MODEL 1
REMARK VINA RESULT:     -10.7      0.000      0.000
REMARK SMILES O=C(OCCOCCOCCOC(=O)[C@H]1C[NH2+]CCN1c1ncc(C(F)(F)F)cc1Cl)c1ccc(-c2c3nc(c(-c4c(F)cc(S(=O)(=O)[O-])cc4F)c4ccc([nH]4)c(-c4c(F)cc(S(=O)(=O)[O-])cc4F)c4nc(c(-c5c(F)cc(S(=O)(=O)[O-])cc5F)c5ccc2[nH]5)C=C4)C=C3)cc1
REMARK SMILES IDX 7 1 6 2 5 3 4 4 3 5 2 6 1 7 32 8 33 9 97 10 34 11 96 12
REMARK SMILES IDX 35 13 36 14 37 15 90 16 38 17 95 18 89 19 91 20 39 21 94 22
REMARK SMILES IDX 88 23 87 24 40 26 74 27 53 28 73 29 54 30 57 31 72 32 92 33
REMARK SMILES IDX 55 34 56 35 71 37 93 38 58 39 41 40 42 41 51 42 43 43 44 44
REMARK SMILES IDX 50 45 52 46 45 47 46 48 47 49 48 50 49 51 75 52 76 53 85 54
REMARK SMILES IDX 77 55 78 56 84 57 86 58 79 59 80 60 81 61 82 62 83 63 59 64
REMARK SMILES IDX 60 65 69 66 61 67 62 68 68 69 70 70 63 71 64 72 65 73 66 74
REMARK SMILES IDX 67 75 8 76 9 77 10 78 11 79 12 80 13 81 14 82 15 83 16 84
REMARK SMILES IDX 20 85 17 86 19 87 18 88 21 91 22 92 30 93 23 94 29 95 31 96
REMARK SMILES IDX 24 97 25 98 26 99 27 100 28 101
REMARK H PARENT 91 25 57 36 17 89 17 90
REMARK Flexibility Score: inf
ROOT
ATOM      1  C   UNL A   1      31.701  29.164  23.629  1.00  0.00     0.188 C 
ENDROOT
BRANCH   1   2
ATOM      2  O   UNL A   1      31.236  29.041  24.978  1.00  0.00    -0.376 OA
BRANCH   2   3
ATOM      3  C   UNL A   1      31.823  29.994  25.875  1.00  0.00     0.202 C 
BRANCH   3   4
ATOM      4  C   UNL A   1      33.324  29.821  26.176  1.00  0.00     0.261 C 
BRANCH   4   5
ATOM      5  O   UNL A   1      33.643  29.828  27.577  1.00  0.00    -0.460 OA
BRANCH   5   6
ATOM      6  C   UNL A   1      34.624  30.504  28.227  1.00  0.00     0.338 C 
ATOM      7  O   UNL A   1      34.361  31.629  28.652  1.00  0.00    -0.246 OA
BRANCH   6   8
ATOM      8  C   UNL A   1      36.012  29.982  28.444  1.00  0.00     0.060 A 
ATOM      9  C   UNL A   1      36.493  29.430  29.630  1.00  0.00     0.016 A 
ATOM     10  C   UNL A   1      36.886  30.014  27.340  1.00  0.00     0.016 A 
ATOM     11  C   UNL A   1      37.815  29.026  29.760  1.00  0.00     0.010 A 
ATOM     12  C   UNL A   1      38.215  29.584  27.452  1.00  0.00     0.010 A 
ATOM     13  C   UNL A   1      38.692  29.137  28.684  1.00  0.00    -0.014 A 
BRANCH  13  14
ATOM     14  C   UNL A   1      40.128  28.961  28.973  1.00  0.00     0.031 A 
ATOM     15  C   UNL A   1      40.776  27.695  28.520  1.00  0.00     0.074 A 
ATOM     16  C   UNL A   1      40.847  29.985  29.463  1.00  0.00     0.049 A 
ATOM     17  N   UNL A   1      42.033  27.354  28.569  1.00  0.00    -0.248 NA
ATOM     18  C   UNL A   1      39.892  26.671  27.937  1.00  0.00     0.031 C 
ATOM     19  C   UNL A   1      40.272  31.250  29.891  1.00  0.00     0.029 A 
ATOM     20  N   UNL A   1      42.194  30.158  29.640  1.00  0.00    -0.354 N 
ATOM     21  C   UNL A   1      42.085  26.060  28.074  1.00  0.00     0.074 A 
ATOM     22  C   UNL A   1      40.739  25.680  27.713  1.00  0.00     0.031 C 
ATOM     23  C   UNL A   1      41.257  32.102  30.209  1.00  0.00     0.029 A 
ATOM     24  C   UNL A   1      42.534  31.432  30.044  1.00  0.00     0.049 A 
ATOM     25  H   UNL A   1      42.855  29.444  29.493  1.00  0.00     0.167 HD
ATOM     26  C   UNL A   1      43.169  25.261  27.967  1.00  0.00     0.037 A 
ATOM     27  C   UNL A   1      43.743  31.987  30.260  1.00  0.00     0.037 A 
ATOM     28  C   UNL A   1      44.488  25.680  28.360  1.00  0.00     0.049 A 
ATOM     29  C   UNL A   1      44.932  31.078  30.123  1.00  0.00     0.074 A 
ATOM     30  C   UNL A   1      45.659  24.950  28.377  1.00  0.00     0.029 A 
ATOM     31  N   UNL A   1      44.803  26.959  28.814  1.00  0.00    -0.354 N 
ATOM     32  N   UNL A   1      44.966  29.830  29.716  1.00  0.00    -0.248 NA
ATOM     33  C   UNL A   1      46.233  31.621  30.524  1.00  0.00     0.031 C 
ATOM     34  C   UNL A   1      46.671  25.770  28.888  1.00  0.00     0.029 A 
ATOM     35  C   UNL A   1      46.148  27.032  29.129  1.00  0.00     0.049 A 
ATOM     36  H   UNL A   1      44.162  27.701  28.899  1.00  0.00     0.167 HD
ATOM     37  C   UNL A   1      46.288  29.428  29.830  1.00  0.00     0.074 A 
ATOM     38  C   UNL A   1      47.030  30.586  30.296  1.00  0.00     0.031 C 
ATOM     39  C   UNL A   1      46.839  28.210  29.598  1.00  0.00     0.037 A 
BRANCH  26  40
ATOM     40  C   UNL A   1      42.927  23.850  27.518  1.00  0.00     0.058 A 
ATOM     41  C   UNL A   1      42.901  23.485  26.162  1.00  0.00     0.135 A 
ATOM     42  C   UNL A   1      42.645  22.854  28.467  1.00  0.00     0.135 A 
ATOM     43  F   UNL A   1      43.120  24.406  25.209  1.00  0.00    -0.206 F 
ATOM     44  C   UNL A   1      42.568  22.194  25.763  1.00  0.00     0.059 A 
ATOM     45  C   UNL A   1      42.340  21.549  28.092  1.00  0.00     0.059 A 
ATOM     46  F   UNL A   1      42.636  23.152  29.776  1.00  0.00    -0.206 F 
ATOM     47  C   UNL A   1      42.286  21.234  26.736  1.00  0.00     0.060 A 
BRANCH  47  48
ATOM     48  S   UNL A   1      41.832  19.569  26.205  1.00  0.00     0.124 S 
ATOM     49  O   UNL A   1      42.646  19.416  25.001  1.00  0.00    -0.237 OA
ATOM     50  O   UNL A   1      42.236  18.758  27.349  1.00  0.00    -0.237 OA
ATOM     51  O   UNL A   1      40.394  19.663  25.982  1.00  0.00    -0.744 OA
ENDBRANCH  47  48
ENDBRANCH  26  40
BRANCH  27  52
ATOM     52  C   UNL A   1      43.884  33.422  30.649  1.00  0.00     0.058 A 
ATOM     53  C   UNL A   1      43.926  34.442  29.684  1.00  0.00     0.135 A 
ATOM     54  C   UNL A   1      43.971  33.815  31.995  1.00  0.00     0.135 A 
ATOM     55  F   UNL A   1      43.859  34.134  28.378  1.00  0.00    -0.206 F 
ATOM     56  C   UNL A   1      44.057  35.785  30.035  1.00  0.00     0.059 A 
ATOM     57  C   UNL A   1      44.059  35.152  32.374  1.00  0.00     0.059 A 
ATOM     58  F   UNL A   1      43.941  32.893  32.970  1.00  0.00    -0.206 F 
ATOM     59  C   UNL A   1      44.117  36.131  31.385  1.00  0.00     0.060 A 
BRANCH  59  60
ATOM     60  S   UNL A   1      44.239  37.876  31.839  1.00  0.00     0.124 S 
ATOM     61  O   UNL A   1      45.661  38.005  32.131  1.00  0.00    -0.237 OA
ATOM     62  O   UNL A   1      43.772  38.541  30.627  1.00  0.00    -0.237 OA
ATOM     63  O   UNL A   1      43.345  37.986  32.989  1.00  0.00    -0.744 OA
ENDBRANCH  59  60
ENDBRANCH  27  52
BRANCH  39  64
ATOM     64  C   UNL A   1      48.315  28.091  29.833  1.00  0.00     0.058 A 
ATOM     65  C   UNL A   1      48.836  27.734  31.085  1.00  0.00     0.135 A 
ATOM     66  C   UNL A   1      49.212  28.305  28.775  1.00  0.00     0.135 A 
ATOM     67  F   UNL A   1      48.014  27.531  32.128  1.00  0.00    -0.206 F 
ATOM     68  C   UNL A   1      50.204  27.622  31.291  1.00  0.00     0.059 A 
ATOM     69  C   UNL A   1      50.582  28.165  28.951  1.00  0.00     0.059 A 
ATOM     70  F   UNL A   1      48.758  28.638  27.558  1.00  0.00    -0.206 F 
ATOM     71  C   UNL A   1      51.069  27.838  30.216  1.00  0.00     0.060 A 
BRANCH  71  72
ATOM     72  S   UNL A   1      52.843  27.664  30.488  1.00  0.00     0.124 S 
ATOM     73  O   UNL A   1      53.144  26.475  29.697  1.00  0.00    -0.237 OA
ATOM     74  O   UNL A   1      53.364  28.923  29.965  1.00  0.00    -0.237 OA
ATOM     75  O   UNL A   1      52.949  27.501  31.934  1.00  0.00    -0.744 OA
ENDBRANCH  71  72
ENDBRANCH  39  64
ENDBRANCH  13  14
ENDBRANCH   6   8
ENDBRANCH   5   6
ENDBRANCH   4   5
ENDBRANCH   3   4
ENDBRANCH   2   3
ENDBRANCH   1   2
BRANCH   1  76
ATOM     76  C   UNL A   1      30.665  28.752  22.586  1.00  0.00     0.188 C 
BRANCH  76  77
ATOM     77  O   UNL A   1      30.460  27.355  22.391  1.00  0.00    -0.376 OA
BRANCH  77  78
ATOM     78  C   UNL A   1      31.582  26.561  22.026  1.00  0.00     0.202 C 
BRANCH  78  79
ATOM     79  C   UNL A   1      31.779  25.226  22.751  1.00  0.00     0.261 C 
BRANCH  79  80
ATOM     80  O   UNL A   1      33.100  24.694  22.650  1.00  0.00    -0.462 OA
BRANCH  80  81
ATOM     81  C   UNL A   1      33.217  23.329  22.703  1.00  0.00     0.334 C 
ATOM     82  O   UNL A   1      32.526  22.561  22.053  1.00  0.00    -0.250 OA
BRANCH  81  83
ATOM     83  C   UNL A   1      34.346  22.896  23.666  1.00  0.00     0.249 C 
ATOM     84  C   UNL A   1      35.067  24.090  24.334  1.00  0.00     0.298 C 
ATOM     85  N   UNL A   1      33.823  22.061  24.754  1.00  0.00    -0.331 N 
ATOM     86  N   UNL A   1      34.232  24.876  25.278  1.00  0.00    -0.343 N 
ATOM     87  C   UNL A   1      32.864  22.699  25.642  1.00  0.00     0.180 C 
ATOM     88  C   UNL A   1      33.520  23.981  26.227  1.00  0.00     0.282 C 
ATOM     89  H   UNL A   1      33.547  25.415  24.749  1.00  0.00     0.346 HD
ATOM     90  H   UNL A   1      34.840  25.498  25.811  1.00  0.00     0.346 HD
BRANCH  85  91
ATOM     91  C   UNL A   1      33.930  20.698  24.663  1.00  0.00     0.148 A 
ATOM     92  N   UNL A   1      32.817  20.003  24.341  1.00  0.00    -0.237 NA
ATOM     93  C   UNL A   1      35.163  20.045  24.838  1.00  0.00     0.084 A 
ATOM     94  C   UNL A   1      32.929  18.667  24.152  1.00  0.00     0.126 A 
ATOM     95  C   UNL A   1      35.250  18.668  24.648  1.00  0.00     0.039 A 
ATOM     96  Cl  UNL A   1      36.605  20.887  25.289  1.00  0.00    -0.080 Cl
ATOM     97  C   UNL A   1      34.111  17.953  24.279  1.00  0.00     0.075 A 
BRANCH  97  98
ATOM     98  C   UNL A   1      34.139  16.488  23.993  1.00  0.00     0.417 C 
ATOM     99  F   UNL A   1      34.429  16.200  22.695  1.00  0.00    -0.166 F 
ATOM    100  F   UNL A   1      35.080  15.837  24.734  1.00  0.00    -0.166 F 
ATOM    101  F   UNL A   1      32.963  15.856  24.263  1.00  0.00    -0.166 F 
ENDBRANCH  97  98
ENDBRANCH  85  91
ENDBRANCH  81  83
ENDBRANCH  80  81
ENDBRANCH  79  80
ENDBRANCH  78  79
ENDBRANCH  77  78
ENDBRANCH  76  77
ENDBRANCH   1  76
TORSDOF 22
ENDMDL
MODEL 2
REMARK VINA RESULT:     -10.2      2.662      8.127
REMARK SMILES O=C(OCCOCCOCCOC(=O)[C@H]1C[NH2+]CCN1c1ncc(C(F)(F)F)cc1Cl)c1ccc(-c2c3nc(c(-c4c(F)cc(S(=O)(=O)[O-])cc4F)c4ccc([nH]4)c(-c4c(F)cc(S(=O)(=O)[O-])cc4F)c4nc(c(-c5c(F)cc(S(=O)(=O)[O-])cc5F)c5ccc2[nH]5)C=C4)C=C3)cc1
REMARK SMILES IDX 7 1 6 2 5 3 4 4 3 5 2 6 1 7 32 8 33 9 97 10 34 11 96 12
REMARK SMILES IDX 35 13 36 14 37 15 90 16 38 17 95 18 89 19 91 20 39 21 94 22
REMARK SMILES IDX 88 23 87 24 40 26 74 27 53 28 73 29 54 30 57 31 72 32 92 33
REMARK SMILES IDX 55 34 56 35 71 37 93 38 58 39 41 40 42 41 51 42 43 43 44 44
REMARK SMILES IDX 50 45 52 46 45 47 46 48 47 49 48 50 49 51 75 52 76 53 85 54
REMARK SMILES IDX 77 55 78 56 84 57 86 58 79 59 80 60 81 61 82 62 83 63 59 64
REMARK SMILES IDX 60 65 69 66 61 67 62 68 68 69 70 70 63 71 64 72 65 73 66 74
REMARK SMILES IDX 67 75 8 76 9 77 10 78 11 79 12 80 13 81 14 82 15 83 16 84
REMARK SMILES IDX 20 85 17 86 19 87 18 88 21 91 22 92 30 93 23 94 29 95 31 96
REMARK SMILES IDX 24 97 25 98 26 99 27 100 28 101
REMARK H PARENT 91 25 57 36 17 89 17 90
REMARK Flexibility Score: inf
ROOT
ATOM      1  C   UNL A   1      31.816  28.964  23.542  1.00  0.00     0.188 C 
ENDROOT
BRANCH   1   2
ATOM      2  O   UNL A   1      31.909  28.401  24.855  1.00  0.00    -0.376 OA
BRANCH   2   3
ATOM      3  C   UNL A   1      31.595  29.332  25.900  1.00  0.00     0.202 C 
BRANCH   3   4
ATOM      4  C   UNL A   1      32.658  30.403  26.208  1.00  0.00     0.261 C 
BRANCH   4   5
ATOM      5  O   UNL A   1      33.757  29.924  27.001  1.00  0.00    -0.460 OA
BRANCH   5   6
ATOM      6  C   UNL A   1      34.651  30.629  27.738  1.00  0.00     0.338 C 
ATOM      7  O   UNL A   1      34.366  31.792  28.028  1.00  0.00    -0.246 OA
BRANCH   6   8
ATOM      8  C   UNL A   1      35.972  30.097  28.205  1.00  0.00     0.060 A 
ATOM      9  C   UNL A   1      36.194  29.421  29.403  1.00  0.00     0.016 A 
ATOM     10  C   UNL A   1      37.068  30.257  27.335  1.00  0.00     0.016 A 
ATOM     11  C   UNL A   1      37.466  29.015  29.784  1.00  0.00     0.010 A 
ATOM     12  C   UNL A   1      38.352  29.828  27.697  1.00  0.00     0.010 A 
ATOM     13  C   UNL A   1      38.557  29.250  28.950  1.00  0.00    -0.014 A 
BRANCH  13  14
ATOM     14  C   UNL A   1      39.897  29.054  29.535  1.00  0.00     0.031 A 
ATOM     15  C   UNL A   1      40.211  29.770  30.806  1.00  0.00     0.074 A 
ATOM     16  C   UNL A   1      40.723  28.123  29.028  1.00  0.00     0.049 A 
ATOM     17  N   UNL A   1      41.272  29.683  31.556  1.00  0.00    -0.248 NA
ATOM     18  C   UNL A   1      39.196  30.718  31.298  1.00  0.00     0.031 C 
ATOM     19  C   UNL A   1      40.455  27.374  27.810  1.00  0.00     0.029 A 
ATOM     20  N   UNL A   1      41.912  27.610  29.476  1.00  0.00    -0.354 N 
ATOM     21  C   UNL A   1      41.080  30.599  32.579  1.00  0.00     0.074 A 
ATOM     22  C   UNL A   1      39.793  31.221  32.366  1.00  0.00     0.031 C 
ATOM     23  C   UNL A   1      41.403  26.442  27.643  1.00  0.00     0.029 A 
ATOM     24  C   UNL A   1      42.370  26.552  28.721  1.00  0.00     0.049 A 
ATOM     25  H   UNL A   1      42.391  27.962  30.260  1.00  0.00     0.167 HD
ATOM     26  C   UNL A   1      41.929  30.904  33.584  1.00  0.00     0.037 A 
ATOM     27  C   UNL A   1      43.453  25.767  28.883  1.00  0.00     0.037 A 
ATOM     28  C   UNL A   1      43.210  30.268  33.742  1.00  0.00     0.049 A 
ATOM     29  C   UNL A   1      44.375  26.121  30.015  1.00  0.00     0.074 A 
ATOM     30  C   UNL A   1      44.200  30.534  34.667  1.00  0.00     0.029 A 
ATOM     31  N   UNL A   1      43.677  29.233  32.936  1.00  0.00    -0.354 N 
ATOM     32  N   UNL A   1      44.217  27.037  30.944  1.00  0.00    -0.248 NA
ATOM     33  C   UNL A   1      45.642  25.388  30.097  1.00  0.00     0.031 C 
ATOM     34  C   UNL A   1      45.285  29.695  34.389  1.00  0.00     0.029 A 
ATOM     35  C   UNL A   1      44.949  28.861  33.333  1.00  0.00     0.049 A 
ATOM     36  H   UNL A   1      43.176  28.827  32.192  1.00  0.00     0.167 HD
ATOM     37  C   UNL A   1      45.372  27.006  31.710  1.00  0.00     0.074 A 
ATOM     38  C   UNL A   1      46.198  25.943  31.165  1.00  0.00     0.031 C 
ATOM     39  C   UNL A   1      45.734  27.797  32.750  1.00  0.00     0.037 A 
BRANCH  26  40
ATOM     40  C   UNL A   1      41.529  32.033  34.488  1.00  0.00     0.058 A 
ATOM     41  C   UNL A   1      40.813  31.827  35.678  1.00  0.00     0.135 A 
ATOM     42  C   UNL A   1      41.810  33.358  34.116  1.00  0.00     0.135 A 
ATOM     43  F   UNL A   1      40.478  30.584  36.060  1.00  0.00    -0.206 F 
ATOM     44  C   UNL A   1      40.358  32.895  36.447  1.00  0.00     0.059 A 
ATOM     45  C   UNL A   1      41.392  34.439  34.885  1.00  0.00     0.059 A 
ATOM     46  F   UNL A   1      42.473  33.614  32.978  1.00  0.00    -0.206 F 
ATOM     47  C   UNL A   1      40.650  34.198  36.039  1.00  0.00     0.060 A 
BRANCH  47  48
ATOM     48  S   UNL A   1      40.034  35.574  37.032  1.00  0.00     0.124 S 
ATOM     49  O   UNL A   1      39.668  36.538  35.999  1.00  0.00    -0.237 OA
ATOM     50  O   UNL A   1      38.920  34.963  37.751  1.00  0.00    -0.237 OA
ATOM     51  O   UNL A   1      41.182  35.941  37.855  1.00  0.00    -0.744 OA
ENDBRANCH  47  48
ENDBRANCH  26  40
BRANCH  27  52
ATOM     52  C   UNL A   1      43.736  24.626  27.961  1.00  0.00     0.058 A 
ATOM     53  C   UNL A   1      44.664  24.743  26.913  1.00  0.00     0.135 A 
ATOM     54  C   UNL A   1      43.093  23.385  28.107  1.00  0.00     0.135 A 
ATOM     55  F   UNL A   1      45.306  25.905  26.711  1.00  0.00    -0.206 F 
ATOM     56  C   UNL A   1      44.937  23.684  26.047  1.00  0.00     0.059 A 
ATOM     57  C   UNL A   1      43.378  22.299  27.283  1.00  0.00     0.059 A 
ATOM     58  F   UNL A   1      42.191  23.204  29.084  1.00  0.00    -0.206 F 
ATOM     59  C   UNL A   1      44.291  22.462  26.244  1.00  0.00     0.060 A 
BRANCH  59  60
ATOM     60  S   UNL A   1      44.681  21.079  25.149  1.00  0.00     0.124 S 
ATOM     61  O   UNL A   1      44.368  21.641  23.842  1.00  0.00    -0.237 OA
ATOM     62  O   UNL A   1      46.096  20.855  25.428  1.00  0.00    -0.237 OA
ATOM     63  O   UNL A   1      43.785  20.023  25.614  1.00  0.00    -0.744 OA
ENDBRANCH  59  60
ENDBRANCH  27  52
BRANCH  39  64
ATOM     64  C   UNL A   1      47.072  27.518  33.366  1.00  0.00     0.058 A 
ATOM     65  C   UNL A   1      47.225  26.592  34.408  1.00  0.00     0.135 A 
ATOM     66  C   UNL A   1      48.218  28.164  32.877  1.00  0.00     0.135 A 
ATOM     67  F   UNL A   1      46.154  25.958  34.914  1.00  0.00    -0.206 F 
ATOM     68  C   UNL A   1      48.470  26.337  34.969  1.00  0.00     0.059 A 
ATOM     69  C   UNL A   1      49.476  27.899  33.401  1.00  0.00     0.059 A 
ATOM     70  F   UNL A   1      48.120  29.050  31.874  1.00  0.00    -0.206 F 
ATOM     71  C   UNL A   1      49.589  26.995  34.456  1.00  0.00     0.060 A 
BRANCH  71  72
ATOM     72  S   UNL A   1      51.204  26.637  35.174  1.00  0.00     0.124 S 
ATOM     73  O   UNL A   1      52.063  26.678  33.995  1.00  0.00    -0.237 OA
ATOM     74  O   UNL A   1      51.374  27.733  36.122  1.00  0.00    -0.237 OA
ATOM     75  O   UNL A   1      51.023  25.319  35.774  1.00  0.00    -0.744 OA
ENDBRANCH  71  72
ENDBRANCH  39  64
ENDBRANCH  13  14
ENDBRANCH   6   8
ENDBRANCH   5   6
ENDBRANCH   4   5
ENDBRANCH   3   4
ENDBRANCH   2   3
ENDBRANCH   1   2
BRANCH   1  76
ATOM     76  C   UNL A   1      30.571  28.523  22.774  1.00  0.00     0.188 C 
BRANCH  76  77
ATOM     77  O   UNL A   1      30.658  27.302  22.043  1.00  0.00    -0.376 OA
BRANCH  77  78
ATOM     78  C   UNL A   1      31.918  26.645  21.989  1.00  0.00     0.202 C 
BRANCH  78  79
ATOM     79  C   UNL A   1      32.038  25.275  22.663  1.00  0.00     0.261 C 
BRANCH  79  80
ATOM     80  O   UNL A   1      33.344  24.701  22.596  1.00  0.00    -0.462 OA
BRANCH  80  81
ATOM     81  C   UNL A   1      33.417  23.335  22.675  1.00  0.00     0.334 C 
ATOM     82  O   UNL A   1      32.722  22.576  22.020  1.00  0.00    -0.250 OA
BRANCH  81  83
ATOM     83  C   UNL A   1      34.506  22.885  23.677  1.00  0.00     0.249 C 
ATOM     84  C   UNL A   1      35.238  24.069  24.351  1.00  0.00     0.298 C 
ATOM     85  N   UNL A   1      33.930  22.078  24.759  1.00  0.00    -0.331 N 
ATOM     86  N   UNL A   1      34.397  24.889  25.260  1.00  0.00    -0.343 N 
ATOM     87  C   UNL A   1      32.962  22.753  25.611  1.00  0.00     0.180 C 
ATOM     88  C   UNL A   1      33.633  24.025  26.199  1.00  0.00     0.282 C 
ATOM     89  H   UNL A   1      33.742  25.438  24.704  1.00  0.00     0.346 HD
ATOM     90  H   UNL A   1      35.005  25.501  25.803  1.00  0.00     0.346 HD
BRANCH  85  91
ATOM     91  C   UNL A   1      34.004  20.712  24.689  1.00  0.00     0.148 A 
ATOM     92  N   UNL A   1      32.870  20.039  24.395  1.00  0.00    -0.237 NA
ATOM     93  C   UNL A   1      35.224  20.034  24.855  1.00  0.00     0.084 A 
ATOM     94  C   UNL A   1      32.948  18.697  24.225  1.00  0.00     0.126 A 
ATOM     95  C   UNL A   1      35.276  18.651  24.686  1.00  0.00     0.039 A 
ATOM     96  Cl  UNL A   1      36.692  20.848  25.270  1.00  0.00    -0.080 Cl
ATOM     97  C   UNL A   1      34.115  17.958  24.346  1.00  0.00     0.075 A 
BRANCH  97  98
ATOM     98  C   UNL A   1      34.105  16.488  24.083  1.00  0.00     0.417 C 
ATOM     99  F   UNL A   1      35.020  15.805  24.821  1.00  0.00    -0.166 F 
ATOM    100  F   UNL A   1      32.899  15.921  24.372  1.00  0.00    -0.166 F 
ATOM    101  F   UNL A   1      34.355  16.165  22.783  1.00  0.00    -0.166 F 
ENDBRANCH  97  98
ENDBRANCH  85  91
ENDBRANCH  81  83
ENDBRANCH  80  81
ENDBRANCH  79  80
ENDBRANCH  78  79
ENDBRANCH  77  78
ENDBRANCH  76  77
ENDBRANCH   1  76
TORSDOF 22
ENDMDL
MODEL 3
REMARK VINA RESULT:     -10.2      4.838      9.390
REMARK SMILES O=C(OCCOCCOCCOC(=O)[C@H]1C[NH2+]CCN1c1ncc(C(F)(F)F)cc1Cl)c1ccc(-c2c3nc(c(-c4c(F)cc(S(=O)(=O)[O-])cc4F)c4ccc([nH]4)c(-c4c(F)cc(S(=O)(=O)[O-])cc4F)c4nc(c(-c5c(F)cc(S(=O)(=O)[O-])cc5F)c5ccc2[nH]5)C=C4)C=C3)cc1
REMARK SMILES IDX 7 1 6 2 5 3 4 4 3 5 2 6 1 7 32 8 33 9 97 10 34 11 96 12
REMARK SMILES IDX 35 13 36 14 37 15 90 16 38 17 95 18 89 19 91 20 39 21 94 22
REMARK SMILES IDX 88 23 87 24 40 26 74 27 53 28 73 29 54 30 57 31 72 32 92 33
REMARK SMILES IDX 55 34 56 35 71 37 93 38 58 39 41 40 42 41 51 42 43 43 44 44
REMARK SMILES IDX 50 45 52 46 45 47 46 48 47 49 48 50 49 51 75 52 76 53 85 54
REMARK SMILES IDX 77 55 78 56 84 57 86 58 79 59 80 60 81 61 82 62 83 63 59 64
REMARK SMILES IDX 60 65 69 66 61 67 62 68 68 69 70 70 63 71 64 72 65 73 66 74
REMARK SMILES IDX 67 75 8 76 9 77 10 78 11 79 12 80 13 81 14 82 15 83 16 84
REMARK SMILES IDX 20 85 17 86 19 87 18 88 21 91 22 92 30 93 23 94 29 95 31 96
REMARK SMILES IDX 24 97 25 98 26 99 27 100 28 101
REMARK H PARENT 91 25 57 36 17 89 17 90
REMARK Flexibility Score: inf
ROOT
ATOM      1  C   UNL A   1      40.295  21.830  27.175  1.00  0.00     0.188 C 
ENDROOT
BRANCH   1   2
ATOM      2  O   UNL A   1      41.108  20.972  26.366  1.00  0.00    -0.376 OA
BRANCH   2   3
ATOM      3  C   UNL A   1      42.459  21.431  26.223  1.00  0.00     0.202 C 
BRANCH   3   4
ATOM      4  C   UNL A   1      42.665  22.712  25.394  1.00  0.00     0.261 C 
BRANCH   4   5
ATOM      5  O   UNL A   1      42.857  23.896  26.186  1.00  0.00    -0.460 OA
BRANCH   5   6
ATOM      6  C   UNL A   1      42.428  25.161  25.951  1.00  0.00     0.338 C 
ATOM      7  O   UNL A   1      42.493  25.585  24.797  1.00  0.00    -0.246 OA
BRANCH   6   8
ATOM      8  C   UNL A   1      41.900  26.086  27.006  1.00  0.00     0.060 A 
ATOM      9  C   UNL A   1      42.204  27.441  27.120  1.00  0.00     0.016 A 
ATOM     10  C   UNL A   1      40.985  25.545  27.930  1.00  0.00     0.016 A 
ATOM     11  C   UNL A   1      41.716  28.210  28.168  1.00  0.00     0.010 A 
ATOM     12  C   UNL A   1      40.464  26.318  28.976  1.00  0.00     0.010 A 
ATOM     13  C   UNL A   1      40.874  27.643  29.122  1.00  0.00    -0.014 A 
BRANCH  13  14
ATOM     14  C   UNL A   1      40.629  28.430  30.346  1.00  0.00     0.031 A 
ATOM     15  C   UNL A   1      41.635  28.337  31.444  1.00  0.00     0.074 A 
ATOM     16  C   UNL A   1      39.630  29.328  30.380  1.00  0.00     0.049 A 
ATOM     17  N   UNL A   1      41.692  29.000  32.564  1.00  0.00    -0.248 NA
ATOM     18  C   UNL A   1      42.724  27.361  31.262  1.00  0.00     0.031 C 
ATOM     19  C   UNL A   1      38.639  29.483  29.326  1.00  0.00     0.029 A 
ATOM     20  N   UNL A   1      39.302  30.302  31.286  1.00  0.00    -0.354 N 
ATOM     21  C   UNL A   1      42.786  28.489  33.243  1.00  0.00     0.074 A 
ATOM     22  C   UNL A   1      43.379  27.472  32.405  1.00  0.00     0.031 C 
ATOM     23  C   UNL A   1      37.860  30.539  29.599  1.00  0.00     0.029 A 
ATOM     24  C   UNL A   1      38.270  31.114  30.868  1.00  0.00     0.049 A 
ATOM     25  H   UNL A   1      39.759  30.411  32.151  1.00  0.00     0.167 HD
ATOM     26  C   UNL A   1      43.227  28.830  34.474  1.00  0.00     0.037 A 
ATOM     27  C   UNL A   1      37.717  32.195  31.452  1.00  0.00     0.037 A 
ATOM     28  C   UNL A   1      42.589  29.838  35.278  1.00  0.00     0.049 A 
ATOM     29  C   UNL A   1      38.233  32.559  32.815  1.00  0.00     0.074 A 
ATOM     30  C   UNL A   1      42.882  30.228  36.569  1.00  0.00     0.029 A 
ATOM     31  N   UNL A   1      41.513  30.614  34.856  1.00  0.00    -0.354 N 
ATOM     32  N   UNL A   1      39.232  32.026  33.482  1.00  0.00    -0.248 NA
ATOM     33  C   UNL A   1      37.525  33.623  33.533  1.00  0.00     0.031 C 
ATOM     34  C   UNL A   1      41.953  31.204  36.945  1.00  0.00     0.029 A 
ATOM     35  C   UNL A   1      41.120  31.471  35.868  1.00  0.00     0.049 A 
ATOM     36  H   UNL A   1      41.093  30.560  33.967  1.00  0.00     0.167 HD
ATOM     37  C   UNL A   1      39.260  32.673  34.707  1.00  0.00     0.074 A 
ATOM     38  C   UNL A   1      38.210  33.675  34.667  1.00  0.00     0.031 C 
ATOM     39  C   UNL A   1      40.060  32.447  35.780  1.00  0.00     0.037 A 
BRANCH  26  40
ATOM     40  C   UNL A   1      44.364  28.025  35.032  1.00  0.00     0.058 A 
ATOM     41  C   UNL A   1      45.708  28.354  34.794  1.00  0.00     0.135 A 
ATOM     42  C   UNL A   1      44.098  26.856  35.764  1.00  0.00     0.135 A 
ATOM     43  F   UNL A   1      46.020  29.436  34.062  1.00  0.00    -0.206 F 
ATOM     44  C   UNL A   1      46.746  27.535  35.229  1.00  0.00     0.059 A 
ATOM     45  C   UNL A   1      45.120  26.039  36.236  1.00  0.00     0.059 A 
ATOM     46  F   UNL A   1      42.831  26.482  36.003  1.00  0.00    -0.206 F 
ATOM     47  C   UNL A   1      46.440  26.377  35.947  1.00  0.00     0.060 A 
BRANCH  47  48
ATOM     48  S   UNL A   1      47.794  25.311  36.486  1.00  0.00     0.124 S 
ATOM     49  O   UNL A   1      48.708  25.404  35.351  1.00  0.00    -0.237 OA
ATOM     50  O   UNL A   1      48.237  25.968  37.711  1.00  0.00    -0.237 OA
ATOM     51  O   UNL A   1      47.153  24.013  36.670  1.00  0.00    -0.744 OA
ENDBRANCH  47  48
ENDBRANCH  26  40
BRANCH  27  52
ATOM     52  C   UNL A   1      36.625  32.969  30.787  1.00  0.00     0.058 A 
ATOM     53  C   UNL A   1      35.293  32.879  31.224  1.00  0.00     0.135 A 
ATOM     54  C   UNL A   1      36.884  33.825  29.703  1.00  0.00     0.135 A 
ATOM     55  F   UNL A   1      34.975  32.071  32.248  1.00  0.00    -0.206 F 
ATOM     56  C   UNL A   1      34.266  33.598  30.612  1.00  0.00     0.059 A 
ATOM     57  C   UNL A   1      35.884  34.586  29.103  1.00  0.00     0.059 A 
ATOM     58  F   UNL A   1      38.134  33.956  29.231  1.00  0.00    -0.206 F 
ATOM     59  C   UNL A   1      34.573  34.454  29.554  1.00  0.00     0.060 A 
BRANCH  59  60
ATOM     60  S   UNL A   1      33.248  35.418  28.794  1.00  0.00     0.124 S 
ATOM     61  O   UNL A   1      32.542  35.923  29.965  1.00  0.00    -0.237 OA
ATOM     62  O   UNL A   1      33.993  36.406  28.019  1.00  0.00    -0.237 OA
ATOM     63  O   UNL A   1      32.526  34.426  28.000  1.00  0.00    -0.744 OA
ENDBRANCH  59  60
ENDBRANCH  27  52
BRANCH  39  64
ATOM     64  C   UNL A   1      39.828  33.318  36.978  1.00  0.00     0.058 A 
ATOM     65  C   UNL A   1      40.596  34.468  37.212  1.00  0.00     0.135 A 
ATOM     66  C   UNL A   1      38.800  33.009  37.882  1.00  0.00     0.135 A 
ATOM     67  F   UNL A   1      41.597  34.796  36.379  1.00  0.00    -0.206 F 
ATOM     68  C   UNL A   1      40.371  35.271  38.323  1.00  0.00     0.059 A 
ATOM     69  C   UNL A   1      38.537  33.816  38.980  1.00  0.00     0.059 A 
ATOM     70  F   UNL A   1      38.035  31.923  37.692  1.00  0.00    -0.206 F 
ATOM     71  C   UNL A   1      39.337  34.936  39.201  1.00  0.00     0.060 A 
BRANCH  71  72
ATOM     72  S   UNL A   1      39.037  35.999  40.626  1.00  0.00     0.124 S 
ATOM     73  O   UNL A   1      40.372  36.091  41.207  1.00  0.00    -0.237 OA
ATOM     74  O   UNL A   1      38.530  37.218  40.003  1.00  0.00    -0.237 OA
ATOM     75  O   UNL A   1      38.061  35.248  41.409  1.00  0.00    -0.744 OA
ENDBRANCH  71  72
ENDBRANCH  39  64
ENDBRANCH  13  14
ENDBRANCH   6   8
ENDBRANCH   5   6
ENDBRANCH   4   5
ENDBRANCH   3   4
ENDBRANCH   2   3
ENDBRANCH   1   2
BRANCH   1  76
ATOM     76  C   UNL A   1      39.122  22.451  26.419  1.00  0.00     0.188 C 
BRANCH  76  77
ATOM     77  O   UNL A   1      38.538  21.676  25.375  1.00  0.00    -0.376 OA
BRANCH  77  78
ATOM     78  C   UNL A   1      37.161  21.881  25.083  1.00  0.00     0.202 C 
BRANCH  78  79
ATOM     79  C   UNL A   1      36.800  22.970  24.069  1.00  0.00     0.261 C 
BRANCH  79  80
ATOM     80  O   UNL A   1      35.630  22.689  23.299  1.00  0.00    -0.462 OA
BRANCH  80  81
ATOM     81  C   UNL A   1      34.583  23.564  23.434  1.00  0.00     0.334 C 
ATOM     82  O   UNL A   1      34.371  24.494  22.673  1.00  0.00    -0.250 OA
BRANCH  81  83
ATOM     83  C   UNL A   1      33.701  23.204  24.652  1.00  0.00     0.249 C 
ATOM     84  C   UNL A   1      33.087  24.443  25.344  1.00  0.00     0.298 C 
ATOM     85  N   UNL A   1      32.578  22.345  24.257  1.00  0.00    -0.331 N 
ATOM     86  N   UNL A   1      32.088  25.183  24.532  1.00  0.00    -0.343 N 
ATOM     87  C   UNL A   1      31.626  22.930  23.326  1.00  0.00     0.180 C 
ATOM     88  C   UNL A   1      31.090  24.252  23.943  1.00  0.00     0.282 C 
ATOM     89  H   UNL A   1      32.568  25.677  23.780  1.00  0.00     0.346 HD
ATOM     90  H   UNL A   1      31.600  25.843  25.138  1.00  0.00     0.346 HD
BRANCH  85  91
ATOM     91  C   UNL A   1      32.674  20.991  24.440  1.00  0.00     0.148 A 
ATOM     92  N   UNL A   1      32.451  20.199  23.368  1.00  0.00    -0.237 NA
ATOM     93  C   UNL A   1      33.049  20.442  25.679  1.00  0.00     0.084 A 
ATOM     94  C   UNL A   1      32.639  18.865  23.508  1.00  0.00     0.126 A 
ATOM     95  C   UNL A   1      33.224  19.064  25.800  1.00  0.00     0.039 A 
ATOM     96  Cl  UNL A   1      33.305  21.412  27.086  1.00  0.00    -0.080 Cl
ATOM     97  C   UNL A   1      33.032  18.248  24.686  1.00  0.00     0.075 A 
BRANCH  97  98
ATOM     98  C   UNL A   1      33.266  16.773  24.722  1.00  0.00     0.417 C 
ATOM     99  F   UNL A   1      33.259  16.199  23.489  1.00  0.00    -0.166 F 
ATOM    100  F   UNL A   1      34.473  16.456  25.270  1.00  0.00    -0.166 F 
ATOM    101  F   UNL A   1      32.343  16.092  25.458  1.00  0.00    -0.166 F 
ENDBRANCH  97  98
ENDBRANCH  85  91
ENDBRANCH  81  83
ENDBRANCH  80  81
ENDBRANCH  79  80
ENDBRANCH  78  79
ENDBRANCH  77  78
ENDBRANCH  76  77
ENDBRANCH   1  76
TORSDOF 22
ENDMDL
