MODEL 1
REMARK VINA RESULT:      -9.4      0.000      0.000
REMARK SMILES CC[C@@](O)(C(=O)OCCOCCOCCOC(=O)c1ccc(-c2c3nc(c(-c4c(F)cc(S(=O)(=O)[O-])cc4F)c4ccc([nH]4)c(-c4c(F)cc(S(=O)(=O)[O-])cc4F)c4nc(c(-c5c(F)cc(S(=O)(=O)[O-])cc5F)c5ccc2[nH]5)C=C4)C=C3)cc1)[C@@H](C)c1ccc(OC)c(OC)c1
REMARK SMILES IDX 11 1 10 2 9 3 8 4 7 5 5 6 6 7 3 8 2 9 1 10 4 11 85 13 86 14
REMARK SMILES IDX 87 15 88 16 96 17 89 18 93 19 90 20 94 21 95 22 91 23 92 24
REMARK SMILES IDX 12 25 13 26 14 27 15 28 16 29 17 30 18 31 19 32 20 33 84 34
REMARK SMILES IDX 21 35 83 36 22 37 23 38 24 39 77 40 25 41 82 42 76 43 78 44
REMARK SMILES IDX 26 45 81 46 75 47 74 48 27 50 61 51 40 52 60 53 41 54 44 55
REMARK SMILES IDX 59 56 79 57 42 58 43 59 58 61 80 62 45 63 28 64 29 65 38 66
REMARK SMILES IDX 30 67 31 68 37 69 39 70 32 71 33 72 34 73 35 74 36 75 62 76
REMARK SMILES IDX 63 77 72 78 64 79 65 80 71 81 73 82 66 83 67 84 68 85 69 86
REMARK SMILES IDX 70 87 46 88 47 89 56 90 48 91 49 92 55 93 57 94 50 95 51 96
REMARK SMILES IDX 52 97 53 98 54 99
REMARK H PARENT 4 12 78 49 44 60
REMARK Flexibility Score: inf
ROOT
ATOM      1  C   UNL A   1      40.917  19.881  26.493  1.00  0.00     0.188 C 
ENDROOT
BRANCH   1   2
ATOM      2  O   UNL A   1      40.144  19.083  25.606  1.00  0.00    -0.376 OA
BRANCH   2   3
ATOM      3  C   UNL A   1      38.761  19.430  25.498  1.00  0.00     0.202 C 
BRANCH   3   4
ATOM      4  C   UNL A   1      38.464  20.870  25.050  1.00  0.00     0.261 C 
BRANCH   4   5
ATOM      5  O   UNL A   1      37.542  21.550  25.930  1.00  0.00    -0.461 OA
BRANCH   5   6
ATOM      6  C   UNL A   1      36.236  21.607  25.534  1.00  0.00     0.338 C 
ATOM      7  O   UNL A   1      35.690  20.752  24.843  1.00  0.00    -0.249 OA
BRANCH   6   8
ATOM      8  C   UNL A   1      35.507  22.925  25.957  1.00  0.00     0.168 C 
BRANCH   8   9
ATOM      9  C   UNL A   1      34.182  22.602  26.697  1.00  0.00     0.044 C 
ATOM     10  C   UNL A   1      32.971  22.241  25.853  1.00  0.00     0.007 C 
ENDBRANCH   8   9
BRANCH   8  11
ATOM     11  O   UNL A   1      36.453  23.464  26.913  1.00  0.00    -0.378 OA
ATOM     12  H   UNL A   1      36.429  22.936  27.725  1.00  0.00     0.212 HD
ENDBRANCH   8  11
BRANCH   8  13
ATOM     13  C   UNL A   1      35.392  23.878  24.687  1.00  0.00     0.059 C 
ATOM     14  C   UNL A   1      35.282  23.059  23.383  1.00  0.00     0.016 C 
BRANCH  13  15
ATOM     15  C   UNL A   1      34.329  24.992  24.640  1.00  0.00    -0.038 A 
ATOM     16  C   UNL A   1      33.382  24.998  23.602  1.00  0.00     0.008 A 
ATOM     17  C   UNL A   1      34.227  26.021  25.582  1.00  0.00     0.054 A 
ATOM     18  C   UNL A   1      32.342  25.934  23.572  1.00  0.00     0.051 A 
ATOM     19  C   UNL A   1      33.159  26.937  25.596  1.00  0.00     0.160 A 
ATOM     20  C   UNL A   1      32.203  26.894  24.577  1.00  0.00     0.160 A 
BRANCH  19  21
ATOM     21  O   UNL A   1      33.084  27.905  26.567  1.00  0.00    -0.493 OA
ATOM     22  C   UNL A   1      34.315  28.573  26.838  1.00  0.00     0.278 C 
ENDBRANCH  19  21
BRANCH  20  23
ATOM     23  O   UNL A   1      31.106  27.698  24.405  1.00  0.00    -0.493 OA
ATOM     24  C   UNL A   1      29.945  27.121  23.827  1.00  0.00     0.278 C 
ENDBRANCH  20  23
ENDBRANCH  13  15
ENDBRANCH   8  13
ENDBRANCH   6   8
ENDBRANCH   5   6
ENDBRANCH   4   5
ENDBRANCH   3   4
ENDBRANCH   2   3
ENDBRANCH   1   2
BRANCH   1  25
ATOM     25  C   UNL A   1      42.364  20.136  26.066  1.00  0.00     0.188 C 
BRANCH  25  26
ATOM     26  O   UNL A   1      42.825  21.463  26.299  1.00  0.00    -0.376 OA
BRANCH  26  27
ATOM     27  C   UNL A   1      41.811  22.464  26.438  1.00  0.00     0.202 C 
BRANCH  27  28
ATOM     28  C   UNL A   1      42.302  23.925  26.463  1.00  0.00     0.261 C 
BRANCH  28  29
ATOM     29  O   UNL A   1      41.392  24.858  25.847  1.00  0.00    -0.460 OA
BRANCH  29  30
ATOM     30  C   UNL A   1      40.168  24.988  26.422  1.00  0.00     0.338 C 
ATOM     31  O   UNL A   1      39.193  24.308  26.192  1.00  0.00    -0.246 OA
BRANCH  30  32
ATOM     32  C   UNL A   1      40.290  25.927  27.572  1.00  0.00     0.060 A 
ATOM     33  C   UNL A   1      39.404  25.765  28.646  1.00  0.00     0.016 A 
ATOM     34  C   UNL A   1      41.287  26.906  27.637  1.00  0.00     0.016 A 
ATOM     35  C   UNL A   1      39.481  26.608  29.759  1.00  0.00     0.010 A 
ATOM     36  C   UNL A   1      41.358  27.757  28.747  1.00  0.00     0.010 A 
ATOM     37  C   UNL A   1      40.434  27.634  29.799  1.00  0.00    -0.014 A 
BRANCH  37  38
ATOM     38  C   UNL A   1      40.325  28.707  30.823  1.00  0.00     0.031 A 
ATOM     39  C   UNL A   1      41.237  28.637  32.021  1.00  0.00     0.074 A 
ATOM     40  C   UNL A   1      39.464  29.733  30.701  1.00  0.00     0.049 A 
ATOM     41  N   UNL A   1      41.310  29.430  33.058  1.00  0.00    -0.248 NA
ATOM     42  C   UNL A   1      42.198  27.522  32.045  1.00  0.00     0.031 C 
ATOM     43  C   UNL A   1      38.556  29.954  29.577  1.00  0.00     0.029 A 
ATOM     44  N   UNL A   1      39.212  30.787  31.548  1.00  0.00    -0.354 N 
ATOM     45  C   UNL A   1      42.321  28.911  33.858  1.00  0.00     0.074 A 
ATOM     46  C   UNL A   1      42.815  27.722  33.200  1.00  0.00     0.031 C 
ATOM     47  C   UNL A   1      37.840  31.069  29.809  1.00  0.00     0.029 A 
ATOM     48  C   UNL A   1      38.214  31.626  31.110  1.00  0.00     0.049 A 
ATOM     49  H   UNL A   1      39.701  30.928  32.390  1.00  0.00     0.167 HD
ATOM     50  C   UNL A   1      42.803  29.384  35.032  1.00  0.00     0.037 A 
ATOM     51  C   UNL A   1      37.655  32.703  31.700  1.00  0.00     0.037 A 
ATOM     52  C   UNL A   1      42.314  30.561  35.698  1.00  0.00     0.049 A 
ATOM     53  C   UNL A   1      38.148  33.159  33.053  1.00  0.00     0.074 A 
ATOM     54  C   UNL A   1      42.751  31.117  36.888  1.00  0.00     0.029 A 
ATOM     55  N   UNL A   1      41.274  31.356  35.242  1.00  0.00    -0.354 N 
ATOM     56  N   UNL A   1      39.120  32.673  33.788  1.00  0.00    -0.248 NA
ATOM     57  C   UNL A   1      37.463  34.312  33.660  1.00  0.00     0.031 C 
ATOM     58  C   UNL A   1      41.942  32.220  37.178  1.00  0.00     0.029 A 
ATOM     59  C   UNL A   1      41.037  32.382  36.142  1.00  0.00     0.049 A 
ATOM     60  H   UNL A   1      40.779  31.213  34.405  1.00  0.00     0.167 HD
ATOM     61  C   UNL A   1      39.185  33.480  34.923  1.00  0.00     0.074 A 
ATOM     62  C   UNL A   1      38.157  34.488  34.777  1.00  0.00     0.031 C 
ATOM     63  C   UNL A   1      40.022  33.394  35.986  1.00  0.00     0.037 A 
BRANCH  50  64
ATOM     64  C   UNL A   1      43.903  28.601  35.689  1.00  0.00     0.058 A 
ATOM     65  C   UNL A   1      43.632  27.562  36.592  1.00  0.00     0.135 A 
ATOM     66  C   UNL A   1      45.247  28.879  35.388  1.00  0.00     0.135 A 
ATOM     67  F   UNL A   1      42.365  27.273  36.929  1.00  0.00    -0.206 F 
ATOM     68  C   UNL A   1      44.656  26.840  37.193  1.00  0.00     0.059 A 
ATOM     69  C   UNL A   1      46.285  28.152  35.958  1.00  0.00     0.059 A 
ATOM     70  F   UNL A   1      45.558  29.868  34.535  1.00  0.00    -0.206 F 
ATOM     71  C   UNL A   1      45.980  27.144  36.870  1.00  0.00     0.060 A 
BRANCH  71  72
ATOM     72  S   UNL A   1      47.299  26.197  37.659  1.00  0.00     0.124 S 
ATOM     73  O   UNL A   1      48.487  26.876  37.149  1.00  0.00    -0.237 OA
ATOM     74  O   UNL A   1      47.019  26.393  39.078  1.00  0.00    -0.237 OA
ATOM     75  O   UNL A   1      47.089  24.841  37.162  1.00  0.00    -0.744 OA
ENDBRANCH  71  72
ENDBRANCH  50  64
BRANCH  51  76
ATOM     76  C   UNL A   1      36.539  33.430  31.034  1.00  0.00     0.058 A 
ATOM     77  C   UNL A   1      35.211  33.275  31.463  1.00  0.00     0.135 A 
ATOM     78  C   UNL A   1      36.774  34.263  29.929  1.00  0.00     0.135 A 
ATOM     79  F   UNL A   1      34.933  32.475  32.504  1.00  0.00    -0.206 F 
ATOM     80  C   UNL A   1      34.155  33.899  30.807  1.00  0.00     0.059 A 
ATOM     81  C   UNL A   1      35.737  34.919  29.273  1.00  0.00     0.059 A 
ATOM     82  F   UNL A   1      38.025  34.447  29.480  1.00  0.00    -0.206 F 
ATOM     83  C   UNL A   1      34.429  34.720  29.712  1.00  0.00     0.060 A 
BRANCH  83  84
ATOM     84  S   UNL A   1      33.055  35.553  28.887  1.00  0.00     0.124 S 
ATOM     85  O   UNL A   1      33.757  36.507  28.036  1.00  0.00    -0.237 OA
ATOM     86  O   UNL A   1      32.394  34.448  28.199  1.00  0.00    -0.237 OA
ATOM     87  O   UNL A   1      32.300  36.132  29.994  1.00  0.00    -0.744 OA
ENDBRANCH  83  84
ENDBRANCH  51  76
BRANCH  63  88
ATOM     88  C   UNL A   1      39.904  34.437  37.065  1.00  0.00     0.058 A 
ATOM     89  C   UNL A   1      40.542  35.683  36.967  1.00  0.00     0.135 A 
ATOM     90  C   UNL A   1      39.082  34.212  38.182  1.00  0.00     0.135 A 
ATOM     91  F   UNL A   1      41.342  35.951  35.922  1.00  0.00    -0.206 F 
ATOM     92  C   UNL A   1      40.386  36.661  37.945  1.00  0.00     0.059 A 
ATOM     93  C   UNL A   1      38.889  35.185  39.159  1.00  0.00     0.059 A 
ATOM     94  F   UNL A   1      38.436  33.043  38.321  1.00  0.00    -0.206 F 
ATOM     95  C   UNL A   1      39.553  36.404  39.037  1.00  0.00     0.060 A 
BRANCH  95  96
ATOM     96  S   UNL A   1      39.325  37.696  40.279  1.00  0.00     0.124 S 
ATOM     97  O   UNL A   1      38.224  38.463  39.706  1.00  0.00    -0.237 OA
ATOM     98  O   UNL A   1      39.005  36.926  41.477  1.00  0.00    -0.237 OA
ATOM     99  O   UNL A   1      40.617  38.374  40.305  1.00  0.00    -0.744 OA
ENDBRANCH  95  96
ENDBRANCH  63  88
ENDBRANCH  37  38
ENDBRANCH  30  32
ENDBRANCH  29  30
ENDBRANCH  28  29
ENDBRANCH  27  28
ENDBRANCH  26  27
ENDBRANCH  25  26
ENDBRANCH   1  25
TORSDOF 26
ENDMDL
MODEL 2
REMARK VINA RESULT:      -9.1      1.419      2.557
REMARK SMILES CC[C@@](O)(C(=O)OCCOCCOCCOC(=O)c1ccc(-c2c3nc(c(-c4c(F)cc(S(=O)(=O)[O-])cc4F)c4ccc([nH]4)c(-c4c(F)cc(S(=O)(=O)[O-])cc4F)c4nc(c(-c5c(F)cc(S(=O)(=O)[O-])cc5F)c5ccc2[nH]5)C=C4)C=C3)cc1)[C@@H](C)c1ccc(OC)c(OC)c1
REMARK SMILES IDX 11 1 10 2 9 3 8 4 7 5 5 6 6 7 3 8 2 9 1 10 4 11 85 13 86 14
REMARK SMILES IDX 87 15 88 16 96 17 89 18 93 19 90 20 94 21 95 22 91 23 92 24
REMARK SMILES IDX 12 25 13 26 14 27 15 28 16 29 17 30 18 31 19 32 20 33 84 34
REMARK SMILES IDX 21 35 83 36 22 37 23 38 24 39 77 40 25 41 82 42 76 43 78 44
REMARK SMILES IDX 26 45 81 46 75 47 74 48 27 50 61 51 40 52 60 53 41 54 44 55
REMARK SMILES IDX 59 56 79 57 42 58 43 59 58 61 80 62 45 63 28 64 29 65 38 66
REMARK SMILES IDX 30 67 31 68 37 69 39 70 32 71 33 72 34 73 35 74 36 75 62 76
REMARK SMILES IDX 63 77 72 78 64 79 65 80 71 81 73 82 66 83 67 84 68 85 69 86
REMARK SMILES IDX 70 87 46 88 47 89 56 90 48 91 49 92 55 93 57 94 50 95 51 96
REMARK SMILES IDX 52 97 53 98 54 99
REMARK H PARENT 4 12 78 49 44 60
REMARK Flexibility Score: inf
ROOT
ATOM      1  C   UNL A   1      38.558  22.673  26.123  1.00  0.00     0.188 C 
ENDROOT
BRANCH   1   2
ATOM      2  O   UNL A   1      37.283  22.503  25.516  1.00  0.00    -0.376 OA
BRANCH   2   3
ATOM      3  C   UNL A   1      36.189  23.153  26.169  1.00  0.00     0.202 C 
BRANCH   3   4
ATOM      4  C   UNL A   1      34.810  22.958  25.519  1.00  0.00     0.261 C 
BRANCH   4   5
ATOM      5  O   UNL A   1      33.736  23.512  26.311  1.00  0.00    -0.461 OA
BRANCH   5   6
ATOM      6  C   UNL A   1      33.301  24.763  25.978  1.00  0.00     0.338 C 
ATOM      7  O   UNL A   1      33.969  25.782  26.125  1.00  0.00    -0.249 OA
BRANCH   6   8
ATOM      8  C   UNL A   1      31.820  24.803  25.478  1.00  0.00     0.168 C 
BRANCH   8   9
ATOM      9  C   UNL A   1      31.139  23.423  25.676  1.00  0.00     0.044 C 
ATOM     10  C   UNL A   1      30.163  23.274  26.831  1.00  0.00     0.007 C 
ENDBRANCH   8   9
BRANCH   8  11
ATOM     11  O   UNL A   1      31.242  25.744  26.415  1.00  0.00    -0.378 OA
ATOM     12  H   UNL A   1      31.225  26.628  26.017  1.00  0.00     0.212 HD
ENDBRANCH   8  11
BRANCH   8  13
ATOM     13  C   UNL A   1      31.793  25.398  24.001  1.00  0.00     0.059 C 
ATOM     14  C   UNL A   1      31.019  24.469  23.040  1.00  0.00     0.016 C 
BRANCH  13  15
ATOM     15  C   UNL A   1      31.322  26.842  23.750  1.00  0.00    -0.038 A 
ATOM     16  C   UNL A   1      30.476  27.112  22.661  1.00  0.00     0.008 A 
ATOM     17  C   UNL A   1      31.676  27.935  24.548  1.00  0.00     0.054 A 
ATOM     18  C   UNL A   1      29.948  28.391  22.449  1.00  0.00     0.051 A 
ATOM     19  C   UNL A   1      31.115  29.214  24.381  1.00  0.00     0.160 A 
ATOM     20  C   UNL A   1      30.238  29.447  23.318  1.00  0.00     0.160 A 
BRANCH  19  21
ATOM     21  O   UNL A   1      31.466  30.244  25.218  1.00  0.00    -0.493 OA
ATOM     22  C   UNL A   1      32.106  29.837  26.427  1.00  0.00     0.278 C 
ENDBRANCH  19  21
BRANCH  20  23
ATOM     23  O   UNL A   1      29.603  30.612  22.978  1.00  0.00    -0.493 OA
ATOM     24  C   UNL A   1      28.723  31.189  23.930  1.00  0.00     0.278 C 
ENDBRANCH  20  23
ENDBRANCH  13  15
ENDBRANCH   8  13
ENDBRANCH   6   8
ENDBRANCH   5   6
ENDBRANCH   4   5
ENDBRANCH   3   4
ENDBRANCH   2   3
ENDBRANCH   1   2
BRANCH   1  25
ATOM     25  C   UNL A   1      39.454  21.434  26.142  1.00  0.00     0.188 C 
BRANCH  25  26
ATOM     26  O   UNL A   1      40.713  21.624  26.779  1.00  0.00    -0.376 OA
BRANCH  26  27
ATOM     27  C   UNL A   1      41.859  21.614  25.920  1.00  0.00     0.202 C 
BRANCH  27  28
ATOM     28  C   UNL A   1      42.541  22.976  25.687  1.00  0.00     0.261 C 
BRANCH  28  29
ATOM     29  O   UNL A   1      42.209  23.972  26.676  1.00  0.00    -0.460 OA
BRANCH  29  30
ATOM     30  C   UNL A   1      42.019  25.240  26.226  1.00  0.00     0.338 C 
ATOM     31  O   UNL A   1      41.725  25.562  25.097  1.00  0.00    -0.246 OA
BRANCH  30  32
ATOM     32  C   UNL A   1      41.970  26.151  27.403  1.00  0.00     0.060 A 
ATOM     33  C   UNL A   1      40.999  25.904  28.383  1.00  0.00     0.016 A 
ATOM     34  C   UNL A   1      42.891  27.189  27.585  1.00  0.00     0.016 A 
ATOM     35  C   UNL A   1      40.916  26.718  29.517  1.00  0.00     0.010 A 
ATOM     36  C   UNL A   1      42.803  28.010  28.716  1.00  0.00     0.010 A 
ATOM     37  C   UNL A   1      41.793  27.800  29.672  1.00  0.00    -0.014 A 
BRANCH  37  38
ATOM     38  C   UNL A   1      41.519  28.834  30.705  1.00  0.00     0.031 A 
ATOM     39  C   UNL A   1      42.416  28.881  31.914  1.00  0.00     0.074 A 
ATOM     40  C   UNL A   1      40.521  29.728  30.580  1.00  0.00     0.049 A 
ATOM     41  N   UNL A   1      42.361  29.664  32.960  1.00  0.00    -0.248 NA
ATOM     42  C   UNL A   1      43.526  27.914  31.942  1.00  0.00     0.031 C 
ATOM     43  C   UNL A   1      39.606  29.830  29.445  1.00  0.00     0.029 A 
ATOM     44  N   UNL A   1      40.111  30.725  31.433  1.00  0.00    -0.354 N 
ATOM     45  C   UNL A   1      43.426  29.285  33.769  1.00  0.00     0.074 A 
ATOM     46  C   UNL A   1      44.093  28.187  33.107  1.00  0.00     0.031 C 
ATOM     47  C   UNL A   1      38.735  30.829  29.677  1.00  0.00     0.029 A 
ATOM     48  C   UNL A   1      39.009  31.418  30.989  1.00  0.00     0.049 A 
ATOM     49  H   UNL A   1      40.564  30.925  32.284  1.00  0.00     0.167 HD
ATOM     50  C   UNL A   1      43.820  29.809  34.954  1.00  0.00     0.037 A 
ATOM     51  C   UNL A   1      38.294  32.397  31.582  1.00  0.00     0.037 A 
ATOM     52  C   UNL A   1      43.160  30.895  35.625  1.00  0.00     0.049 A 
ATOM     53  C   UNL A   1      38.700  32.904  32.946  1.00  0.00     0.074 A 
ATOM     54  C   UNL A   1      43.497  31.494  36.827  1.00  0.00     0.029 A 
ATOM     55  N   UNL A   1      42.023  31.539  35.162  1.00  0.00    -0.354 N 
ATOM     56  N   UNL A   1      39.722  32.553  33.690  1.00  0.00    -0.248 NA
ATOM     57  C   UNL A   1      37.849  33.939  33.554  1.00  0.00     0.031 C 
ATOM     58  C   UNL A   1      42.535  32.467  37.116  1.00  0.00     0.029 A 
ATOM     59  C   UNL A   1      41.630  32.510  36.068  1.00  0.00     0.049 A 
ATOM     60  H   UNL A   1      41.564  31.337  34.316  1.00  0.00     0.167 HD
ATOM     61  C   UNL A   1      39.656  33.347  34.833  1.00  0.00     0.074 A 
ATOM     62  C   UNL A   1      38.496  34.200  34.682  1.00  0.00     0.031 C 
ATOM     63  C   UNL A   1      40.483  33.369  35.907  1.00  0.00     0.037 A 
BRANCH  50  64
ATOM     64  C   UNL A   1      45.012  29.183  35.619  1.00  0.00     0.058 A 
ATOM     65  C   UNL A   1      46.316  29.648  35.388  1.00  0.00     0.135 A 
ATOM     66  C   UNL A   1      44.842  28.121  36.523  1.00  0.00     0.135 A 
ATOM     67  F   UNL A   1      46.533  30.645  34.516  1.00  0.00    -0.206 F 
ATOM     68  C   UNL A   1      47.414  29.064  36.010  1.00  0.00     0.059 A 
ATOM     69  C   UNL A   1      45.923  27.540  37.175  1.00  0.00     0.059 A 
ATOM     70  F   UNL A   1      43.616  27.636  36.773  1.00  0.00    -0.206 F 
ATOM     71  C   UNL A   1      47.207  28.010  36.902  1.00  0.00     0.060 A 
BRANCH  71  72
ATOM     72  S   UNL A   1      48.642  27.264  37.703  1.00  0.00     0.124 S 
ATOM     73  O   UNL A   1      48.125  27.011  39.045  1.00  0.00    -0.237 OA
ATOM     74  O   UNL A   1      48.877  26.080  36.882  1.00  0.00    -0.237 OA
ATOM     75  O   UNL A   1      49.662  28.303  37.609  1.00  0.00    -0.744 OA
ENDBRANCH  71  72
ENDBRANCH  50  64
BRANCH  51  76
ATOM     76  C   UNL A   1      37.094  32.966  30.907  1.00  0.00     0.058 A 
ATOM     77  C   UNL A   1      37.215  33.969  29.933  1.00  0.00     0.135 A 
ATOM     78  C   UNL A   1      35.800  32.546  31.254  1.00  0.00     0.135 A 
ATOM     79  F   UNL A   1      38.430  34.417  29.581  1.00  0.00    -0.206 F 
ATOM     80  C   UNL A   1      36.098  34.552  29.343  1.00  0.00     0.059 A 
ATOM     81  C   UNL A   1      34.668  33.095  30.658  1.00  0.00     0.059 A 
ATOM     82  F   UNL A   1      35.629  31.588  32.178  1.00  0.00    -0.206 F 
ATOM     83  C   UNL A   1      34.827  34.107  29.713  1.00  0.00     0.060 A 
BRANCH  83  84
ATOM     84  S   UNL A   1      33.383  34.846  28.919  1.00  0.00     0.124 S 
ATOM     85  O   UNL A   1      33.960  36.042  28.314  1.00  0.00    -0.237 OA
ATOM     86  O   UNL A   1      32.971  33.796  27.993  1.00  0.00    -0.237 OA
ATOM     87  O   UNL A   1      32.471  35.081  30.035  1.00  0.00    -0.744 OA
ENDBRANCH  83  84
ENDBRANCH  51  76
BRANCH  63  88
ATOM     88  C   UNL A   1      40.203  34.372  36.995  1.00  0.00     0.058 A 
ATOM     89  C   UNL A   1      40.725  35.674  36.956  1.00  0.00     0.135 A 
ATOM     90  C   UNL A   1      39.342  34.045  38.056  1.00  0.00     0.135 A 
ATOM     91  F   UNL A   1      41.555  36.039  35.967  1.00  0.00    -0.206 F 
ATOM     92  C   UNL A   1      40.419  36.611  37.940  1.00  0.00     0.059 A 
ATOM     93  C   UNL A   1      39.001  34.974  39.036  1.00  0.00     0.059 A 
ATOM     94  F   UNL A   1      38.804  32.818  38.137  1.00  0.00    -0.206 F 
ATOM     95  C   UNL A   1      39.552  36.252  38.975  1.00  0.00     0.060 A 
BRANCH  95  96
ATOM     96  S   UNL A   1      39.130  37.488  40.223  1.00  0.00     0.124 S 
ATOM     97  O   UNL A   1      38.091  38.252  39.540  1.00  0.00    -0.237 OA
ATOM     98  O   UNL A   1      38.679  36.664  41.341  1.00  0.00    -0.237 OA
ATOM     99  O   UNL A   1      40.388  38.194  40.441  1.00  0.00    -0.744 OA
ENDBRANCH  95  96
ENDBRANCH  63  88
ENDBRANCH  37  38
ENDBRANCH  30  32
ENDBRANCH  29  30
ENDBRANCH  28  29
ENDBRANCH  27  28
ENDBRANCH  26  27
ENDBRANCH  25  26
ENDBRANCH   1  25
TORSDOF 26
ENDMDL
MODEL 3
REMARK VINA RESULT:      -8.3      7.369     11.456
REMARK SMILES CC[C@@](O)(C(=O)OCCOCCOCCOC(=O)c1ccc(-c2c3nc(c(-c4c(F)cc(S(=O)(=O)[O-])cc4F)c4ccc([nH]4)c(-c4c(F)cc(S(=O)(=O)[O-])cc4F)c4nc(c(-c5c(F)cc(S(=O)(=O)[O-])cc5F)c5ccc2[nH]5)C=C4)C=C3)cc1)[C@@H](C)c1ccc(OC)c(OC)c1
REMARK SMILES IDX 11 1 10 2 9 3 8 4 7 5 5 6 6 7 3 8 2 9 1 10 4 11 85 13 86 14
REMARK SMILES IDX 87 15 88 16 96 17 89 18 93 19 90 20 94 21 95 22 91 23 92 24
REMARK SMILES IDX 12 25 13 26 14 27 15 28 16 29 17 30 18 31 19 32 20 33 84 34
REMARK SMILES IDX 21 35 83 36 22 37 23 38 24 39 77 40 25 41 82 42 76 43 78 44
REMARK SMILES IDX 26 45 81 46 75 47 74 48 27 50 61 51 40 52 60 53 41 54 44 55
REMARK SMILES IDX 59 56 79 57 42 58 43 59 58 61 80 62 45 63 28 64 29 65 38 66
REMARK SMILES IDX 30 67 31 68 37 69 39 70 32 71 33 72 34 73 35 74 36 75 62 76
REMARK SMILES IDX 63 77 72 78 64 79 65 80 71 81 73 82 66 83 67 84 68 85 69 86
REMARK SMILES IDX 70 87 46 88 47 89 56 90 48 91 49 92 55 93 57 94 50 95 51 96
REMARK SMILES IDX 52 97 53 98 54 99
REMARK H PARENT 4 12 78 49 44 60
REMARK Flexibility Score: inf
ROOT
ATOM      1  C   UNL A   1      39.635  22.855  26.611  1.00  0.00     0.188 C 
ENDROOT
BRANCH   1   2
ATOM      2  O   UNL A   1      38.375  23.203  26.053  1.00  0.00    -0.376 OA
BRANCH   2   3
ATOM      3  C   UNL A   1      37.516  22.109  25.720  1.00  0.00     0.202 C 
BRANCH   3   4
ATOM      4  C   UNL A   1      36.137  22.487  25.158  1.00  0.00     0.261 C 
BRANCH   4   5
ATOM      5  O   UNL A   1      35.283  21.339  24.955  1.00  0.00    -0.461 OA
BRANCH   5   6
ATOM      6  C   UNL A   1      34.165  21.252  25.735  1.00  0.00     0.338 C 
ATOM      7  O   UNL A   1      34.185  21.214  26.961  1.00  0.00    -0.249 OA
BRANCH   6   8
ATOM      8  C   UNL A   1      32.839  21.103  24.919  1.00  0.00     0.168 C 
BRANCH   8   9
ATOM      9  C   UNL A   1      32.692  19.657  24.376  1.00  0.00     0.044 C 
ATOM     10  C   UNL A   1      32.872  18.511  25.357  1.00  0.00     0.007 C 
ENDBRANCH   8   9
BRANCH   8  11
ATOM     11  O   UNL A   1      31.854  21.310  25.961  1.00  0.00    -0.378 OA
ATOM     12  H   UNL A   1      32.304  21.454  26.807  1.00  0.00     0.212 HD
ENDBRANCH   8  11
BRANCH   8  13
ATOM     13  C   UNL A   1      32.765  22.273  23.841  1.00  0.00     0.059 C 
ATOM     14  C   UNL A   1      31.881  21.870  22.640  1.00  0.00     0.016 C 
BRANCH  13  15
ATOM     15  C   UNL A   1      32.372  23.700  24.264  1.00  0.00    -0.038 A 
ATOM     16  C   UNL A   1      31.016  24.011  24.464  1.00  0.00     0.008 A 
ATOM     17  C   UNL A   1      33.286  24.737  24.477  1.00  0.00     0.054 A 
ATOM     18  C   UNL A   1      30.620  25.267  24.938  1.00  0.00     0.051 A 
ATOM     19  C   UNL A   1      32.911  25.987  25.003  1.00  0.00     0.160 A 
ATOM     20  C   UNL A   1      31.560  26.257  25.238  1.00  0.00     0.160 A 
BRANCH  19  21
ATOM     21  O   UNL A   1      33.855  26.958  25.233  1.00  0.00    -0.493 OA
ATOM     22  C   UNL A   1      33.954  27.944  24.206  1.00  0.00     0.278 C 
ENDBRANCH  19  21
BRANCH  20  23
ATOM     23  O   UNL A   1      30.994  27.404  25.729  1.00  0.00    -0.493 OA
ATOM     24  C   UNL A   1      31.420  27.861  27.003  1.00  0.00     0.278 C 
ENDBRANCH  20  23
ENDBRANCH  13  15
ENDBRANCH   8  13
ENDBRANCH   6   8
ENDBRANCH   5   6
ENDBRANCH   4   5
ENDBRANCH   3   4
ENDBRANCH   2   3
ENDBRANCH   1   2
BRANCH   1  25
ATOM     25  C   UNL A   1      40.020  21.378  26.511  1.00  0.00     0.188 C 
BRANCH  25  26
ATOM     26  O   UNL A   1      41.422  21.134  26.457  1.00  0.00    -0.376 OA
BRANCH  26  27
ATOM     27  C   UNL A   1      41.834  19.786  26.710  1.00  0.00     0.202 C 
BRANCH  27  28
ATOM     28  C   UNL A   1      42.819  19.178  25.692  1.00  0.00     0.261 C 
BRANCH  28  29
ATOM     29  O   UNL A   1      44.132  19.774  25.723  1.00  0.00    -0.460 OA
BRANCH  29  30
ATOM     30  C   UNL A   1      44.577  20.329  24.565  1.00  0.00     0.338 C 
ATOM     31  O   UNL A   1      44.349  19.930  23.446  1.00  0.00    -0.246 OA
BRANCH  30  32
ATOM     32  C   UNL A   1      45.171  21.657  24.883  1.00  0.00     0.060 A 
ATOM     33  C   UNL A   1      45.391  21.971  26.231  1.00  0.00     0.016 A 
ATOM     34  C   UNL A   1      45.568  22.557  23.887  1.00  0.00     0.016 A 
ATOM     35  C   UNL A   1      45.959  23.198  26.588  1.00  0.00     0.010 A 
ATOM     36  C   UNL A   1      46.128  23.789  24.244  1.00  0.00     0.010 A 
ATOM     37  C   UNL A   1      46.296  24.131  25.598  1.00  0.00    -0.014 A 
BRANCH  37  38
ATOM     38  C   UNL A   1      46.612  25.533  25.979  1.00  0.00     0.031 A 
ATOM     39  C   UNL A   1      45.486  26.400  26.480  1.00  0.00     0.074 A 
ATOM     40  C   UNL A   1      47.859  26.034  25.911  1.00  0.00     0.049 A 
ATOM     41  N   UNL A   1      45.502  27.657  26.842  1.00  0.00    -0.248 NA
ATOM     42  C   UNL A   1      44.166  25.757  26.592  1.00  0.00     0.031 C 
ATOM     43  C   UNL A   1      49.049  25.299  25.490  1.00  0.00     0.029 A 
ATOM     44  N   UNL A   1      48.326  27.295  26.195  1.00  0.00    -0.354 N 
ATOM     45  C   UNL A   1      44.199  27.956  27.221  1.00  0.00     0.074 A 
ATOM     46  C   UNL A   1      43.413  26.759  27.022  1.00  0.00     0.031 C 
ATOM     47  C   UNL A   1      50.110  26.126  25.534  1.00  0.00     0.029 A 
ATOM     48  C   UNL A   1      49.671  27.457  25.957  1.00  0.00     0.049 A 
ATOM     49  H   UNL A   1      47.751  28.017  26.537  1.00  0.00     0.167 HD
ATOM     50  C   UNL A   1      43.699  29.120  27.701  1.00  0.00     0.037 A 
ATOM     51  C   UNL A   1      50.450  28.555  26.049  1.00  0.00     0.037 A 
ATOM     52  C   UNL A   1      44.470  30.318  27.895  1.00  0.00     0.049 A 
ATOM     53  C   UNL A   1      49.850  29.866  26.501  1.00  0.00     0.074 A 
ATOM     54  C   UNL A   1      44.045  31.541  28.385  1.00  0.00     0.029 A 
ATOM     55  N   UNL A   1      45.818  30.451  27.601  1.00  0.00    -0.354 N 
ATOM     56  N   UNL A   1      48.622  30.129  26.878  1.00  0.00    -0.248 NA
ATOM     57  C   UNL A   1      50.746  31.034  26.534  1.00  0.00     0.031 C 
ATOM     58  C   UNL A   1      45.124  32.429  28.339  1.00  0.00     0.029 A 
ATOM     59  C   UNL A   1      46.234  31.744  27.872  1.00  0.00     0.049 A 
ATOM     60  H   UNL A   1      46.394  29.734  27.252  1.00  0.00     0.167 HD
ATOM     61  C   UNL A   1      48.607  31.479  27.226  1.00  0.00     0.074 A 
ATOM     62  C   UNL A   1      49.949  31.978  27.018  1.00  0.00     0.031 C 
ATOM     63  C   UNL A   1      47.576  32.233  27.679  1.00  0.00     0.037 A 
BRANCH  50  64
ATOM     64  C   UNL A   1      42.233  29.159  28.019  1.00  0.00     0.058 A 
ATOM     65  C   UNL A   1      41.763  29.148  29.341  1.00  0.00     0.135 A 
ATOM     66  C   UNL A   1      41.286  29.236  26.984  1.00  0.00     0.135 A 
ATOM     67  F   UNL A   1      42.626  29.052  30.364  1.00  0.00    -0.206 F 
ATOM     68  C   UNL A   1      40.403  29.188  29.627  1.00  0.00     0.059 A 
ATOM     69  C   UNL A   1      39.923  29.302  27.248  1.00  0.00     0.059 A 
ATOM     70  F   UNL A   1      41.684  29.242  25.702  1.00  0.00    -0.206 F 
ATOM     71  C   UNL A   1      39.491  29.264  28.572  1.00  0.00     0.060 A 
BRANCH  71  72
ATOM     72  S   UNL A   1      37.728  29.315  28.959  1.00  0.00     0.124 S 
ATOM     73  O   UNL A   1      37.152  28.708  27.763  1.00  0.00    -0.237 OA
ATOM     74  O   UNL A   1      37.652  28.512  30.176  1.00  0.00    -0.237 OA
ATOM     75  O   UNL A   1      37.459  30.739  29.132  1.00  0.00    -0.744 OA
ENDBRANCH  71  72
ENDBRANCH  50  64
BRANCH  51  76
ATOM     76  C   UNL A   1      51.893  28.486  25.687  1.00  0.00     0.058 A 
ATOM     77  C   UNL A   1      52.877  28.256  26.662  1.00  0.00     0.135 A 
ATOM     78  C   UNL A   1      52.319  28.690  24.366  1.00  0.00     0.135 A 
ATOM     79  F   UNL A   1      52.520  28.073  27.943  1.00  0.00    -0.206 F 
ATOM     80  C   UNL A   1      54.232  28.252  26.345  1.00  0.00     0.059 A 
ATOM     81  C   UNL A   1      53.667  28.665  24.019  1.00  0.00     0.059 A 
ATOM     82  F   UNL A   1      51.420  28.911  23.396  1.00  0.00    -0.206 F 
ATOM     83  C   UNL A   1      54.616  28.458  25.019  1.00  0.00     0.060 A 
BRANCH  83  84
ATOM     84  S   UNL A   1      56.376  28.420  24.610  1.00  0.00     0.124 S 
ATOM     85  O   UNL A   1      56.987  28.555  25.928  1.00  0.00    -0.237 OA
ATOM     86  O   UNL A   1      56.515  27.115  23.971  1.00  0.00    -0.237 OA
ATOM     87  O   UNL A   1      56.537  29.566  23.720  1.00  0.00    -0.744 OA
ENDBRANCH  83  84
ENDBRANCH  51  76
BRANCH  63  88
ATOM     88  C   UNL A   1      47.852  33.672  28.028  1.00  0.00     0.058 A 
ATOM     89  C   UNL A   1      48.250  34.060  29.315  1.00  0.00     0.135 A 
ATOM     90  C   UNL A   1      47.784  34.667  27.037  1.00  0.00     0.135 A 
ATOM     91  F   UNL A   1      48.329  33.152  30.300  1.00  0.00    -0.206 F 
ATOM     92  C   UNL A   1      48.553  35.386  29.616  1.00  0.00     0.059 A 
ATOM     93  C   UNL A   1      48.108  35.994  27.308  1.00  0.00     0.059 A 
ATOM     94  F   UNL A   1      47.421  34.350  25.784  1.00  0.00    -0.206 F 
ATOM     95  C   UNL A   1      48.482  36.346  28.603  1.00  0.00     0.060 A 
BRANCH  95  96
ATOM     96  S   UNL A   1      48.918  38.055  28.994  1.00  0.00     0.124 S 
ATOM     97  O   UNL A   1      50.359  37.952  29.198  1.00  0.00    -0.237 OA
ATOM     98  O   UNL A   1      48.496  38.769  27.792  1.00  0.00    -0.237 OA
ATOM     99  O   UNL A   1      48.134  38.340  30.191  1.00  0.00    -0.744 OA
ENDBRANCH  95  96
ENDBRANCH  63  88
ENDBRANCH  37  38
ENDBRANCH  30  32
ENDBRANCH  29  30
ENDBRANCH  28  29
ENDBRANCH  27  28
ENDBRANCH  26  27
ENDBRANCH  25  26
ENDBRANCH   1  25
TORSDOF 26
ENDMDL
