MODEL 1
REMARK VINA RESULT:      -9.5      0.000      0.000
REMARK SMILES CC(C)[C@H](C(=O)OCCOCCOCCOC(=O)c1ccc(-c2c3nc(c(-c4c(F)cc(S(=O)(=O)[O-])cc4F)c4ccc([nH]4)c(-c4c(F)cc(S(=O)(=O)[O-])cc4F)c4nc(c(-c5c(F)cc(S(=O)(=O)[O-])cc5F)c5ccc2[nH]5)C=C4)C=C3)cc1)c1ccc(Cl)cc1F
REMARK SMILES IDX 12 1 11 2 10 3 9 4 8 5 7 6 5 7 6 8 4 9 2 10 1 11 3 12 85 13
REMARK SMILES IDX 86 14 91 15 87 16 90 17 92 18 88 19 89 20 13 21 14 22 15 23
REMARK SMILES IDX 16 24 17 25 18 26 19 27 20 28 84 29 21 30 83 31 22 32 23 33
REMARK SMILES IDX 24 34 77 35 25 36 82 37 76 38 78 39 26 40 81 41 75 42 74 43
REMARK SMILES IDX 27 45 61 46 40 47 60 48 41 49 44 50 59 51 79 52 42 53 43 54
REMARK SMILES IDX 58 56 80 57 45 58 28 59 29 60 38 61 30 62 31 63 37 64 39 65
REMARK SMILES IDX 32 66 33 67 34 68 35 69 36 70 62 71 63 72 72 73 64 74 65 75
REMARK SMILES IDX 71 76 73 77 66 78 67 79 68 80 69 81 70 82 46 83 47 84 56 85
REMARK SMILES IDX 48 86 49 87 55 88 57 89 50 90 51 91 52 92 53 93 54 94
REMARK H PARENT 78 44 44 55
REMARK Flexibility Score: inf
ROOT
ATOM      1  C   UNL A   1      40.650  20.992  26.778  1.00  0.00     0.188 C 
ENDROOT
BRANCH   1   2
ATOM      2  C   UNL A   1      39.784  22.230  27.065  1.00  0.00     0.188 C 
BRANCH   2   3
ATOM      3  O   UNL A   1      39.081  22.647  25.903  1.00  0.00    -0.376 OA
BRANCH   3   4
ATOM      4  C   UNL A   1      37.683  22.436  25.909  1.00  0.00     0.202 C 
BRANCH   4   5
ATOM      5  C   UNL A   1      37.211  21.330  24.965  1.00  0.00     0.261 C 
BRANCH   5   6
ATOM      6  O   UNL A   1      35.949  20.708  25.254  1.00  0.00    -0.463 OA
BRANCH   6   7
ATOM      7  C   UNL A   1      34.963  21.450  25.841  1.00  0.00     0.313 C 
ATOM      8  O   UNL A   1      34.720  21.455  27.028  1.00  0.00    -0.252 OA
BRANCH   7   9
ATOM      9  C   UNL A   1      34.192  22.191  24.744  1.00  0.00     0.135 C 
BRANCH   9  10
ATOM     10  C   UNL A   1      33.309  21.199  23.933  1.00  0.00     0.001 C 
ATOM     11  C   UNL A   1      32.430  20.383  24.898  1.00  0.00     0.008 C 
ATOM     12  C   UNL A   1      32.380  21.836  22.891  1.00  0.00     0.008 C 
ENDBRANCH   9  10
BRANCH   9  13
ATOM     13  C   UNL A   1      33.542  23.507  25.176  1.00  0.00     0.002 A 
ATOM     14  C   UNL A   1      32.186  23.500  25.571  1.00  0.00     0.009 A 
ATOM     15  C   UNL A   1      34.217  24.730  25.268  1.00  0.00     0.128 A 
ATOM     16  C   UNL A   1      31.558  24.655  26.053  1.00  0.00     0.021 A 
ATOM     17  C   UNL A   1      33.601  25.888  25.746  1.00  0.00     0.060 A 
ATOM     18  F   UNL A   1      35.505  24.828  24.930  1.00  0.00    -0.207 F 
ATOM     19  C   UNL A   1      32.274  25.843  26.150  1.00  0.00     0.043 A 
ATOM     20  Cl  UNL A   1      31.505  27.257  26.754  1.00  0.00    -0.084 Cl
ENDBRANCH   9  13
ENDBRANCH   7   9
ENDBRANCH   6   7
ENDBRANCH   5   6
ENDBRANCH   4   5
ENDBRANCH   3   4
ENDBRANCH   2   3
ENDBRANCH   1   2
BRANCH   1  21
ATOM     21  O   UNL A   1      41.628  21.066  25.745  1.00  0.00    -0.376 OA
BRANCH  21  22
ATOM     22  C   UNL A   1      42.836  21.766  26.016  1.00  0.00     0.202 C 
BRANCH  22  23
ATOM     23  C   UNL A   1      43.070  23.063  25.234  1.00  0.00     0.261 C 
BRANCH  23  24
ATOM     24  O   UNL A   1      42.285  24.174  25.713  1.00  0.00    -0.460 OA
BRANCH  24  25
ATOM     25  C   UNL A   1      42.948  25.349  25.835  1.00  0.00     0.338 C 
ATOM     26  O   UNL A   1      43.885  25.738  25.157  1.00  0.00    -0.246 OA
BRANCH  25  27
ATOM     27  C   UNL A   1      42.287  26.220  26.830  1.00  0.00     0.060 A 
ATOM     28  C   UNL A   1      42.742  27.535  26.953  1.00  0.00     0.016 A 
ATOM     29  C   UNL A   1      41.365  25.713  27.747  1.00  0.00     0.016 A 
ATOM     30  C   UNL A   1      42.306  28.335  28.007  1.00  0.00     0.010 A 
ATOM     31  C   UNL A   1      40.942  26.517  28.818  1.00  0.00     0.010 A 
ATOM     32  C   UNL A   1      41.442  27.823  28.979  1.00  0.00    -0.014 A 
BRANCH  32  33
ATOM     33  C   UNL A   1      41.258  28.589  30.245  1.00  0.00     0.031 A 
ATOM     34  C   UNL A   1      40.122  29.577  30.338  1.00  0.00     0.074 A 
ATOM     35  C   UNL A   1      41.999  28.339  31.342  1.00  0.00     0.049 A 
ATOM     36  N   UNL A   1      39.827  30.423  31.292  1.00  0.00    -0.248 NA
ATOM     37  C   UNL A   1      39.187  29.606  29.202  1.00  0.00     0.031 C 
ATOM     38  C   UNL A   1      43.047  27.325  31.446  1.00  0.00     0.029 A 
ATOM     39  N   UNL A   1      41.968  28.916  32.591  1.00  0.00    -0.354 N 
ATOM     40  C   UNL A   1      38.701  31.111  30.855  1.00  0.00     0.074 A 
ATOM     41  C   UNL A   1      38.366  30.587  29.549  1.00  0.00     0.031 C 
ATOM     42  C   UNL A   1      43.555  27.347  32.691  1.00  0.00     0.029 A 
ATOM     43  C   UNL A   1      42.911  28.414  33.456  1.00  0.00     0.049 A 
ATOM     44  H   UNL A   1      41.329  29.622  32.842  1.00  0.00     0.167 HD
ATOM     45  C   UNL A   1      38.006  32.091  31.483  1.00  0.00     0.037 A 
ATOM     46  C   UNL A   1      43.245  28.794  34.707  1.00  0.00     0.037 A 
ATOM     47  C   UNL A   1      38.311  32.587  32.800  1.00  0.00     0.049 A 
ATOM     48  C   UNL A   1      42.514  29.943  35.357  1.00  0.00     0.074 A 
ATOM     49  C   UNL A   1      37.680  33.597  33.507  1.00  0.00     0.029 A 
ATOM     50  N   UNL A   1      39.319  32.100  33.616  1.00  0.00    -0.354 N 
ATOM     51  N   UNL A   1      41.508  30.649  34.897  1.00  0.00    -0.248 NA
ATOM     52  C   UNL A   1      42.974  30.356  36.691  1.00  0.00     0.031 C 
ATOM     53  C   UNL A   1      38.334  33.747  34.735  1.00  0.00     0.029 A 
ATOM     54  C   UNL A   1      39.340  32.798  34.813  1.00  0.00     0.049 A 
ATOM     55  H   UNL A   1      39.931  31.365  33.380  1.00  0.00     0.167 HD
ATOM     56  C   UNL A   1      41.205  31.574  35.892  1.00  0.00     0.074 A 
ATOM     57  C   UNL A   1      42.122  31.328  36.985  1.00  0.00     0.031 C 
ATOM     58  C   UNL A   1      40.255  32.544  35.899  1.00  0.00     0.037 A 
BRANCH  45  59
ATOM     59  C   UNL A   1      36.879  32.733  30.723  1.00  0.00     0.058 A 
ATOM     60  C   UNL A   1      37.099  33.707  29.736  1.00  0.00     0.135 A 
ATOM     61  C   UNL A   1      35.552  32.351  30.981  1.00  0.00     0.135 A 
ATOM     62  F   UNL A   1      38.346  34.125  29.464  1.00  0.00    -0.206 F 
ATOM     63  C   UNL A   1      36.042  34.302  29.055  1.00  0.00     0.059 A 
ATOM     64  C   UNL A   1      34.482  32.912  30.292  1.00  0.00     0.059 A 
ATOM     65  F   UNL A   1      35.285  31.425  31.916  1.00  0.00    -0.206 F 
ATOM     66  C   UNL A   1      34.736  33.899  29.343  1.00  0.00     0.060 A 
BRANCH  66  67
ATOM     67  S   UNL A   1      33.371  34.683  28.458  1.00  0.00     0.124 S 
ATOM     68  O   UNL A   1      32.522  35.121  29.561  1.00  0.00    -0.237 OA
ATOM     69  O   UNL A   1      34.045  35.745  27.718  1.00  0.00    -0.237 OA
ATOM     70  O   UNL A   1      32.829  33.603  27.639  1.00  0.00    -0.744 OA
ENDBRANCH  66  67
ENDBRANCH  45  59
BRANCH  46  71
ATOM     71  C   UNL A   1      44.364  28.117  35.421  1.00  0.00     0.058 A 
ATOM     72  C   UNL A   1      44.138  27.000  36.238  1.00  0.00     0.135 A 
ATOM     73  C   UNL A   1      45.682  28.591  35.315  1.00  0.00     0.135 A 
ATOM     74  F   UNL A   1      42.894  26.521  36.391  1.00  0.00    -0.206 F 
ATOM     75  C   UNL A   1      45.174  26.382  36.934  1.00  0.00     0.059 A 
ATOM     76  C   UNL A   1      46.738  27.973  35.975  1.00  0.00     0.059 A 
ATOM     77  F   UNL A   1      45.953  29.657  34.546  1.00  0.00    -0.206 F 
ATOM     78  C   UNL A   1      46.473  26.874  36.793  1.00  0.00     0.060 A 
BRANCH  78  79
ATOM     79  S   UNL A   1      47.821  26.040  37.657  1.00  0.00     0.124 S 
ATOM     80  O   UNL A   1      48.133  27.000  38.710  1.00  0.00    -0.237 OA
ATOM     81  O   UNL A   1      47.188  24.799  38.091  1.00  0.00    -0.237 OA
ATOM     82  O   UNL A   1      48.838  25.886  36.622  1.00  0.00    -0.744 OA
ENDBRANCH  78  79
ENDBRANCH  46  71
BRANCH  58  83
ATOM     83  C   UNL A   1      40.132  33.390  37.138  1.00  0.00     0.058 A 
ATOM     84  C   UNL A   1      39.228  33.073  38.163  1.00  0.00     0.135 A 
ATOM     85  C   UNL A   1      40.957  34.513  37.317  1.00  0.00     0.135 A 
ATOM     86  F   UNL A   1      38.415  32.012  38.042  1.00  0.00    -0.206 F 
ATOM     87  C   UNL A   1      39.122  33.858  39.309  1.00  0.00     0.059 A 
ATOM     88  C   UNL A   1      40.886  35.296  38.466  1.00  0.00     0.059 A 
ATOM     89  F   UNL A   1      41.850  34.854  36.375  1.00  0.00    -0.206 F 
ATOM     90  C   UNL A   1      39.953  34.969  39.449  1.00  0.00     0.060 A 
BRANCH  90  91
ATOM     91  S   UNL A   1      39.816  35.974  40.944  1.00  0.00     0.124 S 
ATOM     92  O   UNL A   1      39.888  34.957  41.987  1.00  0.00    -0.237 OA
ATOM     93  O   UNL A   1      40.975  36.856  40.838  1.00  0.00    -0.237 OA
ATOM     94  O   UNL A   1      38.521  36.631  40.795  1.00  0.00    -0.744 OA
ENDBRANCH  90  91
ENDBRANCH  58  83
ENDBRANCH  32  33
ENDBRANCH  25  27
ENDBRANCH  24  25
ENDBRANCH  23  24
ENDBRANCH  22  23
ENDBRANCH  21  22
ENDBRANCH   1  21
TORSDOF 22
ENDMDL
MODEL 2
REMARK VINA RESULT:      -9.4      2.639      8.688
REMARK SMILES CC(C)[C@H](C(=O)OCCOCCOCCOC(=O)c1ccc(-c2c3nc(c(-c4c(F)cc(S(=O)(=O)[O-])cc4F)c4ccc([nH]4)c(-c4c(F)cc(S(=O)(=O)[O-])cc4F)c4nc(c(-c5c(F)cc(S(=O)(=O)[O-])cc5F)c5ccc2[nH]5)C=C4)C=C3)cc1)c1ccc(Cl)cc1F
REMARK SMILES IDX 12 1 11 2 10 3 9 4 8 5 7 6 5 7 6 8 4 9 2 10 1 11 3 12 85 13
REMARK SMILES IDX 86 14 91 15 87 16 90 17 92 18 88 19 89 20 13 21 14 22 15 23
REMARK SMILES IDX 16 24 17 25 18 26 19 27 20 28 84 29 21 30 83 31 22 32 23 33
REMARK SMILES IDX 24 34 77 35 25 36 82 37 76 38 78 39 26 40 81 41 75 42 74 43
REMARK SMILES IDX 27 45 61 46 40 47 60 48 41 49 44 50 59 51 79 52 42 53 43 54
REMARK SMILES IDX 58 56 80 57 45 58 28 59 29 60 38 61 30 62 31 63 37 64 39 65
REMARK SMILES IDX 32 66 33 67 34 68 35 69 36 70 62 71 63 72 72 73 64 74 65 75
REMARK SMILES IDX 71 76 73 77 66 78 67 79 68 80 69 81 70 82 46 83 47 84 56 85
REMARK SMILES IDX 48 86 49 87 55 88 57 89 50 90 51 91 52 92 53 93 54 94
REMARK H PARENT 78 44 44 55
REMARK Flexibility Score: inf
ROOT
ATOM      1  C   UNL A   1      32.345  29.251  27.180  1.00  0.00     0.188 C 
ENDROOT
BRANCH   1   2
ATOM      2  C   UNL A   1      31.798  27.814  27.195  1.00  0.00     0.188 C 
BRANCH   2   3
ATOM      3  O   UNL A   1      30.999  27.554  26.049  1.00  0.00    -0.376 OA
BRANCH   3   4
ATOM      4  C   UNL A   1      30.697  26.197  25.792  1.00  0.00     0.202 C 
BRANCH   4   5
ATOM      5  C   UNL A   1      31.818  25.425  25.099  1.00  0.00     0.261 C 
BRANCH   5   6
ATOM      6  O   UNL A   1      31.743  23.990  25.117  1.00  0.00    -0.463 OA
BRANCH   6   7
ATOM      7  C   UNL A   1      32.900  23.268  25.209  1.00  0.00     0.313 C 
ATOM      8  O   UNL A   1      33.689  23.347  26.126  1.00  0.00    -0.252 OA
BRANCH   7   9
ATOM      9  C   UNL A   1      33.050  22.425  23.940  1.00  0.00     0.135 C 
BRANCH   9  10
ATOM     10  C   UNL A   1      34.236  22.945  23.077  1.00  0.00     0.001 C 
ATOM     11  C   UNL A   1      34.082  24.459  22.845  1.00  0.00     0.008 C 
ATOM     12  C   UNL A   1      35.637  22.709  23.660  1.00  0.00     0.008 C 
ENDBRANCH   9  10
BRANCH   9  13
ATOM     13  C   UNL A   1      32.950  20.911  24.143  1.00  0.00     0.002 A 
ATOM     14  C   UNL A   1      33.280  20.370  25.405  1.00  0.00     0.009 A 
ATOM     15  C   UNL A   1      32.491  20.012  23.172  1.00  0.00     0.128 A 
ATOM     16  C   UNL A   1      33.130  19.004  25.676  1.00  0.00     0.021 A 
ATOM     17  C   UNL A   1      32.340  18.649  23.432  1.00  0.00     0.060 A 
ATOM     18  F   UNL A   1      32.142  20.437  21.956  1.00  0.00    -0.207 F 
ATOM     19  C   UNL A   1      32.648  18.151  24.690  1.00  0.00     0.043 A 
ATOM     20  Cl  UNL A   1      32.453  16.477  25.030  1.00  0.00    -0.084 Cl
ENDBRANCH   9  13
ENDBRANCH   7   9
ENDBRANCH   6   7
ENDBRANCH   5   6
ENDBRANCH   4   5
ENDBRANCH   3   4
ENDBRANCH   2   3
ENDBRANCH   1   2
BRANCH   1  21
ATOM     21  O   UNL A   1      33.729  29.459  27.447  1.00  0.00    -0.376 OA
BRANCH  21  22
ATOM     22  C   UNL A   1      34.216  30.795  27.454  1.00  0.00     0.202 C 
BRANCH  22  23
ATOM     23  C   UNL A   1      33.174  31.906  27.615  1.00  0.00     0.261 C 
BRANCH  23  24
ATOM     24  O   UNL A   1      33.702  33.229  27.390  1.00  0.00    -0.460 OA
BRANCH  24  25
ATOM     25  C   UNL A   1      33.485  34.124  28.384  1.00  0.00     0.338 C 
ATOM     26  O   UNL A   1      32.523  34.865  28.507  1.00  0.00    -0.246 OA
BRANCH  25  27
ATOM     27  C   UNL A   1      34.515  33.995  29.436  1.00  0.00     0.060 A 
ATOM     28  C   UNL A   1      35.845  34.232  29.083  1.00  0.00     0.016 A 
ATOM     29  C   UNL A   1      34.210  33.482  30.698  1.00  0.00     0.016 A 
ATOM     30  C   UNL A   1      36.875  33.926  29.970  1.00  0.00     0.010 A 
ATOM     31  C   UNL A   1      35.252  33.158  31.583  1.00  0.00     0.010 A 
ATOM     32  C   UNL A   1      36.597  33.340  31.208  1.00  0.00    -0.014 A 
BRANCH  32  33
ATOM     33  C   UNL A   1      37.721  32.737  31.981  1.00  0.00     0.031 A 
ATOM     34  C   UNL A   1      38.480  31.582  31.377  1.00  0.00     0.074 A 
ATOM     35  C   UNL A   1      38.151  33.269  33.141  1.00  0.00     0.049 A 
ATOM     36  N   UNL A   1      39.422  30.838  31.901  1.00  0.00    -0.248 NA
ATOM     37  C   UNL A   1      38.135  31.225  29.992  1.00  0.00     0.031 C 
ATOM     38  C   UNL A   1      37.601  34.461  33.785  1.00  0.00     0.029 A 
ATOM     39  N   UNL A   1      39.168  32.876  33.980  1.00  0.00    -0.354 N 
ATOM     40  C   UNL A   1      39.752  29.903  30.926  1.00  0.00     0.074 A 
ATOM     41  C   UNL A   1      38.908  30.170  29.782  1.00  0.00     0.031 C 
ATOM     42  C   UNL A   1      38.290  34.706  34.914  1.00  0.00     0.029 A 
ATOM     43  C   UNL A   1      39.291  33.657  35.105  1.00  0.00     0.049 A 
ATOM     44  H   UNL A   1      39.754  32.108  33.792  1.00  0.00     0.167 HD
ATOM     45  C   UNL A   1      40.674  28.910  30.978  1.00  0.00     0.037 A 
ATOM     46  C   UNL A   1      40.090  33.522  36.184  1.00  0.00     0.037 A 
ATOM     47  C   UNL A   1      41.544  28.667  32.099  1.00  0.00     0.049 A 
ATOM     48  C   UNL A   1      41.051  32.362  36.259  1.00  0.00     0.074 A 
ATOM     49  C   UNL A   1      42.490  27.668  32.254  1.00  0.00     0.029 A 
ATOM     50  N   UNL A   1      41.588  29.438  33.250  1.00  0.00    -0.354 N 
ATOM     51  N   UNL A   1      41.291  31.428  35.369  1.00  0.00    -0.248 NA
ATOM     52  C   UNL A   1      41.841  32.229  37.493  1.00  0.00     0.031 C 
ATOM     53  C   UNL A   1      43.077  27.812  33.516  1.00  0.00     0.029 A 
ATOM     54  C   UNL A   1      42.533  28.930  34.126  1.00  0.00     0.049 A 
ATOM     55  H   UNL A   1      41.029  30.232  33.420  1.00  0.00     0.167 HD
ATOM     56  C   UNL A   1      42.270  30.610  35.928  1.00  0.00     0.074 A 
ATOM     57  C   UNL A   1      42.591  31.169  37.224  1.00  0.00     0.031 C 
ATOM     58  C   UNL A   1      42.849  29.495  35.415  1.00  0.00     0.037 A 
BRANCH  45  59
ATOM     59  C   UNL A   1      40.746  27.974  29.804  1.00  0.00     0.058 A 
ATOM     60  C   UNL A   1      41.758  28.062  28.835  1.00  0.00     0.135 A 
ATOM     61  C   UNL A   1      39.785  26.959  29.657  1.00  0.00     0.135 A 
ATOM     62  F   UNL A   1      42.688  29.027  28.915  1.00  0.00    -0.206 F 
ATOM     63  C   UNL A   1      41.798  27.197  27.746  1.00  0.00     0.059 A 
ATOM     64  C   UNL A   1      39.822  26.066  28.591  1.00  0.00     0.059 A 
ATOM     65  F   UNL A   1      38.795  26.832  30.554  1.00  0.00    -0.206 F 
ATOM     66  C   UNL A   1      40.822  26.204  27.631  1.00  0.00     0.060 A 
BRANCH  66  67
ATOM     67  S   UNL A   1      40.879  25.092  26.210  1.00  0.00     0.124 S 
ATOM     68  O   UNL A   1      39.524  24.550  26.211  1.00  0.00    -0.237 OA
ATOM     69  O   UNL A   1      41.198  26.000  25.113  1.00  0.00    -0.237 OA
ATOM     70  O   UNL A   1      41.934  24.145  26.560  1.00  0.00    -0.744 OA
ENDBRANCH  66  67
ENDBRANCH  45  59
BRANCH  46  71
ATOM     71  C   UNL A   1      39.985  34.484  37.317  1.00  0.00     0.058 A 
ATOM     72  C   UNL A   1      40.868  35.568  37.438  1.00  0.00     0.135 A 
ATOM     73  C   UNL A   1      39.010  34.324  38.315  1.00  0.00     0.135 A 
ATOM     74  F   UNL A   1      41.832  35.753  36.523  1.00  0.00    -0.206 F 
ATOM     75  C   UNL A   1      40.796  36.452  38.511  1.00  0.00     0.059 A 
ATOM     76  C   UNL A   1      38.899  35.210  39.381  1.00  0.00     0.059 A 
ATOM     77  F   UNL A   1      38.141  33.304  38.248  1.00  0.00    -0.206 F 
ATOM     78  C   UNL A   1      39.805  36.267  39.477  1.00  0.00     0.060 A 
BRANCH  78  79
ATOM     79  S   UNL A   1      39.684  37.444  40.841  1.00  0.00     0.124 S 
ATOM     80  O   UNL A   1      38.568  38.278  40.410  1.00  0.00    -0.237 OA
ATOM     81  O   UNL A   1      39.426  36.570  41.980  1.00  0.00    -0.237 OA
ATOM     82  O   UNL A   1      40.993  38.092  40.841  1.00  0.00    -0.744 OA
ENDBRANCH  78  79
ENDBRANCH  46  71
BRANCH  58  83
ATOM     83  C   UNL A   1      43.915  28.822  36.238  1.00  0.00     0.058 A 
ATOM     84  C   UNL A   1      43.647  27.672  36.997  1.00  0.00     0.135 A 
ATOM     85  C   UNL A   1      45.231  29.315  36.238  1.00  0.00     0.135 A 
ATOM     86  F   UNL A   1      42.407  27.161  37.034  1.00  0.00    -0.206 F 
ATOM     87  C   UNL A   1      44.639  27.052  37.753  1.00  0.00     0.059 A 
ATOM     88  C   UNL A   1      46.243  28.695  36.966  1.00  0.00     0.059 A 
ATOM     89  F   UNL A   1      45.546  30.402  35.518  1.00  0.00    -0.206 F 
ATOM     90  C   UNL A   1      45.933  27.574  37.734  1.00  0.00     0.060 A 
BRANCH  90  91
ATOM     91  S   UNL A   1      47.214  26.755  38.709  1.00  0.00     0.124 S 
ATOM     92  O   UNL A   1      48.385  26.924  37.854  1.00  0.00    -0.237 OA
ATOM     93  O   UNL A   1      47.215  27.532  39.944  1.00  0.00    -0.237 OA
ATOM     94  O   UNL A   1      46.723  25.387  38.837  1.00  0.00    -0.744 OA
ENDBRANCH  90  91
ENDBRANCH  58  83
ENDBRANCH  32  33
ENDBRANCH  25  27
ENDBRANCH  24  25
ENDBRANCH  23  24
ENDBRANCH  22  23
ENDBRANCH  21  22
ENDBRANCH   1  21
TORSDOF 22
ENDMDL
MODEL 3
REMARK VINA RESULT:      -9.4      6.311     12.106
REMARK SMILES CC(C)[C@H](C(=O)OCCOCCOCCOC(=O)c1ccc(-c2c3nc(c(-c4c(F)cc(S(=O)(=O)[O-])cc4F)c4ccc([nH]4)c(-c4c(F)cc(S(=O)(=O)[O-])cc4F)c4nc(c(-c5c(F)cc(S(=O)(=O)[O-])cc5F)c5ccc2[nH]5)C=C4)C=C3)cc1)c1ccc(Cl)cc1F
REMARK SMILES IDX 12 1 11 2 10 3 9 4 8 5 7 6 5 7 6 8 4 9 2 10 1 11 3 12 85 13
REMARK SMILES IDX 86 14 91 15 87 16 90 17 92 18 88 19 89 20 13 21 14 22 15 23
REMARK SMILES IDX 16 24 17 25 18 26 19 27 20 28 84 29 21 30 83 31 22 32 23 33
REMARK SMILES IDX 24 34 77 35 25 36 82 37 76 38 78 39 26 40 81 41 75 42 74 43
REMARK SMILES IDX 27 45 61 46 40 47 60 48 41 49 44 50 59 51 79 52 42 53 43 54
REMARK SMILES IDX 58 56 80 57 45 58 28 59 29 60 38 61 30 62 31 63 37 64 39 65
REMARK SMILES IDX 32 66 33 67 34 68 35 69 36 70 62 71 63 72 72 73 64 74 65 75
REMARK SMILES IDX 71 76 73 77 66 78 67 79 68 80 69 81 70 82 46 83 47 84 56 85
REMARK SMILES IDX 48 86 49 87 55 88 57 89 50 90 51 91 52 92 53 93 54 94
REMARK H PARENT 78 44 44 55
REMARK Flexibility Score: inf
ROOT
ATOM      1  C   UNL A   1      33.985  32.130  28.168  1.00  0.00     0.188 C 
ENDROOT
BRANCH   1   2
ATOM      2  C   UNL A   1      33.212  31.287  27.140  1.00  0.00     0.188 C 
BRANCH   2   3
ATOM      3  O   UNL A   1      32.980  29.971  27.623  1.00  0.00    -0.376 OA
BRANCH   3   4
ATOM      4  C   UNL A   1      31.852  29.302  27.094  1.00  0.00     0.202 C 
BRANCH   4   5
ATOM      5  C   UNL A   1      32.017  27.787  26.982  1.00  0.00     0.261 C 
BRANCH   5   6
ATOM      6  O   UNL A   1      30.828  27.004  26.789  1.00  0.00    -0.463 OA
BRANCH   6   7
ATOM      7  C   UNL A   1      30.942  25.742  26.274  1.00  0.00     0.313 C 
ATOM      8  O   UNL A   1      30.840  24.724  26.924  1.00  0.00    -0.252 OA
BRANCH   7   9
ATOM      9  C   UNL A   1      31.291  25.852  24.788  1.00  0.00     0.135 C 
BRANCH   9  10
ATOM     10  C   UNL A   1      31.226  24.454  24.108  1.00  0.00     0.001 C 
ATOM     11  C   UNL A   1      31.565  24.592  22.613  1.00  0.00     0.008 C 
ATOM     12  C   UNL A   1      32.157  23.384  24.694  1.00  0.00     0.008 C 
ENDBRANCH   9  10
BRANCH   9  13
ATOM     13  C   UNL A   1      30.633  27.018  24.045  1.00  0.00     0.002 A 
ATOM     14  C   UNL A   1      31.453  28.039  23.519  1.00  0.00     0.009 A 
ATOM     15  C   UNL A   1      29.260  27.119  23.792  1.00  0.00     0.128 A 
ATOM     16  C   UNL A   1      30.918  29.088  22.760  1.00  0.00     0.021 A 
ATOM     17  C   UNL A   1      28.716  28.161  23.038  1.00  0.00     0.060 A 
ATOM     18  F   UNL A   1      28.411  26.190  24.238  1.00  0.00    -0.207 F 
ATOM     19  C   UNL A   1      29.550  29.137  22.513  1.00  0.00     0.043 A 
ATOM     20  Cl  UNL A   1      28.898  30.418  21.571  1.00  0.00    -0.084 Cl
ENDBRANCH   9  13
ENDBRANCH   7   9
ENDBRANCH   6   7
ENDBRANCH   5   6
ENDBRANCH   4   5
ENDBRANCH   3   4
ENDBRANCH   2   3
ENDBRANCH   1   2
BRANCH   1  21
ATOM     21  O   UNL A   1      35.131  32.857  27.734  1.00  0.00    -0.376 OA
BRANCH  21  22
ATOM     22  C   UNL A   1      36.210  33.015  28.648  1.00  0.00     0.202 C 
BRANCH  22  23
ATOM     23  C   UNL A   1      35.931  32.651  30.110  1.00  0.00     0.261 C 
BRANCH  23  24
ATOM     24  O   UNL A   1      37.101  32.206  30.827  1.00  0.00    -0.460 OA
BRANCH  24  25
ATOM     25  C   UNL A   1      37.099  30.904  31.201  1.00  0.00     0.338 C 
ATOM     26  O   UNL A   1      36.244  30.331  31.857  1.00  0.00    -0.246 OA
BRANCH  25  27
ATOM     27  C   UNL A   1      38.222  30.178  30.573  1.00  0.00     0.060 A 
ATOM     28  C   UNL A   1      39.240  29.703  31.404  1.00  0.00     0.016 A 
ATOM     29  C   UNL A   1      38.368  30.117  29.187  1.00  0.00     0.016 A 
ATOM     30  C   UNL A   1      40.418  29.200  30.856  1.00  0.00     0.010 A 
ATOM     31  C   UNL A   1      39.565  29.624  28.639  1.00  0.00     0.010 A 
ATOM     32  C   UNL A   1      40.617  29.200  29.473  1.00  0.00    -0.014 A 
BRANCH  32  33
ATOM     33  C   UNL A   1      41.992  28.960  28.949  1.00  0.00     0.031 A 
ATOM     34  C   UNL A   1      42.333  27.597  28.399  1.00  0.00     0.074 A 
ATOM     35  C   UNL A   1      42.896  29.954  28.843  1.00  0.00     0.049 A 
ATOM     36  N   UNL A   1      43.483  27.128  27.985  1.00  0.00    -0.248 NA
ATOM     37  C   UNL A   1      41.222  26.638  28.295  1.00  0.00     0.031 C 
ATOM     38  C   UNL A   1      42.670  31.350  29.212  1.00  0.00     0.029 A 
ATOM     39  N   UNL A   1      44.189  29.937  28.375  1.00  0.00    -0.354 N 
ATOM     40  C   UNL A   1      43.243  25.810  27.612  1.00  0.00     0.074 A 
ATOM     41  C   UNL A   1      41.839  25.553  27.850  1.00  0.00     0.031 C 
ATOM     42  C   UNL A   1      43.784  32.057  28.951  1.00  0.00     0.029 A 
ATOM     43  C   UNL A   1      44.822  31.155  28.452  1.00  0.00     0.049 A 
ATOM     44  H   UNL A   1      44.622  29.128  28.017  1.00  0.00     0.167 HD
ATOM     45  C   UNL A   1      44.111  24.896  27.114  1.00  0.00     0.037 A 
ATOM     46  C   UNL A   1      46.100  31.499  28.188  1.00  0.00     0.037 A 
ATOM     47  C   UNL A   1      45.499  25.161  26.836  1.00  0.00     0.049 A 
ATOM     48  C   UNL A   1      47.072  30.447  27.715  1.00  0.00     0.074 A 
ATOM     49  C   UNL A   1      46.462  24.289  26.357  1.00  0.00     0.029 A 
ATOM     50  N   UNL A   1      46.118  26.390  26.995  1.00  0.00    -0.354 N 
ATOM     51  N   UNL A   1      46.856  29.180  27.451  1.00  0.00    -0.248 NA
ATOM     52  C   UNL A   1      48.466  30.870  27.516  1.00  0.00     0.031 C 
ATOM     53  C   UNL A   1      47.674  24.982  26.265  1.00  0.00     0.029 A 
ATOM     54  C   UNL A   1      47.454  26.298  26.639  1.00  0.00     0.049 A 
ATOM     55  H   UNL A   1      45.674  27.209  27.313  1.00  0.00     0.167 HD
ATOM     56  C   UNL A   1      48.080  28.661  27.039  1.00  0.00     0.074 A 
ATOM     57  C   UNL A   1      49.029  29.754  27.072  1.00  0.00     0.031 C 
ATOM     58  C   UNL A   1      48.392  27.393  26.670  1.00  0.00     0.037 A 
BRANCH  45  59
ATOM     59  C   UNL A   1      43.592  23.502  26.893  1.00  0.00     0.058 A 
ATOM     60  C   UNL A   1      43.337  22.620  27.954  1.00  0.00     0.135 A 
ATOM     61  C   UNL A   1      43.333  23.049  25.588  1.00  0.00     0.135 A 
ATOM     62  F   UNL A   1      43.588  22.994  29.220  1.00  0.00    -0.206 F 
ATOM     63  C   UNL A   1      42.873  21.328  27.729  1.00  0.00     0.059 A 
ATOM     64  C   UNL A   1      42.843  21.771  25.342  1.00  0.00     0.059 A 
ATOM     65  F   UNL A   1      43.561  23.852  24.537  1.00  0.00    -0.206 F 
ATOM     66  C   UNL A   1      42.632  20.912  26.418  1.00  0.00     0.060 A 
BRANCH  66  67
ATOM     67  S   UNL A   1      42.038  19.230  26.136  1.00  0.00     0.124 S 
ATOM     68  O   UNL A   1      42.816  18.839  24.965  1.00  0.00    -0.237 OA
ATOM     69  O   UNL A   1      42.389  18.560  27.384  1.00  0.00    -0.237 OA
ATOM     70  O   UNL A   1      40.607  19.408  25.907  1.00  0.00    -0.744 OA
ENDBRANCH  66  67
ENDBRANCH  45  59
BRANCH  46  71
ATOM     71  C   UNL A   1      46.560  32.898  28.415  1.00  0.00     0.058 A 
ATOM     72  C   UNL A   1      46.418  33.882  27.425  1.00  0.00     0.135 A 
ATOM     73  C   UNL A   1      47.172  33.272  29.622  1.00  0.00     0.135 A 
ATOM     74  F   UNL A   1      45.859  33.571  26.245  1.00  0.00    -0.206 F 
ATOM     75  C   UNL A   1      46.874  35.183  27.618  1.00  0.00     0.059 A 
ATOM     76  C   UNL A   1      47.610  34.573  29.850  1.00  0.00     0.059 A 
ATOM     77  F   UNL A   1      47.333  32.370  30.602  1.00  0.00    -0.206 F 
ATOM     78  C   UNL A   1      47.466  35.520  28.837  1.00  0.00     0.060 A 
BRANCH  78  79
ATOM     79  S   UNL A   1      48.012  37.221  29.101  1.00  0.00     0.124 S 
ATOM     80  O   UNL A   1      46.880  37.977  28.578  1.00  0.00    -0.237 OA
ATOM     81  O   UNL A   1      48.196  37.265  30.548  1.00  0.00    -0.237 OA
ATOM     82  O   UNL A   1      49.242  37.303  28.319  1.00  0.00    -0.744 OA
ENDBRANCH  78  79
ENDBRANCH  46  71
BRANCH  58  83
ATOM     83  C   UNL A   1      49.808  27.122  26.237  1.00  0.00     0.058 A 
ATOM     84  C   UNL A   1      50.799  26.729  27.150  1.00  0.00     0.135 A 
ATOM     85  C   UNL A   1      50.169  27.221  24.883  1.00  0.00     0.135 A 
ATOM     86  F   UNL A   1      50.508  26.621  28.456  1.00  0.00    -0.206 F 
ATOM     87  C   UNL A   1      52.105  26.476  26.742  1.00  0.00     0.059 A 
ATOM     88  C   UNL A   1      51.463  26.947  24.450  1.00  0.00     0.059 A 
ATOM     89  F   UNL A   1      49.259  27.578  23.964  1.00  0.00    -0.206 F 
ATOM     90  C   UNL A   1      52.429  26.591  25.390  1.00  0.00     0.060 A 
BRANCH  90  91
ATOM     91  S   UNL A   1      54.124  26.249  24.870  1.00  0.00     0.124 S 
ATOM     92  O   UNL A   1      54.119  24.792  24.793  1.00  0.00    -0.237 OA
ATOM     93  O   UNL A   1      54.209  26.950  23.592  1.00  0.00    -0.237 OA
ATOM     94  O   UNL A   1      54.932  26.819  25.944  1.00  0.00    -0.744 OA
ENDBRANCH  90  91
ENDBRANCH  58  83
ENDBRANCH  32  33
ENDBRANCH  25  27
ENDBRANCH  24  25
ENDBRANCH  23  24
ENDBRANCH  22  23
ENDBRANCH  21  22
ENDBRANCH   1  21
TORSDOF 22
ENDMDL
