MODEL 1
REMARK VINA RESULT:     -11.3      0.000      0.000
REMARK SMILES Cc1ccn(CC(=O)N2CCC3(CC2)NC(=O)C[C@@H]3C(=O)OCCOCCOCCOC(=O)c2ccc(-c3c4nc(c(-c5c(F)cc(S(=O)(=O)[O-])cc5F)c5ccc([nH]5)c(-c5c(F)cc(S(=O)(=O)[O-])cc5F)c5nc(c(-c6c(F)cc(S(=O)(=O)[O-])cc6F)c6ccc3[nH]6)C=C5)C=C4)cc2)n1
REMARK SMILES IDX 27 1 26 2 25 3 24 4 23 5 22 6 20 7 21 8 19 9 7 10 8 11 9 12
REMARK SMILES IDX 10 13 14 14 11 15 13 16 12 17 15 18 16 19 18 21 17 22 6 23
REMARK SMILES IDX 5 24 1 25 2 26 3 27 100 28 4 29 28 30 29 31 30 32 31 33
REMARK SMILES IDX 32 34 33 35 34 36 35 37 99 38 36 39 98 40 37 41 38 42 39 43
REMARK SMILES IDX 92 44 40 45 97 46 91 47 93 48 41 49 96 50 90 51 89 52 42 54
REMARK SMILES IDX 76 55 55 56 75 57 56 58 59 59 74 60 94 61 57 62 58 63 73 65
REMARK SMILES IDX 95 66 60 67 43 68 44 69 53 70 45 71 46 72 52 73 54 74 47 75
REMARK SMILES IDX 48 76 49 77 50 78 51 79 77 80 78 81 87 82 79 83 80 84 86 85
REMARK SMILES IDX 88 86 81 87 82 88 83 89 84 90 85 91 61 92 62 93 71 94 63 95
REMARK SMILES IDX 64 96 70 97 72 98 65 99 66 100 67 101 68 102 69 103
REMARK H PARENT 15 20 93 53 59 64
REMARK Flexibility Score: inf
ROOT
ATOM      1  C   UNL A   1      33.437  32.975  27.855  1.00  0.00     0.188 C 
ENDROOT
BRANCH   1   2
ATOM      2  C   UNL A   1      34.396  31.792  27.593  1.00  0.00     0.188 C 
BRANCH   2   3
ATOM      3  O   UNL A   1      33.811  30.499  27.577  1.00  0.00    -0.376 OA
BRANCH   3   4
ATOM      4  C   UNL A   1      32.558  30.409  26.896  1.00  0.00     0.202 C 
BRANCH   4   5
ATOM      5  C   UNL A   1      31.827  29.081  27.124  1.00  0.00     0.261 C 
BRANCH   5   6
ATOM      6  O   UNL A   1      31.640  28.373  25.886  1.00  0.00    -0.463 OA
BRANCH   6   7
ATOM      7  C   UNL A   1      31.154  27.105  25.941  1.00  0.00     0.311 C 
ATOM      8  O   UNL A   1      31.234  26.379  26.917  1.00  0.00    -0.252 OA
BRANCH   7   9
ATOM      9  C   UNL A   1      30.488  26.793  24.609  1.00  0.00     0.134 C 
ATOM     10  C   UNL A   1      32.468  22.075  24.843  1.00  0.00     0.244 C 
ATOM     11  O   UNL A   1      33.095  21.983  25.902  1.00  0.00    -0.273 OA
ATOM     12  N   UNL A   1      32.057  23.321  24.364  1.00  0.00    -0.341 N 
ATOM     13  C   UNL A   1      32.834  24.478  24.786  1.00  0.00     0.122 C 
ATOM     14  C   UNL A   1      30.654  23.593  24.072  1.00  0.00     0.122 C 
ATOM     15  C   UNL A   1      32.708  25.628  23.784  1.00  0.00     0.051 C 
ATOM     16  C   UNL A   1      30.483  24.736  23.081  1.00  0.00     0.051 C 
ATOM     17  C   UNL A   1      31.250  26.020  23.500  1.00  0.00     0.057 C 
ATOM     18  N   UNL A   1      31.198  26.938  22.376  1.00  0.00    -0.350 N 
ATOM     19  C   UNL A   1      30.464  28.075  22.580  1.00  0.00     0.221 C 
ATOM     20  H   UNL A   1      31.659  26.755  21.526  1.00  0.00     0.164 HD
ATOM     21  C   UNL A   1      29.996  28.110  23.998  1.00  0.00     0.117 C 
ATOM     22  O   UNL A   1      30.238  28.918  21.730  1.00  0.00    -0.275 OA
BRANCH  10  23
ATOM     23  C   UNL A   1      32.385  20.886  23.907  1.00  0.00     0.244 C 
BRANCH  23  24
ATOM     24  N   UNL A   1      32.996  19.668  24.391  1.00  0.00    -0.263 N 
ATOM     25  C   UNL A   1      32.561  16.399  25.669  1.00  0.00     0.069 C 
ATOM     26  C   UNL A   1      33.067  17.689  25.143  1.00  0.00     0.059 A 
ATOM     27  C   UNL A   1      34.407  18.106  24.978  1.00  0.00     0.045 A 
ATOM     28  N   UNL A   1      32.206  18.641  24.765  1.00  0.00    -0.178 NA
ATOM     29  C   UNL A   1      34.326  19.384  24.476  1.00  0.00     0.109 A 
ENDBRANCH  23  24
ENDBRANCH  10  23
ENDBRANCH   7   9
ENDBRANCH   6   7
ENDBRANCH   5   6
ENDBRANCH   4   5
ENDBRANCH   3   4
ENDBRANCH   2   3
ENDBRANCH   1   2
BRANCH   1  30
ATOM     30  O   UNL A   1      33.894  34.254  28.271  1.00  0.00    -0.376 OA
BRANCH  30  31
ATOM     31  C   UNL A   1      33.329  34.914  29.393  1.00  0.00     0.202 C 
BRANCH  31  32
ATOM     32  C   UNL A   1      33.868  34.630  30.787  1.00  0.00     0.261 C 
BRANCH  32  33
ATOM     33  O   UNL A   1      35.133  33.995  30.775  1.00  0.00    -0.460 OA
BRANCH  33  34
ATOM     34  C   UNL A   1      35.093  32.713  31.197  1.00  0.00     0.338 C 
ATOM     35  O   UNL A   1      34.410  32.250  32.093  1.00  0.00    -0.246 OA
BRANCH  34  36
ATOM     36  C   UNL A   1      36.065  31.930  30.429  1.00  0.00     0.060 A 
ATOM     37  C   UNL A   1      36.172  30.581  30.773  1.00  0.00     0.016 A 
ATOM     38  C   UNL A   1      37.029  32.589  29.653  1.00  0.00     0.016 A 
ATOM     39  C   UNL A   1      37.381  29.962  30.577  1.00  0.00     0.010 A 
ATOM     40  C   UNL A   1      38.242  31.976  29.473  1.00  0.00     0.010 A 
ATOM     41  C   UNL A   1      38.427  30.715  30.037  1.00  0.00    -0.014 A 
BRANCH  41  42
ATOM     42  C   UNL A   1      39.757  30.167  30.150  1.00  0.00     0.031 A 
ATOM     43  C   UNL A   1      40.250  30.061  31.532  1.00  0.00     0.074 A 
ATOM     44  C   UNL A   1      40.415  29.716  29.065  1.00  0.00     0.049 A 
ATOM     45  N   UNL A   1      41.228  30.700  32.080  1.00  0.00    -0.248 NA
ATOM     46  C   UNL A   1      39.454  29.249  32.464  1.00  0.00     0.031 C 
ATOM     47  C   UNL A   1      39.873  29.510  27.717  1.00  0.00     0.029 A 
ATOM     48  N   UNL A   1      41.679  29.226  28.971  1.00  0.00    -0.354 N 
ATOM     49  C   UNL A   1      41.328  30.168  33.359  1.00  0.00     0.074 A 
ATOM     50  C   UNL A   1      40.099  29.462  33.609  1.00  0.00     0.031 C 
ATOM     51  C   UNL A   1      40.725  28.731  27.017  1.00  0.00     0.029 A 
ATOM     52  C   UNL A   1      41.909  28.478  27.824  1.00  0.00     0.049 A 
ATOM     53  H   UNL A   1      42.370  29.385  29.654  1.00  0.00     0.167 HD
ATOM     54  C   UNL A   1      42.529  30.078  33.989  1.00  0.00     0.037 A 
ATOM     55  C   UNL A   1      42.946  27.630  27.613  1.00  0.00     0.037 A 
ATOM     56  C   UNL A   1      43.498  30.984  33.424  1.00  0.00     0.049 A 
ATOM     57  C   UNL A   1      44.018  27.988  28.581  1.00  0.00     0.074 A 
ATOM     58  C   UNL A   1      43.530  32.347  33.192  1.00  0.00     0.029 A 
ATOM     59  N   UNL A   1      44.520  30.454  32.674  1.00  0.00    -0.354 N 
ATOM     60  N   UNL A   1      44.710  29.095  28.544  1.00  0.00    -0.248 NA
ATOM     61  C   UNL A   1      44.050  27.284  29.857  1.00  0.00     0.031 C 
ATOM     62  C   UNL A   1      44.265  32.508  31.983  1.00  0.00     0.029 A 
ATOM     63  C   UNL A   1      44.671  31.241  31.561  1.00  0.00     0.049 A 
ATOM     64  H   UNL A   1      45.048  29.654  32.896  1.00  0.00     0.167 HD
ATOM     65  C   UNL A   1      44.914  29.436  29.874  1.00  0.00     0.074 A 
ATOM     66  C   UNL A   1      44.590  28.231  30.628  1.00  0.00     0.031 C 
ATOM     67  C   UNL A   1      45.050  30.740  30.257  1.00  0.00     0.037 A 
BRANCH  54  68
ATOM     68  C   UNL A   1      42.913  28.889  34.834  1.00  0.00     0.058 A 
ATOM     69  C   UNL A   1      43.430  29.104  36.125  1.00  0.00     0.135 A 
ATOM     70  C   UNL A   1      43.061  27.576  34.326  1.00  0.00     0.135 A 
ATOM     71  F   UNL A   1      43.359  30.318  36.695  1.00  0.00    -0.206 F 
ATOM     72  C   UNL A   1      44.112  28.110  36.826  1.00  0.00     0.059 A 
ATOM     73  C   UNL A   1      43.676  26.555  35.034  1.00  0.00     0.059 A 
ATOM     74  F   UNL A   1      42.714  27.242  33.077  1.00  0.00    -0.206 F 
ATOM     75  C   UNL A   1      44.244  26.845  36.261  1.00  0.00     0.060 A 
BRANCH  75  76
ATOM     76  S   UNL A   1      45.238  25.596  37.093  1.00  0.00     0.124 S 
ATOM     77  O   UNL A   1      45.959  26.409  38.064  1.00  0.00    -0.237 OA
ATOM     78  O   UNL A   1      44.216  24.705  37.632  1.00  0.00    -0.237 OA
ATOM     79  O   UNL A   1      46.042  25.036  36.010  1.00  0.00    -0.744 OA
ENDBRANCH  75  76
ENDBRANCH  54  68
BRANCH  55  80
ATOM     80  C   UNL A   1      42.938  26.344  26.865  1.00  0.00     0.058 A 
ATOM     81  C   UNL A   1      43.655  26.203  25.663  1.00  0.00     0.135 A 
ATOM     82  C   UNL A   1      42.450  25.149  27.435  1.00  0.00     0.135 A 
ATOM     83  F   UNL A   1      44.179  27.281  25.060  1.00  0.00    -0.206 F 
ATOM     84  C   UNL A   1      43.914  24.954  25.089  1.00  0.00     0.059 A 
ATOM     85  C   UNL A   1      42.675  23.896  26.870  1.00  0.00     0.059 A 
ATOM     86  F   UNL A   1      41.817  25.146  28.617  1.00  0.00    -0.206 F 
ATOM     87  C   UNL A   1      43.433  23.803  25.711  1.00  0.00     0.060 A 
BRANCH  87  88
ATOM     88  S   UNL A   1      43.907  22.180  25.075  1.00  0.00     0.124 S 
ATOM     89  O   UNL A   1      45.081  21.870  25.885  1.00  0.00    -0.237 OA
ATOM     90  O   UNL A   1      42.716  21.382  25.345  1.00  0.00    -0.237 OA
ATOM     91  O   UNL A   1      44.175  22.434  23.661  1.00  0.00    -0.744 OA
ENDBRANCH  87  88
ENDBRANCH  55  80
BRANCH  67  92
ATOM     92  C   UNL A   1      45.362  31.765  29.201  1.00  0.00     0.058 A 
ATOM     93  C   UNL A   1      46.659  32.086  28.763  1.00  0.00     0.135 A 
ATOM     94  C   UNL A   1      44.289  32.343  28.503  1.00  0.00     0.135 A 
ATOM     95  F   UNL A   1      47.735  31.493  29.302  1.00  0.00    -0.206 F 
ATOM     96  C   UNL A   1      46.879  32.976  27.709  1.00  0.00     0.059 A 
ATOM     97  C   UNL A   1      44.484  33.208  27.430  1.00  0.00     0.059 A 
ATOM     98  F   UNL A   1      43.025  32.027  28.832  1.00  0.00    -0.206 F 
ATOM     99  C   UNL A   1      45.783  33.530  27.047  1.00  0.00     0.060 A 
BRANCH  99 100
ATOM    100  S   UNL A   1      46.068  34.611  25.628  1.00  0.00     0.124 S 
ATOM    101  O   UNL A   1      47.477  34.372  25.337  1.00  0.00    -0.237 OA
ATOM    102  O   UNL A   1      45.120  34.098  24.642  1.00  0.00    -0.237 OA
ATOM    103  O   UNL A   1      45.753  35.941  26.144  1.00  0.00    -0.744 OA
ENDBRANCH  99 100
ENDBRANCH  67  92
ENDBRANCH  41  42
ENDBRANCH  34  36
ENDBRANCH  33  34
ENDBRANCH  32  33
ENDBRANCH  31  32
ENDBRANCH  30  31
ENDBRANCH   1  30
TORSDOF 22
ENDMDL
MODEL 2
REMARK VINA RESULT:     -10.9      2.092      3.552
REMARK SMILES Cc1ccn(CC(=O)N2CCC3(CC2)NC(=O)C[C@@H]3C(=O)OCCOCCOCCOC(=O)c2ccc(-c3c4nc(c(-c5c(F)cc(S(=O)(=O)[O-])cc5F)c5ccc([nH]5)c(-c5c(F)cc(S(=O)(=O)[O-])cc5F)c5nc(c(-c6c(F)cc(S(=O)(=O)[O-])cc6F)c6ccc3[nH]6)C=C5)C=C4)cc2)n1
REMARK SMILES IDX 27 1 26 2 25 3 24 4 23 5 22 6 20 7 21 8 19 9 7 10 8 11 9 12
REMARK SMILES IDX 10 13 14 14 11 15 13 16 12 17 15 18 16 19 18 21 17 22 6 23
REMARK SMILES IDX 5 24 1 25 2 26 3 27 100 28 4 29 28 30 29 31 30 32 31 33
REMARK SMILES IDX 32 34 33 35 34 36 35 37 99 38 36 39 98 40 37 41 38 42 39 43
REMARK SMILES IDX 92 44 40 45 97 46 91 47 93 48 41 49 96 50 90 51 89 52 42 54
REMARK SMILES IDX 76 55 55 56 75 57 56 58 59 59 74 60 94 61 57 62 58 63 73 65
REMARK SMILES IDX 95 66 60 67 43 68 44 69 53 70 45 71 46 72 52 73 54 74 47 75
REMARK SMILES IDX 48 76 49 77 50 78 51 79 77 80 78 81 87 82 79 83 80 84 86 85
REMARK SMILES IDX 88 86 81 87 82 88 83 89 84 90 85 91 61 92 62 93 71 94 63 95
REMARK SMILES IDX 64 96 70 97 72 98 65 99 66 100 67 101 68 102 69 103
REMARK H PARENT 15 20 93 53 59 64
REMARK Flexibility Score: inf
ROOT
ATOM      1  C   UNL A   1      31.620  29.558  24.871  1.00  0.00     0.188 C 
ENDROOT
BRANCH   1   2
ATOM      2  C   UNL A   1      31.700  28.671  23.609  1.00  0.00     0.188 C 
BRANCH   2   3
ATOM      3  O   UNL A   1      32.946  28.655  22.928  1.00  0.00    -0.376 OA
BRANCH   3   4
ATOM      4  C   UNL A   1      33.946  27.818  23.512  1.00  0.00     0.202 C 
BRANCH   4   5
ATOM      5  C   UNL A   1      33.655  26.320  23.369  1.00  0.00     0.261 C 
BRANCH   5   6
ATOM      6  O   UNL A   1      33.162  25.768  24.602  1.00  0.00    -0.463 OA
BRANCH   6   7
ATOM      7  C   UNL A   1      33.972  24.921  25.292  1.00  0.00     0.311 C 
ATOM      8  O   UNL A   1      34.937  25.273  25.948  1.00  0.00    -0.252 OA
BRANCH   7   9
ATOM      9  C   UNL A   1      33.438  23.507  25.119  1.00  0.00     0.134 C 
ATOM     10  C   UNL A   1      38.232  21.756  25.555  1.00  0.00     0.244 C 
ATOM     11  O   UNL A   1      38.970  22.727  25.748  1.00  0.00    -0.273 OA
ATOM     12  N   UNL A   1      36.917  21.936  25.116  1.00  0.00    -0.341 N 
ATOM     13  C   UNL A   1      36.633  23.154  24.370  1.00  0.00     0.122 C 
ATOM     14  C   UNL A   1      35.791  21.393  25.866  1.00  0.00     0.122 C 
ATOM     15  C   UNL A   1      35.419  22.974  23.457  1.00  0.00     0.051 C 
ATOM     16  C   UNL A   1      34.557  21.205  24.995  1.00  0.00     0.051 C 
ATOM     17  C   UNL A   1      34.170  22.486  24.207  1.00  0.00     0.057 C 
ATOM     18  N   UNL A   1      33.139  22.111  23.254  1.00  0.00    -0.350 N 
ATOM     19  C   UNL A   1      31.902  22.646  23.487  1.00  0.00     0.221 C 
ATOM     20  H   UNL A   1      33.320  21.512  22.494  1.00  0.00     0.164 HD
ATOM     21  C   UNL A   1      31.986  23.597  24.636  1.00  0.00     0.117 C 
ATOM     22  O   UNL A   1      30.899  22.383  22.847  1.00  0.00    -0.275 OA
BRANCH  10  23
ATOM     23  C   UNL A   1      38.816  20.359  25.511  1.00  0.00     0.244 C 
BRANCH  23  24
ATOM     24  N   UNL A   1      40.106  20.202  26.144  1.00  0.00    -0.263 N 
ATOM     25  C   UNL A   1      43.128  18.378  26.380  1.00  0.00     0.069 C 
ATOM     26  C   UNL A   1      42.008  19.341  26.505  1.00  0.00     0.059 A 
ATOM     27  C   UNL A   1      41.896  20.451  27.373  1.00  0.00     0.045 A 
ATOM     28  N   UNL A   1      40.918  19.202  25.741  1.00  0.00    -0.178 NA
ATOM     29  C   UNL A   1      40.661  20.994  27.104  1.00  0.00     0.109 A 
ENDBRANCH  23  24
ENDBRANCH  10  23
ENDBRANCH   7   9
ENDBRANCH   6   7
ENDBRANCH   5   6
ENDBRANCH   4   5
ENDBRANCH   3   4
ENDBRANCH   2   3
ENDBRANCH   1   2
BRANCH   1  30
ATOM     30  O   UNL A   1      31.580  29.019  26.185  1.00  0.00    -0.376 OA
BRANCH  30  31
ATOM     31  C   UNL A   1      32.482  29.451  27.192  1.00  0.00     0.202 C 
BRANCH  31  32
ATOM     32  C   UNL A   1      33.136  30.820  27.083  1.00  0.00     0.261 C 
BRANCH  32  33
ATOM     33  O   UNL A   1      34.549  30.758  27.036  1.00  0.00    -0.460 OA
BRANCH  33  34
ATOM     34  C   UNL A   1      35.152  31.705  27.788  1.00  0.00     0.338 C 
ATOM     35  O   UNL A   1      35.060  32.914  27.669  1.00  0.00    -0.246 OA
BRANCH  34  36
ATOM     36  C   UNL A   1      36.014  31.049  28.775  1.00  0.00     0.060 A 
ATOM     37  C   UNL A   1      36.819  31.894  29.542  1.00  0.00     0.016 A 
ATOM     38  C   UNL A   1      36.233  29.666  28.696  1.00  0.00     0.016 A 
ATOM     39  C   UNL A   1      38.011  31.398  30.006  1.00  0.00     0.010 A 
ATOM     40  C   UNL A   1      37.432  29.176  29.145  1.00  0.00     0.010 A 
ATOM     41  C   UNL A   1      38.343  30.078  29.692  1.00  0.00    -0.014 A 
BRANCH  41  42
ATOM     42  C   UNL A   1      39.717  29.681  29.887  1.00  0.00     0.031 A 
ATOM     43  C   UNL A   1      40.116  29.567  31.298  1.00  0.00     0.074 A 
ATOM     44  C   UNL A   1      40.501  29.361  28.841  1.00  0.00     0.049 A 
ATOM     45  N   UNL A   1      40.969  30.286  31.946  1.00  0.00    -0.248 NA
ATOM     46  C   UNL A   1      39.355  28.625  32.133  1.00  0.00     0.031 C 
ATOM     47  C   UNL A   1      40.086  29.158  27.447  1.00  0.00     0.029 A 
ATOM     48  N   UNL A   1      41.817  29.023  28.827  1.00  0.00    -0.354 N 
ATOM     49  C   UNL A   1      41.038  29.708  33.207  1.00  0.00     0.074 A 
ATOM     50  C   UNL A   1      39.885  28.856  33.332  1.00  0.00     0.031 C 
ATOM     51  C   UNL A   1      41.074  28.516  26.787  1.00  0.00     0.029 A 
ATOM     52  C   UNL A   1      42.216  28.362  27.673  1.00  0.00     0.049 A 
ATOM     53  H   UNL A   1      42.433  29.227  29.567  1.00  0.00     0.167 HD
ATOM     54  C   UNL A   1      42.191  29.727  33.925  1.00  0.00     0.037 A 
ATOM     55  C   UNL A   1      43.359  27.649  27.511  1.00  0.00     0.037 A 
ATOM     56  C   UNL A   1      43.086  30.764  33.473  1.00  0.00     0.049 A 
ATOM     57  C   UNL A   1      44.307  28.081  28.574  1.00  0.00     0.074 A 
ATOM     58  C   UNL A   1      42.975  32.130  33.298  1.00  0.00     0.029 A 
ATOM     59  N   UNL A   1      44.215  30.390  32.785  1.00  0.00    -0.354 N 
ATOM     60  N   UNL A   1      44.865  29.260  28.634  1.00  0.00    -0.248 NA
ATOM     61  C   UNL A   1      44.329  27.325  29.820  1.00  0.00     0.031 C 
ATOM     62  C   UNL A   1      43.772  32.432  32.156  1.00  0.00     0.029 A 
ATOM     63  C   UNL A   1      44.354  31.242  31.719  1.00  0.00     0.049 A 
ATOM     64  H   UNL A   1      44.816  29.645  33.016  1.00  0.00     0.167 HD
ATOM     65  C   UNL A   1      44.929  29.559  29.987  1.00  0.00     0.074 A 
ATOM     66  C   UNL A   1      44.695  28.289  30.666  1.00  0.00     0.031 C 
ATOM     67  C   UNL A   1      44.883  30.849  30.431  1.00  0.00     0.037 A 
BRANCH  54  68
ATOM     68  C   UNL A   1      42.649  28.551  34.751  1.00  0.00     0.058 A 
ATOM     69  C   UNL A   1      43.028  28.759  36.090  1.00  0.00     0.135 A 
ATOM     70  C   UNL A   1      43.001  27.293  34.204  1.00  0.00     0.135 A 
ATOM     71  F   UNL A   1      42.760  29.924  36.701  1.00  0.00    -0.206 F 
ATOM     72  C   UNL A   1      43.768  27.819  36.807  1.00  0.00     0.059 A 
ATOM     73  C   UNL A   1      43.677  26.318  34.920  1.00  0.00     0.059 A 
ATOM     74  F   UNL A   1      42.801  26.985  32.917  1.00  0.00    -0.206 F 
ATOM     75  C   UNL A   1      44.103  26.610  36.203  1.00  0.00     0.060 A 
BRANCH  75  76
ATOM     76  S   UNL A   1      45.172  25.449  37.067  1.00  0.00     0.124 S 
ATOM     77  O   UNL A   1      46.231  26.334  37.534  1.00  0.00    -0.237 OA
ATOM     78  O   UNL A   1      44.279  24.917  38.091  1.00  0.00    -0.237 OA
ATOM     79  O   UNL A   1      45.550  24.503  36.020  1.00  0.00    -0.744 OA
ENDBRANCH  75  76
ENDBRANCH  54  68
BRANCH  55  80
ATOM     80  C   UNL A   1      43.556  26.408  26.715  1.00  0.00     0.058 A 
ATOM     81  C   UNL A   1      44.417  26.392  25.603  1.00  0.00     0.135 A 
ATOM     82  C   UNL A   1      43.119  25.147  27.174  1.00  0.00     0.135 A 
ATOM     83  F   UNL A   1      44.904  27.542  25.112  1.00  0.00    -0.206 F 
ATOM     84  C   UNL A   1      44.855  25.202  25.013  1.00  0.00     0.059 A 
ATOM     85  C   UNL A   1      43.523  23.949  26.588  1.00  0.00     0.059 A 
ATOM     86  F   UNL A   1      42.357  25.027  28.271  1.00  0.00    -0.206 F 
ATOM     87  C   UNL A   1      44.415  23.983  25.525  1.00  0.00     0.060 A 
BRANCH  87  88
ATOM     88  S   UNL A   1      45.109  22.442  24.884  1.00  0.00     0.124 S 
ATOM     89  O   UNL A   1      45.848  22.908  23.716  1.00  0.00    -0.237 OA
ATOM     90  O   UNL A   1      45.915  21.977  26.007  1.00  0.00    -0.237 OA
ATOM     91  O   UNL A   1      43.928  21.634  24.593  1.00  0.00    -0.744 OA
ENDBRANCH  87  88
ENDBRANCH  55  80
BRANCH  67  92
ATOM     92  C   UNL A   1      45.149  31.953  29.442  1.00  0.00     0.058 A 
ATOM     93  C   UNL A   1      46.428  32.438  29.118  1.00  0.00     0.135 A 
ATOM     94  C   UNL A   1      44.069  32.439  28.688  1.00  0.00     0.135 A 
ATOM     95  F   UNL A   1      47.525  31.945  29.714  1.00  0.00    -0.206 F 
ATOM     96  C   UNL A   1      46.618  33.397  28.120  1.00  0.00     0.059 A 
ATOM     97  C   UNL A   1      44.238  33.371  27.668  1.00  0.00     0.059 A 
ATOM     98  F   UNL A   1      42.830  31.967  28.907  1.00  0.00    -0.206 F 
ATOM     99  C   UNL A   1      45.516  33.855  27.398  1.00  0.00     0.060 A 
BRANCH  99 100
ATOM    100  S   UNL A   1      45.774  35.028  26.049  1.00  0.00     0.124 S 
ATOM    101  O   UNL A   1      45.458  34.222  24.876  1.00  0.00    -0.237 OA
ATOM    102  O   UNL A   1      44.822  36.091  26.365  1.00  0.00    -0.237 OA
ATOM    103  O   UNL A   1      47.179  35.405  26.189  1.00  0.00    -0.744 OA
ENDBRANCH  99 100
ENDBRANCH  67  92
ENDBRANCH  41  42
ENDBRANCH  34  36
ENDBRANCH  33  34
ENDBRANCH  32  33
ENDBRANCH  31  32
ENDBRANCH  30  31
ENDBRANCH   1  30
TORSDOF 22
ENDMDL
MODEL 3
REMARK VINA RESULT:     -10.6      1.669      2.623
REMARK SMILES Cc1ccn(CC(=O)N2CCC3(CC2)NC(=O)C[C@@H]3C(=O)OCCOCCOCCOC(=O)c2ccc(-c3c4nc(c(-c5c(F)cc(S(=O)(=O)[O-])cc5F)c5ccc([nH]5)c(-c5c(F)cc(S(=O)(=O)[O-])cc5F)c5nc(c(-c6c(F)cc(S(=O)(=O)[O-])cc6F)c6ccc3[nH]6)C=C5)C=C4)cc2)n1
REMARK SMILES IDX 27 1 26 2 25 3 24 4 23 5 22 6 20 7 21 8 19 9 7 10 8 11 9 12
REMARK SMILES IDX 10 13 14 14 11 15 13 16 12 17 15 18 16 19 18 21 17 22 6 23
REMARK SMILES IDX 5 24 1 25 2 26 3 27 100 28 4 29 28 30 29 31 30 32 31 33
REMARK SMILES IDX 32 34 33 35 34 36 35 37 99 38 36 39 98 40 37 41 38 42 39 43
REMARK SMILES IDX 92 44 40 45 97 46 91 47 93 48 41 49 96 50 90 51 89 52 42 54
REMARK SMILES IDX 76 55 55 56 75 57 56 58 59 59 74 60 94 61 57 62 58 63 73 65
REMARK SMILES IDX 95 66 60 67 43 68 44 69 53 70 45 71 46 72 52 73 54 74 47 75
REMARK SMILES IDX 48 76 49 77 50 78 51 79 77 80 78 81 87 82 79 83 80 84 86 85
REMARK SMILES IDX 88 86 81 87 82 88 83 89 84 90 85 91 61 92 62 93 71 94 63 95
REMARK SMILES IDX 64 96 70 97 72 98 65 99 66 100 67 101 68 102 69 103
REMARK H PARENT 15 20 93 53 59 64
REMARK Flexibility Score: inf
ROOT
ATOM      1  C   UNL A   1      31.510  29.792  25.308  1.00  0.00     0.188 C 
ENDROOT
BRANCH   1   2
ATOM      2  C   UNL A   1      31.949  29.212  23.945  1.00  0.00     0.188 C 
BRANCH   2   3
ATOM      3  O   UNL A   1      33.220  29.625  23.465  1.00  0.00    -0.376 OA
BRANCH   3   4
ATOM      4  C   UNL A   1      34.187  28.580  23.336  1.00  0.00     0.202 C 
BRANCH   4   5
ATOM      5  C   UNL A   1      33.580  27.221  22.970  1.00  0.00     0.261 C 
BRANCH   5   6
ATOM      6  O   UNL A   1      33.086  26.544  24.138  1.00  0.00    -0.463 OA
BRANCH   6   7
ATOM      7  C   UNL A   1      31.801  26.100  24.124  1.00  0.00     0.311 C 
ATOM      8  O   UNL A   1      31.047  26.204  23.172  1.00  0.00    -0.252 OA
BRANCH   7   9
ATOM      9  C   UNL A   1      31.510  25.444  25.466  1.00  0.00     0.134 C 
ATOM     10  C   UNL A   1      34.962  21.834  24.333  1.00  0.00     0.244 C 
ATOM     11  O   UNL A   1      35.444  22.109  23.231  1.00  0.00    -0.273 OA
ATOM     12  N   UNL A   1      33.800  22.468  24.781  1.00  0.00    -0.341 N 
ATOM     13  C   UNL A   1      32.895  22.981  23.762  1.00  0.00     0.122 C 
ATOM     14  C   UNL A   1      33.773  23.187  26.049  1.00  0.00     0.122 C 
ATOM     15  C   UNL A   1      31.463  23.082  24.290  1.00  0.00     0.051 C 
ATOM     16  C   UNL A   1      32.363  23.315  26.608  1.00  0.00     0.051 C 
ATOM     17  C   UNL A   1      31.356  23.904  25.583  1.00  0.00     0.057 C 
ATOM     18  N   UNL A   1      30.027  23.757  26.151  1.00  0.00    -0.350 N 
ATOM     19  C   UNL A   1      29.398  24.926  26.483  1.00  0.00     0.221 C 
ATOM     20  H   UNL A   1      29.609  22.876  26.288  1.00  0.00     0.164 HD
ATOM     21  C   UNL A   1      30.241  26.079  26.046  1.00  0.00     0.117 C 
ATOM     22  O   UNL A   1      28.319  24.999  27.044  1.00  0.00    -0.275 OA
BRANCH  10  23
ATOM     23  C   UNL A   1      35.447  20.613  25.088  1.00  0.00     0.244 C 
BRANCH  23  24
ATOM     24  N   UNL A   1      34.582  19.457  25.028  1.00  0.00    -0.263 N 
ATOM     25  C   UNL A   1      34.081  16.142  23.901  1.00  0.00     0.069 C 
ATOM     26  C   UNL A   1      33.997  17.484  24.522  1.00  0.00     0.059 A 
ATOM     27  C   UNL A   1      32.938  18.039  25.277  1.00  0.00     0.045 A 
ATOM     28  N   UNL A   1      35.009  18.349  24.388  1.00  0.00    -0.178 NA
ATOM     29  C   UNL A   1      33.354  19.310  25.600  1.00  0.00     0.109 A 
ENDBRANCH  23  24
ENDBRANCH  10  23
ENDBRANCH   7   9
ENDBRANCH   6   7
ENDBRANCH   5   6
ENDBRANCH   4   5
ENDBRANCH   3   4
ENDBRANCH   2   3
ENDBRANCH   1   2
BRANCH   1  30
ATOM     30  O   UNL A   1      31.826  29.168  26.544  1.00  0.00    -0.376 OA
BRANCH  30  31
ATOM     31  C   UNL A   1      33.111  29.298  27.133  1.00  0.00     0.202 C 
BRANCH  31  32
ATOM     32  C   UNL A   1      33.761  30.671  27.234  1.00  0.00     0.261 C 
BRANCH  32  33
ATOM     33  O   UNL A   1      35.174  30.620  27.192  1.00  0.00    -0.460 OA
BRANCH  33  34
ATOM     34  C   UNL A   1      35.767  31.609  27.895  1.00  0.00     0.338 C 
ATOM     35  O   UNL A   1      35.635  32.810  27.738  1.00  0.00    -0.246 OA
BRANCH  34  36
ATOM     36  C   UNL A   1      36.672  31.013  28.882  1.00  0.00     0.060 A 
ATOM     37  C   UNL A   1      37.652  31.860  29.403  1.00  0.00     0.016 A 
ATOM     38  C   UNL A   1      36.730  29.619  29.017  1.00  0.00     0.016 A 
ATOM     39  C   UNL A   1      38.834  31.298  29.814  1.00  0.00     0.010 A 
ATOM     40  C   UNL A   1      37.918  29.058  29.412  1.00  0.00     0.010 A 
ATOM     41  C   UNL A   1      38.981  29.914  29.697  1.00  0.00    -0.014 A 
BRANCH  41  42
ATOM     42  C   UNL A   1      40.319  29.383  29.808  1.00  0.00     0.031 A 
ATOM     43  C   UNL A   1      40.811  29.276  31.190  1.00  0.00     0.074 A 
ATOM     44  C   UNL A   1      40.984  28.947  28.722  1.00  0.00     0.049 A 
ATOM     45  N   UNL A   1      41.780  29.925  31.743  1.00  0.00    -0.248 NA
ATOM     46  C   UNL A   1      40.025  28.449  32.117  1.00  0.00     0.031 C 
ATOM     47  C   UNL A   1      40.446  28.740  27.372  1.00  0.00     0.029 A 
ATOM     48  N   UNL A   1      42.254  28.473  28.627  1.00  0.00    -0.354 N 
ATOM     49  C   UNL A   1      41.885  29.387  33.019  1.00  0.00     0.074 A 
ATOM     50  C   UNL A   1      40.665  28.664  33.264  1.00  0.00     0.031 C 
ATOM     51  C   UNL A   1      41.310  27.976  26.669  1.00  0.00     0.029 A 
ATOM     52  C   UNL A   1      42.495  27.735  27.476  1.00  0.00     0.049 A 
ATOM     53  H   UNL A   1      42.942  28.638  29.312  1.00  0.00     0.167 HD
ATOM     54  C   UNL A   1      43.086  29.310  33.650  1.00  0.00     0.037 A 
ATOM     55  C   UNL A   1      43.544  26.902  27.262  1.00  0.00     0.037 A 
ATOM     56  C   UNL A   1      44.044  30.232  33.091  1.00  0.00     0.049 A 
ATOM     57  C   UNL A   1      44.609  27.269  28.234  1.00  0.00     0.074 A 
ATOM     58  C   UNL A   1      44.059  31.595  32.867  1.00  0.00     0.029 A 
ATOM     59  N   UNL A   1      45.074  29.718  32.340  1.00  0.00    -0.354 N 
ATOM     60  N   UNL A   1      45.287  28.384  28.204  1.00  0.00    -0.248 NA
ATOM     61  C   UNL A   1      44.650  26.558  29.506  1.00  0.00     0.031 C 
ATOM     62  C   UNL A   1      44.793  31.772  31.659  1.00  0.00     0.029 A 
ATOM     63  C   UNL A   1      45.216  30.514  31.232  1.00  0.00     0.049 A 
ATOM     64  H   UNL A   1      45.613  28.924  32.558  1.00  0.00     0.167 HD
ATOM     65  C   UNL A   1      45.484  28.721  29.535  1.00  0.00     0.074 A 
ATOM     66  C   UNL A   1      45.175  27.507  30.283  1.00  0.00     0.031 C 
ATOM     67  C   UNL A   1      45.603  30.024  29.926  1.00  0.00     0.037 A 
BRANCH  54  68
ATOM     68  C   UNL A   1      43.485  28.122  34.490  1.00  0.00     0.058 A 
ATOM     69  C   UNL A   1      44.014  28.336  35.776  1.00  0.00     0.135 A 
ATOM     70  C   UNL A   1      43.635  26.810  33.978  1.00  0.00     0.135 A 
ATOM     71  F   UNL A   1      43.941  29.549  36.349  1.00  0.00    -0.206 F 
ATOM     72  C   UNL A   1      44.707  27.345  36.469  1.00  0.00     0.059 A 
ATOM     73  C   UNL A   1      44.262  25.791  34.678  1.00  0.00     0.059 A 
ATOM     74  F   UNL A   1      43.277  26.476  32.732  1.00  0.00    -0.206 F 
ATOM     75  C   UNL A   1      44.840  26.081  35.900  1.00  0.00     0.060 A 
BRANCH  75  76
ATOM     76  S   UNL A   1      45.848  24.836  36.720  1.00  0.00     0.124 S 
ATOM     77  O   UNL A   1      46.065  25.459  38.019  1.00  0.00    -0.237 OA
ATOM     78  O   UNL A   1      44.968  23.673  36.702  1.00  0.00    -0.237 OA
ATOM     79  O   UNL A   1      47.023  24.740  35.858  1.00  0.00    -0.744 OA
ENDBRANCH  75  76
ENDBRANCH  54  68
BRANCH  55  80
ATOM     80  C   UNL A   1      43.553  25.620  26.507  1.00  0.00     0.058 A 
ATOM     81  C   UNL A   1      44.404  25.439  25.402  1.00  0.00     0.135 A 
ATOM     82  C   UNL A   1      42.929  24.455  27.002  1.00  0.00     0.135 A 
ATOM     83  F   UNL A   1      45.061  26.485  24.878  1.00  0.00    -0.206 F 
ATOM     84  C   UNL A   1      44.659  24.178  24.853  1.00  0.00     0.059 A 
ATOM     85  C   UNL A   1      43.149  23.191  26.457  1.00  0.00     0.059 A 
ATOM     86  F   UNL A   1      42.156  24.487  28.097  1.00  0.00    -0.206 F 
ATOM     87  C   UNL A   1      44.038  23.056  25.400  1.00  0.00     0.060 A 
BRANCH  87  88
ATOM     88  S   UNL A   1      44.492  21.408  24.813  1.00  0.00     0.124 S 
ATOM     89  O   UNL A   1      45.729  21.158  25.546  1.00  0.00    -0.237 OA
ATOM     90  O   UNL A   1      43.340  20.610  25.213  1.00  0.00    -0.237 OA
ATOM     91  O   UNL A   1      44.649  21.593  23.372  1.00  0.00    -0.744 OA
ENDBRANCH  87  88
ENDBRANCH  55  80
BRANCH  67  92
ATOM     92  C   UNL A   1      45.904  31.059  28.875  1.00  0.00     0.058 A 
ATOM     93  C   UNL A   1      44.938  31.656  28.048  1.00  0.00     0.135 A 
ATOM     94  C   UNL A   1      47.211  31.570  28.806  1.00  0.00     0.135 A 
ATOM     95  F   UNL A   1      43.645  31.304  28.130  1.00  0.00    -0.206 F 
ATOM     96  C   UNL A   1      45.265  32.682  27.158  1.00  0.00     0.059 A 
ATOM     97  C   UNL A   1      47.553  32.613  27.951  1.00  0.00     0.059 A 
ATOM     98  F   UNL A   1      48.166  31.085  29.618  1.00  0.00    -0.206 F 
ATOM     99  C   UNL A   1      46.577  33.156  27.120  1.00  0.00     0.060 A 
BRANCH  99 100
ATOM    100  S   UNL A   1      46.979  34.542  26.034  1.00  0.00     0.124 S 
ATOM    101  O   UNL A   1      46.751  35.691  26.904  1.00  0.00    -0.237 OA
ATOM    102  O   UNL A   1      48.373  34.279  25.685  1.00  0.00    -0.237 OA
ATOM    103  O   UNL A   1      46.034  34.396  24.930  1.00  0.00    -0.744 OA
ENDBRANCH  99 100
ENDBRANCH  67  92
ENDBRANCH  41  42
ENDBRANCH  34  36
ENDBRANCH  33  34
ENDBRANCH  32  33
ENDBRANCH  31  32
ENDBRANCH  30  31
ENDBRANCH   1  30
TORSDOF 22
ENDMDL
