MODEL 1
REMARK VINA RESULT:     -11.9      0.000      0.000
REMARK SMILES O=C(OCCOCCOCCOC(=O)c1ccc(-c2c3nc(c(-c4c(F)cc(S(=O)(=O)[O-])cc4F)c4ccc([nH]4)c(-c4c(F)cc(S(=O)(=O)[O-])cc4F)c4nc(c(-c5c(F)cc(S(=O)(=O)[O-])cc5F)c5ccc2[nH]5)C=C4)C=C3)cc1)C1=Cc2cc(Cl)c(Cl)cc2O[C@@H]1C(F)(F)F
REMARK SMILES IDX 8 1 7 2 6 3 5 4 4 5 3 6 2 7 1 8 81 9 82 10 92 11 83 12 91 13
REMARK SMILES IDX 84 14 90 15 85 16 89 17 86 18 87 19 88 20 93 21 94 22 95 23
REMARK SMILES IDX 96 24 9 25 10 26 11 27 12 28 13 29 14 30 15 31 16 32 80 33
REMARK SMILES IDX 17 34 79 35 18 36 19 37 20 38 73 39 21 40 78 41 72 42 74 43
REMARK SMILES IDX 22 44 77 45 71 46 70 47 23 49 57 50 36 51 56 52 37 53 40 54
REMARK SMILES IDX 55 55 75 56 38 57 39 58 54 60 76 61 41 62 24 63 25 64 34 65
REMARK SMILES IDX 26 66 27 67 33 68 35 69 28 70 29 71 30 72 31 73 32 74 58 75
REMARK SMILES IDX 59 76 68 77 60 78 61 79 67 80 69 81 62 82 63 83 64 84 65 85
REMARK SMILES IDX 66 86 42 87 43 88 52 89 44 90 45 91 51 92 53 93 46 94 47 95
REMARK SMILES IDX 48 96 49 97 50 98
REMARK H PARENT 74 48 40 59
REMARK Flexibility Score: inf
ROOT
ATOM      1  C   UNL A   1      35.044  21.113  24.984  1.00  0.00     0.188 C 
ENDROOT
BRANCH   1   2
ATOM      2  C   UNL A   1      33.526  20.986  25.209  1.00  0.00     0.188 C 
BRANCH   2   3
ATOM      3  O   UNL A   1      32.510  20.961  24.150  1.00  0.00    -0.376 OA
BRANCH   3   4
ATOM      4  C   UNL A   1      32.135  22.105  22.993  1.00  0.00     0.202 C 
BRANCH   4   5
ATOM      5  C   UNL A   1      33.358  23.761  22.317  1.00  0.00     0.261 C 
BRANCH   5   6
ATOM      6  O   UNL A   1      33.936  24.880  23.186  1.00  0.00    -0.460 OA
BRANCH   6   7
ATOM      7  C   UNL A   1      33.247  26.021  23.070  1.00  0.00     0.338 C 
ATOM      8  O   UNL A   1      33.355  26.892  22.246  1.00  0.00    -0.246 OA
BRANCH   7   9
ATOM      9  C   UNL A   1      32.707  26.019  24.415  1.00  0.00     0.087 C 
ATOM     10  C   UNL A   1      33.646  26.548  25.423  1.00  0.00     0.027 C 
ATOM     11  C   UNL A   1      31.043  26.851  23.915  1.00  0.00     0.316 C 
ATOM     12  C   UNL A   1      33.504  28.193  26.162  1.00  0.00     0.019 A 
ATOM     13  O   UNL A   1      30.931  28.664  24.603  1.00  0.00    -0.475 OA
ATOM     14  C   UNL A   1      34.498  28.661  26.975  1.00  0.00     0.034 A 
ATOM     15  C   UNL A   1      32.219  29.278  25.744  1.00  0.00     0.129 A 
ATOM     16  C   UNL A   1      34.339  29.995  27.415  1.00  0.00     0.060 A 
ATOM     17  C   UNL A   1      32.116  30.551  26.228  1.00  0.00     0.069 A 
ATOM     18  Cl  UNL A   1      35.648  30.575  28.416  1.00  0.00    -0.083 Cl
ATOM     19  C   UNL A   1      33.208  30.881  27.075  1.00  0.00     0.063 A 
ATOM     20  Cl  UNL A   1      33.179  32.493  27.745  1.00  0.00    -0.083 Cl
BRANCH  11  21
ATOM     21  C   UNL A   1      30.121  25.524  24.178  1.00  0.00     0.430 C 
ATOM     22  F   UNL A   1      30.406  24.728  25.212  1.00  0.00    -0.167 F 
ATOM     23  F   UNL A   1      28.857  25.974  24.436  1.00  0.00    -0.167 F 
ATOM     24  F   UNL A   1      29.982  24.733  23.083  1.00  0.00    -0.167 F 
ENDBRANCH  11  21
ENDBRANCH   7   9
ENDBRANCH   6   7
ENDBRANCH   5   6
ENDBRANCH   4   5
ENDBRANCH   3   4
ENDBRANCH   2   3
ENDBRANCH   1   2
BRANCH   1  25
ATOM     25  O   UNL A   1      35.529  21.954  23.969  1.00  0.00    -0.376 OA
BRANCH  25  26
ATOM     26  C   UNL A   1      36.922  22.230  24.008  1.00  0.00     0.202 C 
BRANCH  26  27
ATOM     27  C   UNL A   1      37.794  21.455  25.009  1.00  0.00     0.261 C 
BRANCH  27  28
ATOM     28  O   UNL A   1      38.221  22.249  26.139  1.00  0.00    -0.460 OA
BRANCH  28  29
ATOM     29  C   UNL A   1      39.558  22.323  26.362  1.00  0.00     0.338 C 
ATOM     30  O   UNL A   1      40.419  21.608  25.877  1.00  0.00    -0.246 OA
BRANCH  29  31
ATOM     31  C   UNL A   1      39.880  23.531  27.155  1.00  0.00     0.060 A 
ATOM     32  C   UNL A   1      39.068  24.666  27.006  1.00  0.00     0.016 A 
ATOM     33  C   UNL A   1      40.997  23.571  27.991  1.00  0.00     0.016 A 
ATOM     34  C   UNL A   1      39.381  25.850  27.673  1.00  0.00     0.010 A 
ATOM     35  C   UNL A   1      41.340  24.773  28.622  1.00  0.00     0.010 A 
ATOM     36  C   UNL A   1      40.555  25.927  28.429  1.00  0.00    -0.014 A 
BRANCH  36  37
ATOM     37  C   UNL A   1      41.115  27.272  28.717  1.00  0.00     0.031 A 
ATOM     38  C   UNL A   1      42.580  27.478  28.428  1.00  0.00     0.074 A 
ATOM     39  C   UNL A   1      40.354  28.291  29.155  1.00  0.00     0.049 A 
ATOM     40  N   UNL A   1      43.308  28.557  28.533  1.00  0.00    -0.248 NA
ATOM     41  C   UNL A   1      43.323  26.297  27.950  1.00  0.00     0.031 C 
ATOM     42  C   UNL A   1      38.920  28.224  29.426  1.00  0.00     0.029 A 
ATOM     43  N   UNL A   1      40.693  29.591  29.443  1.00  0.00    -0.354 N 
ATOM     44  C   UNL A   1      44.588  28.186  28.133  1.00  0.00     0.074 A 
ATOM     45  C   UNL A   1      44.548  26.777  27.823  1.00  0.00     0.031 C 
ATOM     46  C   UNL A   1      38.501  29.432  29.847  1.00  0.00     0.029 A 
ATOM     47  C   UNL A   1      39.639  30.351  29.892  1.00  0.00     0.049 A 
ATOM     48  H   UNL A   1      41.605  29.944  29.335  1.00  0.00     0.167 HD
ATOM     49  C   UNL A   1      45.697  28.954  28.027  1.00  0.00     0.037 A 
ATOM     50  C   UNL A   1      39.607  31.638  30.298  1.00  0.00     0.037 A 
ATOM     51  C   UNL A   1      45.734  30.352  28.359  1.00  0.00     0.049 A 
ATOM     52  C   UNL A   1      40.877  32.456  30.242  1.00  0.00     0.074 A 
ATOM     53  C   UNL A   1      46.800  31.228  28.280  1.00  0.00     0.029 A 
ATOM     54  N   UNL A   1      44.657  31.075  28.855  1.00  0.00    -0.354 N 
ATOM     55  N   UNL A   1      42.073  32.106  29.826  1.00  0.00    -0.248 NA
ATOM     56  C   UNL A   1      40.788  33.851  30.696  1.00  0.00     0.031 C 
ATOM     57  C   UNL A   1      46.391  32.460  28.797  1.00  0.00     0.029 A 
ATOM     58  C   UNL A   1      45.044  32.378  29.116  1.00  0.00     0.049 A 
ATOM     59  H   UNL A   1      43.752  30.714  28.999  1.00  0.00     0.167 HD
ATOM     60  C   UNL A   1      42.863  33.249  29.924  1.00  0.00     0.074 A 
ATOM     61  C   UNL A   1      42.007  34.301  30.433  1.00  0.00     0.031 C 
ATOM     62  C   UNL A   1      44.175  33.417  29.615  1.00  0.00     0.037 A 
BRANCH  49  63
ATOM     63  C   UNL A   1      46.968  28.283  27.579  1.00  0.00     0.058 A 
ATOM     64  C   UNL A   1      47.391  28.301  26.240  1.00  0.00     0.135 A 
ATOM     65  C   UNL A   1      47.783  27.620  28.511  1.00  0.00     0.135 A 
ATOM     66  F   UNL A   1      46.640  28.897  25.299  1.00  0.00    -0.206 F 
ATOM     67  C   UNL A   1      48.561  27.663  25.837  1.00  0.00     0.059 A 
ATOM     68  C   UNL A   1      48.974  27.006  28.137  1.00  0.00     0.059 A 
ATOM     69  F   UNL A   1      47.423  27.562  29.803  1.00  0.00    -0.206 F 
ATOM     70  C   UNL A   1      49.348  27.021  26.795  1.00  0.00     0.060 A 
BRANCH  70  71
ATOM     71  S   UNL A   1      50.868  26.210  26.259  1.00  0.00     0.124 S 
ATOM     72  O   UNL A   1      50.619  26.033  24.832  1.00  0.00    -0.237 OA
ATOM     73  O   UNL A   1      51.885  27.198  26.607  1.00  0.00    -0.237 OA
ATOM     74  O   UNL A   1      50.895  24.982  27.048  1.00  0.00    -0.744 OA
ENDBRANCH  70  71
ENDBRANCH  49  63
BRANCH  50  75
ATOM     75  C   UNL A   1      38.335  32.244  30.786  1.00  0.00     0.058 A 
ATOM     76  C   UNL A   1      37.886  32.041  32.100  1.00  0.00     0.135 A 
ATOM     77  C   UNL A   1      37.529  33.021  29.939  1.00  0.00     0.135 A 
ATOM     78  F   UNL A   1      38.610  31.293  32.949  1.00  0.00    -0.206 F 
ATOM     79  C   UNL A   1      36.679  32.566  32.551  1.00  0.00     0.059 A 
ATOM     80  C   UNL A   1      36.332  33.583  30.376  1.00  0.00     0.059 A 
ATOM     81  F   UNL A   1      37.909  33.250  28.672  1.00  0.00    -0.206 F 
ATOM     82  C   UNL A   1      35.910  33.341  31.682  1.00  0.00     0.060 A 
BRANCH  82  83
ATOM     83  S   UNL A   1      34.364  34.051  32.291  1.00  0.00     0.124 S 
ATOM     84  O   UNL A   1      33.796  34.614  31.072  1.00  0.00    -0.237 OA
ATOM     85  O   UNL A   1      33.684  32.879  32.833  1.00  0.00    -0.237 OA
ATOM     86  O   UNL A   1      34.810  35.024  33.285  1.00  0.00    -0.744 OA
ENDBRANCH  82  83
ENDBRANCH  50  75
BRANCH  62  87
ATOM     87  C   UNL A   1      44.753  34.803  29.748  1.00  0.00     0.058 A 
ATOM     88  C   UNL A   1      45.381  35.247  30.923  1.00  0.00     0.135 A 
ATOM     89  C   UNL A   1      44.709  35.691  28.659  1.00  0.00     0.135 A 
ATOM     90  F   UNL A   1      45.457  34.441  31.995  1.00  0.00    -0.206 F 
ATOM     91  C   UNL A   1      45.901  36.533  31.029  1.00  0.00     0.059 A 
ATOM     92  C   UNL A   1      45.259  36.967  28.729  1.00  0.00     0.059 A 
ATOM     93  F   UNL A   1      44.139  35.317  27.502  1.00  0.00    -0.206 F 
ATOM     94  C   UNL A   1      45.834  37.387  29.925  1.00  0.00     0.060 A 
BRANCH  94  95
ATOM     95  S   UNL A   1      46.514  39.052  30.076  1.00  0.00     0.124 S 
ATOM     96  O   UNL A   1      47.584  38.846  31.046  1.00  0.00    -0.237 OA
ATOM     97  O   UNL A   1      46.942  39.338  28.710  1.00  0.00    -0.237 OA
ATOM     98  O   UNL A   1      45.381  39.841  30.550  1.00  0.00    -0.744 OA
ENDBRANCH  94  95
ENDBRANCH  62  87
ENDBRANCH  36  37
ENDBRANCH  29  31
ENDBRANCH  28  29
ENDBRANCH  27  28
ENDBRANCH  26  27
ENDBRANCH  25  26
ENDBRANCH   1  25
TORSDOF 21
ENDMDL
MODEL 2
REMARK VINA RESULT:     -11.9      3.355      9.647
REMARK SMILES O=C(OCCOCCOCCOC(=O)c1ccc(-c2c3nc(c(-c4c(F)cc(S(=O)(=O)[O-])cc4F)c4ccc([nH]4)c(-c4c(F)cc(S(=O)(=O)[O-])cc4F)c4nc(c(-c5c(F)cc(S(=O)(=O)[O-])cc5F)c5ccc2[nH]5)C=C4)C=C3)cc1)C1=Cc2cc(Cl)c(Cl)cc2O[C@@H]1C(F)(F)F
REMARK SMILES IDX 8 1 7 2 6 3 5 4 4 5 3 6 2 7 1 8 81 9 82 10 92 11 83 12 91 13
REMARK SMILES IDX 84 14 90 15 85 16 89 17 86 18 87 19 88 20 93 21 94 22 95 23
REMARK SMILES IDX 96 24 9 25 10 26 11 27 12 28 13 29 14 30 15 31 16 32 80 33
REMARK SMILES IDX 17 34 79 35 18 36 19 37 20 38 73 39 21 40 78 41 72 42 74 43
REMARK SMILES IDX 22 44 77 45 71 46 70 47 23 49 57 50 36 51 56 52 37 53 40 54
REMARK SMILES IDX 55 55 75 56 38 57 39 58 54 60 76 61 41 62 24 63 25 64 34 65
REMARK SMILES IDX 26 66 27 67 33 68 35 69 28 70 29 71 30 72 31 73 32 74 58 75
REMARK SMILES IDX 59 76 68 77 60 78 61 79 67 80 69 81 62 82 63 83 64 84 65 85
REMARK SMILES IDX 66 86 42 87 43 88 52 89 44 90 45 91 51 92 53 93 46 94 47 95
REMARK SMILES IDX 48 96 49 97 50 98
REMARK H PARENT 74 48 40 59
REMARK Flexibility Score: inf
ROOT
ATOM      1  C   UNL A   1      34.439  34.397  28.917  1.00  0.00     0.188 C 
ENDROOT
BRANCH   1   2
ATOM      2  C   UNL A   1      33.902  33.207  28.103  1.00  0.00     0.188 C 
BRANCH   2   3
ATOM      3  O   UNL A   1      34.625  31.955  27.851  1.00  0.00    -0.376 OA
BRANCH   3   4
ATOM      4  C   UNL A   1      34.061  30.478  27.314  1.00  0.00     0.202 C 
BRANCH   4   5
ATOM      5  C   UNL A   1      32.691  30.094  25.679  1.00  0.00     0.261 C 
BRANCH   5   6
ATOM      6  O   UNL A   1      31.430  29.229  25.732  1.00  0.00    -0.460 OA
BRANCH   6   7
ATOM      7  C   UNL A   1      31.683  27.989  26.169  1.00  0.00     0.338 C 
ATOM      8  O   UNL A   1      31.952  27.618  27.283  1.00  0.00    -0.246 OA
BRANCH   7   9
ATOM      9  C   UNL A   1      31.934  27.408  24.866  1.00  0.00     0.087 C 
ATOM     10  C   UNL A   1      33.294  26.855  24.724  1.00  0.00     0.027 C 
ATOM     11  C   UNL A   1      30.313  26.367  24.846  1.00  0.00     0.316 C 
ATOM     12  C   UNL A   1      33.669  25.086  24.765  1.00  0.00     0.019 A 
ATOM     13  O   UNL A   1      30.697  24.470  25.012  1.00  0.00    -0.475 OA
ATOM     14  C   UNL A   1      34.970  24.666  24.776  1.00  0.00     0.034 A 
ATOM     15  C   UNL A   1      32.429  23.891  24.959  1.00  0.00     0.129 A 
ATOM     16  C   UNL A   1      35.152  23.271  24.915  1.00  0.00     0.060 A 
ATOM     17  C   UNL A   1      32.678  22.553  25.064  1.00  0.00     0.069 A 
ATOM     18  Cl  UNL A   1      36.826  22.774  24.968  1.00  0.00    -0.083 Cl
ATOM     19  C   UNL A   1      34.071  22.273  25.036  1.00  0.00     0.063 A 
ATOM     20  Cl  UNL A   1      34.502  20.587  25.169  1.00  0.00    -0.083 Cl
BRANCH  11  21
ATOM     21  C   UNL A   1      29.586  27.235  23.664  1.00  0.00     0.430 C 
ATOM     22  F   UNL A   1      29.574  28.568  23.748  1.00  0.00    -0.167 F 
ATOM     23  F   UNL A   1      30.274  26.975  22.512  1.00  0.00    -0.167 F 
ATOM     24  F   UNL A   1      28.316  26.834  23.398  1.00  0.00    -0.167 F 
ENDBRANCH  11  21
ENDBRANCH   7   9
ENDBRANCH   6   7
ENDBRANCH   5   6
ENDBRANCH   4   5
ENDBRANCH   3   4
ENDBRANCH   2   3
ENDBRANCH   1   2
BRANCH   1  25
ATOM     25  O   UNL A   1      35.221  34.162  30.061  1.00  0.00    -0.376 OA
BRANCH  25  26
ATOM     26  C   UNL A   1      34.649  33.298  31.033  1.00  0.00     0.202 C 
BRANCH  26  27
ATOM     27  C   UNL A   1      35.488  32.118  31.549  1.00  0.00     0.261 C 
BRANCH  27  28
ATOM     28  O   UNL A   1      36.161  31.386  30.500  1.00  0.00    -0.460 OA
BRANCH  28  29
ATOM     29  C   UNL A   1      36.791  30.239  30.864  1.00  0.00     0.338 C 
ATOM     30  O   UNL A   1      36.282  29.265  31.393  1.00  0.00    -0.246 OA
BRANCH  29  31
ATOM     31  C   UNL A   1      38.185  30.238  30.365  1.00  0.00     0.060 A 
ATOM     32  C   UNL A   1      38.401  30.148  28.981  1.00  0.00     0.016 A 
ATOM     33  C   UNL A   1      39.268  30.266  31.245  1.00  0.00     0.016 A 
ATOM     34  C   UNL A   1      39.696  30.065  28.473  1.00  0.00     0.010 A 
ATOM     35  C   UNL A   1      40.567  30.132  30.740  1.00  0.00     0.010 A 
ATOM     36  C   UNL A   1      40.780  29.988  29.355  1.00  0.00    -0.014 A 
BRANCH  36  37
ATOM     37  C   UNL A   1      42.056  29.424  28.847  1.00  0.00     0.031 A 
ATOM     38  C   UNL A   1      43.235  30.360  28.775  1.00  0.00     0.074 A 
ATOM     39  C   UNL A   1      42.192  28.126  28.520  1.00  0.00     0.049 A 
ATOM     40  N   UNL A   1      44.471  30.122  28.425  1.00  0.00    -0.248 NA
ATOM     41  C   UNL A   1      42.980  31.761  29.156  1.00  0.00     0.031 C 
ATOM     42  C   UNL A   1      41.137  27.118  28.591  1.00  0.00     0.029 A 
ATOM     43  N   UNL A   1      43.289  27.436  28.065  1.00  0.00    -0.354 N 
ATOM     44  C   UNL A   1      45.137  31.337  28.546  1.00  0.00     0.074 A 
ATOM     45  C   UNL A   1      44.163  32.319  28.962  1.00  0.00     0.031 C 
ATOM     46  C   UNL A   1      41.639  25.935  28.189  1.00  0.00     0.029 A 
ATOM     47  C   UNL A   1      43.044  26.107  27.814  1.00  0.00     0.049 A 
ATOM     48  H   UNL A   1      44.170  27.855  27.934  1.00  0.00     0.167 HD
ATOM     49  C   UNL A   1      46.445  31.610  28.337  1.00  0.00     0.037 A 
ATOM     50  C   UNL A   1      43.861  25.148  27.331  1.00  0.00     0.037 A 
ATOM     51  C   UNL A   1      47.404  30.631  27.901  1.00  0.00     0.049 A 
ATOM     52  C   UNL A   1      45.302  25.494  27.033  1.00  0.00     0.074 A 
ATOM     53  C   UNL A   1      48.757  30.796  27.668  1.00  0.00     0.029 A 
ATOM     54  N   UNL A   1      47.105  29.306  27.613  1.00  0.00    -0.354 N 
ATOM     55  N   UNL A   1      45.930  26.638  27.187  1.00  0.00    -0.248 NA
ATOM     56  C   UNL A   1      46.149  24.414  26.508  1.00  0.00     0.031 C 
ATOM     57  C   UNL A   1      49.261  29.593  27.168  1.00  0.00     0.029 A 
ATOM     58  C   UNL A   1      48.243  28.651  27.173  1.00  0.00     0.049 A 
ATOM     59  H   UNL A   1      46.217  28.894  27.709  1.00  0.00     0.167 HD
ATOM     60  C   UNL A   1      47.254  26.400  26.825  1.00  0.00     0.074 A 
ATOM     61  C   UNL A   1      47.335  25.004  26.450  1.00  0.00     0.031 C 
ATOM     62  C   UNL A   1      48.309  27.256  26.812  1.00  0.00     0.037 A 
BRANCH  49  63
ATOM     63  C   UNL A   1      46.899  33.033  28.529  1.00  0.00     0.058 A 
ATOM     64  C   UNL A   1      47.348  33.512  29.771  1.00  0.00     0.135 A 
ATOM     65  C   UNL A   1      46.896  33.928  27.447  1.00  0.00     0.135 A 
ATOM     66  F   UNL A   1      47.349  32.710  30.848  1.00  0.00    -0.206 F 
ATOM     67  C   UNL A   1      47.751  34.835  29.939  1.00  0.00     0.059 A 
ATOM     68  C   UNL A   1      47.327  35.243  27.583  1.00  0.00     0.059 A 
ATOM     69  F   UNL A   1      46.467  33.527  26.240  1.00  0.00    -0.206 F 
ATOM     70  C   UNL A   1      47.740  35.691  28.836  1.00  0.00     0.060 A 
BRANCH  70  71
ATOM     71  S   UNL A   1      48.277  37.399  29.067  1.00  0.00     0.124 S 
ATOM     72  O   UNL A   1      48.896  37.335  30.387  1.00  0.00    -0.237 OA
ATOM     73  O   UNL A   1      49.191  37.589  27.945  1.00  0.00    -0.237 OA
ATOM     74  O   UNL A   1      47.033  38.160  28.995  1.00  0.00    -0.744 OA
ENDBRANCH  70  71
ENDBRANCH  49  63
BRANCH  50  75
ATOM     75  C   UNL A   1      43.351  23.765  27.105  1.00  0.00     0.058 A 
ATOM     76  C   UNL A   1      43.039  23.303  25.817  1.00  0.00     0.135 A 
ATOM     77  C   UNL A   1      43.144  22.883  28.177  1.00  0.00     0.135 A 
ATOM     78  F   UNL A   1      43.203  24.111  24.757  1.00  0.00    -0.206 F 
ATOM     79  C   UNL A   1      42.521  22.030  25.601  1.00  0.00     0.059 A 
ATOM     80  C   UNL A   1      42.656  21.593  27.983  1.00  0.00     0.059 A 
ATOM     81  F   UNL A   1      43.427  23.269  29.431  1.00  0.00    -0.206 F 
ATOM     82  C   UNL A   1      42.337  21.178  26.691  1.00  0.00     0.060 A 
BRANCH  82  83
ATOM     83  S   UNL A   1      41.703  19.514  26.394  1.00  0.00     0.124 S 
ATOM     84  O   UNL A   1      42.379  19.156  25.152  1.00  0.00    -0.237 OA
ATOM     85  O   UNL A   1      42.144  18.802  27.589  1.00  0.00    -0.237 OA
ATOM     86  O   UNL A   1      40.260  19.717  26.289  1.00  0.00    -0.744 OA
ENDBRANCH  82  83
ENDBRANCH  50  75
BRANCH  62  87
ATOM     87  C   UNL A   1      49.659  26.695  26.446  1.00  0.00     0.058 A 
ATOM     88  C   UNL A   1      50.484  26.049  27.382  1.00  0.00     0.135 A 
ATOM     89  C   UNL A   1      50.118  26.774  25.120  1.00  0.00     0.135 A 
ATOM     90  F   UNL A   1      50.097  25.940  28.663  1.00  0.00    -0.206 F 
ATOM     91  C   UNL A   1      51.732  25.545  27.026  1.00  0.00     0.059 A 
ATOM     92  C   UNL A   1      51.343  26.240  24.733  1.00  0.00     0.059 A 
ATOM     93  F   UNL A   1      49.365  27.361  24.177  1.00  0.00    -0.206 F 
ATOM     94  C   UNL A   1      52.153  25.646  25.698  1.00  0.00     0.060 A 
BRANCH  94  95
ATOM     95  S   UNL A   1      53.772  24.987  25.251  1.00  0.00     0.124 S 
ATOM     96  O   UNL A   1      54.571  25.354  26.415  1.00  0.00    -0.237 OA
ATOM     97  O   UNL A   1      53.496  23.563  25.094  1.00  0.00    -0.237 OA
ATOM     98  O   UNL A   1      54.100  25.695  24.017  1.00  0.00    -0.744 OA
ENDBRANCH  94  95
ENDBRANCH  62  87
ENDBRANCH  36  37
ENDBRANCH  29  31
ENDBRANCH  28  29
ENDBRANCH  27  28
ENDBRANCH  26  27
ENDBRANCH  25  26
ENDBRANCH   1  25
TORSDOF 21
ENDMDL
MODEL 3
REMARK VINA RESULT:     -11.6      3.066      9.610
REMARK SMILES O=C(OCCOCCOCCOC(=O)c1ccc(-c2c3nc(c(-c4c(F)cc(S(=O)(=O)[O-])cc4F)c4ccc([nH]4)c(-c4c(F)cc(S(=O)(=O)[O-])cc4F)c4nc(c(-c5c(F)cc(S(=O)(=O)[O-])cc5F)c5ccc2[nH]5)C=C4)C=C3)cc1)C1=Cc2cc(Cl)c(Cl)cc2O[C@@H]1C(F)(F)F
REMARK SMILES IDX 8 1 7 2 6 3 5 4 4 5 3 6 2 7 1 8 81 9 82 10 92 11 83 12 91 13
REMARK SMILES IDX 84 14 90 15 85 16 89 17 86 18 87 19 88 20 93 21 94 22 95 23
REMARK SMILES IDX 96 24 9 25 10 26 11 27 12 28 13 29 14 30 15 31 16 32 80 33
REMARK SMILES IDX 17 34 79 35 18 36 19 37 20 38 73 39 21 40 78 41 72 42 74 43
REMARK SMILES IDX 22 44 77 45 71 46 70 47 23 49 57 50 36 51 56 52 37 53 40 54
REMARK SMILES IDX 55 55 75 56 38 57 39 58 54 60 76 61 41 62 24 63 25 64 34 65
REMARK SMILES IDX 26 66 27 67 33 68 35 69 28 70 29 71 30 72 31 73 32 74 58 75
REMARK SMILES IDX 59 76 68 77 60 78 61 79 67 80 69 81 62 82 63 83 64 84 65 85
REMARK SMILES IDX 66 86 42 87 43 88 52 89 44 90 45 91 51 92 53 93 46 94 47 95
REMARK SMILES IDX 48 96 49 97 50 98
REMARK H PARENT 74 48 40 59
REMARK Flexibility Score: inf
ROOT
ATOM      1  C   UNL A   1      33.883  34.498  28.896  1.00  0.00     0.188 C 
ENDROOT
BRANCH   1   2
ATOM      2  C   UNL A   1      33.621  33.303  27.961  1.00  0.00     0.188 C 
BRANCH   2   3
ATOM      3  O   UNL A   1      33.862  31.895  28.295  1.00  0.00    -0.376 OA
BRANCH   3   4
ATOM      4  C   UNL A   1      34.427  30.646  27.342  1.00  0.00     0.202 C 
BRANCH   4   5
ATOM      5  C   UNL A   1      33.443  28.769  26.891  1.00  0.00     0.261 C 
BRANCH   5   6
ATOM      6  O   UNL A   1      32.826  28.364  25.550  1.00  0.00    -0.460 OA
BRANCH   6   7
ATOM      7  C   UNL A   1      32.059  29.331  25.031  1.00  0.00     0.338 C 
ATOM      8  O   UNL A   1      31.358  30.129  25.597  1.00  0.00    -0.246 OA
BRANCH   7   9
ATOM      9  C   UNL A   1      32.042  28.811  23.678  1.00  0.00     0.087 C 
ATOM     10  C   UNL A   1      33.139  27.865  23.401  1.00  0.00     0.027 C 
ATOM     11  C   UNL A   1      30.171  28.351  23.714  1.00  0.00     0.316 C 
ATOM     12  C   UNL A   1      32.918  26.072  23.303  1.00  0.00     0.019 A 
ATOM     13  O   UNL A   1      29.924  26.424  23.731  1.00  0.00    -0.475 OA
ATOM     14  C   UNL A   1      34.011  25.257  23.190  1.00  0.00     0.034 A 
ATOM     15  C   UNL A   1      31.368  25.326  23.514  1.00  0.00     0.129 A 
ATOM     16  C   UNL A   1      33.735  23.871  23.228  1.00  0.00     0.060 A 
ATOM     17  C   UNL A   1      31.172  23.975  23.515  1.00  0.00     0.069 A 
ATOM     18  Cl  UNL A   1      35.156  22.860  23.125  1.00  0.00    -0.083 Cl
ATOM     19  C   UNL A   1      32.395  23.266  23.366  1.00  0.00     0.063 A 
ATOM     20  Cl  UNL A   1      32.260  21.526  23.360  1.00  0.00    -0.083 Cl
BRANCH  11  21
ATOM     21  C   UNL A   1      29.708  29.502  22.646  1.00  0.00     0.430 C 
ATOM     22  F   UNL A   1      30.482  29.758  21.588  1.00  0.00    -0.167 F 
ATOM     23  F   UNL A   1      28.526  29.079  22.107  1.00  0.00    -0.167 F 
ATOM     24  F   UNL A   1      29.408  30.693  23.227  1.00  0.00    -0.167 F 
ENDBRANCH  11  21
ENDBRANCH   7   9
ENDBRANCH   6   7
ENDBRANCH   5   6
ENDBRANCH   4   5
ENDBRANCH   3   4
ENDBRANCH   2   3
ENDBRANCH   1   2
BRANCH   1  25
ATOM     25  O   UNL A   1      33.279  34.534  30.164  1.00  0.00    -0.376 OA
BRANCH  25  26
ATOM     26  C   UNL A   1      34.144  34.301  31.267  1.00  0.00     0.202 C 
BRANCH  26  27
ATOM     27  C   UNL A   1      35.519  33.668  30.999  1.00  0.00     0.261 C 
BRANCH  27  28
ATOM     28  O   UNL A   1      35.480  32.227  30.887  1.00  0.00    -0.460 OA
BRANCH  28  29
ATOM     29  C   UNL A   1      36.219  31.525  31.784  1.00  0.00     0.338 C 
ATOM     30  O   UNL A   1      36.001  31.412  32.979  1.00  0.00    -0.246 OA
BRANCH  29  31
ATOM     31  C   UNL A   1      37.262  30.738  31.086  1.00  0.00     0.060 A 
ATOM     32  C   UNL A   1      38.119  29.934  31.854  1.00  0.00     0.016 A 
ATOM     33  C   UNL A   1      37.435  30.830  29.705  1.00  0.00     0.016 A 
ATOM     34  C   UNL A   1      39.163  29.238  31.248  1.00  0.00     0.010 A 
ATOM     35  C   UNL A   1      38.513  30.171  29.102  1.00  0.00     0.010 A 
ATOM     36  C   UNL A   1      39.405  29.409  29.881  1.00  0.00    -0.014 A 
BRANCH  36  37
ATOM     37  C   UNL A   1      40.755  29.073  29.362  1.00  0.00     0.031 A 
ATOM     38  C   UNL A   1      41.785  30.174  29.377  1.00  0.00     0.074 A 
ATOM     39  C   UNL A   1      41.084  27.834  28.954  1.00  0.00     0.049 A 
ATOM     40  N   UNL A   1      43.046  30.142  29.037  1.00  0.00    -0.248 NA
ATOM     41  C   UNL A   1      41.323  31.493  29.844  1.00  0.00     0.031 C 
ATOM     42  C   UNL A   1      40.188  26.681  28.936  1.00  0.00     0.029 A 
ATOM     43  N   UNL A   1      42.275  27.344  28.477  1.00  0.00    -0.354 N 
ATOM     44  C   UNL A   1      43.525  31.430  29.252  1.00  0.00     0.074 A 
ATOM     45  C   UNL A   1      42.413  32.229  29.711  1.00  0.00     0.031 C 
ATOM     46  C   UNL A   1      40.862  25.614  28.468  1.00  0.00     0.029 A 
ATOM     47  C   UNL A   1      42.230  26.014  28.133  1.00  0.00     0.049 A 
ATOM     48  H   UNL A   1      43.087  27.895  28.391  1.00  0.00     0.167 HD
ATOM     49  C   UNL A   1      44.781  31.905  29.088  1.00  0.00     0.037 A 
ATOM     50  C   UNL A   1      43.184  25.219  27.605  1.00  0.00     0.037 A 
ATOM     51  C   UNL A   1      45.878  31.108  28.608  1.00  0.00     0.049 A 
ATOM     52  C   UNL A   1      44.562  25.792  27.360  1.00  0.00     0.074 A 
ATOM     53  C   UNL A   1      47.194  31.484  28.414  1.00  0.00     0.029 A 
ATOM     54  N   UNL A   1      45.780  29.776  28.227  1.00  0.00    -0.354 N 
ATOM     55  N   UNL A   1      45.013  27.002  27.602  1.00  0.00    -0.248 NA
ATOM     56  C   UNL A   1      45.564  24.885  26.783  1.00  0.00     0.031 C 
ATOM     57  C   UNL A   1      47.875  30.404  27.846  1.00  0.00     0.029 A 
ATOM     58  C   UNL A   1      47.006  29.326  27.769  1.00  0.00     0.049 A 
ATOM     59  H   UNL A   1      44.961  29.234  28.277  1.00  0.00     0.167 HD
ATOM     60  C   UNL A   1      46.362  26.984  27.252  1.00  0.00     0.074 A 
ATOM     61  C   UNL A   1      46.651  25.643  26.788  1.00  0.00     0.031 C 
ATOM     62  C   UNL A   1      47.280  27.983  27.317  1.00  0.00     0.037 A 
BRANCH  49  63
ATOM     63  C   UNL A   1      45.020  33.362  29.383  1.00  0.00     0.058 A 
ATOM     64  C   UNL A   1      45.496  33.804  30.629  1.00  0.00     0.135 A 
ATOM     65  C   UNL A   1      44.778  34.332  28.396  1.00  0.00     0.135 A 
ATOM     66  F   UNL A   1      45.721  32.925  31.619  1.00  0.00    -0.206 F 
ATOM     67  C   UNL A   1      45.697  35.156  30.893  1.00  0.00     0.059 A 
ATOM     68  C   UNL A   1      45.005  35.684  28.627  1.00  0.00     0.059 A 
ATOM     69  F   UNL A   1      44.312  33.967  27.191  1.00  0.00    -0.206 F 
ATOM     70  C   UNL A   1      45.452  36.088  29.883  1.00  0.00     0.060 A 
BRANCH  70  71
ATOM     71  S   UNL A   1      45.730  37.836  30.238  1.00  0.00     0.124 S 
ATOM     72  O   UNL A   1      46.463  37.766  31.498  1.00  0.00    -0.237 OA
ATOM     73  O   UNL A   1      46.504  38.267  29.077  1.00  0.00    -0.237 OA
ATOM     74  O   UNL A   1      44.381  38.384  30.327  1.00  0.00    -0.744 OA
ENDBRANCH  70  71
ENDBRANCH  49  63
BRANCH  50  75
ATOM     75  C   UNL A   1      42.886  23.796  27.278  1.00  0.00     0.058 A 
ATOM     76  C   UNL A   1      42.716  23.371  25.951  1.00  0.00     0.135 A 
ATOM     77  C   UNL A   1      42.739  22.833  28.289  1.00  0.00     0.135 A 
ATOM     78  F   UNL A   1      42.829  24.253  24.944  1.00  0.00    -0.206 F 
ATOM     79  C   UNL A   1      42.394  22.054  25.638  1.00  0.00     0.059 A 
ATOM     80  C   UNL A   1      42.448  21.502  28.000  1.00  0.00     0.059 A 
ATOM     81  F   UNL A   1      42.892  23.180  29.576  1.00  0.00    -0.206 F 
ATOM     82  C   UNL A   1      42.266  21.124  26.671  1.00  0.00     0.060 A 
BRANCH  82  83
ATOM     83  S   UNL A   1      41.888  19.409  26.250  1.00  0.00     0.124 S 
ATOM     84  O   UNL A   1      42.409  18.696  27.410  1.00  0.00    -0.237 OA
ATOM     85  O   UNL A   1      40.434  19.441  26.119  1.00  0.00    -0.237 OA
ATOM     86  O   UNL A   1      42.617  19.199  25.002  1.00  0.00    -0.744 OA
ENDBRANCH  82  83
ENDBRANCH  50  75
BRANCH  62  87
ATOM     87  C   UNL A   1      48.702  27.651  26.943  1.00  0.00     0.058 A 
ATOM     88  C   UNL A   1      49.679  27.337  27.902  1.00  0.00     0.135 A 
ATOM     89  C   UNL A   1      49.082  27.610  25.590  1.00  0.00     0.135 A 
ATOM     90  F   UNL A   1      49.373  27.356  29.210  1.00  0.00    -0.206 F 
ATOM     91  C   UNL A   1      50.988  27.041  27.536  1.00  0.00     0.059 A 
ATOM     92  C   UNL A   1      50.375  27.277  25.200  1.00  0.00     0.059 A 
ATOM     93  F   UNL A   1      48.187  27.882  24.627  1.00  0.00    -0.206 F 
ATOM     94  C   UNL A   1      51.327  27.015  26.182  1.00  0.00     0.060 A 
BRANCH  94  95
ATOM     95  S   UNL A   1      53.029  26.629  25.722  1.00  0.00     0.124 S 
ATOM     96  O   UNL A   1      52.842  25.955  24.441  1.00  0.00    -0.237 OA
ATOM     97  O   UNL A   1      53.642  27.952  25.659  1.00  0.00    -0.237 OA
ATOM     98  O   UNL A   1      53.494  25.780  26.815  1.00  0.00    -0.744 OA
ENDBRANCH  94  95
ENDBRANCH  62  87
ENDBRANCH  36  37
ENDBRANCH  29  31
ENDBRANCH  28  29
ENDBRANCH  27  28
ENDBRANCH  26  27
ENDBRANCH  25  26
ENDBRANCH   1  25
TORSDOF 21
ENDMDL
