MODEL 1
REMARK VINA RESULT:     -10.0      0.000      0.000
REMARK SMILES O=C(OCCOCCOCCOC(=O)[C@@H]1CCCN(C(=O)Nc2ccccc2)C1)c1ccc(-c2c3nc(c(-c4c(F)cc(S(=O)(=O)[O-])cc4F)c4ccc([nH]4)c(-c4c(F)cc(S(=O)(=O)[O-])cc4F)c4nc(c(-c5c(F)cc(S(=O)(=O)[O-])cc5F)c5ccc2[nH]5)C=C4)C=C3)cc1
REMARK SMILES IDX 7 1 6 2 5 3 4 4 3 5 2 6 1 7 30 8 31 9 95 10 32 11 94 12
REMARK SMILES IDX 33 13 34 14 35 15 88 16 36 17 93 18 87 19 89 20 37 21 92 22
REMARK SMILES IDX 86 23 85 24 38 26 72 27 51 28 71 29 52 30 55 31 70 32 90 33
REMARK SMILES IDX 53 34 54 35 69 37 91 38 56 39 39 40 40 41 49 42 41 43 42 44
REMARK SMILES IDX 48 45 50 46 43 47 44 48 45 49 46 50 47 51 73 52 74 53 83 54
REMARK SMILES IDX 75 55 76 56 82 57 84 58 77 59 78 60 79 61 80 62 81 63 57 64
REMARK SMILES IDX 58 65 67 66 59 67 60 68 66 69 68 70 61 71 62 72 63 73 64 74
REMARK SMILES IDX 65 75 8 76 9 77 10 78 11 79 12 80 13 81 14 82 15 83 16 84
REMARK SMILES IDX 29 85 17 86 19 87 18 88 20 89 21 90 22 91 23 93 24 94 28 95
REMARK SMILES IDX 25 96 27 97 26 98
REMARK H PARENT 89 25 55 36 22 92
REMARK Flexibility Score: inf
ROOT
ATOM      1  C   UNL A   1      33.096  29.890  27.028  1.00  0.00     0.188 C 
ENDROOT
BRANCH   1   2
ATOM      2  O   UNL A   1      33.273  31.231  27.493  1.00  0.00    -0.376 OA
BRANCH   2   3
ATOM      3  C   UNL A   1      34.644  31.616  27.600  1.00  0.00     0.202 C 
BRANCH   3   4
ATOM      4  C   UNL A   1      35.011  32.131  29.003  1.00  0.00     0.261 C 
BRANCH   4   5
ATOM      5  O   UNL A   1      35.641  31.124  29.816  1.00  0.00    -0.460 OA
BRANCH   5   6
ATOM      6  C   UNL A   1      36.770  31.221  30.563  1.00  0.00     0.338 C 
ATOM      7  O   UNL A   1      36.696  31.816  31.639  1.00  0.00    -0.246 OA
BRANCH   6   8
ATOM      8  C   UNL A   1      38.102  30.644  30.180  1.00  0.00     0.060 A 
ATOM      9  C   UNL A   1      39.097  30.223  31.064  1.00  0.00     0.016 A 
ATOM     10  C   UNL A   1      38.334  30.449  28.804  1.00  0.00     0.016 A 
ATOM     11  C   UNL A   1      40.297  29.679  30.614  1.00  0.00     0.010 A 
ATOM     12  C   UNL A   1      39.528  29.884  28.341  1.00  0.00     0.010 A 
ATOM     13  C   UNL A   1      40.524  29.518  29.251  1.00  0.00    -0.014 A 
BRANCH  13  14
ATOM     14  C   UNL A   1      41.861  29.082  28.807  1.00  0.00     0.031 A 
ATOM     15  C   UNL A   1      42.968  30.089  28.799  1.00  0.00     0.074 A 
ATOM     16  C   UNL A   1      42.088  27.789  28.510  1.00  0.00     0.049 A 
ATOM     17  N   UNL A   1      44.204  29.951  28.408  1.00  0.00    -0.248 NA
ATOM     18  C   UNL A   1      42.639  31.433  29.306  1.00  0.00     0.031 C 
ATOM     19  C   UNL A   1      41.085  26.727  28.581  1.00  0.00     0.029 A 
ATOM     20  N   UNL A   1      43.227  27.146  28.103  1.00  0.00    -0.354 N 
ATOM     21  C   UNL A   1      44.795  31.193  28.594  1.00  0.00     0.074 A 
ATOM     22  C   UNL A   1      43.786  32.074  29.138  1.00  0.00     0.031 C 
ATOM     23  C   UNL A   1      41.656  25.563  28.230  1.00  0.00     0.029 A 
ATOM     24  C   UNL A   1      43.041  25.806  27.852  1.00  0.00     0.049 A 
ATOM     25  H   UNL A   1      44.095  27.598  27.999  1.00  0.00     0.167 HD
ATOM     26  C   UNL A   1      46.067  31.558  28.318  1.00  0.00     0.037 A 
ATOM     27  C   UNL A   1      43.881  24.890  27.331  1.00  0.00     0.037 A 
ATOM     28  C   UNL A   1      47.048  30.657  27.781  1.00  0.00     0.049 A 
ATOM     29  C   UNL A   1      45.268  25.341  26.963  1.00  0.00     0.074 A 
ATOM     30  C   UNL A   1      48.364  30.914  27.448  1.00  0.00     0.029 A 
ATOM     31  N   UNL A   1      46.811  29.319  27.491  1.00  0.00    -0.354 N 
ATOM     32  N   UNL A   1      45.814  26.524  27.126  1.00  0.00    -0.248 NA
ATOM     33  C   UNL A   1      46.146  24.354  26.323  1.00  0.00     0.031 C 
ATOM     34  C   UNL A   1      48.909  29.743  26.913  1.00  0.00     0.029 A 
ATOM     35  C   UNL A   1      47.946  28.745  26.950  1.00  0.00     0.049 A 
ATOM     36  H   UNL A   1      45.960  28.850  27.648  1.00  0.00     0.167 HD
ATOM     37  C   UNL A   1      47.098  26.425  26.609  1.00  0.00     0.074 A 
ATOM     38  C   UNL A   1      47.256  25.058  26.150  1.00  0.00     0.031 C 
ATOM     39  C   UNL A   1      48.058  27.377  26.508  1.00  0.00     0.037 A 
BRANCH  26  40
ATOM     40  C   UNL A   1      46.430  32.998  28.527  1.00  0.00     0.058 A 
ATOM     41  C   UNL A   1      46.975  33.463  29.733  1.00  0.00     0.135 A 
ATOM     42  C   UNL A   1      46.219  33.930  27.499  1.00  0.00     0.135 A 
ATOM     43  F   UNL A   1      47.166  32.619  30.760  1.00  0.00    -0.206 F 
ATOM     44  C   UNL A   1      47.284  34.807  29.920  1.00  0.00     0.059 A 
ATOM     45  C   UNL A   1      46.538  35.275  27.655  1.00  0.00     0.059 A 
ATOM     46  F   UNL A   1      45.683  33.538  26.332  1.00  0.00    -0.206 F 
ATOM     47  C   UNL A   1      47.059  35.706  28.874  1.00  0.00     0.060 A 
BRANCH  47  48
ATOM     48  S   UNL A   1      47.460  37.448  29.129  1.00  0.00     0.124 S 
ATOM     49  O   UNL A   1      47.226  37.998  27.797  1.00  0.00    -0.237 OA
ATOM     50  O   UNL A   1      46.501  37.843  30.156  1.00  0.00    -0.237 OA
ATOM     51  O   UNL A   1      48.855  37.416  29.557  1.00  0.00    -0.744 OA
ENDBRANCH  47  48
ENDBRANCH  26  40
BRANCH  27  52
ATOM     52  C   UNL A   1      43.412  23.503  27.054  1.00  0.00     0.058 A 
ATOM     53  C   UNL A   1      43.308  22.540  28.069  1.00  0.00     0.135 A 
ATOM     54  C   UNL A   1      43.056  23.110  25.753  1.00  0.00     0.135 A 
ATOM     55  F   UNL A   1      43.647  22.855  29.329  1.00  0.00    -0.206 F 
ATOM     56  C   UNL A   1      42.883  21.239  27.804  1.00  0.00     0.059 A 
ATOM     57  C   UNL A   1      42.603  21.826  25.466  1.00  0.00     0.059 A 
ATOM     58  F   UNL A   1      43.123  23.991  24.742  1.00  0.00    -0.206 F 
ATOM     59  C   UNL A   1      42.535  20.891  26.497  1.00  0.00     0.060 A 
BRANCH  59  60
ATOM     60  S   UNL A   1      41.956  19.214  26.154  1.00  0.00     0.124 S 
ATOM     61  O   UNL A   1      42.289  18.529  27.397  1.00  0.00    -0.237 OA
ATOM     62  O   UNL A   1      40.535  19.418  25.897  1.00  0.00    -0.237 OA
ATOM     63  O   UNL A   1      42.743  18.823  24.986  1.00  0.00    -0.744 OA
ENDBRANCH  59  60
ENDBRANCH  27  52
BRANCH  39  64
ATOM     64  C   UNL A   1      49.356  26.971  25.879  1.00  0.00     0.058 A 
ATOM     65  C   UNL A   1      49.619  27.231  24.526  1.00  0.00     0.135 A 
ATOM     66  C   UNL A   1      50.376  26.403  26.658  1.00  0.00     0.135 A 
ATOM     67  F   UNL A   1      48.668  27.765  23.743  1.00  0.00    -0.206 F 
ATOM     68  C   UNL A   1      50.854  26.938  23.962  1.00  0.00     0.059 A 
ATOM     69  C   UNL A   1      51.626  26.121  26.118  1.00  0.00     0.059 A 
ATOM     70  F   UNL A   1      50.171  26.145  27.958  1.00  0.00    -0.206 F 
ATOM     71  C   UNL A   1      51.853  26.390  24.769  1.00  0.00     0.060 A 
BRANCH  71  72
ATOM     72  S   UNL A   1      53.477  26.083  24.043  1.00  0.00     0.124 S 
ATOM     73  O   UNL A   1      53.864  24.843  24.707  1.00  0.00    -0.237 OA
ATOM     74  O   UNL A   1      53.169  25.972  22.622  1.00  0.00    -0.237 OA
ATOM     75  O   UNL A   1      54.245  27.265  24.421  1.00  0.00    -0.744 OA
ENDBRANCH  71  72
ENDBRANCH  39  64
ENDBRANCH  13  14
ENDBRANCH   6   8
ENDBRANCH   5   6
ENDBRANCH   4   5
ENDBRANCH   3   4
ENDBRANCH   2   3
ENDBRANCH   1   2
BRANCH   1  76
ATOM     76  C   UNL A   1      32.653  29.868  25.572  1.00  0.00     0.188 C 
BRANCH  76  77
ATOM     77  O   UNL A   1      32.577  28.524  25.098  1.00  0.00    -0.376 OA
BRANCH  77  78
ATOM     78  C   UNL A   1      31.255  28.144  24.695  1.00  0.00     0.202 C 
BRANCH  78  79
ATOM     79  C   UNL A   1      31.009  26.621  24.654  1.00  0.00     0.261 C 
BRANCH  79  80
ATOM     80  O   UNL A   1      32.147  25.782  24.376  1.00  0.00    -0.463 OA
BRANCH  80  81
ATOM     81  C   UNL A   1      32.606  25.031  25.408  1.00  0.00     0.310 C 
ATOM     82  O   UNL A   1      33.644  25.277  26.014  1.00  0.00    -0.252 OA
BRANCH  81  83
ATOM     83  C   UNL A   1      31.641  23.900  25.742  1.00  0.00     0.119 C 
ATOM     84  C   UNL A   1      31.956  23.270  27.102  1.00  0.00     0.019 C 
ATOM     85  C   UNL A   1      31.717  22.809  24.679  1.00  0.00     0.136 C 
ATOM     86  C   UNL A   1      33.280  22.507  27.098  1.00  0.00     0.023 C 
ATOM     87  N   UNL A   1      33.086  22.320  24.579  1.00  0.00    -0.324 N 
ATOM     88  C   UNL A   1      33.561  21.692  25.823  1.00  0.00     0.121 C 
BRANCH  87  89
ATOM     89  C   UNL A   1      33.790  22.737  23.468  1.00  0.00     0.321 C 
ATOM     90  O   UNL A   1      33.228  22.901  22.376  1.00  0.00    -0.248 OA
ATOM     91  N   UNL A   1      35.064  23.180  23.527  1.00  0.00    -0.308 N 
ATOM     92  H   UNL A   1      35.309  23.763  22.772  1.00  0.00     0.171 HD
BRANCH  91  93
ATOM     93  C   UNL A   1      36.103  22.987  24.429  1.00  0.00     0.042 A 
ATOM     94  C   UNL A   1      36.792  21.773  24.353  1.00  0.00     0.026 A 
ATOM     95  C   UNL A   1      36.484  23.956  25.356  1.00  0.00     0.026 A 
ATOM     96  C   UNL A   1      37.946  21.585  25.108  1.00  0.00     0.002 A 
ATOM     97  C   UNL A   1      37.631  23.757  26.123  1.00  0.00     0.002 A 
ATOM     98  C   UNL A   1      38.375  22.585  25.979  1.00  0.00     0.000 A 
ENDBRANCH  91  93
ENDBRANCH  87  89
ENDBRANCH  81  83
ENDBRANCH  80  81
ENDBRANCH  79  80
ENDBRANCH  78  79
ENDBRANCH  77  78
ENDBRANCH  76  77
ENDBRANCH   1  76
TORSDOF 22
ENDMDL
MODEL 2
REMARK VINA RESULT:      -9.8      6.249     11.943
REMARK SMILES O=C(OCCOCCOCCOC(=O)[C@@H]1CCCN(C(=O)Nc2ccccc2)C1)c1ccc(-c2c3nc(c(-c4c(F)cc(S(=O)(=O)[O-])cc4F)c4ccc([nH]4)c(-c4c(F)cc(S(=O)(=O)[O-])cc4F)c4nc(c(-c5c(F)cc(S(=O)(=O)[O-])cc5F)c5ccc2[nH]5)C=C4)C=C3)cc1
REMARK SMILES IDX 7 1 6 2 5 3 4 4 3 5 2 6 1 7 30 8 31 9 95 10 32 11 94 12
REMARK SMILES IDX 33 13 34 14 35 15 88 16 36 17 93 18 87 19 89 20 37 21 92 22
REMARK SMILES IDX 86 23 85 24 38 26 72 27 51 28 71 29 52 30 55 31 70 32 90 33
REMARK SMILES IDX 53 34 54 35 69 37 91 38 56 39 39 40 40 41 49 42 41 43 42 44
REMARK SMILES IDX 48 45 50 46 43 47 44 48 45 49 46 50 47 51 73 52 74 53 83 54
REMARK SMILES IDX 75 55 76 56 82 57 84 58 77 59 78 60 79 61 80 62 81 63 57 64
REMARK SMILES IDX 58 65 67 66 59 67 60 68 66 69 68 70 61 71 62 72 63 73 64 74
REMARK SMILES IDX 65 75 8 76 9 77 10 78 11 79 12 80 13 81 14 82 15 83 16 84
REMARK SMILES IDX 29 85 17 86 19 87 18 88 20 89 21 90 22 91 23 93 24 94 28 95
REMARK SMILES IDX 25 96 27 97 26 98
REMARK H PARENT 89 25 55 36 22 92
REMARK Flexibility Score: inf
ROOT
ATOM      1  C   UNL A   1      40.031  22.710  26.411  1.00  0.00     0.188 C 
ENDROOT
BRANCH   1   2
ATOM      2  O   UNL A   1      40.921  21.626  26.130  1.00  0.00    -0.376 OA
BRANCH   2   3
ATOM      3  C   UNL A   1      42.153  21.706  26.847  1.00  0.00     0.202 C 
BRANCH   3   4
ATOM      4  C   UNL A   1      43.237  22.489  26.087  1.00  0.00     0.261 C 
BRANCH   4   5
ATOM      5  O   UNL A   1      43.491  23.784  26.660  1.00  0.00    -0.460 OA
BRANCH   5   6
ATOM      6  C   UNL A   1      42.858  24.959  26.414  1.00  0.00     0.338 C 
ATOM      7  O   UNL A   1      42.521  25.197  25.253  1.00  0.00    -0.246 OA
BRANCH   6   8
ATOM      8  C   UNL A   1      42.525  25.986  27.456  1.00  0.00     0.060 A 
ATOM      9  C   UNL A   1      43.129  27.237  27.596  1.00  0.00     0.016 A 
ATOM     10  C   UNL A   1      41.459  25.682  28.326  1.00  0.00     0.016 A 
ATOM     11  C   UNL A   1      42.737  28.135  28.586  1.00  0.00     0.010 A 
ATOM     12  C   UNL A   1      41.044  26.585  29.311  1.00  0.00     0.010 A 
ATOM     13  C   UNL A   1      41.702  27.809  29.456  1.00  0.00    -0.014 A 
BRANCH  13  14
ATOM     14  C   UNL A   1      41.417  28.717  30.583  1.00  0.00     0.031 A 
ATOM     15  C   UNL A   1      42.293  28.639  31.793  1.00  0.00     0.074 A 
ATOM     16  C   UNL A   1      40.453  29.649  30.474  1.00  0.00     0.049 A 
ATOM     17  N   UNL A   1      42.208  29.298  32.915  1.00  0.00    -0.248 NA
ATOM     18  C   UNL A   1      43.424  27.695  31.729  1.00  0.00     0.031 C 
ATOM     19  C   UNL A   1      39.615  29.852  29.293  1.00  0.00     0.029 A 
ATOM     20  N   UNL A   1      40.022  30.605  31.357  1.00  0.00    -0.354 N 
ATOM     21  C   UNL A   1      43.252  28.832  33.701  1.00  0.00     0.074 A 
ATOM     22  C   UNL A   1      43.964  27.837  32.930  1.00  0.00     0.031 C 
ATOM     23  C   UNL A   1      38.771  30.870  29.525  1.00  0.00     0.029 A 
ATOM     24  C   UNL A   1      38.965  31.349  30.887  1.00  0.00     0.049 A 
ATOM     25  H   UNL A   1      40.428  30.745  32.242  1.00  0.00     0.167 HD
ATOM     26  C   UNL A   1      43.572  29.199  34.963  1.00  0.00     0.037 A 
ATOM     27  C   UNL A   1      38.210  32.280  31.503  1.00  0.00     0.037 A 
ATOM     28  C   UNL A   1      42.846  30.194  35.703  1.00  0.00     0.049 A 
ATOM     29  C   UNL A   1      38.540  32.616  32.931  1.00  0.00     0.074 A 
ATOM     30  C   UNL A   1      43.067  30.641  36.991  1.00  0.00     0.029 A 
ATOM     31  N   UNL A   1      41.750  30.892  35.214  1.00  0.00    -0.354 N 
ATOM     32  N   UNL A   1      39.519  32.157  33.675  1.00  0.00    -0.248 NA
ATOM     33  C   UNL A   1      37.660  33.572  33.615  1.00  0.00     0.031 C 
ATOM     34  C   UNL A   1      42.073  31.576  37.298  1.00  0.00     0.029 A 
ATOM     35  C   UNL A   1      41.259  31.742  36.187  1.00  0.00     0.049 A 
ATOM     36  H   UNL A   1      41.376  30.795  34.307  1.00  0.00     0.167 HD
ATOM     37  C   UNL A   1      39.374  32.765  34.914  1.00  0.00     0.074 A 
ATOM     38  C   UNL A   1      38.226  33.646  34.812  1.00  0.00     0.031 C 
ATOM     39  C   UNL A   1      40.112  32.604  36.040  1.00  0.00     0.037 A 
BRANCH  26  40
ATOM     40  C   UNL A   1      44.701  28.469  35.627  1.00  0.00     0.058 A 
ATOM     41  C   UNL A   1      44.498  27.289  36.360  1.00  0.00     0.135 A 
ATOM     42  C   UNL A   1      46.010  28.968  35.533  1.00  0.00     0.135 A 
ATOM     43  F   UNL A   1      43.261  26.789  36.508  1.00  0.00    -0.206 F 
ATOM     44  C   UNL A   1      45.554  26.637  36.991  1.00  0.00     0.059 A 
ATOM     45  C   UNL A   1      47.082  28.323  36.139  1.00  0.00     0.059 A 
ATOM     46  F   UNL A   1      46.252  30.102  34.859  1.00  0.00    -0.206 F 
ATOM     47  C   UNL A   1      46.843  27.164  36.877  1.00  0.00     0.060 A 
BRANCH  47  48
ATOM     48  S   UNL A   1      48.202  26.312  37.703  1.00  0.00     0.124 S 
ATOM     49  O   UNL A   1      48.203  26.964  39.009  1.00  0.00    -0.237 OA
ATOM     50  O   UNL A   1      47.755  24.923  37.688  1.00  0.00    -0.237 OA
ATOM     51  O   UNL A   1      49.353  26.606  36.855  1.00  0.00    -0.744 OA
ENDBRANCH  47  48
ENDBRANCH  26  40
BRANCH  27  52
ATOM     52  C   UNL A   1      37.037  32.884  30.809  1.00  0.00     0.058 A 
ATOM     53  C   UNL A   1      37.183  33.912  29.866  1.00  0.00     0.135 A 
ATOM     54  C   UNL A   1      35.732  32.439  31.083  1.00  0.00     0.135 A 
ATOM     55  F   UNL A   1      38.405  34.385  29.575  1.00  0.00    -0.206 F 
ATOM     56  C   UNL A   1      36.083  34.485  29.230  1.00  0.00     0.059 A 
ATOM     57  C   UNL A   1      34.619  32.977  30.442  1.00  0.00     0.059 A 
ATOM     58  F   UNL A   1      35.529  31.451  31.967  1.00  0.00    -0.206 F 
ATOM     59  C   UNL A   1      34.804  34.011  29.527  1.00  0.00     0.060 A 
BRANCH  59  60
ATOM     60  S   UNL A   1      33.376  34.731  28.685  1.00  0.00     0.124 S 
ATOM     61  O   UNL A   1      33.971  35.902  28.051  1.00  0.00    -0.237 OA
ATOM     62  O   UNL A   1      32.966  33.657  27.787  1.00  0.00    -0.237 OA
ATOM     63  O   UNL A   1      32.448  35.007  29.779  1.00  0.00    -0.744 OA
ENDBRANCH  59  60
ENDBRANCH  27  52
BRANCH  39  64
ATOM     64  C   UNL A   1      39.698  33.394  37.244  1.00  0.00     0.058 A 
ATOM     65  C   UNL A   1      38.737  32.902  38.138  1.00  0.00     0.135 A 
ATOM     66  C   UNL A   1      40.334  34.606  37.551  1.00  0.00     0.135 A 
ATOM     67  F   UNL A   1      38.097  31.750  37.878  1.00  0.00    -0.206 F 
ATOM     68  C   UNL A   1      38.416  33.589  39.302  1.00  0.00     0.059 A 
ATOM     69  C   UNL A   1      40.043  35.299  38.721  1.00  0.00     0.059 A 
ATOM     70  F   UNL A   1      41.266  35.110  36.728  1.00  0.00    -0.206 F 
ATOM     71  C   UNL A   1      39.080  34.783  39.588  1.00  0.00     0.060 A 
BRANCH  71  72
ATOM     72  S   UNL A   1      38.709  35.628  41.138  1.00  0.00     0.124 S 
ATOM     73  O   UNL A   1      39.832  35.216  41.973  1.00  0.00    -0.237 OA
ATOM     74  O   UNL A   1      38.698  37.031  40.737  1.00  0.00    -0.237 OA
ATOM     75  O   UNL A   1      37.409  35.081  41.518  1.00  0.00    -0.744 OA
ENDBRANCH  71  72
ENDBRANCH  39  64
ENDBRANCH  13  14
ENDBRANCH   6   8
ENDBRANCH   5   6
ENDBRANCH   4   5
ENDBRANCH   3   4
ENDBRANCH   2   3
ENDBRANCH   1   2
BRANCH   1  76
ATOM     76  C   UNL A   1      38.581  22.299  26.195  1.00  0.00     0.188 C 
BRANCH  76  77
ATOM     77  O   UNL A   1      38.516  21.101  25.421  1.00  0.00    -0.376 OA
BRANCH  77  78
ATOM     78  C   UNL A   1      37.268  20.942  24.736  1.00  0.00     0.202 C 
BRANCH  78  79
ATOM     79  C   UNL A   1      36.270  22.100  24.942  1.00  0.00     0.261 C 
BRANCH  79  80
ATOM     80  O   UNL A   1      35.528  22.537  23.786  1.00  0.00    -0.463 OA
BRANCH  80  81
ATOM     81  C   UNL A   1      34.344  23.154  24.030  1.00  0.00     0.310 C 
ATOM     82  O   UNL A   1      34.221  24.103  24.797  1.00  0.00    -0.252 OA
BRANCH  81  83
ATOM     83  C   UNL A   1      33.225  22.555  23.187  1.00  0.00     0.119 C 
ATOM     84  C   UNL A   1      32.033  23.510  23.066  1.00  0.00     0.019 C 
ATOM     85  C   UNL A   1      32.734  21.252  23.811  1.00  0.00     0.136 C 
ATOM     86  C   UNL A   1      31.303  23.701  24.394  1.00  0.00     0.023 C 
ATOM     87  N   UNL A   1      32.288  21.501  25.175  1.00  0.00    -0.324 N 
ATOM     88  C   UNL A   1      31.146  22.427  25.244  1.00  0.00     0.121 C 
BRANCH  87  89
ATOM     89  C   UNL A   1      33.135  21.060  26.171  1.00  0.00     0.321 C 
ATOM     90  O   UNL A   1      33.541  21.827  27.055  1.00  0.00    -0.248 OA
ATOM     91  N   UNL A   1      33.418  19.755  26.371  1.00  0.00    -0.308 N 
ATOM     92  H   UNL A   1      33.719  19.559  27.289  1.00  0.00     0.171 HD
BRANCH  91  93
ATOM     93  C   UNL A   1      33.375  18.630  25.557  1.00  0.00     0.042 A 
ATOM     94  C   UNL A   1      34.296  18.571  24.508  1.00  0.00     0.026 A 
ATOM     95  C   UNL A   1      32.486  17.578  25.774  1.00  0.00     0.026 A 
ATOM     96  C   UNL A   1      34.421  17.402  23.762  1.00  0.00     0.002 A 
ATOM     97  C   UNL A   1      32.602  16.415  25.015  1.00  0.00     0.002 A 
ATOM     98  C   UNL A   1      33.586  16.318  24.029  1.00  0.00     0.000 A 
ENDBRANCH  91  93
ENDBRANCH  87  89
ENDBRANCH  81  83
ENDBRANCH  80  81
ENDBRANCH  79  80
ENDBRANCH  78  79
ENDBRANCH  77  78
ENDBRANCH  76  77
ENDBRANCH   1  76
TORSDOF 22
ENDMDL
MODEL 3
REMARK VINA RESULT:      -9.5      1.311      2.499
REMARK SMILES O=C(OCCOCCOCCOC(=O)[C@@H]1CCCN(C(=O)Nc2ccccc2)C1)c1ccc(-c2c3nc(c(-c4c(F)cc(S(=O)(=O)[O-])cc4F)c4ccc([nH]4)c(-c4c(F)cc(S(=O)(=O)[O-])cc4F)c4nc(c(-c5c(F)cc(S(=O)(=O)[O-])cc5F)c5ccc2[nH]5)C=C4)C=C3)cc1
REMARK SMILES IDX 7 1 6 2 5 3 4 4 3 5 2 6 1 7 30 8 31 9 95 10 32 11 94 12
REMARK SMILES IDX 33 13 34 14 35 15 88 16 36 17 93 18 87 19 89 20 37 21 92 22
REMARK SMILES IDX 86 23 85 24 38 26 72 27 51 28 71 29 52 30 55 31 70 32 90 33
REMARK SMILES IDX 53 34 54 35 69 37 91 38 56 39 39 40 40 41 49 42 41 43 42 44
REMARK SMILES IDX 48 45 50 46 43 47 44 48 45 49 46 50 47 51 73 52 74 53 83 54
REMARK SMILES IDX 75 55 76 56 82 57 84 58 77 59 78 60 79 61 80 62 81 63 57 64
REMARK SMILES IDX 58 65 67 66 59 67 60 68 66 69 68 70 61 71 62 72 63 73 64 74
REMARK SMILES IDX 65 75 8 76 9 77 10 78 11 79 12 80 13 81 14 82 15 83 16 84
REMARK SMILES IDX 29 85 17 86 19 87 18 88 20 89 21 90 22 91 23 93 24 94 28 95
REMARK SMILES IDX 25 96 27 97 26 98
REMARK H PARENT 89 25 55 36 22 92
REMARK Flexibility Score: inf
ROOT
ATOM      1  C   UNL A   1      33.862  29.157  26.907  1.00  0.00     0.188 C 
ENDROOT
BRANCH   1   2
ATOM      2  O   UNL A   1      33.610  30.391  27.583  1.00  0.00    -0.376 OA
BRANCH   2   3
ATOM      3  C   UNL A   1      34.746  31.257  27.622  1.00  0.00     0.202 C 
BRANCH   3   4
ATOM      4  C   UNL A   1      34.858  32.036  28.944  1.00  0.00     0.261 C 
BRANCH   4   5
ATOM      5  O   UNL A   1      35.478  31.266  29.990  1.00  0.00    -0.460 OA
BRANCH   5   6
ATOM      6  C   UNL A   1      36.636  31.515  30.653  1.00  0.00     0.338 C 
ATOM      7  O   UNL A   1      36.587  32.260  31.633  1.00  0.00    -0.246 OA
BRANCH   6   8
ATOM      8  C   UNL A   1      37.972  30.937  30.288  1.00  0.00     0.060 A 
ATOM      9  C   UNL A   1      39.009  30.644  31.176  1.00  0.00     0.016 A 
ATOM     10  C   UNL A   1      38.165  30.598  28.934  1.00  0.00     0.016 A 
ATOM     11  C   UNL A   1      40.210  30.088  30.745  1.00  0.00     0.010 A 
ATOM     12  C   UNL A   1      39.361  30.020  28.492  1.00  0.00     0.010 A 
ATOM     13  C   UNL A   1      40.397  29.784  29.399  1.00  0.00    -0.014 A 
BRANCH  13  14
ATOM     14  C   UNL A   1      41.732  29.339  28.957  1.00  0.00     0.031 A 
ATOM     15  C   UNL A   1      42.848  30.337  28.962  1.00  0.00     0.074 A 
ATOM     16  C   UNL A   1      41.948  28.047  28.651  1.00  0.00     0.049 A 
ATOM     17  N   UNL A   1      44.084  30.190  28.576  1.00  0.00    -0.248 NA
ATOM     18  C   UNL A   1      42.529  31.680  29.480  1.00  0.00     0.031 C 
ATOM     19  C   UNL A   1      40.936  26.994  28.709  1.00  0.00     0.029 A 
ATOM     20  N   UNL A   1      43.083  27.396  28.244  1.00  0.00    -0.354 N 
ATOM     21  C   UNL A   1      44.686  31.425  28.775  1.00  0.00     0.074 A 
ATOM     22  C   UNL A   1      43.683  32.311  29.321  1.00  0.00     0.031 C 
ATOM     23  C   UNL A   1      41.497  25.827  28.351  1.00  0.00     0.029 A 
ATOM     24  C   UNL A   1      42.886  26.061  27.981  1.00  0.00     0.049 A 
ATOM     25  H   UNL A   1      43.956  27.842  28.147  1.00  0.00     0.167 HD
ATOM     26  C   UNL A   1      45.962  31.781  28.507  1.00  0.00     0.037 A 
ATOM     27  C   UNL A   1      43.720  25.142  27.456  1.00  0.00     0.037 A 
ATOM     28  C   UNL A   1      46.937  30.875  27.966  1.00  0.00     0.049 A 
ATOM     29  C   UNL A   1      45.113  25.583  27.098  1.00  0.00     0.074 A 
ATOM     30  C   UNL A   1      48.257  31.123  27.641  1.00  0.00     0.029 A 
ATOM     31  N   UNL A   1      46.689  29.543  27.665  1.00  0.00    -0.354 N 
ATOM     32  N   UNL A   1      45.669  26.759  27.273  1.00  0.00    -0.248 NA
ATOM     33  C   UNL A   1      45.984  24.593  26.453  1.00  0.00     0.031 C 
ATOM     34  C   UNL A   1      48.794  29.951  27.098  1.00  0.00     0.029 A 
ATOM     35  C   UNL A   1      47.821  28.962  27.124  1.00  0.00     0.049 A 
ATOM     36  H   UNL A   1      45.833  29.079  27.814  1.00  0.00     0.167 HD
ATOM     37  C   UNL A   1      46.954  26.652  26.760  1.00  0.00     0.074 A 
ATOM     38  C   UNL A   1      47.102  25.288  26.290  1.00  0.00     0.031 C 
ATOM     39  C   UNL A   1      47.923  27.597  26.671  1.00  0.00     0.037 A 
BRANCH  26  40
ATOM     40  C   UNL A   1      46.338  33.216  28.729  1.00  0.00     0.058 A 
ATOM     41  C   UNL A   1      46.242  34.178  27.713  1.00  0.00     0.135 A 
ATOM     42  C   UNL A   1      46.810  33.630  29.985  1.00  0.00     0.135 A 
ATOM     43  F   UNL A   1      45.828  33.827  26.485  1.00  0.00    -0.206 F 
ATOM     44  C   UNL A   1      46.618  35.501  27.929  1.00  0.00     0.059 A 
ATOM     45  C   UNL A   1      47.173  34.950  30.229  1.00  0.00     0.059 A 
ATOM     46  F   UNL A   1      46.936  32.744  30.984  1.00  0.00    -0.206 F 
ATOM     47  C   UNL A   1      47.085  35.876  29.191  1.00  0.00     0.060 A 
BRANCH  47  48
ATOM     48  S   UNL A   1      47.572  37.594  29.458  1.00  0.00     0.124 S 
ATOM     49  O   UNL A   1      46.285  38.219  29.748  1.00  0.00    -0.237 OA
ATOM     50  O   UNL A   1      48.493  37.486  30.584  1.00  0.00    -0.237 OA
ATOM     51  O   UNL A   1      48.182  37.975  28.187  1.00  0.00    -0.744 OA
ENDBRANCH  47  48
ENDBRANCH  26  40
BRANCH  27  52
ATOM     52  C   UNL A   1      43.239  23.761  27.166  1.00  0.00     0.058 A 
ATOM     53  C   UNL A   1      42.762  23.394  25.900  1.00  0.00     0.135 A 
ATOM     54  C   UNL A   1      43.248  22.771  28.164  1.00  0.00     0.135 A 
ATOM     55  F   UNL A   1      42.719  24.302  24.911  1.00  0.00    -0.206 F 
ATOM     56  C   UNL A   1      42.299  22.106  25.635  1.00  0.00     0.059 A 
ATOM     57  C   UNL A   1      42.816  21.471  27.919  1.00  0.00     0.059 A 
ATOM     58  F   UNL A   1      43.704  23.059  29.393  1.00  0.00    -0.206 F 
ATOM     59  C   UNL A   1      42.329  21.152  26.654  1.00  0.00     0.060 A 
BRANCH  59  60
ATOM     60  S   UNL A   1      41.756  19.473  26.309  1.00  0.00     0.124 S 
ATOM     61  O   UNL A   1      42.144  18.774  27.529  1.00  0.00    -0.237 OA
ATOM     62  O   UNL A   1      40.323  19.664  26.110  1.00  0.00    -0.237 OA
ATOM     63  O   UNL A   1      42.500  19.108  25.106  1.00  0.00    -0.744 OA
ENDBRANCH  59  60
ENDBRANCH  27  52
BRANCH  39  64
ATOM     64  C   UNL A   1      49.220  27.185  26.044  1.00  0.00     0.058 A 
ATOM     65  C   UNL A   1      49.421  27.286  24.660  1.00  0.00     0.135 A 
ATOM     66  C   UNL A   1      50.297  26.773  26.844  1.00  0.00     0.135 A 
ATOM     67  F   UNL A   1      48.414  27.666  23.856  1.00  0.00    -0.206 F 
ATOM     68  C   UNL A   1      50.651  26.989  24.086  1.00  0.00     0.059 A 
ATOM     69  C   UNL A   1      51.542  26.493  26.293  1.00  0.00     0.059 A 
ATOM     70  F   UNL A   1      50.152  26.671  28.174  1.00  0.00    -0.206 F 
ATOM     71  C   UNL A   1      51.707  26.601  24.913  1.00  0.00     0.060 A 
BRANCH  71  72
ATOM     72  S   UNL A   1      53.320  26.292  24.164  1.00  0.00     0.124 S 
ATOM     73  O   UNL A   1      54.176  27.188  24.933  1.00  0.00    -0.237 OA
ATOM     74  O   UNL A   1      53.511  24.866  24.409  1.00  0.00    -0.237 OA
ATOM     75  O   UNL A   1      53.119  26.660  22.765  1.00  0.00    -0.744 OA
ENDBRANCH  71  72
ENDBRANCH  39  64
ENDBRANCH  13  14
ENDBRANCH   6   8
ENDBRANCH   5   6
ENDBRANCH   4   5
ENDBRANCH   3   4
ENDBRANCH   2   3
ENDBRANCH   1   2
BRANCH   1  76
ATOM     76  C   UNL A   1      33.347  29.200  25.475  1.00  0.00     0.188 C 
BRANCH  76  77
ATOM     77  O   UNL A   1      33.119  27.877  24.990  1.00  0.00    -0.376 OA
BRANCH  77  78
ATOM     78  C   UNL A   1      32.591  26.996  25.988  1.00  0.00     0.202 C 
BRANCH  78  79
ATOM     79  C   UNL A   1      32.705  25.495  25.645  1.00  0.00     0.261 C 
BRANCH  79  80
ATOM     80  O   UNL A   1      33.275  25.158  24.365  1.00  0.00    -0.463 OA
BRANCH  80  81
ATOM     81  C   UNL A   1      33.894  23.954  24.281  1.00  0.00     0.310 C 
ATOM     82  O   UNL A   1      33.617  23.109  23.436  1.00  0.00    -0.252 OA
BRANCH  81  83
ATOM     83  C   UNL A   1      34.999  23.826  25.322  1.00  0.00     0.119 C 
ATOM     84  C   UNL A   1      36.252  23.164  24.739  1.00  0.00     0.019 C 
ATOM     85  C   UNL A   1      34.519  22.987  26.502  1.00  0.00     0.136 C 
ATOM     86  C   UNL A   1      36.028  21.692  24.396  1.00  0.00     0.023 C 
ATOM     87  N   UNL A   1      34.089  21.678  26.028  1.00  0.00    -0.324 N 
ATOM     88  C   UNL A   1      35.182  20.906  25.414  1.00  0.00     0.121 C 
BRANCH  87  89
ATOM     89  C   UNL A   1      32.725  21.475  25.989  1.00  0.00     0.321 C 
ATOM     90  O   UNL A   1      31.937  22.324  26.430  1.00  0.00    -0.248 OA
ATOM     91  N   UNL A   1      32.151  20.461  25.308  1.00  0.00    -0.308 N 
ATOM     92  H   UNL A   1      31.212  20.636  25.068  1.00  0.00     0.171 HD
BRANCH  91  93
ATOM     93  C   UNL A   1      32.605  19.221  24.875  1.00  0.00     0.042 A 
ATOM     94  C   UNL A   1      32.853  18.258  25.857  1.00  0.00     0.026 A 
ATOM     95  C   UNL A   1      32.781  18.914  23.526  1.00  0.00     0.026 A 
ATOM     96  C   UNL A   1      33.144  16.949  25.483  1.00  0.00     0.002 A 
ATOM     97  C   UNL A   1      33.089  17.606  23.156  1.00  0.00     0.002 A 
ATOM     98  C   UNL A   1      33.243  16.620  24.132  1.00  0.00     0.000 A 
ENDBRANCH  91  93
ENDBRANCH  87  89
ENDBRANCH  81  83
ENDBRANCH  80  81
ENDBRANCH  79  80
ENDBRANCH  78  79
ENDBRANCH  77  78
ENDBRANCH  76  77
ENDBRANCH   1  76
TORSDOF 22
ENDMDL
