MODEL 1
REMARK VINA RESULT:     -10.0      0.000      0.000
REMARK SMILES Cc1cccc(-c2ccc(Cl)c(C(=O)OCCOCCOCCOC(=O)c3ccc(-c4c5nc(c(-c6c(F)cc(S(=O)(=O)[O-])cc6F)c6ccc([nH]6)c(-c6c(F)cc(S(=O)(=O)[O-])cc6F)c6nc(c(-c7c(F)cc(S(=O)(=O)[O-])cc7F)c7ccc4[nH]7)C=C6)C=C5)cc3)c2)c1
REMARK SMILES IDX 20 1 19 2 18 3 17 4 16 5 15 6 13 7 14 8 12 9 7 10 8 11 93 12
REMARK SMILES IDX 9 13 10 14 11 15 6 16 1 17 2 18 3 19 94 20 4 21 5 22 21 23
REMARK SMILES IDX 22 24 23 25 24 26 25 27 26 28 27 29 28 30 92 31 29 32 91 33
REMARK SMILES IDX 30 34 31 35 32 36 85 37 33 38 90 39 84 40 86 41 34 42 89 43
REMARK SMILES IDX 83 44 82 45 35 47 69 48 48 49 68 50 49 51 52 52 67 53 87 54
REMARK SMILES IDX 50 55 51 56 66 58 88 59 53 60 36 61 37 62 46 63 38 64 39 65
REMARK SMILES IDX 45 66 47 67 40 68 41 69 42 70 43 71 44 72 70 73 71 74 80 75
REMARK SMILES IDX 72 76 73 77 79 78 81 79 74 80 75 81 76 82 77 83 78 84 54 85
REMARK SMILES IDX 55 86 64 87 56 88 57 89 63 90 65 91 58 92 59 93 60 94 61 95
REMARK SMILES IDX 62 96
REMARK H PARENT 86 46 52 57
REMARK Flexibility Score: inf
ROOT
ATOM      1  C   UNL A   1      33.489  35.787  31.627  1.00  0.00     0.188 C 
ENDROOT
BRANCH   1   2
ATOM      2  C   UNL A   1      32.609  36.461  30.582  1.00  0.00     0.188 C 
BRANCH   2   3
ATOM      3  O   UNL A   1      32.861  36.504  29.218  1.00  0.00    -0.376 OA
BRANCH   3   4
ATOM      4  C   UNL A   1      33.096  35.215  28.745  1.00  0.00     0.202 C 
BRANCH   4   5
ATOM      5  C   UNL A   1      34.586  34.805  28.334  1.00  0.00     0.261 C 
BRANCH   5   6
ATOM      6  O   UNL A   1      35.341  33.260  27.674  1.00  0.00    -0.460 OA
BRANCH   6   7
ATOM      7  C   UNL A   1      35.541  31.654  27.933  1.00  0.00     0.339 C 
ATOM      8  O   UNL A   1      35.109  30.713  27.243  1.00  0.00    -0.246 OA
BRANCH   7   9
ATOM      9  C   UNL A   1      36.514  30.927  28.769  1.00  0.00     0.079 A 
ATOM     10  C   UNL A   1      38.206  29.070  28.761  1.00  0.00    -0.017 A 
ATOM     11  C   UNL A   1      37.997  28.996  30.139  1.00  0.00     0.010 A 
ATOM     12  C   UNL A   1      37.411  29.996  28.088  1.00  0.00     0.026 A 
ATOM     13  C   UNL A   1      37.078  29.841  30.799  1.00  0.00     0.022 A 
ATOM     14  C   UNL A   1      36.353  30.825  30.124  1.00  0.00     0.055 A 
ATOM     15  Cl  UNL A   1      35.253  31.825  30.984  1.00  0.00    -0.083 Cl
BRANCH  10  16
ATOM     16  C   UNL A   1      39.235  28.237  28.097  1.00  0.00    -0.018 A 
ATOM     17  C   UNL A   1      41.948  28.579  25.412  1.00  0.00     0.044 C 
ATOM     18  C   UNL A   1      41.018  27.971  26.422  1.00  0.00    -0.051 A 
ATOM     19  C   UNL A   1      40.937  26.580  26.549  1.00  0.00     0.003 A 
ATOM     20  C   UNL A   1      40.180  28.786  27.210  1.00  0.00     0.012 A 
ATOM     21  C   UNL A   1      40.053  26.017  27.468  1.00  0.00     0.001 A 
ATOM     22  C   UNL A   1      39.215  26.838  28.235  1.00  0.00     0.009 A 
ENDBRANCH  10  16
ENDBRANCH   7   9
ENDBRANCH   6   7
ENDBRANCH   5   6
ENDBRANCH   4   5
ENDBRANCH   3   4
ENDBRANCH   2   3
ENDBRANCH   1   2
BRANCH   1  23
ATOM     23  O   UNL A   1      32.803  34.791  32.331  1.00  0.00    -0.376 OA
BRANCH  23  24
ATOM     24  C   UNL A   1      33.708  34.229  33.268  1.00  0.00     0.202 C 
BRANCH  24  25
ATOM     25  C   UNL A   1      35.083  34.989  33.418  1.00  0.00     0.261 C 
BRANCH  25  26
ATOM     26  O   UNL A   1      36.535  34.404  33.122  1.00  0.00    -0.460 OA
BRANCH  26  27
ATOM     27  C   UNL A   1      37.759  33.863  32.873  1.00  0.00     0.338 C 
ATOM     28  O   UNL A   1      38.508  34.648  32.290  1.00  0.00    -0.246 OA
BRANCH  27  29
ATOM     29  C   UNL A   1      38.328  32.368  33.035  1.00  0.00     0.060 A 
ATOM     30  C   UNL A   1      37.750  31.565  34.007  1.00  0.00     0.016 A 
ATOM     31  C   UNL A   1      39.602  31.912  32.989  1.00  0.00     0.016 A 
ATOM     32  C   UNL A   1      38.266  31.474  35.343  1.00  0.00     0.010 A 
ATOM     33  C   UNL A   1      40.193  31.683  34.276  1.00  0.00     0.010 A 
ATOM     34  C   UNL A   1      39.526  31.907  35.595  1.00  0.00    -0.014 A 
BRANCH  34  35
ATOM     35  C   UNL A   1      40.033  32.387  37.272  1.00  0.00     0.031 A 
ATOM     36  C   UNL A   1      38.952  32.608  38.810  1.00  0.00     0.074 A 
ATOM     37  C   UNL A   1      41.401  32.409  37.308  1.00  0.00     0.049 A 
ATOM     38  N   UNL A   1      38.666  33.718  39.469  1.00  0.00    -0.248 NA
ATOM     39  C   UNL A   1      37.629  31.645  39.326  1.00  0.00     0.031 C 
ATOM     40  C   UNL A   1      42.396  32.570  38.377  1.00  0.00     0.029 A 
ATOM     41  N   UNL A   1      42.241  32.321  36.183  1.00  0.00    -0.354 N 
ATOM     42  C   UNL A   1      37.657  33.376  40.424  1.00  0.00     0.074 A 
ATOM     43  C   UNL A   1      36.761  32.529  39.777  1.00  0.00     0.031 C 
ATOM     44  C   UNL A   1      43.542  33.044  37.829  1.00  0.00     0.029 A 
ATOM     45  C   UNL A   1      43.296  33.216  36.397  1.00  0.00     0.049 A 
ATOM     46  H   UNL A   1      42.112  31.741  35.397  1.00  0.00     0.167 HD
ATOM     47  C   UNL A   1      37.986  33.132  41.742  1.00  0.00     0.037 A 
ATOM     48  C   UNL A   1      43.147  34.410  35.746  1.00  0.00     0.037 A 
ATOM     49  C   UNL A   1      39.379  33.537  41.863  1.00  0.00     0.049 A 
ATOM     50  C   UNL A   1      42.596  35.422  36.838  1.00  0.00     0.074 A 
ATOM     51  C   UNL A   1      40.589  32.879  41.931  1.00  0.00     0.029 A 
ATOM     52  N   UNL A   1      39.662  34.780  41.325  1.00  0.00    -0.354 N 
ATOM     53  N   UNL A   1      41.780  35.139  37.848  1.00  0.00    -0.248 NA
ATOM     54  C   UNL A   1      43.231  36.724  37.040  1.00  0.00     0.031 C 
ATOM     55  C   UNL A   1      41.571  33.749  41.319  1.00  0.00     0.029 A 
ATOM     56  C   UNL A   1      40.939  34.880  40.808  1.00  0.00     0.049 A 
ATOM     57  H   UNL A   1      39.016  35.524  41.313  1.00  0.00     0.167 HD
ATOM     58  C   UNL A   1      41.834  36.120  38.831  1.00  0.00     0.074 A 
ATOM     59  C   UNL A   1      42.764  37.082  38.251  1.00  0.00     0.031 C 
ATOM     60  C   UNL A   1      41.254  36.133  40.095  1.00  0.00     0.037 A 
BRANCH  47  61
ATOM     61  C   UNL A   1      37.177  32.293  42.781  1.00  0.00     0.058 A 
ATOM     62  C   UNL A   1      35.925  32.800  43.181  1.00  0.00     0.135 A 
ATOM     63  C   UNL A   1      37.497  31.051  43.422  1.00  0.00     0.135 A 
ATOM     64  F   UNL A   1      35.477  33.962  42.689  1.00  0.00    -0.206 F 
ATOM     65  C   UNL A   1      35.071  32.148  44.087  1.00  0.00     0.059 A 
ATOM     66  C   UNL A   1      36.652  30.376  44.323  1.00  0.00     0.059 A 
ATOM     67  F   UNL A   1      38.654  30.404  43.257  1.00  0.00    -0.206 F 
ATOM     68  C   UNL A   1      35.430  30.928  44.645  1.00  0.00     0.060 A 
BRANCH  68  69
ATOM     69  S   UNL A   1      34.281  30.089  45.755  1.00  0.00     0.124 S 
ATOM     70  O   UNL A   1      35.128  29.058  46.346  1.00  0.00    -0.237 OA
ATOM     71  O   UNL A   1      33.875  31.170  46.647  1.00  0.00    -0.237 OA
ATOM     72  O   UNL A   1      33.234  29.594  44.864  1.00  0.00    -0.744 OA
ENDBRANCH  68  69
ENDBRANCH  47  61
BRANCH  48  73
ATOM     73  C   UNL A   1      42.828  34.197  34.223  1.00  0.00     0.058 A 
ATOM     74  C   UNL A   1      41.691  34.850  33.615  1.00  0.00     0.135 A 
ATOM     75  C   UNL A   1      43.675  33.606  33.279  1.00  0.00     0.135 A 
ATOM     76  F   UNL A   1      40.757  35.410  34.410  1.00  0.00    -0.206 F 
ATOM     77  C   UNL A   1      41.498  35.032  32.208  1.00  0.00     0.059 A 
ATOM     78  C   UNL A   1      43.489  33.754  31.862  1.00  0.00     0.059 A 
ATOM     79  F   UNL A   1      44.830  33.057  33.683  1.00  0.00    -0.206 F 
ATOM     80  C   UNL A   1      42.421  34.497  31.318  1.00  0.00     0.060 A 
BRANCH  80  81
ATOM     81  S   UNL A   1      42.476  34.975  29.492  1.00  0.00     0.124 S 
ATOM     82  O   UNL A   1      41.064  35.009  29.141  1.00  0.00    -0.237 OA
ATOM     83  O   UNL A   1      43.163  36.258  29.402  1.00  0.00    -0.237 OA
ATOM     84  O   UNL A   1      43.240  33.877  28.895  1.00  0.00    -0.744 OA
ENDBRANCH  80  81
ENDBRANCH  48  73
BRANCH  60  85
ATOM     85  C   UNL A   1      40.806  37.449  40.817  1.00  0.00     0.058 A 
ATOM     86  C   UNL A   1      41.440  37.981  41.951  1.00  0.00     0.135 A 
ATOM     87  C   UNL A   1      39.808  38.327  40.270  1.00  0.00     0.135 A 
ATOM     88  F   UNL A   1      42.504  37.401  42.514  1.00  0.00    -0.206 F 
ATOM     89  C   UNL A   1      41.029  39.169  42.562  1.00  0.00     0.059 A 
ATOM     90  C   UNL A   1      39.516  39.593  40.762  1.00  0.00     0.059 A 
ATOM     91  F   UNL A   1      39.037  38.009  39.222  1.00  0.00    -0.206 F 
ATOM     92  C   UNL A   1      40.072  39.971  41.958  1.00  0.00     0.060 A 
BRANCH  92  93
ATOM     93  S   UNL A   1      39.522  41.470  42.771  1.00  0.00     0.124 S 
ATOM     94  O   UNL A   1      40.756  41.913  43.414  1.00  0.00    -0.237 OA
ATOM     95  O   UNL A   1      39.062  42.284  41.649  1.00  0.00    -0.237 OA
ATOM     96  O   UNL A   1      38.474  41.010  43.677  1.00  0.00    -0.744 OA
ENDBRANCH  92  93
ENDBRANCH  60  85
ENDBRANCH  34  35
ENDBRANCH  27  29
ENDBRANCH  26  27
ENDBRANCH  25  26
ENDBRANCH  24  25
ENDBRANCH  23  24
ENDBRANCH   1  23
TORSDOF 21
ENDMDL
MODEL 2
REMARK VINA RESULT:      -9.8      6.385     11.275
REMARK SMILES Cc1cccc(-c2ccc(Cl)c(C(=O)OCCOCCOCCOC(=O)c3ccc(-c4c5nc(c(-c6c(F)cc(S(=O)(=O)[O-])cc6F)c6ccc([nH]6)c(-c6c(F)cc(S(=O)(=O)[O-])cc6F)c6nc(c(-c7c(F)cc(S(=O)(=O)[O-])cc7F)c7ccc4[nH]7)C=C6)C=C5)cc3)c2)c1
REMARK SMILES IDX 20 1 19 2 18 3 17 4 16 5 15 6 13 7 14 8 12 9 7 10 8 11 93 12
REMARK SMILES IDX 9 13 10 14 11 15 6 16 1 17 2 18 3 19 94 20 4 21 5 22 21 23
REMARK SMILES IDX 22 24 23 25 24 26 25 27 26 28 27 29 28 30 92 31 29 32 91 33
REMARK SMILES IDX 30 34 31 35 32 36 85 37 33 38 90 39 84 40 86 41 34 42 89 43
REMARK SMILES IDX 83 44 82 45 35 47 69 48 48 49 68 50 49 51 52 52 67 53 87 54
REMARK SMILES IDX 50 55 51 56 66 58 88 59 53 60 36 61 37 62 46 63 38 64 39 65
REMARK SMILES IDX 45 66 47 67 40 68 41 69 42 70 43 71 44 72 70 73 71 74 80 75
REMARK SMILES IDX 72 76 73 77 79 78 81 79 74 80 75 81 76 82 77 83 78 84 54 85
REMARK SMILES IDX 55 86 64 87 56 88 57 89 63 90 65 91 58 92 59 93 60 94 61 95
REMARK SMILES IDX 62 96
REMARK H PARENT 86 46 52 57
REMARK Flexibility Score: inf
ROOT
ATOM      1  C   UNL A   1      45.737  34.022  26.751  1.00  0.00     0.188 C 
ENDROOT
BRANCH   1   2
ATOM      2  C   UNL A   1      44.347  34.618  26.940  1.00  0.00     0.188 C 
BRANCH   2   3
ATOM      3  O   UNL A   1      44.035  35.699  27.752  1.00  0.00    -0.376 OA
BRANCH   3   4
ATOM      4  C   UNL A   1      42.815  36.244  27.356  1.00  0.00     0.202 C 
BRANCH   4   5
ATOM      5  C   UNL A   1      42.263  37.535  28.122  1.00  0.00     0.261 C 
BRANCH   5   6
ATOM      6  O   UNL A   1      41.813  39.236  27.579  1.00  0.00    -0.460 OA
BRANCH   6   7
ATOM      7  C   UNL A   1      41.892  40.309  26.341  1.00  0.00     0.339 C 
ATOM      8  O   UNL A   1      40.998  40.594  25.525  1.00  0.00    -0.246 OA
BRANCH   7   9
ATOM      9  C   UNL A   1      42.829  41.419  26.087  1.00  0.00     0.079 A 
ATOM     10  C   UNL A   1      43.883  42.809  24.279  1.00  0.00    -0.017 A 
ATOM     11  C   UNL A   1      44.909  43.055  25.192  1.00  0.00     0.010 A 
ATOM     12  C   UNL A   1      42.886  41.941  24.724  1.00  0.00     0.026 A 
ATOM     13  C   UNL A   1      44.902  42.496  26.490  1.00  0.00     0.022 A 
ATOM     14  C   UNL A   1      43.852  41.698  26.951  1.00  0.00     0.055 A 
ATOM     15  Cl  UNL A   1      43.900  41.052  28.541  1.00  0.00    -0.083 Cl
BRANCH  10  16
ATOM     16  C   UNL A   1      43.861  43.471  22.954  1.00  0.00    -0.018 A 
ATOM     17  C   UNL A   1      42.181  43.054  19.536  1.00  0.00     0.044 C 
ATOM     18  C   UNL A   1      43.086  43.562  20.621  1.00  0.00    -0.051 A 
ATOM     19  C   UNL A   1      44.095  44.481  20.316  1.00  0.00     0.003 A 
ATOM     20  C   UNL A   1      42.967  43.080  21.941  1.00  0.00     0.012 A 
ATOM     21  C   UNL A   1      44.951  44.931  21.320  1.00  0.00     0.001 A 
ATOM     22  C   UNL A   1      44.832  44.433  22.625  1.00  0.00     0.009 A 
ENDBRANCH  10  16
ENDBRANCH   7   9
ENDBRANCH   6   7
ENDBRANCH   5   6
ENDBRANCH   4   5
ENDBRANCH   3   4
ENDBRANCH   2   3
ENDBRANCH   1   2
BRANCH   1  23
ATOM     23  O   UNL A   1      45.701  32.815  26.044  1.00  0.00    -0.376 OA
BRANCH  23  24
ATOM     24  C   UNL A   1      44.338  32.456  25.883  1.00  0.00     0.202 C 
BRANCH  24  25
ATOM     25  C   UNL A   1      43.821  31.317  26.845  1.00  0.00     0.261 C 
BRANCH  25  26
ATOM     26  O   UNL A   1      43.427  29.828  26.437  1.00  0.00    -0.460 OA
BRANCH  26  27
ATOM     27  C   UNL A   1      43.134  28.545  26.090  1.00  0.00     0.338 C 
ATOM     28  O   UNL A   1      43.834  28.141  25.160  1.00  0.00    -0.246 OA
BRANCH  27  29
ATOM     29  C   UNL A   1      41.953  27.551  26.539  1.00  0.00     0.060 A 
ATOM     30  C   UNL A   1      40.666  28.067  26.585  1.00  0.00     0.016 A 
ATOM     31  C   UNL A   1      41.932  26.607  27.508  1.00  0.00     0.016 A 
ATOM     32  C   UNL A   1      40.100  28.628  27.778  1.00  0.00     0.010 A 
ATOM     33  C   UNL A   1      41.293  27.023  28.723  1.00  0.00     0.010 A 
ATOM     34  C   UNL A   1      40.683  28.364  28.973  1.00  0.00    -0.014 A 
BRANCH  34  35
ATOM     35  C   UNL A   1      40.435  29.463  30.399  1.00  0.00     0.031 A 
ATOM     36  C   UNL A   1      39.431  31.064  30.490  1.00  0.00     0.074 A 
ATOM     37  C   UNL A   1      40.971  28.850  31.500  1.00  0.00     0.049 A 
ATOM     38  N   UNL A   1      39.860  32.303  30.658  1.00  0.00    -0.248 NA
ATOM     39  C   UNL A   1      37.909  31.406  29.774  1.00  0.00     0.031 C 
ATOM     40  C   UNL A   1      40.964  29.141  32.940  1.00  0.00     0.029 A 
ATOM     41  N   UNL A   1      41.783  27.701  31.471  1.00  0.00    -0.354 N 
ATOM     42  C   UNL A   1      38.731  33.157  30.453  1.00  0.00     0.074 A 
ATOM     43  C   UNL A   1      38.037  32.650  29.358  1.00  0.00     0.031 C 
ATOM     44  C   UNL A   1      42.051  28.556  33.501  1.00  0.00     0.029 A 
ATOM     45  C   UNL A   1      42.789  27.895  32.425  1.00  0.00     0.049 A 
ATOM     46  H   UNL A   1      41.665  26.913  30.893  1.00  0.00     0.167 HD
ATOM     47  C   UNL A   1      38.026  33.663  31.525  1.00  0.00     0.037 A 
ATOM     48  C   UNL A   1      43.979  28.312  31.895  1.00  0.00     0.037 A 
ATOM     49  C   UNL A   1      38.828  33.332  32.694  1.00  0.00     0.049 A 
ATOM     50  C   UNL A   1      44.017  29.883  32.121  1.00  0.00     0.074 A 
ATOM     51  C   UNL A   1      38.757  32.388  33.697  1.00  0.00     0.029 A 
ATOM     52  N   UNL A   1      40.170  33.645  32.573  1.00  0.00    -0.354 N 
ATOM     53  N   UNL A   1      42.982  30.717  32.101  1.00  0.00    -0.248 NA
ATOM     54  C   UNL A   1      45.181  30.524  32.732  1.00  0.00     0.031 C 
ATOM     55  C   UNL A   1      40.119  32.090  34.086  1.00  0.00     0.029 A 
ATOM     56  C   UNL A   1      41.002  32.783  33.261  1.00  0.00     0.049 A 
ATOM     57  H   UNL A   1      40.502  34.410  32.049  1.00  0.00     0.167 HD
ATOM     58  C   UNL A   1      43.286  31.914  32.738  1.00  0.00     0.074 A 
ATOM     59  C   UNL A   1      44.684  31.718  33.105  1.00  0.00     0.031 C 
ATOM     60  C   UNL A   1      42.450  32.978  33.058  1.00  0.00     0.037 A 
BRANCH  47  61
ATOM     61  C   UNL A   1      36.546  34.163  31.536  1.00  0.00     0.058 A 
ATOM     62  C   UNL A   1      36.129  34.912  32.654  1.00  0.00     0.135 A 
ATOM     63  C   UNL A   1      35.501  33.988  30.570  1.00  0.00     0.135 A 
ATOM     64  F   UNL A   1      36.979  35.157  33.659  1.00  0.00    -0.206 F 
ATOM     65  C   UNL A   1      34.839  35.452  32.795  1.00  0.00     0.059 A 
ATOM     66  C   UNL A   1      34.206  34.530  30.688  1.00  0.00     0.059 A 
ATOM     67  F   UNL A   1      35.629  33.263  29.456  1.00  0.00    -0.206 F 
ATOM     68  C   UNL A   1      33.884  35.271  31.804  1.00  0.00     0.060 A 
BRANCH  68  69
ATOM     69  S   UNL A   1      32.258  36.033  31.991  1.00  0.00     0.124 S 
ATOM     70  O   UNL A   1      31.492  34.963  32.621  1.00  0.00    -0.237 OA
ATOM     71  O   UNL A   1      32.558  37.185  32.835  1.00  0.00    -0.237 OA
ATOM     72  O   UNL A   1      31.864  36.353  30.621  1.00  0.00    -0.744 OA
ENDBRANCH  68  69
ENDBRANCH  47  61
BRANCH  48  73
ATOM     73  C   UNL A   1      44.433  27.387  30.709  1.00  0.00     0.058 A 
ATOM     74  C   UNL A   1      44.787  27.959  29.429  1.00  0.00     0.135 A 
ATOM     75  C   UNL A   1      44.774  26.034  30.803  1.00  0.00     0.135 A 
ATOM     76  F   UNL A   1      44.461  29.242  29.175  1.00  0.00    -0.206 F 
ATOM     77  C   UNL A   1      45.541  27.297  28.409  1.00  0.00     0.059 A 
ATOM     78  C   UNL A   1      45.510  25.340  29.782  1.00  0.00     0.059 A 
ATOM     79  F   UNL A   1      44.609  25.393  31.970  1.00  0.00    -0.206 F 
ATOM     80  C   UNL A   1      45.928  25.975  28.595  1.00  0.00     0.060 A 
BRANCH  80  81
ATOM     81  S   UNL A   1      47.216  25.124  27.508  1.00  0.00     0.124 S 
ATOM     82  O   UNL A   1      48.420  25.229  28.320  1.00  0.00    -0.237 OA
ATOM     83  O   UNL A   1      46.751  23.763  27.271  1.00  0.00    -0.237 OA
ATOM     84  O   UNL A   1      47.208  25.947  26.296  1.00  0.00    -0.744 OA
ENDBRANCH  80  81
ENDBRANCH  48  73
BRANCH  60  85
ATOM     85  C   UNL A   1      42.947  34.462  33.134  1.00  0.00     0.058 A 
ATOM     86  C   UNL A   1      43.364  35.212  32.024  1.00  0.00     0.135 A 
ATOM     87  C   UNL A   1      42.851  35.246  34.335  1.00  0.00     0.135 A 
ATOM     88  F   UNL A   1      43.363  34.715  30.783  1.00  0.00    -0.206 F 
ATOM     89  C   UNL A   1      43.784  36.541  32.121  1.00  0.00     0.059 A 
ATOM     90  C   UNL A   1      43.090  36.613  34.407  1.00  0.00     0.059 A 
ATOM     91  F   UNL A   1      42.526  34.734  35.529  1.00  0.00    -0.206 F 
ATOM     92  C   UNL A   1      43.638  37.235  33.313  1.00  0.00     0.060 A 
BRANCH  92  93
ATOM     93  S   UNL A   1      44.219  38.926  33.438  1.00  0.00     0.124 S 
ATOM     94  O   UNL A   1      45.397  38.885  32.578  1.00  0.00    -0.237 OA
ATOM     95  O   UNL A   1      43.083  39.686  32.924  1.00  0.00    -0.237 OA
ATOM     96  O   UNL A   1      44.488  39.096  34.862  1.00  0.00    -0.744 OA
ENDBRANCH  92  93
ENDBRANCH  60  85
ENDBRANCH  34  35
ENDBRANCH  27  29
ENDBRANCH  26  27
ENDBRANCH  25  26
ENDBRANCH  24  25
ENDBRANCH  23  24
ENDBRANCH   1  23
TORSDOF 21
ENDMDL
MODEL 3
REMARK VINA RESULT:      -9.6      6.595     12.886
REMARK SMILES Cc1cccc(-c2ccc(Cl)c(C(=O)OCCOCCOCCOC(=O)c3ccc(-c4c5nc(c(-c6c(F)cc(S(=O)(=O)[O-])cc6F)c6ccc([nH]6)c(-c6c(F)cc(S(=O)(=O)[O-])cc6F)c6nc(c(-c7c(F)cc(S(=O)(=O)[O-])cc7F)c7ccc4[nH]7)C=C6)C=C5)cc3)c2)c1
REMARK SMILES IDX 20 1 19 2 18 3 17 4 16 5 15 6 13 7 14 8 12 9 7 10 8 11 93 12
REMARK SMILES IDX 9 13 10 14 11 15 6 16 1 17 2 18 3 19 94 20 4 21 5 22 21 23
REMARK SMILES IDX 22 24 23 25 24 26 25 27 26 28 27 29 28 30 92 31 29 32 91 33
REMARK SMILES IDX 30 34 31 35 32 36 85 37 33 38 90 39 84 40 86 41 34 42 89 43
REMARK SMILES IDX 83 44 82 45 35 47 69 48 48 49 68 50 49 51 52 52 67 53 87 54
REMARK SMILES IDX 50 55 51 56 66 58 88 59 53 60 36 61 37 62 46 63 38 64 39 65
REMARK SMILES IDX 45 66 47 67 40 68 41 69 42 70 43 71 44 72 70 73 71 74 80 75
REMARK SMILES IDX 72 76 73 77 79 78 81 79 74 80 75 81 76 82 77 83 78 84 54 85
REMARK SMILES IDX 55 86 64 87 56 88 57 89 63 90 65 91 58 92 59 93 60 94 61 95
REMARK SMILES IDX 62 96
REMARK H PARENT 86 46 52 57
REMARK Flexibility Score: inf
ROOT
ATOM      1  C   UNL A   1      43.217  39.797  32.928  1.00  0.00     0.188 C 
ENDROOT
BRANCH   1   2
ATOM      2  C   UNL A   1      42.773  41.164  32.421  1.00  0.00     0.188 C 
BRANCH   2   3
ATOM      3  O   UNL A   1      42.104  41.407  31.230  1.00  0.00    -0.376 OA
BRANCH   3   4
ATOM      4  C   UNL A   1      43.026  41.545  30.195  1.00  0.00     0.202 C 
BRANCH   4   5
ATOM      5  C   UNL A   1      42.837  40.667  28.872  1.00  0.00     0.261 C 
BRANCH   5   6
ATOM      6  O   UNL A   1      43.064  41.011  27.077  1.00  0.00    -0.460 OA
BRANCH   6   7
ATOM      7  C   UNL A   1      44.109  41.574  25.945  1.00  0.00     0.339 C 
ATOM      8  O   UNL A   1      44.722  40.917  25.085  1.00  0.00    -0.246 OA
BRANCH   7   9
ATOM      9  C   UNL A   1      44.320  42.936  25.422  1.00  0.00     0.079 A 
ATOM     10  C   UNL A   1      44.622  44.275  23.318  1.00  0.00    -0.017 A 
ATOM     11  C   UNL A   1      45.266  45.218  24.119  1.00  0.00     0.010 A 
ATOM     12  C   UNL A   1      44.213  43.116  23.976  1.00  0.00     0.026 A 
ATOM     13  C   UNL A   1      45.441  45.022  25.507  1.00  0.00     0.022 A 
ATOM     14  C   UNL A   1      44.948  43.895  26.168  1.00  0.00     0.055 A 
ATOM     15  Cl  UNL A   1      45.189  43.717  27.858  1.00  0.00    -0.083 Cl
BRANCH  10  16
ATOM     16  C   UNL A   1      44.370  44.534  21.881  1.00  0.00    -0.018 A 
ATOM     17  C   UNL A   1      42.257  43.126  19.012  1.00  0.00     0.044 C 
ATOM     18  C   UNL A   1      43.270  43.942  19.762  1.00  0.00    -0.051 A 
ATOM     19  C   UNL A   1      44.163  44.761  19.064  1.00  0.00     0.003 A 
ATOM     20  C   UNL A   1      43.370  43.850  21.166  1.00  0.00     0.012 A 
ATOM     21  C   UNL A   1      45.120  45.497  19.760  1.00  0.00     0.001 A 
ATOM     22  C   UNL A   1      45.219  45.386  21.154  1.00  0.00     0.009 A 
ENDBRANCH  10  16
ENDBRANCH   7   9
ENDBRANCH   6   7
ENDBRANCH   5   6
ENDBRANCH   4   5
ENDBRANCH   3   4
ENDBRANCH   2   3
ENDBRANCH   1   2
BRANCH   1  23
ATOM     23  O   UNL A   1      44.529  39.494  32.548  1.00  0.00    -0.376 OA
BRANCH  23  24
ATOM     24  C   UNL A   1      45.329  39.516  33.719  1.00  0.00     0.202 C 
BRANCH  24  25
ATOM     25  C   UNL A   1      44.588  39.106  35.051  1.00  0.00     0.261 C 
BRANCH  25  26
ATOM     26  O   UNL A   1      43.904  37.702  35.370  1.00  0.00    -0.460 OA
BRANCH  26  27
ATOM     27  C   UNL A   1      43.315  36.496  35.599  1.00  0.00     0.338 C 
ATOM     28  O   UNL A   1      42.169  36.444  35.153  1.00  0.00    -0.246 OA
BRANCH  27  29
ATOM     29  C   UNL A   1      43.765  35.228  36.479  1.00  0.00     0.060 A 
ATOM     30  C   UNL A   1      44.309  34.144  35.807  1.00  0.00     0.016 A 
ATOM     31  C   UNL A   1      43.160  34.649  37.543  1.00  0.00     0.016 A 
ATOM     32  C   UNL A   1      43.516  33.038  35.354  1.00  0.00     0.010 A 
ATOM     33  C   UNL A   1      42.416  33.465  37.225  1.00  0.00     0.010 A 
ATOM     34  C   UNL A   1      42.272  32.864  35.864  1.00  0.00    -0.014 A 
BRANCH  34  35
ATOM     35  C   UNL A   1      41.013  31.915  34.961  1.00  0.00     0.031 A 
ATOM     36  C   UNL A   1      41.026  31.369  33.149  1.00  0.00     0.074 A 
ATOM     37  C   UNL A   1      40.079  31.487  35.866  1.00  0.00     0.049 A 
ATOM     38  N   UNL A   1      40.250  31.770  32.157  1.00  0.00    -0.248 NA
ATOM     39  C   UNL A   1      42.347  30.776  32.228  1.00  0.00     0.031 C 
ATOM     40  C   UNL A   1      38.927  30.579  35.798  1.00  0.00     0.029 A 
ATOM     41  N   UNL A   1      39.988  31.922  37.201  1.00  0.00    -0.354 N 
ATOM     42  C   UNL A   1      40.796  31.209  30.959  1.00  0.00     0.074 A 
ATOM     43  C   UNL A   1      42.179  31.340  31.048  1.00  0.00     0.031 C 
ATOM     44  C   UNL A   1      38.056  30.915  36.781  1.00  0.00     0.029 A 
ATOM     45  C   UNL A   1      38.625  32.063  37.487  1.00  0.00     0.049 A 
ATOM     46  H   UNL A   1      40.739  32.092  37.816  1.00  0.00     0.167 HD
ATOM     47  C   UNL A   1      40.260  30.063  30.409  1.00  0.00     0.037 A 
ATOM     48  C   UNL A   1      38.177  33.353  37.412  1.00  0.00     0.037 A 
ATOM     49  C   UNL A   1      39.028  29.831  31.148  1.00  0.00     0.049 A 
ATOM     50  C   UNL A   1      37.482  33.480  35.990  1.00  0.00     0.074 A 
ATOM     51  C   UNL A   1      38.632  28.968  32.150  1.00  0.00     0.029 A 
ATOM     52  N   UNL A   1      38.220  30.947  31.279  1.00  0.00    -0.354 N 
ATOM     53  N   UNL A   1      37.843  32.863  34.869  1.00  0.00    -0.248 NA
ATOM     54  C   UNL A   1      36.136  34.034  35.861  1.00  0.00     0.031 C 
ATOM     55  C   UNL A   1      37.634  29.667  32.930  1.00  0.00     0.029 A 
ATOM     56  C   UNL A   1      37.497  30.969  32.456  1.00  0.00     0.049 A 
ATOM     57  H   UNL A   1      38.165  31.657  30.599  1.00  0.00     0.167 HD
ATOM     58  C   UNL A   1      36.808  32.856  33.942  1.00  0.00     0.074 A 
ATOM     59  C   UNL A   1      35.771  33.612  34.637  1.00  0.00     0.031 C 
ATOM     60  C   UNL A   1      36.725  32.199  32.720  1.00  0.00     0.037 A 
BRANCH  47  61
ATOM     61  C   UNL A   1      40.969  29.047  29.457  1.00  0.00     0.058 A 
ATOM     62  C   UNL A   1      40.511  28.986  28.127  1.00  0.00     0.135 A 
ATOM     63  C   UNL A   1      42.044  28.134  29.711  1.00  0.00     0.135 A 
ATOM     64  F   UNL A   1      39.499  29.765  27.723  1.00  0.00    -0.206 F 
ATOM     65  C   UNL A   1      41.065  28.144  27.148  1.00  0.00     0.059 A 
ATOM     66  C   UNL A   1      42.620  27.289  28.743  1.00  0.00     0.059 A 
ATOM     67  F   UNL A   1      42.606  27.958  30.910  1.00  0.00    -0.206 F 
ATOM     68  C   UNL A   1      42.129  27.306  27.455  1.00  0.00     0.060 A 
BRANCH  68  69
ATOM     69  S   UNL A   1      42.856  26.285  26.156  1.00  0.00     0.124 S 
ATOM     70  O   UNL A   1      42.122  25.033  26.309  1.00  0.00    -0.237 OA
ATOM     71  O   UNL A   1      42.554  27.058  24.956  1.00  0.00    -0.237 OA
ATOM     72  O   UNL A   1      44.271  26.221  26.514  1.00  0.00    -0.744 OA
ENDBRANCH  68  69
ENDBRANCH  47  61
BRANCH  48  73
ATOM     73  C   UNL A   1      39.080  34.323  38.255  1.00  0.00     0.058 A 
ATOM     74  C   UNL A   1      39.572  35.554  37.677  1.00  0.00     0.135 A 
ATOM     75  C   UNL A   1      39.296  34.257  39.636  1.00  0.00     0.135 A 
ATOM     76  F   UNL A   1      39.487  35.728  36.343  1.00  0.00    -0.206 F 
ATOM     77  C   UNL A   1      40.083  36.667  38.417  1.00  0.00     0.059 A 
ATOM     78  C   UNL A   1      39.829  35.353  40.397  1.00  0.00     0.059 A 
ATOM     79  F   UNL A   1      38.796  33.224  40.331  1.00  0.00    -0.206 F 
ATOM     80  C   UNL A   1      40.193  36.576  39.799  1.00  0.00     0.060 A 
BRANCH  80  81
ATOM     81  S   UNL A   1      40.497  38.078  40.901  1.00  0.00     0.124 S 
ATOM     82  O   UNL A   1      41.219  38.973  40.009  1.00  0.00    -0.237 OA
ATOM     83  O   UNL A   1      39.194  38.566  41.338  1.00  0.00    -0.237 OA
ATOM     84  O   UNL A   1      41.291  37.517  41.997  1.00  0.00    -0.744 OA
ENDBRANCH  80  81
ENDBRANCH  48  73
BRANCH  60  85
ATOM     85  C   UNL A   1      35.897  32.747  31.508  1.00  0.00     0.058 A 
ATOM     86  C   UNL A   1      35.245  31.935  30.567  1.00  0.00     0.135 A 
ATOM     87  C   UNL A   1      35.586  34.141  31.355  1.00  0.00     0.135 A 
ATOM     88  F   UNL A   1      35.268  30.601  30.634  1.00  0.00    -0.206 F 
ATOM     89  C   UNL A   1      34.496  32.454  29.507  1.00  0.00     0.059 A 
ATOM     90  C   UNL A   1      34.699  34.655  30.417  1.00  0.00     0.059 A 
ATOM     91  F   UNL A   1      36.134  35.109  32.103  1.00  0.00    -0.206 F 
ATOM     92  C   UNL A   1      34.223  33.812  29.443  1.00  0.00     0.060 A 
BRANCH  92  93
ATOM     93  S   UNL A   1      33.300  34.473  28.057  1.00  0.00     0.124 S 
ATOM     94  O   UNL A   1      32.612  33.277  27.579  1.00  0.00    -0.237 OA
ATOM     95  O   UNL A   1      32.455  35.479  28.695  1.00  0.00    -0.237 OA
ATOM     96  O   UNL A   1      34.333  34.999  27.170  1.00  0.00    -0.744 OA
ENDBRANCH  92  93
ENDBRANCH  60  85
ENDBRANCH  34  35
ENDBRANCH  27  29
ENDBRANCH  26  27
ENDBRANCH  25  26
ENDBRANCH  24  25
ENDBRANCH  23  24
ENDBRANCH   1  23
TORSDOF 21
ENDMDL
