MODEL 1
REMARK VINA RESULT:      -8.2      0.000      0.000
REMARK SMILES C[C@H](C[N@H+]1[C@@H]2CC[C@H]1C[C@H](CC(=O)OCCOCCOCCOC(=O)c1ccc(-c3c4nc(c(-c5c(F)cc(S(=O)(=O)[O-])cc5F)c5ccc([nH]5)c(-c5c(F)cc(S(=O)(=O)[O-])cc5F)c5nc(c(-c6c(F)cc(S(=O)(=O)[O-])cc6F)c6ccc3[nH]6)C=C5)C=C4)cc1)C2)c1ccccc1
REMARK SMILES IDX 18 1 17 2 16 3 15 4 14 5 12 6 13 7 11 8 10 9 4 10 5 11 8 12
REMARK SMILES IDX 6 14 92 15 7 16 9 17 3 18 2 19 1 20 93 21 94 22 98 23 95 24
REMARK SMILES IDX 97 25 96 26 19 27 20 28 21 29 22 30 23 31 24 32 25 33 26 34
REMARK SMILES IDX 27 35 91 36 28 37 90 38 29 39 30 40 31 41 84 42 32 43 89 44
REMARK SMILES IDX 83 45 85 46 33 47 88 48 82 49 81 50 34 52 68 53 47 54 67 55
REMARK SMILES IDX 48 56 51 57 66 58 86 59 49 60 50 61 65 63 87 64 52 65 35 66
REMARK SMILES IDX 36 67 45 68 37 69 38 70 44 71 46 72 39 73 40 74 41 75 42 76
REMARK SMILES IDX 43 77 69 78 70 79 79 80 71 81 72 82 78 83 80 84 73 85 74 86
REMARK SMILES IDX 75 87 76 88 77 89 53 90 54 91 63 92 55 93 56 94 62 95 64 96
REMARK SMILES IDX 57 97 58 98 59 99 60 100 61 101
REMARK H PARENT 4 13 85 51 51 62
REMARK Flexibility Score: inf
ROOT
ATOM      1  C   UNL A   1      36.990  33.111  32.528  1.00  0.00     0.188 C 
ENDROOT
BRANCH   1   2
ATOM      2  O   UNL A   1      37.681  33.688  33.614  1.00  0.00    -0.376 OA
BRANCH   2   3
ATOM      3  C   UNL A   1      39.001  33.177  33.782  1.00  0.00     0.202 C 
BRANCH   3   4
ATOM      4  C   UNL A   1      39.211  31.988  34.762  1.00  0.00     0.261 C 
BRANCH   4   5
ATOM      5  O   UNL A   1      40.271  31.030  34.474  1.00  0.00    -0.463 OA
BRANCH   5   6
ATOM      6  C   UNL A   1      40.037  29.856  33.787  1.00  0.00     0.306 C 
ATOM      7  O   UNL A   1      39.051  29.710  33.066  1.00  0.00    -0.252 OA
BRANCH   6   8
ATOM      8  C   UNL A   1      41.195  28.506  34.079  1.00  0.00     0.126 C 
BRANCH   8   9
ATOM      9  C   UNL A   1      43.317  28.392  34.701  1.00  0.00     0.012 C 
ATOM     10  N   UNL A   1      45.054  26.314  36.139  1.00  0.00    -0.330 N 
ATOM     11  C   UNL A   1      45.687  26.958  34.977  1.00  0.00     0.184 C 
ATOM     12  C   UNL A   1      44.917  27.428  37.033  1.00  0.00     0.184 C 
ATOM     13  H   UNL A   1      45.622  25.548  36.501  1.00  0.00     0.348 HD
ATOM     14  C   UNL A   1      46.604  28.070  35.556  1.00  0.00     0.071 C 
ATOM     15  C   UNL A   1      44.676  27.532  33.988  1.00  0.00     0.069 C 
ATOM     16  C   UNL A   1      46.286  28.074  37.036  1.00  0.00     0.071 C 
ATOM     17  C   UNL A   1      43.909  28.425  36.491  1.00  0.00     0.069 C 
BRANCH  10  18
ATOM     18  C   UNL A   1      43.874  25.439  35.948  1.00  0.00     0.270 C 
BRANCH  18  19
ATOM     19  C   UNL A   1      43.861  23.853  35.714  1.00  0.00     0.071 C 
ATOM     20  C   UNL A   1      42.908  23.358  34.642  1.00  0.00     0.019 C 
BRANCH  19  21
ATOM     21  C   UNL A   1      45.261  23.268  35.675  1.00  0.00    -0.040 A 
ATOM     22  C   UNL A   1      46.545  23.532  34.399  1.00  0.00     0.004 A 
ATOM     23  C   UNL A   1      45.785  22.864  37.345  1.00  0.00     0.004 A 
ATOM     24  C   UNL A   1      48.300  23.553  34.909  1.00  0.00     0.000 A 
ATOM     25  C   UNL A   1      47.501  22.873  37.788  1.00  0.00     0.000 A 
ATOM     26  C   UNL A   1      48.750  23.224  36.599  1.00  0.00     0.000 A 
ENDBRANCH  19  21
ENDBRANCH  18  19
ENDBRANCH  10  18
ENDBRANCH   8   9
ENDBRANCH   6   8
ENDBRANCH   5   6
ENDBRANCH   4   5
ENDBRANCH   3   4
ENDBRANCH   2   3
ENDBRANCH   1   2
BRANCH   1  27
ATOM     27  C   UNL A   1      36.131  34.062  31.701  1.00  0.00     0.188 C 
BRANCH  27  28
ATOM     28  O   UNL A   1      35.816  33.694  30.371  1.00  0.00    -0.376 OA
BRANCH  28  29
ATOM     29  C   UNL A   1      34.417  33.751  30.063  1.00  0.00     0.202 C 
BRANCH  29  30
ATOM     30  C   UNL A   1      33.942  33.543  28.595  1.00  0.00     0.261 C 
BRANCH  30  31
ATOM     31  O   UNL A   1      34.625  32.573  27.752  1.00  0.00    -0.460 OA
BRANCH  31  32
ATOM     32  C   UNL A   1      34.437  31.246  27.950  1.00  0.00     0.338 C 
ATOM     33  O   UNL A   1      33.386  30.655  27.765  1.00  0.00    -0.246 OA
BRANCH  32  34
ATOM     34  C   UNL A   1      35.761  30.561  28.198  1.00  0.00     0.060 A 
ATOM     35  C   UNL A   1      36.085  30.187  29.513  1.00  0.00     0.016 A 
ATOM     36  C   UNL A   1      36.673  30.250  27.181  1.00  0.00     0.016 A 
ATOM     37  C   UNL A   1      37.313  29.562  29.816  1.00  0.00     0.010 A 
ATOM     38  C   UNL A   1      37.908  29.635  27.487  1.00  0.00     0.010 A 
ATOM     39  C   UNL A   1      38.260  29.312  28.813  1.00  0.00    -0.014 A 
BRANCH  39  40
ATOM     40  C   UNL A   1      39.666  28.904  29.153  1.00  0.00     0.031 A 
ATOM     41  C   UNL A   1      40.562  29.908  29.846  1.00  0.00     0.074 A 
ATOM     42  C   UNL A   1      40.172  27.682  28.878  1.00  0.00     0.049 A 
ATOM     43  N   UNL A   1      41.832  29.827  30.159  1.00  0.00    -0.248 NA
ATOM     44  C   UNL A   1      39.931  31.178  30.238  1.00  0.00     0.031 C 
ATOM     45  C   UNL A   1      39.436  26.575  28.273  1.00  0.00     0.029 A 
ATOM     46  N   UNL A   1      41.442  27.172  29.063  1.00  0.00    -0.354 N 
ATOM     47  C   UNL A   1      42.156  31.036  30.769  1.00  0.00     0.074 A 
ATOM     48  C   UNL A   1      40.952  31.840  30.761  1.00  0.00     0.031 C 
ATOM     49  C   UNL A   1      40.268  25.528  28.116  1.00  0.00     0.029 A 
ATOM     50  C   UNL A   1      41.611  25.895  28.570  1.00  0.00     0.049 A 
ATOM     51  H   UNL A   1      42.163  27.675  29.506  1.00  0.00     0.167 HD
ATOM     52  C   UNL A   1      43.339  31.446  31.289  1.00  0.00     0.037 A 
ATOM     53  C   UNL A   1      42.717  25.122  28.463  1.00  0.00     0.037 A 
ATOM     54  C   UNL A   1      44.547  30.658  31.297  1.00  0.00     0.049 A 
ATOM     55  C   UNL A   1      44.052  25.633  28.962  1.00  0.00     0.074 A 
ATOM     56  C   UNL A   1      45.788  30.994  31.816  1.00  0.00     0.029 A 
ATOM     57  N   UNL A   1      44.678  29.391  30.752  1.00  0.00    -0.354 N 
ATOM     58  N   UNL A   1      44.336  26.773  29.547  1.00  0.00    -0.248 NA
ATOM     59  C   UNL A   1      45.220  24.754  28.785  1.00  0.00     0.031 C 
ATOM     60  C   UNL A   1      46.683  29.964  31.520  1.00  0.00     0.029 A 
ATOM     61  C   UNL A   1      45.985  28.948  30.890  1.00  0.00     0.049 A 
ATOM     62  H   UNL A   1      43.951  28.880  30.329  1.00  0.00     0.167 HD
ATOM     63  C   UNL A   1      45.698  26.728  29.839  1.00  0.00     0.074 A 
ATOM     64  C   UNL A   1      46.183  25.447  29.375  1.00  0.00     0.031 C 
ATOM     65  C   UNL A   1      46.474  27.665  30.442  1.00  0.00     0.037 A 
BRANCH  52  66
ATOM     66  C   UNL A   1      43.408  32.839  31.863  1.00  0.00     0.058 A 
ATOM     67  C   UNL A   1      43.571  33.974  31.052  1.00  0.00     0.135 A 
ATOM     68  C   UNL A   1      43.260  33.044  33.247  1.00  0.00     0.135 A 
ATOM     69  F   UNL A   1      43.730  33.840  29.726  1.00  0.00    -0.206 F 
ATOM     70  C   UNL A   1      43.620  35.255  31.594  1.00  0.00     0.059 A 
ATOM     71  C   UNL A   1      43.271  34.318  33.806  1.00  0.00     0.059 A 
ATOM     72  F   UNL A   1      43.096  31.996  34.071  1.00  0.00    -0.206 F 
ATOM     73  C   UNL A   1      43.466  35.417  32.972  1.00  0.00     0.060 A 
BRANCH  73  74
ATOM     74  S   UNL A   1      43.532  37.086  33.656  1.00  0.00     0.124 S 
ATOM     75  O   UNL A   1      44.667  36.983  34.569  1.00  0.00    -0.237 OA
ATOM     76  O   UNL A   1      43.749  37.901  32.465  1.00  0.00    -0.237 OA
ATOM     77  O   UNL A   1      42.228  37.246  34.294  1.00  0.00    -0.744 OA
ENDBRANCH  73  74
ENDBRANCH  52  66
BRANCH  53  78
ATOM     78  C   UNL A   1      42.636  23.773  27.823  1.00  0.00     0.058 A 
ATOM     79  C   UNL A   1      42.531  22.601  28.590  1.00  0.00     0.135 A 
ATOM     80  C   UNL A   1      42.697  23.626  26.427  1.00  0.00     0.135 A 
ATOM     81  F   UNL A   1      42.501  22.678  29.929  1.00  0.00    -0.206 F 
ATOM     82  C   UNL A   1      42.498  21.338  28.002  1.00  0.00     0.059 A 
ATOM     83  C   UNL A   1      42.632  22.376  25.814  1.00  0.00     0.059 A 
ATOM     84  F   UNL A   1      42.809  24.708  25.642  1.00  0.00    -0.206 F 
ATOM     85  C   UNL A   1      42.540  21.237  26.610  1.00  0.00     0.060 A 
BRANCH  85  86
ATOM     86  S   UNL A   1      42.436  19.597  25.858  1.00  0.00     0.124 S 
ATOM     87  O   UNL A   1      41.052  19.568  25.399  1.00  0.00    -0.237 OA
ATOM     88  O   UNL A   1      43.453  19.677  24.814  1.00  0.00    -0.237 OA
ATOM     89  O   UNL A   1      42.752  18.697  26.963  1.00  0.00    -0.744 OA
ENDBRANCH  85  86
ENDBRANCH  53  78
BRANCH  65  90
ATOM     90  C   UNL A   1      47.926  27.339  30.697  1.00  0.00     0.058 A 
ATOM     91  C   UNL A   1      48.337  26.531  31.770  1.00  0.00     0.135 A 
ATOM     92  C   UNL A   1      48.918  27.784  29.806  1.00  0.00     0.135 A 
ATOM     93  F   UNL A   1      47.438  26.077  32.656  1.00  0.00    -0.206 F 
ATOM     94  C   UNL A   1      49.676  26.197  31.962  1.00  0.00     0.059 A 
ATOM     95  C   UNL A   1      50.257  27.435  29.958  1.00  0.00     0.059 A 
ATOM     96  F   UNL A   1      48.587  28.551  28.753  1.00  0.00    -0.206 F 
ATOM     97  C   UNL A   1      50.629  26.649  31.047  1.00  0.00     0.060 A 
BRANCH  97  98
ATOM     98  S   UNL A   1      52.355  26.171  31.285  1.00  0.00     0.124 S 
ATOM     99  O   UNL A   1      52.827  26.071  29.908  1.00  0.00    -0.237 OA
ATOM    100  O   UNL A   1      52.884  27.292  32.057  1.00  0.00    -0.237 OA
ATOM    101  O   UNL A   1      52.263  24.907  32.009  1.00  0.00    -0.744 OA
ENDBRANCH  97  98
ENDBRANCH  65  90
ENDBRANCH  39  40
ENDBRANCH  32  34
ENDBRANCH  31  32
ENDBRANCH  30  31
ENDBRANCH  29  30
ENDBRANCH  28  29
ENDBRANCH  27  28
ENDBRANCH   1  27
TORSDOF 24
ENDMDL
MODEL 2
REMARK VINA RESULT:      -7.9      3.653      9.270
REMARK SMILES C[C@H](C[N@H+]1[C@@H]2CC[C@H]1C[C@H](CC(=O)OCCOCCOCCOC(=O)c1ccc(-c3c4nc(c(-c5c(F)cc(S(=O)(=O)[O-])cc5F)c5ccc([nH]5)c(-c5c(F)cc(S(=O)(=O)[O-])cc5F)c5nc(c(-c6c(F)cc(S(=O)(=O)[O-])cc6F)c6ccc3[nH]6)C=C5)C=C4)cc1)C2)c1ccccc1
REMARK SMILES IDX 18 1 17 2 16 3 15 4 14 5 12 6 13 7 11 8 10 9 4 10 5 11 8 12
REMARK SMILES IDX 6 14 92 15 7 16 9 17 3 18 2 19 1 20 93 21 94 22 98 23 95 24
REMARK SMILES IDX 97 25 96 26 19 27 20 28 21 29 22 30 23 31 24 32 25 33 26 34
REMARK SMILES IDX 27 35 91 36 28 37 90 38 29 39 30 40 31 41 84 42 32 43 89 44
REMARK SMILES IDX 83 45 85 46 33 47 88 48 82 49 81 50 34 52 68 53 47 54 67 55
REMARK SMILES IDX 48 56 51 57 66 58 86 59 49 60 50 61 65 63 87 64 52 65 35 66
REMARK SMILES IDX 36 67 45 68 37 69 38 70 44 71 46 72 39 73 40 74 41 75 42 76
REMARK SMILES IDX 43 77 69 78 70 79 79 80 71 81 72 82 78 83 80 84 73 85 74 86
REMARK SMILES IDX 75 87 76 88 77 89 53 90 54 91 63 92 55 93 56 94 62 95 64 96
REMARK SMILES IDX 57 97 58 98 59 99 60 100 61 101
REMARK H PARENT 4 13 85 51 51 62
REMARK Flexibility Score: inf
ROOT
ATOM      1  C   UNL A   1      33.677  35.204  29.106  1.00  0.00     0.188 C 
ENDROOT
BRANCH   1   2
ATOM      2  O   UNL A   1      33.367  34.175  28.193  1.00  0.00    -0.376 OA
BRANCH   2   3
ATOM      3  C   UNL A   1      34.455  33.287  27.949  1.00  0.00     0.202 C 
BRANCH   3   4
ATOM      4  C   UNL A   1      34.181  31.756  28.002  1.00  0.00     0.261 C 
BRANCH   4   5
ATOM      5  O   UNL A   1      35.123  30.908  28.721  1.00  0.00    -0.463 OA
BRANCH   5   6
ATOM      6  C   UNL A   1      35.838  29.905  28.096  1.00  0.00     0.306 C 
ATOM      7  O   UNL A   1      35.425  29.348  27.081  1.00  0.00    -0.252 OA
BRANCH   6   8
ATOM      8  C   UNL A   1      37.363  29.380  28.902  1.00  0.00     0.126 C 
BRANCH   8   9
ATOM      9  C   UNL A   1      39.493  29.329  28.305  1.00  0.00     0.012 C 
ATOM     10  N   UNL A   1      41.675  27.177  28.209  1.00  0.00    -0.330 N 
ATOM     11  C   UNL A   1      41.625  28.064  27.036  1.00  0.00     0.184 C 
ATOM     12  C   UNL A   1      42.051  28.101  29.240  1.00  0.00     0.184 C 
ATOM     13  H   UNL A   1      42.331  26.408  28.070  1.00  0.00     0.348 HD
ATOM     14  C   UNL A   1      42.735  29.128  27.261  1.00  0.00     0.071 C 
ATOM     15  C   UNL A   1      40.260  28.721  26.842  1.00  0.00     0.069 C 
ATOM     16  C   UNL A   1      43.236  28.845  28.660  1.00  0.00     0.071 C 
ATOM     17  C   UNL A   1      40.934  29.094  29.500  1.00  0.00     0.069 C 
BRANCH  10  18
ATOM     18  C   UNL A   1      40.549  26.258  28.490  1.00  0.00     0.270 C 
BRANCH  18  19
ATOM     19  C   UNL A   1      40.383  24.738  28.004  1.00  0.00     0.071 C 
ATOM     20  C   UNL A   1      39.231  24.480  27.050  1.00  0.00     0.019 C 
BRANCH  19  21
ATOM     21  C   UNL A   1      41.710  24.110  27.624  1.00  0.00    -0.040 A 
ATOM     22  C   UNL A   1      42.775  24.528  26.196  1.00  0.00     0.004 A 
ATOM     23  C   UNL A   1      42.481  23.411  29.089  1.00  0.00     0.004 A 
ATOM     24  C   UNL A   1      44.587  24.389  26.380  1.00  0.00     0.000 A 
ATOM     25  C   UNL A   1      44.243  23.274  29.213  1.00  0.00     0.000 A 
ATOM     26  C   UNL A   1      45.294  23.765  27.889  1.00  0.00     0.000 A 
ENDBRANCH  19  21
ENDBRANCH  18  19
ENDBRANCH  10  18
ENDBRANCH   8   9
ENDBRANCH   6   8
ENDBRANCH   5   6
ENDBRANCH   4   5
ENDBRANCH   3   4
ENDBRANCH   2   3
ENDBRANCH   1   2
BRANCH   1  27
ATOM     27  C   UNL A   1      34.082  34.755  30.507  1.00  0.00     0.188 C 
BRANCH  27  28
ATOM     28  O   UNL A   1      33.713  35.570  31.604  1.00  0.00    -0.376 OA
BRANCH  28  29
ATOM     29  C   UNL A   1      33.645  34.874  32.855  1.00  0.00     0.202 C 
BRANCH  29  30
ATOM     30  C   UNL A   1      34.926  34.730  33.728  1.00  0.00     0.261 C 
BRANCH  30  31
ATOM     31  O   UNL A   1      35.308  33.417  34.227  1.00  0.00    -0.460 OA
BRANCH  31  32
ATOM     32  C   UNL A   1      36.340  33.293  35.098  1.00  0.00     0.338 C 
ATOM     33  O   UNL A   1      36.234  33.316  36.313  1.00  0.00    -0.246 OA
BRANCH  32  34
ATOM     34  C   UNL A   1      37.596  32.882  34.365  1.00  0.00     0.060 A 
ATOM     35  C   UNL A   1      38.838  33.148  34.966  1.00  0.00     0.016 A 
ATOM     36  C   UNL A   1      37.589  32.221  33.130  1.00  0.00     0.016 A 
ATOM     37  C   UNL A   1      40.049  32.808  34.327  1.00  0.00     0.010 A 
ATOM     38  C   UNL A   1      38.803  31.892  32.485  1.00  0.00     0.010 A 
ATOM     39  C   UNL A   1      40.051  32.210  33.059  1.00  0.00    -0.014 A 
BRANCH  39  40
ATOM     40  C   UNL A   1      41.315  32.092  32.255  1.00  0.00     0.031 A 
ATOM     41  C   UNL A   1      42.165  30.851  32.424  1.00  0.00     0.074 A 
ATOM     42  C   UNL A   1      41.730  33.035  31.381  1.00  0.00     0.049 A 
ATOM     43  N   UNL A   1      43.337  30.558  31.915  1.00  0.00    -0.248 NA
ATOM     44  C   UNL A   1      41.610  29.798  33.288  1.00  0.00     0.031 C 
ATOM     45  C   UNL A   1      41.009  34.260  31.047  1.00  0.00     0.029 A 
ATOM     46  N   UNL A   1      42.881  33.112  30.621  1.00  0.00    -0.354 N 
ATOM     47  C   UNL A   1      43.666  29.299  32.408  1.00  0.00     0.074 A 
ATOM     48  C   UNL A   1      42.579  28.894  33.273  1.00  0.00     0.031 C 
ATOM     49  C   UNL A   1      41.740  34.975  30.170  1.00  0.00     0.029 A 
ATOM     50  C   UNL A   1      43.003  34.284  29.905  1.00  0.00     0.049 A 
ATOM     51  H   UNL A   1      43.554  32.394  30.592  1.00  0.00     0.167 HD
ATOM     52  C   UNL A   1      44.767  28.543  32.167  1.00  0.00     0.037 A 
ATOM     53  C   UNL A   1      44.020  34.766  29.154  1.00  0.00     0.037 A 
ATOM     54  C   UNL A   1      45.860  28.937  31.313  1.00  0.00     0.049 A 
ATOM     55  C   UNL A   1      45.284  33.951  28.974  1.00  0.00     0.074 A 
ATOM     56  C   UNL A   1      47.008  28.224  31.006  1.00  0.00     0.029 A 
ATOM     57  N   UNL A   1      45.956  30.147  30.645  1.00  0.00    -0.354 N 
ATOM     58  N   UNL A   1      45.571  32.757  29.436  1.00  0.00    -0.248 NA
ATOM     59  C   UNL A   1      46.363  34.548  28.169  1.00  0.00     0.031 C 
ATOM     60  C   UNL A   1      47.829  29.031  30.214  1.00  0.00     0.029 A 
ATOM     61  C   UNL A   1      47.158  30.215  29.957  1.00  0.00     0.049 A 
ATOM     62  H   UNL A   1      45.272  30.855  30.657  1.00  0.00     0.167 HD
ATOM     63  C   UNL A   1      46.841  32.449  28.949  1.00  0.00     0.074 A 
ATOM     64  C   UNL A   1      47.266  33.577  28.149  1.00  0.00     0.031 C 
ATOM     65  C   UNL A   1      47.584  31.330  29.145  1.00  0.00     0.037 A 
BRANCH  52  66
ATOM     66  C   UNL A   1      44.873  27.215  32.875  1.00  0.00     0.058 A 
ATOM     67  C   UNL A   1      45.349  27.107  34.192  1.00  0.00     0.135 A 
ATOM     68  C   UNL A   1      44.447  26.036  32.237  1.00  0.00     0.135 A 
ATOM     69  F   UNL A   1      45.782  28.196  34.846  1.00  0.00    -0.206 F 
ATOM     70  C   UNL A   1      45.430  25.876  34.837  1.00  0.00     0.059 A 
ATOM     71  C   UNL A   1      44.487  24.801  32.876  1.00  0.00     0.059 A 
ATOM     72  F   UNL A   1      43.978  26.080  30.980  1.00  0.00    -0.206 F 
ATOM     73  C   UNL A   1      44.994  24.729  34.172  1.00  0.00     0.060 A 
BRANCH  73  74
ATOM     74  S   UNL A   1      45.107  23.142  35.025  1.00  0.00     0.124 S 
ATOM     75  O   UNL A   1      46.063  23.448  36.086  1.00  0.00    -0.237 OA
ATOM     76  O   UNL A   1      43.730  22.924  35.456  1.00  0.00    -0.237 OA
ATOM     77  O   UNL A   1      45.590  22.231  33.991  1.00  0.00    -0.744 OA
ENDBRANCH  73  74
ENDBRANCH  52  66
BRANCH  53  78
ATOM     78  C   UNL A   1      43.919  36.118  28.522  1.00  0.00     0.058 A 
ATOM     79  C   UNL A   1      44.440  37.262  29.149  1.00  0.00     0.135 A 
ATOM     80  C   UNL A   1      43.266  36.298  27.292  1.00  0.00     0.135 A 
ATOM     81  F   UNL A   1      45.045  37.156  30.341  1.00  0.00    -0.206 F 
ATOM     82  C   UNL A   1      44.311  38.531  28.586  1.00  0.00     0.059 A 
ATOM     83  C   UNL A   1      43.154  37.552  26.693  1.00  0.00     0.059 A 
ATOM     84  F   UNL A   1      42.738  35.244  26.650  1.00  0.00    -0.206 F 
ATOM     85  C   UNL A   1      43.673  38.664  27.351  1.00  0.00     0.060 A 
BRANCH  85  86
ATOM     86  S   UNL A   1      43.566  40.306  26.604  1.00  0.00     0.124 S 
ATOM     87  O   UNL A   1      44.650  40.260  25.630  1.00  0.00    -0.237 OA
ATOM     88  O   UNL A   1      42.214  40.301  26.054  1.00  0.00    -0.237 OA
ATOM     89  O   UNL A   1      43.772  41.205  27.735  1.00  0.00    -0.744 OA
ENDBRANCH  85  86
ENDBRANCH  53  78
BRANCH  65  90
ATOM     90  C   UNL A   1      48.917  31.223  28.446  1.00  0.00     0.058 A 
ATOM     91  C   UNL A   1      49.067  30.576  27.209  1.00  0.00     0.135 A 
ATOM     92  C   UNL A   1      50.055  31.843  28.993  1.00  0.00     0.135 A 
ATOM     93  F   UNL A   1      48.020  29.962  26.637  1.00  0.00    -0.206 F 
ATOM     94  C   UNL A   1      50.295  30.529  26.552  1.00  0.00     0.059 A 
ATOM     95  C   UNL A   1      51.284  31.839  28.339  1.00  0.00     0.059 A 
ATOM     96  F   UNL A   1      49.974  32.487  30.169  1.00  0.00    -0.206 F 
ATOM     97  C   UNL A   1      51.397  31.170  27.122  1.00  0.00     0.060 A 
BRANCH  97  98
ATOM     98  S   UNL A   1      52.972  31.138  26.238  1.00  0.00     0.124 S 
ATOM     99  O   UNL A   1      52.929  32.402  25.510  1.00  0.00    -0.237 OA
ATOM    100  O   UNL A   1      53.940  31.067  27.329  1.00  0.00    -0.237 OA
ATOM    101  O   UNL A   1      52.878  29.936  25.414  1.00  0.00    -0.744 OA
ENDBRANCH  97  98
ENDBRANCH  65  90
ENDBRANCH  39  40
ENDBRANCH  32  34
ENDBRANCH  31  32
ENDBRANCH  30  31
ENDBRANCH  29  30
ENDBRANCH  28  29
ENDBRANCH  27  28
ENDBRANCH   1  27
TORSDOF 24
ENDMDL
MODEL 3
REMARK VINA RESULT:      -7.8      4.295     10.330
REMARK SMILES C[C@H](C[N@H+]1[C@@H]2CC[C@H]1C[C@H](CC(=O)OCCOCCOCCOC(=O)c1ccc(-c3c4nc(c(-c5c(F)cc(S(=O)(=O)[O-])cc5F)c5ccc([nH]5)c(-c5c(F)cc(S(=O)(=O)[O-])cc5F)c5nc(c(-c6c(F)cc(S(=O)(=O)[O-])cc6F)c6ccc3[nH]6)C=C5)C=C4)cc1)C2)c1ccccc1
REMARK SMILES IDX 18 1 17 2 16 3 15 4 14 5 12 6 13 7 11 8 10 9 4 10 5 11 8 12
REMARK SMILES IDX 6 14 92 15 7 16 9 17 3 18 2 19 1 20 93 21 94 22 98 23 95 24
REMARK SMILES IDX 97 25 96 26 19 27 20 28 21 29 22 30 23 31 24 32 25 33 26 34
REMARK SMILES IDX 27 35 91 36 28 37 90 38 29 39 30 40 31 41 84 42 32 43 89 44
REMARK SMILES IDX 83 45 85 46 33 47 88 48 82 49 81 50 34 52 68 53 47 54 67 55
REMARK SMILES IDX 48 56 51 57 66 58 86 59 49 60 50 61 65 63 87 64 52 65 35 66
REMARK SMILES IDX 36 67 45 68 37 69 38 70 44 71 46 72 39 73 40 74 41 75 42 76
REMARK SMILES IDX 43 77 69 78 70 79 79 80 71 81 72 82 78 83 80 84 73 85 74 86
REMARK SMILES IDX 75 87 76 88 77 89 53 90 54 91 63 92 55 93 56 94 62 95 64 96
REMARK SMILES IDX 57 97 58 98 59 99 60 100 61 101
REMARK H PARENT 4 13 85 51 51 62
REMARK Flexibility Score: inf
ROOT
ATOM      1  C   UNL A   1      42.045  22.343  26.922  1.00  0.00     0.188 C 
ENDROOT
BRANCH   1   2
ATOM      2  O   UNL A   1      42.997  22.153  27.944  1.00  0.00    -0.376 OA
BRANCH   2   3
ATOM      3  C   UNL A   1      43.218  23.317  28.737  1.00  0.00     0.202 C 
BRANCH   3   4
ATOM      4  C   UNL A   1      44.676  23.654  29.159  1.00  0.00     0.261 C 
BRANCH   4   5
ATOM      5  O   UNL A   1      45.122  25.038  29.068  1.00  0.00    -0.463 OA
BRANCH   5   6
ATOM      6  C   UNL A   1      46.423  25.414  29.340  1.00  0.00     0.306 C 
ATOM      7  O   UNL A   1      47.256  25.564  28.448  1.00  0.00    -0.252 OA
BRANCH   6   8
ATOM      8  C   UNL A   1      46.870  25.573  31.079  1.00  0.00     0.126 C 
BRANCH   8   9
ATOM      9  C   UNL A   1      45.882  25.043  32.987  1.00  0.00     0.012 C 
ATOM     10  N   UNL A   1      46.422  23.021  35.228  1.00  0.00    -0.330 N 
ATOM     11  C   UNL A   1      46.027  24.363  35.684  1.00  0.00     0.184 C 
ATOM     12  C   UNL A   1      45.227  22.590  34.562  1.00  0.00     0.184 C 
ATOM     13  H   UNL A   1      46.709  22.429  36.008  1.00  0.00     0.348 HD
ATOM     14  C   UNL A   1      44.512  24.269  36.014  1.00  0.00     0.071 C 
ATOM     15  C   UNL A   1      46.301  25.450  34.647  1.00  0.00     0.069 C 
ATOM     16  C   UNL A   1      44.122  22.881  35.555  1.00  0.00     0.071 C 
ATOM     17  C   UNL A   1      44.987  23.415  33.311  1.00  0.00     0.069 C 
BRANCH  10  18
ATOM     18  C   UNL A   1      47.709  22.829  34.519  1.00  0.00     0.270 C 
BRANCH  18  19
ATOM     19  C   UNL A   1      48.726  21.597  34.658  1.00  0.00     0.071 C 
ATOM     20  C   UNL A   1      48.350  20.347  33.884  1.00  0.00     0.019 C 
BRANCH  19  21
ATOM     21  C   UNL A   1      50.175  22.034  34.545  1.00  0.00    -0.040 A 
ATOM     22  C   UNL A   1      51.004  22.783  33.096  1.00  0.00     0.004 A 
ATOM     23  C   UNL A   1      50.817  22.402  36.182  1.00  0.00     0.004 A 
ATOM     24  C   UNL A   1      52.330  24.009  33.377  1.00  0.00     0.000 A 
ATOM     25  C   UNL A   1      52.121  23.582  36.405  1.00  0.00     0.000 A 
ATOM     26  C   UNL A   1      52.866  24.390  35.030  1.00  0.00     0.000 A 
ENDBRANCH  19  21
ENDBRANCH  18  19
ENDBRANCH  10  18
ENDBRANCH   8   9
ENDBRANCH   6   8
ENDBRANCH   5   6
ENDBRANCH   4   5
ENDBRANCH   3   4
ENDBRANCH   2   3
ENDBRANCH   1   2
BRANCH   1  27
ATOM     27  C   UNL A   1      42.570  22.249  25.492  1.00  0.00     0.188 C 
BRANCH  27  28
ATOM     28  O   UNL A   1      43.965  22.358  25.284  1.00  0.00    -0.376 OA
BRANCH  28  29
ATOM     29  C   UNL A   1      44.378  23.609  24.717  1.00  0.00     0.202 C 
BRANCH  29  30
ATOM     30  C   UNL A   1      44.321  24.903  25.580  1.00  0.00     0.261 C 
BRANCH  30  31
ATOM     31  O   UNL A   1      43.452  25.998  25.173  1.00  0.00    -0.460 OA
BRANCH  31  32
ATOM     32  C   UNL A   1      42.166  26.041  25.599  1.00  0.00     0.338 C 
ATOM     33  O   UNL A   1      41.233  25.470  25.060  1.00  0.00    -0.246 OA
BRANCH  32  34
ATOM     34  C   UNL A   1      42.088  26.691  26.961  1.00  0.00     0.060 A 
ATOM     35  C   UNL A   1      41.189  26.165  27.903  1.00  0.00     0.016 A 
ATOM     36  C   UNL A   1      42.889  27.774  27.348  1.00  0.00     0.016 A 
ATOM     37  C   UNL A   1      41.052  26.736  29.186  1.00  0.00     0.010 A 
ATOM     38  C   UNL A   1      42.743  28.353  28.629  1.00  0.00     0.010 A 
ATOM     39  C   UNL A   1      41.800  27.863  29.554  1.00  0.00    -0.014 A 
BRANCH  39  40
ATOM     40  C   UNL A   1      41.475  28.641  30.799  1.00  0.00     0.031 A 
ATOM     41  C   UNL A   1      40.306  29.602  30.765  1.00  0.00     0.074 A 
ATOM     42  C   UNL A   1      42.169  28.522  31.951  1.00  0.00     0.049 A 
ATOM     43  N   UNL A   1      39.885  30.447  31.674  1.00  0.00    -0.248 NA
ATOM     44  C   UNL A   1      39.504  29.604  29.532  1.00  0.00     0.031 C 
ATOM     45  C   UNL A   1      43.281  27.604  32.182  1.00  0.00     0.029 A 
ATOM     46  N   UNL A   1      42.045  29.198  33.149  1.00  0.00    -0.354 N 
ATOM     47  C   UNL A   1      38.783  31.091  31.119  1.00  0.00     0.074 A 
ATOM     48  C   UNL A   1      38.614  30.552  29.786  1.00  0.00     0.031 C 
ATOM     49  C   UNL A   1      43.751  27.788  33.431  1.00  0.00     0.029 A 
ATOM     50  C   UNL A   1      43.003  28.866  34.083  1.00  0.00     0.049 A 
ATOM     51  H   UNL A   1      41.336  29.859  33.322  1.00  0.00     0.167 HD
ATOM     52  C   UNL A   1      37.980  32.041  31.661  1.00  0.00     0.037 A 
ATOM     53  C   UNL A   1      43.275  29.385  35.304  1.00  0.00     0.037 A 
ATOM     54  C   UNL A   1      38.140  32.592  32.984  1.00  0.00     0.049 A 
ATOM     55  C   UNL A   1      42.428  30.513  35.855  1.00  0.00     0.074 A 
ATOM     56  C   UNL A   1      37.362  33.550  33.615  1.00  0.00     0.029 A 
ATOM     57  N   UNL A   1      39.147  32.252  33.874  1.00  0.00    -0.354 N 
ATOM     58  N   UNL A   1      41.382  31.099  35.321  1.00  0.00    -0.248 NA
ATOM     59  C   UNL A   1      42.797  31.051  37.175  1.00  0.00     0.031 C 
ATOM     60  C   UNL A   1      37.940  33.842  34.852  1.00  0.00     0.029 A 
ATOM     61  C   UNL A   1      39.031  33.007  35.031  1.00  0.00     0.049 A 
ATOM     62  H   UNL A   1      39.842  31.576  33.709  1.00  0.00     0.167 HD
ATOM     63  C   UNL A   1      40.951  32.043  36.253  1.00  0.00     0.074 A 
ATOM     64  C   UNL A   1      41.843  31.946  37.388  1.00  0.00     0.031 C 
ATOM     65  C   UNL A   1      39.908  32.907  36.174  1.00  0.00     0.037 A 
BRANCH  52  66
ATOM     66  C   UNL A   1      36.866  32.590  30.804  1.00  0.00     0.058 A 
ATOM     67  C   UNL A   1      35.610  31.967  30.724  1.00  0.00     0.135 A 
ATOM     68  C   UNL A   1      37.047  33.786  30.087  1.00  0.00     0.135 A 
ATOM     69  F   UNL A   1      35.383  30.816  31.376  1.00  0.00    -0.206 F 
ATOM     70  C   UNL A   1      34.587  32.492  29.939  1.00  0.00     0.059 A 
ATOM     71  C   UNL A   1      36.027  34.346  29.325  1.00  0.00     0.059 A 
ATOM     72  F   UNL A   1      38.225  34.428  30.130  1.00  0.00    -0.206 F 
ATOM     73  C   UNL A   1      34.804  33.683  29.245  1.00  0.00     0.060 A 
BRANCH  73  74
ATOM     74  S   UNL A   1      33.465  34.347  28.233  1.00  0.00     0.124 S 
ATOM     75  O   UNL A   1      32.864  33.126  27.706  1.00  0.00    -0.237 OA
ATOM     76  O   UNL A   1      32.666  35.074  29.215  1.00  0.00    -0.237 OA
ATOM     77  O   UNL A   1      34.157  35.178  27.253  1.00  0.00    -0.744 OA
ENDBRANCH  73  74
ENDBRANCH  52  66
BRANCH  53  78
ATOM     78  C   UNL A   1      44.430  28.872  36.103  1.00  0.00     0.058 A 
ATOM     79  C   UNL A   1      45.722  29.402  35.950  1.00  0.00     0.135 A 
ATOM     80  C   UNL A   1      44.271  27.814  37.013  1.00  0.00     0.135 A 
ATOM     81  F   UNL A   1      45.940  30.392  35.072  1.00  0.00    -0.206 F 
ATOM     82  C   UNL A   1      46.811  28.900  36.660  1.00  0.00     0.059 A 
ATOM     83  C   UNL A   1      45.338  27.317  37.760  1.00  0.00     0.059 A 
ATOM     84  F   UNL A   1      43.063  27.259  37.194  1.00  0.00    -0.206 F 
ATOM     85  C   UNL A   1      46.607  27.862  37.571  1.00  0.00     0.060 A 
BRANCH  85  86
ATOM     86  S   UNL A   1      48.016  27.260  38.530  1.00  0.00     0.124 S 
ATOM     87  O   UNL A   1      47.431  26.127  39.238  1.00  0.00    -0.237 OA
ATOM     88  O   UNL A   1      48.977  26.931  37.482  1.00  0.00    -0.237 OA
ATOM     89  O   UNL A   1      48.372  28.407  39.360  1.00  0.00    -0.744 OA
ENDBRANCH  85  86
ENDBRANCH  53  78
BRANCH  65  90
ATOM     90  C   UNL A   1      39.618  33.793  37.361  1.00  0.00     0.058 A 
ATOM     91  C   UNL A   1      38.736  33.411  38.385  1.00  0.00     0.135 A 
ATOM     92  C   UNL A   1      40.294  35.017  37.513  1.00  0.00     0.135 A 
ATOM     93  F   UNL A   1      38.059  32.256  38.298  1.00  0.00    -0.206 F 
ATOM     94  C   UNL A   1      38.518  34.217  39.501  1.00  0.00     0.059 A 
ATOM     95  C   UNL A   1      40.118  35.823  38.635  1.00  0.00     0.059 A 
ATOM     96  F   UNL A   1      41.159  35.433  36.573  1.00  0.00    -0.206 F 
ATOM     97  C   UNL A   1      39.219  35.420  39.620  1.00  0.00     0.060 A 
BRANCH  97  98
ATOM     98  S   UNL A   1      38.959  36.433  41.092  1.00  0.00     0.124 S 
ATOM     99  O   UNL A   1      38.555  37.708  40.507  1.00  0.00    -0.237 OA
ATOM    100  O   UNL A   1      37.911  35.698  41.795  1.00  0.00    -0.237 OA
ATOM    101  O   UNL A   1      40.264  36.429  41.746  1.00  0.00    -0.744 OA
ENDBRANCH  97  98
ENDBRANCH  65  90
ENDBRANCH  39  40
ENDBRANCH  32  34
ENDBRANCH  31  32
ENDBRANCH  30  31
ENDBRANCH  29  30
ENDBRANCH  28  29
ENDBRANCH  27  28
ENDBRANCH   1  27
TORSDOF 24
ENDMDL
