MODEL 1
REMARK VINA RESULT:      -8.6      0.000      0.000
REMARK SMILES CC/C(=C/C(=O)[C@H](Cc1ccc(Cl)cc1Cl)C(=O)OCCOCCOCCOC(=O)c1ccc(-c2c3nc(c(-c4c(F)cc(S(=O)(=O)[O-])cc4F)c4ccc([nH]4)c(-c4c(F)cc(S(=O)(=O)[O-])cc4F)c4nc(c(-c5c(F)cc(S(=O)(=O)[O-])cc5F)c5ccc2[nH]5)C=C4)C=C3)cc1)N(C)C
REMARK SMILES IDX 23 1 22 2 21 3 20 4 19 5 17 6 18 7 7 8 5 9 6 10 4 11 3 12
REMARK SMILES IDX 2 13 1 14 97 15 98 16 99 17 8 18 9 19 10 20 15 21 11 22
REMARK SMILES IDX 14 23 16 24 12 25 13 26 24 27 25 28 26 29 27 30 28 31 29 32
REMARK SMILES IDX 30 33 31 34 32 35 96 36 33 37 95 38 34 39 35 40 36 41 89 42
REMARK SMILES IDX 37 43 94 44 88 45 90 46 38 47 93 48 87 49 86 50 39 52 73 53
REMARK SMILES IDX 52 54 72 55 53 56 56 57 71 58 91 59 54 60 55 61 70 63 92 64
REMARK SMILES IDX 57 65 40 66 41 67 50 68 42 69 43 70 49 71 51 72 44 73 45 74
REMARK SMILES IDX 46 75 47 76 48 77 74 78 75 79 84 80 76 81 77 82 83 83 85 84
REMARK SMILES IDX 78 85 79 86 80 87 81 88 82 89 58 90 59 91 68 92 60 93 61 94
REMARK SMILES IDX 67 95 69 96 62 97 63 98 64 99 65 100 66 101
REMARK H PARENT 90 51 56 62
REMARK Flexibility Score: inf
ROOT
ATOM      1  C   UNL A   1      30.327  32.071  24.936  1.00  0.00     0.188 C 
ENDROOT
BRANCH   1   2
ATOM      2  O   UNL A   1      29.430  31.178  24.269  1.00  0.00    -0.376 OA
BRANCH   2   3
ATOM      3  C   UNL A   1      30.000  29.930  23.856  1.00  0.00     0.202 C 
BRANCH   3   4
ATOM      4  C   UNL A   1      29.310  29.283  22.651  1.00  0.00     0.261 C 
BRANCH   4   5
ATOM      5  O   UNL A   1      29.738  27.902  22.492  1.00  0.00    -0.463 OA
BRANCH   5   6
ATOM      6  C   UNL A   1      29.442  27.095  23.538  1.00  0.00     0.317 C 
ATOM      7  O   UNL A   1      28.276  26.895  23.848  1.00  0.00    -0.251 OA
BRANCH   6   8
ATOM      8  C   UNL A   1      30.639  26.408  24.214  1.00  0.00     0.175 C 
BRANCH   8   9
ATOM      9  C   UNL A   1      30.594  24.879  24.008  1.00  0.00     0.171 C 
ATOM     10  O   UNL A   1      30.096  24.370  22.999  1.00  0.00    -0.294 OA
BRANCH   9  11
ATOM     11  C   UNL A   1      31.250  23.948  24.968  1.00  0.00     0.069 C 
ATOM     12  C   UNL A   1      31.949  22.823  24.709  1.00  0.00     0.016 C 
BRANCH  12  13
ATOM     13  C   UNL A   1      32.165  21.894  25.911  1.00  0.00     0.050 C 
ATOM     14  C   UNL A   1      32.591  22.641  27.176  1.00  0.00     0.010 C 
ENDBRANCH  12  13
BRANCH  12  15
ATOM     15  N   UNL A   1      32.449  22.407  23.465  1.00  0.00    -0.381 N 
ATOM     16  C   UNL A   1      33.145  23.322  22.554  1.00  0.00     0.143 C 
ATOM     17  C   UNL A   1      32.167  21.093  22.883  1.00  0.00     0.143 C 
ENDBRANCH  12  15
ENDBRANCH   9  11
ENDBRANCH   8   9
BRANCH   8  18
ATOM     18  C   UNL A   1      30.891  26.668  25.738  1.00  0.00     0.060 C 
BRANCH  18  19
ATOM     19  C   UNL A   1      32.114  27.371  26.306  1.00  0.00    -0.028 A 
ATOM     20  C   UNL A   1      31.951  28.210  27.425  1.00  0.00     0.007 A 
ATOM     21  C   UNL A   1      33.409  27.260  25.811  1.00  0.00     0.045 A 
ATOM     22  C   UNL A   1      32.980  29.062  27.844  1.00  0.00     0.021 A 
ATOM     23  C   UNL A   1      34.378  28.226  26.085  1.00  0.00     0.041 A 
ATOM     24  Cl  UNL A   1      33.937  25.784  25.126  1.00  0.00    -0.084 Cl
ATOM     25  C   UNL A   1      34.151  29.140  27.099  1.00  0.00     0.042 A 
ATOM     26  Cl  UNL A   1      35.349  30.311  27.483  1.00  0.00    -0.084 Cl
ENDBRANCH  18  19
ENDBRANCH   8  18
ENDBRANCH   6   8
ENDBRANCH   5   6
ENDBRANCH   4   5
ENDBRANCH   3   4
ENDBRANCH   2   3
ENDBRANCH   1   2
BRANCH   1  27
ATOM     27  C   UNL A   1      30.755  31.615  26.352  1.00  0.00     0.188 C 
BRANCH  27  28
ATOM     28  O   UNL A   1      32.065  32.074  26.698  1.00  0.00    -0.376 OA
BRANCH  28  29
ATOM     29  C   UNL A   1      32.155  33.470  26.982  1.00  0.00     0.202 C 
BRANCH  29  30
ATOM     30  C   UNL A   1      33.214  33.765  28.041  1.00  0.00     0.261 C 
BRANCH  30  31
ATOM     31  O   UNL A   1      32.558  34.125  29.263  1.00  0.00    -0.460 OA
BRANCH  31  32
ATOM     32  C   UNL A   1      33.133  35.131  29.967  1.00  0.00     0.338 C 
ATOM     33  O   UNL A   1      32.781  36.295  29.998  1.00  0.00    -0.246 OA
BRANCH  32  34
ATOM     34  C   UNL A   1      34.254  34.585  30.772  1.00  0.00     0.060 A 
ATOM     35  C   UNL A   1      35.561  34.958  30.434  1.00  0.00     0.016 A 
ATOM     36  C   UNL A   1      34.032  33.693  31.827  1.00  0.00     0.016 A 
ATOM     37  C   UNL A   1      36.646  34.408  31.116  1.00  0.00     0.010 A 
ATOM     38  C   UNL A   1      35.117  33.144  32.510  1.00  0.00     0.010 A 
ATOM     39  C   UNL A   1      36.428  33.468  32.130  1.00  0.00    -0.014 A 
BRANCH  39  40
ATOM     40  C   UNL A   1      37.553  32.668  32.660  1.00  0.00     0.031 A 
ATOM     41  C   UNL A   1      38.151  33.073  33.980  1.00  0.00     0.074 A 
ATOM     42  C   UNL A   1      38.044  31.619  31.977  1.00  0.00     0.049 A 
ATOM     43  N   UNL A   1      39.179  32.576  34.614  1.00  0.00    -0.248 NA
ATOM     44  C   UNL A   1      37.505  34.203  34.671  1.00  0.00     0.031 C 
ATOM     45  C   UNL A   1      37.537  31.131  30.695  1.00  0.00     0.029 A 
ATOM     46  N   UNL A   1      39.094  30.786  32.266  1.00  0.00    -0.354 N 
ATOM     47  C   UNL A   1      39.309  33.334  35.771  1.00  0.00     0.074 A 
ATOM     48  C   UNL A   1      38.278  34.347  35.737  1.00  0.00     0.031 C 
ATOM     49  C   UNL A   1      38.290  30.087  30.300  1.00  0.00     0.029 A 
ATOM     50  C   UNL A   1      39.340  29.851  31.289  1.00  0.00     0.049 A 
ATOM     51  H   UNL A   1      39.620  30.850  33.095  1.00  0.00     0.167 HD
ATOM     52  C   UNL A   1      40.200  33.189  36.781  1.00  0.00     0.037 A 
ATOM     53  C   UNL A   1      40.314  28.924  31.203  1.00  0.00     0.037 A 
ATOM     54  C   UNL A   1      41.220  32.178  36.811  1.00  0.00     0.049 A 
ATOM     55  C   UNL A   1      41.319  28.806  32.321  1.00  0.00     0.074 A 
ATOM     56  C   UNL A   1      42.159  31.929  37.796  1.00  0.00     0.029 A 
ATOM     57  N   UNL A   1      41.438  31.249  35.805  1.00  0.00    -0.354 N 
ATOM     58  N   UNL A   1      41.411  29.507  33.426  1.00  0.00    -0.248 NA
ATOM     59  C   UNL A   1      42.350  27.769  32.180  1.00  0.00     0.031 C 
ATOM     60  C   UNL A   1      42.967  30.870  37.369  1.00  0.00     0.029 A 
ATOM     61  C   UNL A   1      42.507  30.434  36.137  1.00  0.00     0.049 A 
ATOM     62  H   UNL A   1      40.910  31.178  34.977  1.00  0.00     0.167 HD
ATOM     63  C   UNL A   1      42.493  28.980  34.124  1.00  0.00     0.074 A 
ATOM     64  C   UNL A   1      43.018  27.895  33.319  1.00  0.00     0.031 C 
ATOM     65  C   UNL A   1      43.008  29.356  35.321  1.00  0.00     0.037 A 
BRANCH  52  66
ATOM     66  C   UNL A   1      40.109  34.161  37.922  1.00  0.00     0.058 A 
ATOM     67  C   UNL A   1      39.258  33.934  39.016  1.00  0.00     0.135 A 
ATOM     68  C   UNL A   1      40.884  35.333  37.927  1.00  0.00     0.135 A 
ATOM     69  F   UNL A   1      38.479  32.841  39.051  1.00  0.00    -0.206 F 
ATOM     70  C   UNL A   1      39.155  34.849  40.059  1.00  0.00     0.059 A 
ATOM     71  C   UNL A   1      40.815  36.248  38.971  1.00  0.00     0.059 A 
ATOM     72  F   UNL A   1      41.708  35.600  36.902  1.00  0.00    -0.206 F 
ATOM     73  C   UNL A   1      39.935  36.006  40.025  1.00  0.00     0.060 A 
BRANCH  73  74
ATOM     74  S   UNL A   1      39.785  37.188  41.381  1.00  0.00     0.124 S 
ATOM     75  O   UNL A   1      39.138  36.374  42.405  1.00  0.00    -0.237 OA
ATOM     76  O   UNL A   1      41.176  37.545  41.641  1.00  0.00    -0.237 OA
ATOM     77  O   UNL A   1      38.965  38.253  40.814  1.00  0.00    -0.744 OA
ENDBRANCH  73  74
ENDBRANCH  52  66
BRANCH  53  78
ATOM     78  C   UNL A   1      40.389  28.032  30.017  1.00  0.00     0.058 A 
ATOM     79  C   UNL A   1      41.314  28.272  28.990  1.00  0.00     0.135 A 
ATOM     80  C   UNL A   1      39.535  26.926  29.884  1.00  0.00     0.135 A 
ATOM     81  F   UNL A   1      42.144  29.323  29.069  1.00  0.00    -0.206 F 
ATOM     82  C   UNL A   1      41.382  27.456  27.866  1.00  0.00     0.059 A 
ATOM     83  C   UNL A   1      39.599  26.083  28.779  1.00  0.00     0.059 A 
ATOM     84  F   UNL A   1      38.640  26.648  30.845  1.00  0.00    -0.206 F 
ATOM     85  C   UNL A   1      40.519  26.362  27.769  1.00  0.00     0.060 A 
BRANCH  85  86
ATOM     86  S   UNL A   1      40.645  25.281  26.327  1.00  0.00     0.124 S 
ATOM     87  O   UNL A   1      39.267  24.830  26.178  1.00  0.00    -0.237 OA
ATOM     88  O   UNL A   1      41.133  26.196  25.300  1.00  0.00    -0.237 OA
ATOM     89  O   UNL A   1      41.602  24.265  26.756  1.00  0.00    -0.744 OA
ENDBRANCH  85  86
ENDBRANCH  53  78
BRANCH  65  90
ATOM     90  C   UNL A   1      44.178  28.574  35.846  1.00  0.00     0.058 A 
ATOM     91  C   UNL A   1      44.001  27.401  36.597  1.00  0.00     0.135 A 
ATOM     92  C   UNL A   1      45.491  28.972  35.548  1.00  0.00     0.135 A 
ATOM     93  F   UNL A   1      42.766  26.980  36.911  1.00  0.00    -0.206 F 
ATOM     94  C   UNL A   1      45.087  26.662  37.053  1.00  0.00     0.059 A 
ATOM     95  C   UNL A   1      46.591  28.236  35.975  1.00  0.00     0.059 A 
ATOM     96  F   UNL A   1      45.714  30.081  34.823  1.00  0.00    -0.206 F 
ATOM     97  C   UNL A   1      46.379  27.088  36.737  1.00  0.00     0.060 A 
BRANCH  97  98
ATOM     98  S   UNL A   1      47.782  26.104  37.307  1.00  0.00     0.124 S 
ATOM     99  O   UNL A   1      47.299  24.745  37.078  1.00  0.00    -0.237 OA
ATOM    100  O   UNL A   1      48.858  26.551  36.428  1.00  0.00    -0.237 OA
ATOM    101  O   UNL A   1      47.922  26.494  38.706  1.00  0.00    -0.744 OA
ENDBRANCH  97  98
ENDBRANCH  65  90
ENDBRANCH  39  40
ENDBRANCH  32  34
ENDBRANCH  31  32
ENDBRANCH  30  31
ENDBRANCH  29  30
ENDBRANCH  28  29
ENDBRANCH  27  28
ENDBRANCH   1  27
TORSDOF 26
ENDMDL
MODEL 2
REMARK VINA RESULT:      -7.9      6.266     12.174
REMARK SMILES CC/C(=C/C(=O)[C@H](Cc1ccc(Cl)cc1Cl)C(=O)OCCOCCOCCOC(=O)c1ccc(-c2c3nc(c(-c4c(F)cc(S(=O)(=O)[O-])cc4F)c4ccc([nH]4)c(-c4c(F)cc(S(=O)(=O)[O-])cc4F)c4nc(c(-c5c(F)cc(S(=O)(=O)[O-])cc5F)c5ccc2[nH]5)C=C4)C=C3)cc1)N(C)C
REMARK SMILES IDX 23 1 22 2 21 3 20 4 19 5 17 6 18 7 7 8 5 9 6 10 4 11 3 12
REMARK SMILES IDX 2 13 1 14 97 15 98 16 99 17 8 18 9 19 10 20 15 21 11 22
REMARK SMILES IDX 14 23 16 24 12 25 13 26 24 27 25 28 26 29 27 30 28 31 29 32
REMARK SMILES IDX 30 33 31 34 32 35 96 36 33 37 95 38 34 39 35 40 36 41 89 42
REMARK SMILES IDX 37 43 94 44 88 45 90 46 38 47 93 48 87 49 86 50 39 52 73 53
REMARK SMILES IDX 52 54 72 55 53 56 56 57 71 58 91 59 54 60 55 61 70 63 92 64
REMARK SMILES IDX 57 65 40 66 41 67 50 68 42 69 43 70 49 71 51 72 44 73 45 74
REMARK SMILES IDX 46 75 47 76 48 77 74 78 75 79 84 80 76 81 77 82 83 83 85 84
REMARK SMILES IDX 78 85 79 86 80 87 81 88 82 89 58 90 59 91 68 92 60 93 61 94
REMARK SMILES IDX 67 95 69 96 62 97 63 98 64 99 65 100 66 101
REMARK H PARENT 90 51 56 62
REMARK Flexibility Score: inf
ROOT
ATOM      1  C   UNL A   1      48.104  25.754  23.708  1.00  0.00     0.188 C 
ENDROOT
BRANCH   1   2
ATOM      2  O   UNL A   1      46.821  25.861  24.332  1.00  0.00    -0.376 OA
BRANCH   2   3
ATOM      3  C   UNL A   1      46.737  26.807  25.406  1.00  0.00     0.202 C 
BRANCH   3   4
ATOM      4  C   UNL A   1      45.464  27.658  25.405  1.00  0.00     0.261 C 
BRANCH   4   5
ATOM      5  O   UNL A   1      44.286  26.822  25.237  1.00  0.00    -0.463 OA
BRANCH   5   6
ATOM      6  C   UNL A   1      43.107  27.482  25.317  1.00  0.00     0.317 C 
ATOM      7  O   UNL A   1      42.704  28.138  24.365  1.00  0.00    -0.251 OA
BRANCH   6   8
ATOM      8  C   UNL A   1      42.309  27.275  26.614  1.00  0.00     0.175 C 
BRANCH   8   9
ATOM      9  C   UNL A   1      41.463  25.985  26.548  1.00  0.00     0.171 C 
ATOM     10  O   UNL A   1      40.711  25.745  25.599  1.00  0.00    -0.294 OA
BRANCH   9  11
ATOM     11  C   UNL A   1      41.599  24.917  27.577  1.00  0.00     0.069 C 
ATOM     12  C   UNL A   1      42.560  23.977  27.697  1.00  0.00     0.016 C 
BRANCH  12  13
ATOM     13  C   UNL A   1      42.216  22.802  28.620  1.00  0.00     0.050 C 
ATOM     14  C   UNL A   1      41.827  21.534  27.857  1.00  0.00     0.010 C 
ENDBRANCH  12  13
BRANCH  12  15
ATOM     15  N   UNL A   1      43.799  23.949  27.038  1.00  0.00    -0.381 N 
ATOM     16  C   UNL A   1      43.961  23.379  25.695  1.00  0.00     0.143 C 
ATOM     17  C   UNL A   1      45.064  24.306  27.685  1.00  0.00     0.143 C 
ENDBRANCH  12  15
ENDBRANCH   9  11
ENDBRANCH   8   9
BRANCH   8  18
ATOM     18  C   UNL A   1      41.369  28.427  27.109  1.00  0.00     0.060 C 
BRANCH  18  19
ATOM     19  C   UNL A   1      40.877  28.587  28.539  1.00  0.00    -0.028 A 
ATOM     20  C   UNL A   1      41.817  28.546  29.585  1.00  0.00     0.007 A 
ATOM     21  C   UNL A   1      39.552  28.774  28.919  1.00  0.00     0.045 A 
ATOM     22  C   UNL A   1      41.409  28.449  30.921  1.00  0.00     0.021 A 
ATOM     23  C   UNL A   1      39.119  28.489  30.214  1.00  0.00     0.041 A 
ATOM     24  Cl  UNL A   1      38.491  29.658  27.908  1.00  0.00    -0.084 Cl
ATOM     25  C   UNL A   1      40.057  28.311  31.215  1.00  0.00     0.042 A 
ATOM     26  Cl  UNL A   1      39.545  28.002  32.827  1.00  0.00    -0.084 Cl
ENDBRANCH  18  19
ENDBRANCH   8  18
ENDBRANCH   6   8
ENDBRANCH   5   6
ENDBRANCH   4   5
ENDBRANCH   3   4
ENDBRANCH   2   3
ENDBRANCH   1   2
BRANCH   1  27
ATOM     27  C   UNL A   1      49.202  26.646  24.336  1.00  0.00     0.188 C 
BRANCH  27  28
ATOM     28  O   UNL A   1      49.578  27.729  23.480  1.00  0.00    -0.376 OA
BRANCH  28  29
ATOM     29  C   UNL A   1      50.896  27.636  22.941  1.00  0.00     0.202 C 
BRANCH  29  30
ATOM     30  C   UNL A   1      51.920  28.352  23.818  1.00  0.00     0.261 C 
BRANCH  30  31
ATOM     31  O   UNL A   1      51.254  29.385  24.556  1.00  0.00    -0.460 OA
BRANCH  31  32
ATOM     32  C   UNL A   1      51.819  29.719  25.742  1.00  0.00     0.338 C 
ATOM     33  O   UNL A   1      52.989  29.984  25.945  1.00  0.00    -0.246 OA
BRANCH  32  34
ATOM     34  C   UNL A   1      50.765  29.782  26.785  1.00  0.00     0.060 A 
ATOM     35  C   UNL A   1      49.487  29.302  26.471  1.00  0.00     0.016 A 
ATOM     36  C   UNL A   1      51.014  30.332  28.047  1.00  0.00     0.016 A 
ATOM     37  C   UNL A   1      48.449  29.412  27.396  1.00  0.00     0.010 A 
ATOM     38  C   UNL A   1      49.977  30.441  28.973  1.00  0.00     0.010 A 
ATOM     39  C   UNL A   1      48.682  30.019  28.635  1.00  0.00    -0.014 A 
BRANCH  39  40
ATOM     40  C   UNL A   1      47.548  30.403  29.504  1.00  0.00     0.031 A 
ATOM     41  C   UNL A   1      47.070  29.408  30.526  1.00  0.00     0.074 A 
ATOM     42  C   UNL A   1      46.945  31.598  29.374  1.00  0.00     0.049 A 
ATOM     43  N   UNL A   1      46.058  29.483  31.349  1.00  0.00    -0.248 NA
ATOM     44  C   UNL A   1      47.832  28.150  30.620  1.00  0.00     0.031 C 
ATOM     45  C   UNL A   1      47.330  32.642  28.426  1.00  0.00     0.029 A 
ATOM     46  N   UNL A   1      45.867  32.123  30.039  1.00  0.00    -0.354 N 
ATOM     47  C   UNL A   1      46.057  28.285  32.053  1.00  0.00     0.074 A 
ATOM     48  C   UNL A   1      47.145  27.485  31.538  1.00  0.00     0.031 C 
ATOM     49  C   UNL A   1      46.488  33.683  28.561  1.00  0.00     0.029 A 
ATOM     50  C   UNL A   1      45.496  33.367  29.587  1.00  0.00     0.049 A 
ATOM     51  H   UNL A   1      45.404  31.655  30.770  1.00  0.00     0.167 HD
ATOM     52  C   UNL A   1      45.231  27.893  33.051  1.00  0.00     0.037 A 
ATOM     53  C   UNL A   1      44.461  34.148  29.954  1.00  0.00     0.037 A 
ATOM     54  C   UNL A   1      44.152  28.694  33.562  1.00  0.00     0.049 A 
ATOM     55  C   UNL A   1      43.530  33.674  31.041  1.00  0.00     0.074 A 
ATOM     56  C   UNL A   1      43.270  28.400  34.586  1.00  0.00     0.029 A 
ATOM     57  N   UNL A   1      43.807  29.948  33.081  1.00  0.00    -0.354 N 
ATOM     58  N   UNL A   1      43.559  32.553  31.723  1.00  0.00    -0.248 NA
ATOM     59  C   UNL A   1      42.428  34.573  31.410  1.00  0.00     0.031 C 
ATOM     60  C   UNL A   1      42.368  29.464  34.701  1.00  0.00     0.029 A 
ATOM     61  C   UNL A   1      42.714  30.436  33.775  1.00  0.00     0.049 A 
ATOM     62  H   UNL A   1      44.271  30.421  32.353  1.00  0.00     0.167 HD
ATOM     63  C   UNL A   1      42.496  32.622  32.618  1.00  0.00     0.074 A 
ATOM     64  C   UNL A   1      41.849  33.901  32.397  1.00  0.00     0.031 C 
ATOM     65  C   UNL A   1      42.090  31.715  33.540  1.00  0.00     0.037 A 
BRANCH  52  66
ATOM     66  C   UNL A   1      45.462  26.529  33.638  1.00  0.00     0.058 A 
ATOM     67  C   UNL A   1      46.285  26.342  34.760  1.00  0.00     0.135 A 
ATOM     68  C   UNL A   1      44.851  25.397  33.077  1.00  0.00     0.135 A 
ATOM     69  F   UNL A   1      46.911  27.389  35.322  1.00  0.00    -0.206 F 
ATOM     70  C   UNL A   1      46.519  25.075  35.286  1.00  0.00     0.059 A 
ATOM     71  C   UNL A   1      45.051  24.125  33.601  1.00  0.00     0.059 A 
ATOM     72  F   UNL A   1      44.059  25.520  31.999  1.00  0.00    -0.206 F 
ATOM     73  C   UNL A   1      45.901  23.972  34.697  1.00  0.00     0.060 A 
BRANCH  73  74
ATOM     74  S   UNL A   1      46.220  22.334  35.384  1.00  0.00     0.124 S 
ATOM     75  O   UNL A   1      45.766  21.470  34.298  1.00  0.00    -0.237 OA
ATOM     76  O   UNL A   1      47.661  22.363  35.609  1.00  0.00    -0.237 OA
ATOM     77  O   UNL A   1      45.401  22.308  36.592  1.00  0.00    -0.744 OA
ENDBRANCH  73  74
ENDBRANCH  52  66
BRANCH  53  78
ATOM     78  C   UNL A   1      44.248  35.460  29.291  1.00  0.00     0.058 A 
ATOM     79  C   UNL A   1      43.502  35.559  28.106  1.00  0.00     0.135 A 
ATOM     80  C   UNL A   1      44.788  36.641  29.823  1.00  0.00     0.135 A 
ATOM     81  F   UNL A   1      42.974  34.456  27.554  1.00  0.00    -0.206 F 
ATOM     82  C   UNL A   1      43.310  36.778  27.465  1.00  0.00     0.059 A 
ATOM     83  C   UNL A   1      44.592  37.875  29.212  1.00  0.00     0.059 A 
ATOM     84  F   UNL A   1      45.500  36.601  30.961  1.00  0.00    -0.206 F 
ATOM     85  C   UNL A   1      43.860  37.933  28.026  1.00  0.00     0.060 A 
BRANCH  85  86
ATOM     86  S   UNL A   1      43.569  39.518  27.212  1.00  0.00     0.124 S 
ATOM     87  O   UNL A   1      43.569  40.435  28.345  1.00  0.00    -0.237 OA
ATOM     88  O   UNL A   1      44.714  39.616  26.311  1.00  0.00    -0.237 OA
ATOM     89  O   UNL A   1      42.280  39.322  26.554  1.00  0.00    -0.744 OA
ENDBRANCH  85  86
ENDBRANCH  53  78
BRANCH  65  90
ATOM     90  C   UNL A   1      40.912  32.080  34.398  1.00  0.00     0.058 A 
ATOM     91  C   UNL A   1      39.597  31.782  34.006  1.00  0.00     0.135 A 
ATOM     92  C   UNL A   1      41.105  32.685  35.650  1.00  0.00     0.135 A 
ATOM     93  F   UNL A   1      39.361  31.208  32.817  1.00  0.00    -0.206 F 
ATOM     94  C   UNL A   1      38.512  32.093  34.819  1.00  0.00     0.059 A 
ATOM     95  C   UNL A   1      40.035  32.983  36.488  1.00  0.00     0.059 A 
ATOM     96  F   UNL A   1      42.344  32.979  36.076  1.00  0.00    -0.206 F 
ATOM     97  C   UNL A   1      38.741  32.693  36.058  1.00  0.00     0.060 A 
BRANCH  97  98
ATOM     98  S   UNL A   1      37.327  33.064  37.118  1.00  0.00     0.124 S 
ATOM     99  O   UNL A   1      37.894  34.055  38.028  1.00  0.00    -0.237 OA
ATOM    100  O   UNL A   1      36.342  33.568  36.165  1.00  0.00    -0.237 OA
ATOM    101  O   UNL A   1      37.006  31.772  37.717  1.00  0.00    -0.744 OA
ENDBRANCH  97  98
ENDBRANCH  65  90
ENDBRANCH  39  40
ENDBRANCH  32  34
ENDBRANCH  31  32
ENDBRANCH  30  31
ENDBRANCH  29  30
ENDBRANCH  28  29
ENDBRANCH  27  28
ENDBRANCH   1  27
TORSDOF 26
ENDMDL
MODEL 3
REMARK VINA RESULT:      -7.9      9.010     15.582
REMARK SMILES CC/C(=C/C(=O)[C@H](Cc1ccc(Cl)cc1Cl)C(=O)OCCOCCOCCOC(=O)c1ccc(-c2c3nc(c(-c4c(F)cc(S(=O)(=O)[O-])cc4F)c4ccc([nH]4)c(-c4c(F)cc(S(=O)(=O)[O-])cc4F)c4nc(c(-c5c(F)cc(S(=O)(=O)[O-])cc5F)c5ccc2[nH]5)C=C4)C=C3)cc1)N(C)C
REMARK SMILES IDX 23 1 22 2 21 3 20 4 19 5 17 6 18 7 7 8 5 9 6 10 4 11 3 12
REMARK SMILES IDX 2 13 1 14 97 15 98 16 99 17 8 18 9 19 10 20 15 21 11 22
REMARK SMILES IDX 14 23 16 24 12 25 13 26 24 27 25 28 26 29 27 30 28 31 29 32
REMARK SMILES IDX 30 33 31 34 32 35 96 36 33 37 95 38 34 39 35 40 36 41 89 42
REMARK SMILES IDX 37 43 94 44 88 45 90 46 38 47 93 48 87 49 86 50 39 52 73 53
REMARK SMILES IDX 52 54 72 55 53 56 56 57 71 58 91 59 54 60 55 61 70 63 92 64
REMARK SMILES IDX 57 65 40 66 41 67 50 68 42 69 43 70 49 71 51 72 44 73 45 74
REMARK SMILES IDX 46 75 47 76 48 77 74 78 75 79 84 80 76 81 77 82 83 83 85 84
REMARK SMILES IDX 78 85 79 86 80 87 81 88 82 89 58 90 59 91 68 92 60 93 61 94
REMARK SMILES IDX 67 95 69 96 62 97 63 98 64 99 65 100 66 101
REMARK H PARENT 90 51 56 62
REMARK Flexibility Score: inf
ROOT
ATOM      1  C   UNL A   1      46.669  42.509  33.001  1.00  0.00     0.188 C 
ENDROOT
BRANCH   1   2
ATOM      2  O   UNL A   1      45.602  42.736  32.075  1.00  0.00    -0.376 OA
BRANCH   2   3
ATOM      3  C   UNL A   1      46.007  43.040  30.734  1.00  0.00     0.202 C 
BRANCH   3   4
ATOM      4  C   UNL A   1      44.867  43.472  29.808  1.00  0.00     0.261 C 
BRANCH   4   5
ATOM      5  O   UNL A   1      45.186  43.168  28.422  1.00  0.00    -0.463 OA
BRANCH   5   6
ATOM      6  C   UNL A   1      44.455  42.167  27.879  1.00  0.00     0.317 C 
ATOM      7  O   UNL A   1      43.603  41.597  28.548  1.00  0.00    -0.251 OA
BRANCH   6   8
ATOM      8  C   UNL A   1      44.711  41.880  26.392  1.00  0.00     0.175 C 
BRANCH   8   9
ATOM      9  C   UNL A   1      46.163  41.414  26.155  1.00  0.00     0.171 C 
ATOM     10  O   UNL A   1      47.131  42.143  26.399  1.00  0.00    -0.294 OA
BRANCH   9  11
ATOM     11  C   UNL A   1      46.470  40.022  25.724  1.00  0.00     0.069 C 
ATOM     12  C   UNL A   1      46.047  38.859  26.262  1.00  0.00     0.016 C 
BRANCH  12  13
ATOM     13  C   UNL A   1      46.834  37.614  25.834  1.00  0.00     0.050 C 
ATOM     14  C   UNL A   1      48.337  37.870  25.707  1.00  0.00     0.010 C 
ENDBRANCH  12  13
BRANCH  12  15
ATOM     15  N   UNL A   1      45.007  38.687  27.189  1.00  0.00    -0.381 N 
ATOM     16  C   UNL A   1      45.259  38.397  28.605  1.00  0.00     0.143 C 
ATOM     17  C   UNL A   1      43.596  38.596  26.808  1.00  0.00     0.143 C 
ENDBRANCH  12  15
ENDBRANCH   9  11
ENDBRANCH   8   9
BRANCH   8  18
ATOM     18  C   UNL A   1      44.404  43.006  25.346  1.00  0.00     0.060 C 
BRANCH  18  19
ATOM     19  C   UNL A   1      43.690  42.786  24.021  1.00  0.00    -0.028 A 
ATOM     20  C   UNL A   1      44.394  43.031  22.827  1.00  0.00     0.007 A 
ATOM     21  C   UNL A   1      42.376  42.355  23.877  1.00  0.00     0.045 A 
ATOM     22  C   UNL A   1      43.731  43.077  21.595  1.00  0.00     0.021 A 
ATOM     23  C   UNL A   1      41.662  42.580  22.699  1.00  0.00     0.041 A 
ATOM     24  Cl  UNL A   1      41.707  41.260  25.008  1.00  0.00    -0.084 Cl
ATOM     25  C   UNL A   1      42.347  42.957  21.557  1.00  0.00     0.042 A 
ATOM     26  Cl  UNL A   1      41.493  43.198  20.084  1.00  0.00    -0.084 Cl
ENDBRANCH  18  19
ENDBRANCH   8  18
ENDBRANCH   6   8
ENDBRANCH   5   6
ENDBRANCH   4   5
ENDBRANCH   3   4
ENDBRANCH   2   3
ENDBRANCH   1   2
BRANCH   1  27
ATOM     27  C   UNL A   1      46.889  41.025  33.379  1.00  0.00     0.188 C 
BRANCH  27  28
ATOM     28  O   UNL A   1      46.300  40.130  32.430  1.00  0.00    -0.376 OA
BRANCH  28  29
ATOM     29  C   UNL A   1      46.674  38.761  32.586  1.00  0.00     0.202 C 
BRANCH  29  30
ATOM     30  C   UNL A   1      47.784  38.363  31.617  1.00  0.00     0.261 C 
BRANCH  30  31
ATOM     31  O   UNL A   1      47.488  37.066  31.083  1.00  0.00    -0.460 OA
BRANCH  31  32
ATOM     32  C   UNL A   1      48.048  36.782  29.882  1.00  0.00     0.338 C 
ATOM     33  O   UNL A   1      48.702  37.535  29.183  1.00  0.00    -0.246 OA
BRANCH  32  34
ATOM     34  C   UNL A   1      47.799  35.356  29.551  1.00  0.00     0.060 A 
ATOM     35  C   UNL A   1      47.251  35.048  28.300  1.00  0.00     0.016 A 
ATOM     36  C   UNL A   1      48.069  34.333  30.468  1.00  0.00     0.016 A 
ATOM     37  C   UNL A   1      46.931  33.729  27.980  1.00  0.00     0.010 A 
ATOM     38  C   UNL A   1      47.750  33.014  30.148  1.00  0.00     0.010 A 
ATOM     39  C   UNL A   1      47.142  32.714  28.919  1.00  0.00    -0.014 A 
BRANCH  39  40
ATOM     40  C   UNL A   1      46.551  31.373  28.715  1.00  0.00     0.031 A 
ATOM     41  C   UNL A   1      47.401  30.314  28.069  1.00  0.00     0.074 A 
ATOM     42  C   UNL A   1      45.283  31.109  29.077  1.00  0.00     0.049 A 
ATOM     43  N   UNL A   1      47.089  29.093  27.724  1.00  0.00    -0.248 NA
ATOM     44  C   UNL A   1      48.791  30.691  27.759  1.00  0.00     0.031 C 
ATOM     45  C   UNL A   1      44.371  32.055  29.720  1.00  0.00     0.029 A 
ATOM     46  N   UNL A   1      44.541  29.964  28.939  1.00  0.00    -0.354 N 
ATOM     47  C   UNL A   1      48.237  28.559  27.151  1.00  0.00     0.074 A 
ATOM     48  C   UNL A   1      49.243  29.598  27.162  1.00  0.00     0.031 C 
ATOM     49  C   UNL A   1      43.182  31.452  29.907  1.00  0.00     0.029 A 
ATOM     50  C   UNL A   1      43.246  30.091  29.380  1.00  0.00     0.049 A 
ATOM     51  H   UNL A   1      44.903  29.131  28.560  1.00  0.00     0.167 HD
ATOM     52  C   UNL A   1      48.440  27.309  26.672  1.00  0.00     0.037 A 
ATOM     53  C   UNL A   1      42.229  29.208  29.342  1.00  0.00     0.037 A 
ATOM     54  C   UNL A   1      47.437  26.280  26.667  1.00  0.00     0.049 A 
ATOM     55  C   UNL A   1      42.466  27.835  28.768  1.00  0.00     0.074 A 
ATOM     56  C   UNL A   1      47.544  24.973  26.226  1.00  0.00     0.029 A 
ATOM     57  N   UNL A   1      46.137  26.444  27.123  1.00  0.00    -0.354 N 
ATOM     58  N   UNL A   1      43.566  27.331  28.260  1.00  0.00    -0.248 NA
ATOM     59  C   UNL A   1      41.324  26.909  28.766  1.00  0.00     0.031 C 
ATOM     60  C   UNL A   1      46.298  24.358  26.383  1.00  0.00     0.029 A 
ATOM     61  C   UNL A   1      45.426  25.268  26.959  1.00  0.00     0.049 A 
ATOM     62  H   UNL A   1      45.774  27.275  27.507  1.00  0.00     0.167 HD
ATOM     63  C   UNL A   1      43.256  26.022  27.901  1.00  0.00     0.074 A 
ATOM     64  C   UNL A   1      41.867  25.811  28.259  1.00  0.00     0.031 C 
ATOM     65  C   UNL A   1      44.045  25.080  27.328  1.00  0.00     0.037 A 
BRANCH  52  66
ATOM     66  C   UNL A   1      49.795  27.003  26.103  1.00  0.00     0.058 A 
ATOM     67  C   UNL A   1      50.820  26.459  26.894  1.00  0.00     0.135 A 
ATOM     68  C   UNL A   1      50.075  27.251  24.749  1.00  0.00     0.135 A 
ATOM     69  F   UNL A   1      50.612  26.224  28.200  1.00  0.00    -0.206 F 
ATOM     70  C   UNL A   1      52.083  26.201  26.372  1.00  0.00     0.059 A 
ATOM     71  C   UNL A   1      51.323  26.978  24.200  1.00  0.00     0.059 A 
ATOM     72  F   UNL A   1      49.132  27.777  23.950  1.00  0.00    -0.206 F 
ATOM     73  C   UNL A   1      52.326  26.468  25.024  1.00  0.00     0.060 A 
BRANCH  73  74
ATOM     74  S   UNL A   1      53.972  26.136  24.361  1.00  0.00     0.124 S 
ATOM     75  O   UNL A   1      53.726  26.213  22.924  1.00  0.00    -0.237 OA
ATOM     76  O   UNL A   1      54.763  27.224  24.927  1.00  0.00    -0.237 OA
ATOM     77  O   UNL A   1      54.283  24.807  24.876  1.00  0.00    -0.744 OA
ENDBRANCH  73  74
ENDBRANCH  52  66
BRANCH  53  78
ATOM     78  C   UNL A   1      40.891  29.593  29.864  1.00  0.00     0.058 A 
ATOM     79  C   UNL A   1      40.651  29.685  31.242  1.00  0.00     0.135 A 
ATOM     80  C   UNL A   1      39.825  29.871  28.994  1.00  0.00     0.135 A 
ATOM     81  F   UNL A   1      41.638  29.418  32.112  1.00  0.00    -0.206 F 
ATOM     82  C   UNL A   1      39.400  30.026  31.744  1.00  0.00     0.059 A 
ATOM     83  C   UNL A   1      38.569  30.235  29.471  1.00  0.00     0.059 A 
ATOM     84  F   UNL A   1      40.006  29.809  27.666  1.00  0.00    -0.206 F 
ATOM     85  C   UNL A   1      38.363  30.300  30.849  1.00  0.00     0.060 A 
BRANCH  85  86
ATOM     86  S   UNL A   1      36.753  30.785  31.507  1.00  0.00     0.124 S 
ATOM     87  O   UNL A   1      35.899  30.633  30.336  1.00  0.00    -0.237 OA
ATOM     88  O   UNL A   1      36.551  29.811  32.575  1.00  0.00    -0.237 OA
ATOM     89  O   UNL A   1      36.977  32.156  31.956  1.00  0.00    -0.744 OA
ENDBRANCH  85  86
ENDBRANCH  53  78
BRANCH  65  90
ATOM     90  C   UNL A   1      43.438  23.728  27.079  1.00  0.00     0.058 A 
ATOM     91  C   UNL A   1      42.912  23.378  25.826  1.00  0.00     0.135 A 
ATOM     92  C   UNL A   1      43.434  22.754  28.090  1.00  0.00     0.135 A 
ATOM     93  F   UNL A   1      42.890  24.275  24.828  1.00  0.00    -0.206 F 
ATOM     94  C   UNL A   1      42.382  22.114  25.591  1.00  0.00     0.059 A 
ATOM     95  C   UNL A   1      42.929  21.477  27.869  1.00  0.00     0.059 A 
ATOM     96  F   UNL A   1      43.937  23.035  29.303  1.00  0.00    -0.206 F 
ATOM     97  C   UNL A   1      42.394  21.170  26.619  1.00  0.00     0.060 A 
BRANCH  97  98
ATOM     98  S   UNL A   1      41.732  19.523  26.294  1.00  0.00     0.124 S 
ATOM     99  O   UNL A   1      42.089  18.815  27.520  1.00  0.00    -0.237 OA
ATOM    100  O   UNL A   1      40.308  19.787  26.107  1.00  0.00    -0.237 OA
ATOM    101  O   UNL A   1      42.447  19.101  25.093  1.00  0.00    -0.744 OA
ENDBRANCH  97  98
ENDBRANCH  65  90
ENDBRANCH  39  40
ENDBRANCH  32  34
ENDBRANCH  31  32
ENDBRANCH  30  31
ENDBRANCH  29  30
ENDBRANCH  28  29
ENDBRANCH  27  28
ENDBRANCH   1  27
TORSDOF 26
ENDMDL
