MODEL 1
REMARK VINA RESULT:     -10.1      0.000      0.000
REMARK SMILES Cc1noc(C)c1[C@H](C)NC(=O)NC[C@@](C)(O)C(=O)OCCOCCOCCOC(=O)c1ccc(-c2c3nc(c(-c4c(F)cc(S(=O)(=O)[O-])cc4F)c4ccc([nH]4)c(-c4c(F)cc(S(=O)(=O)[O-])cc4F)c4nc(c(-c5c(F)cc(S(=O)(=O)[O-])cc5F)c5ccc2[nH]5)C=C4)C=C3)cc1
REMARK SMILES IDX 24 1 23 2 22 3 21 4 20 5 18 6 19 7 15 8 16 9 14 10 13 11
REMARK SMILES IDX 10 12 11 13 12 15 8 17 9 18 7 19 1 20 2 21 3 22 4 23 5 24
REMARK SMILES IDX 6 25 17 26 25 28 26 29 27 30 28 31 29 32 30 33 31 34 32 35
REMARK SMILES IDX 33 36 97 37 34 38 96 39 35 40 36 41 37 42 90 43 38 44 95 45
REMARK SMILES IDX 89 46 91 47 39 48 94 49 88 50 87 51 40 53 74 54 53 55 73 56
REMARK SMILES IDX 54 57 57 58 72 59 92 60 55 61 56 62 71 64 93 65 58 66 41 67
REMARK SMILES IDX 42 68 51 69 43 70 44 71 50 72 52 73 45 74 46 75 47 76 48 77
REMARK SMILES IDX 49 78 75 79 76 80 85 81 77 82 78 83 84 84 86 85 79 86 80 87
REMARK SMILES IDX 81 88 82 89 83 90 59 91 60 92 69 93 61 94 62 95 68 96 70 97
REMARK SMILES IDX 63 98 64 99 65 100 66 101 67 102
REMARK H PARENT 10 14 13 16 17 27 91 52 57 63
REMARK Flexibility Score: inf
ROOT
ATOM      1  C   UNL A   1      33.342  30.705  27.585  1.00  0.00     0.188 C 
ENDROOT
BRANCH   1   2
ATOM      2  O   UNL A   1      32.084  30.179  27.196  1.00  0.00    -0.376 OA
BRANCH   2   3
ATOM      3  C   UNL A   1      32.000  29.177  26.192  1.00  0.00     0.202 C 
BRANCH   3   4
ATOM      4  C   UNL A   1      32.537  29.483  24.792  1.00  0.00     0.261 C 
BRANCH   4   5
ATOM      5  O   UNL A   1      31.991  28.610  23.800  1.00  0.00    -0.461 OA
BRANCH   5   6
ATOM      6  C   UNL A   1      32.716  27.489  23.527  1.00  0.00     0.339 C 
ATOM      7  O   UNL A   1      33.817  27.250  24.008  1.00  0.00    -0.249 OA
BRANCH   6   8
ATOM      8  C   UNL A   1      31.987  26.561  22.527  1.00  0.00     0.176 C 
ATOM      9  C   UNL A   1      33.021  26.050  21.525  1.00  0.00     0.057 C 
BRANCH   8  10
ATOM     10  C   UNL A   1      31.272  25.412  23.278  1.00  0.00     0.164 C 
BRANCH  10  11
ATOM     11  N   UNL A   1      31.038  25.605  24.700  1.00  0.00    -0.335 N 
ATOM     12  N   UNL A   1      32.840  24.694  25.950  1.00  0.00    -0.331 N 
ATOM     13  C   UNL A   1      31.698  25.377  25.840  1.00  0.00     0.315 C 
ATOM     14  H   UNL A   1      33.207  24.693  26.864  1.00  0.00     0.165 HD
ATOM     15  O   UNL A   1      31.198  25.828  26.872  1.00  0.00    -0.249 OA
ATOM     16  H   UNL A   1      30.158  26.014  24.868  1.00  0.00     0.165 HD
BRANCH  12  17
ATOM     17  C   UNL A   1      33.650  23.953  25.010  1.00  0.00     0.116 C 
ATOM     18  C   UNL A   1      35.117  24.160  25.298  1.00  0.00     0.036 C 
BRANCH  17  19
ATOM     19  C   UNL A   1      33.108  22.551  24.851  1.00  0.00     0.040 A 
ATOM     20  C   UNL A   1      33.531  21.820  27.324  1.00  0.00     0.071 C 
ATOM     21  C   UNL A   1      33.015  21.635  25.953  1.00  0.00     0.086 A 
ATOM     22  N   UNL A   1      32.395  20.501  25.630  1.00  0.00    -0.085 NA
ATOM     23  O   UNL A   1      32.110  20.612  24.296  1.00  0.00    -0.361 OA
ATOM     24  C   UNL A   1      32.557  21.805  23.818  1.00  0.00     0.139 A 
ATOM     25  C   UNL A   1      32.318  21.930  22.374  1.00  0.00     0.091 C 
ENDBRANCH  17  19
ENDBRANCH  12  17
ENDBRANCH  10  11
ENDBRANCH   8  10
BRANCH   8  26
ATOM     26  O   UNL A   1      30.983  27.258  21.766  1.00  0.00    -0.377 OA
ATOM     27  H   UNL A   1      30.318  26.626  21.451  1.00  0.00     0.212 HD
ENDBRANCH   8  26
ENDBRANCH   6   8
ENDBRANCH   5   6
ENDBRANCH   4   5
ENDBRANCH   3   4
ENDBRANCH   2   3
ENDBRANCH   1   2
BRANCH   1  28
ATOM     28  C   UNL A   1      33.634  32.214  27.618  1.00  0.00     0.188 C 
BRANCH  28  29
ATOM     29  O   UNL A   1      34.802  32.771  28.200  1.00  0.00    -0.376 OA
BRANCH  29  30
ATOM     30  C   UNL A   1      34.742  33.295  29.508  1.00  0.00     0.202 C 
BRANCH  30  31
ATOM     31  C   UNL A   1      35.092  32.318  30.635  1.00  0.00     0.261 C 
BRANCH  31  32
ATOM     32  O   UNL A   1      35.768  31.118  30.238  1.00  0.00    -0.460 OA
BRANCH  32  33
ATOM     33  C   UNL A   1      36.531  30.524  31.186  1.00  0.00     0.338 C 
ATOM     34  O   UNL A   1      36.187  30.212  32.324  1.00  0.00    -0.246 OA
BRANCH  33  35
ATOM     35  C   UNL A   1      37.883  30.261  30.646  1.00  0.00     0.060 A 
ATOM     36  C   UNL A   1      38.104  30.300  29.267  1.00  0.00     0.016 A 
ATOM     37  C   UNL A   1      38.920  29.889  31.501  1.00  0.00     0.016 A 
ATOM     38  C   UNL A   1      39.373  29.993  28.739  1.00  0.00     0.010 A 
ATOM     39  C   UNL A   1      40.182  29.568  30.975  1.00  0.00     0.010 A 
ATOM     40  C   UNL A   1      40.436  29.636  29.589  1.00  0.00    -0.014 A 
BRANCH  40  41
ATOM     41  C   UNL A   1      41.729  29.117  29.032  1.00  0.00     0.031 A 
ATOM     42  C   UNL A   1      42.874  30.086  28.986  1.00  0.00     0.074 A 
ATOM     43  C   UNL A   1      41.925  27.872  28.541  1.00  0.00     0.049 A 
ATOM     44  N   UNL A   1      44.087  29.909  28.536  1.00  0.00    -0.248 NA
ATOM     45  C   UNL A   1      42.590  31.453  29.451  1.00  0.00     0.031 C 
ATOM     46  C   UNL A   1      40.905  26.856  28.373  1.00  0.00     0.029 A 
ATOM     47  N   UNL A   1      43.056  27.239  28.070  1.00  0.00    -0.354 N 
ATOM     48  C   UNL A   1      44.705  31.144  28.655  1.00  0.00     0.074 A 
ATOM     49  C   UNL A   1      43.710  32.076  29.137  1.00  0.00     0.031 C 
ATOM     50  C   UNL A   1      41.435  25.714  27.911  1.00  0.00     0.029 A 
ATOM     51  C   UNL A   1      42.856  25.922  27.697  1.00  0.00     0.049 A 
ATOM     52  H   UNL A   1      43.932  27.685  28.005  1.00  0.00     0.167 HD
ATOM     53  C   UNL A   1      45.996  31.472  28.424  1.00  0.00     0.037 A 
ATOM     54  C   UNL A   1      43.704  24.982  27.231  1.00  0.00     0.037 A 
ATOM     55  C   UNL A   1      46.994  30.556  27.957  1.00  0.00     0.049 A 
ATOM     56  C   UNL A   1      45.146  25.356  27.028  1.00  0.00     0.074 A 
ATOM     57  C   UNL A   1      48.333  30.795  27.709  1.00  0.00     0.029 A 
ATOM     58  N   UNL A   1      46.764  29.219  27.668  1.00  0.00    -0.354 N 
ATOM     59  N   UNL A   1      45.727  26.515  27.223  1.00  0.00    -0.248 NA
ATOM     60  C   UNL A   1      46.049  24.302  26.544  1.00  0.00     0.031 C 
ATOM     61  C   UNL A   1      48.913  29.603  27.261  1.00  0.00     0.029 A 
ATOM     62  C   UNL A   1      47.941  28.616  27.261  1.00  0.00     0.049 A 
ATOM     63  H   UNL A   1      45.893  28.766  27.742  1.00  0.00     0.167 HD
ATOM     64  C   UNL A   1      47.066  26.323  26.908  1.00  0.00     0.074 A 
ATOM     65  C   UNL A   1      47.214  24.933  26.532  1.00  0.00     0.031 C 
ATOM     66  C   UNL A   1      48.079  27.223  26.918  1.00  0.00     0.037 A 
BRANCH  53  67
ATOM     67  C   UNL A   1      46.370  32.894  28.716  1.00  0.00     0.058 A 
ATOM     68  C   UNL A   1      46.755  33.285  30.009  1.00  0.00     0.135 A 
ATOM     69  C   UNL A   1      46.263  33.883  27.728  1.00  0.00     0.135 A 
ATOM     70  F   UNL A   1      46.837  32.376  30.995  1.00  0.00    -0.206 F 
ATOM     71  C   UNL A   1      46.963  34.618  30.329  1.00  0.00     0.059 A 
ATOM     72  C   UNL A   1      46.500  35.221  28.020  1.00  0.00     0.059 A 
ATOM     73  F   UNL A   1      45.889  33.558  26.481  1.00  0.00    -0.206 F 
ATOM     74  C   UNL A   1      46.822  35.581  29.329  1.00  0.00     0.060 A 
BRANCH  74  75
ATOM     75  S   UNL A   1      47.046  37.314  29.772  1.00  0.00     0.124 S 
ATOM     76  O   UNL A   1      47.753  37.197  31.044  1.00  0.00    -0.237 OA
ATOM     77  O   UNL A   1      47.833  37.825  28.655  1.00  0.00    -0.237 OA
ATOM     78  O   UNL A   1      45.680  37.821  29.858  1.00  0.00    -0.744 OA
ENDBRANCH  74  75
ENDBRANCH  53  67
BRANCH  54  79
ATOM     79  C   UNL A   1      43.245  23.590  26.939  1.00  0.00     0.058 A 
ATOM     80  C   UNL A   1      43.057  22.665  27.979  1.00  0.00     0.135 A 
ATOM     81  C   UNL A   1      43.048  23.135  25.626  1.00  0.00     0.135 A 
ATOM     82  F   UNL A   1      43.236  23.045  29.253  1.00  0.00    -0.206 F 
ATOM     83  C   UNL A   1      42.738  21.332  27.728  1.00  0.00     0.059 A 
ATOM     84  C   UNL A   1      42.702  21.812  25.351  1.00  0.00     0.059 A 
ATOM     85  F   UNL A   1      43.192  23.980  24.593  1.00  0.00    -0.206 F 
ATOM     86  C   UNL A   1      42.573  20.912  26.409  1.00  0.00     0.060 A 
BRANCH  86  87
ATOM     87  S   UNL A   1      42.178  19.176  26.094  1.00  0.00     0.124 S 
ATOM     88  O   UNL A   1      40.732  19.236  25.906  1.00  0.00    -0.237 OA
ATOM     89  O   UNL A   1      42.964  18.892  24.897  1.00  0.00    -0.237 OA
ATOM     90  O   UNL A   1      42.629  18.505  27.309  1.00  0.00    -0.744 OA
ENDBRANCH  86  87
ENDBRANCH  54  79
BRANCH  66  91
ATOM     91  C   UNL A   1      49.449  26.722  26.568  1.00  0.00     0.058 A 
ATOM     92  C   UNL A   1      50.300  26.159  27.529  1.00  0.00     0.135 A 
ATOM     93  C   UNL A   1      49.893  26.764  25.236  1.00  0.00     0.135 A 
ATOM     94  F   UNL A   1      49.923  26.105  28.817  1.00  0.00    -0.206 F 
ATOM     95  C   UNL A   1      51.555  25.668  27.187  1.00  0.00     0.059 A 
ATOM     96  C   UNL A   1      51.133  26.255  24.867  1.00  0.00     0.059 A 
ATOM     97  F   UNL A   1      49.113  27.288  24.279  1.00  0.00    -0.206 F 
ATOM     98  C   UNL A   1      51.962  25.719  25.852  1.00  0.00     0.060 A 
BRANCH  98  99
ATOM     99  S   UNL A   1      53.573  25.038  25.410  1.00  0.00     0.124 S 
ATOM    100  O   UNL A   1      54.368  25.379  26.585  1.00  0.00    -0.237 OA
ATOM    101  O   UNL A   1      53.277  23.620  25.234  1.00  0.00    -0.237 OA
ATOM    102  O   UNL A   1      53.919  25.756  24.187  1.00  0.00    -0.744 OA
ENDBRANCH  98  99
ENDBRANCH  66  91
ENDBRANCH  40  41
ENDBRANCH  33  35
ENDBRANCH  32  33
ENDBRANCH  31  32
ENDBRANCH  30  31
ENDBRANCH  29  30
ENDBRANCH  28  29
ENDBRANCH   1  28
TORSDOF 25
ENDMDL
MODEL 2
REMARK VINA RESULT:      -9.8      1.228      2.166
REMARK SMILES Cc1noc(C)c1[C@H](C)NC(=O)NC[C@@](C)(O)C(=O)OCCOCCOCCOC(=O)c1ccc(-c2c3nc(c(-c4c(F)cc(S(=O)(=O)[O-])cc4F)c4ccc([nH]4)c(-c4c(F)cc(S(=O)(=O)[O-])cc4F)c4nc(c(-c5c(F)cc(S(=O)(=O)[O-])cc5F)c5ccc2[nH]5)C=C4)C=C3)cc1
REMARK SMILES IDX 24 1 23 2 22 3 21 4 20 5 18 6 19 7 15 8 16 9 14 10 13 11
REMARK SMILES IDX 10 12 11 13 12 15 8 17 9 18 7 19 1 20 2 21 3 22 4 23 5 24
REMARK SMILES IDX 6 25 17 26 25 28 26 29 27 30 28 31 29 32 30 33 31 34 32 35
REMARK SMILES IDX 33 36 97 37 34 38 96 39 35 40 36 41 37 42 90 43 38 44 95 45
REMARK SMILES IDX 89 46 91 47 39 48 94 49 88 50 87 51 40 53 74 54 53 55 73 56
REMARK SMILES IDX 54 57 57 58 72 59 92 60 55 61 56 62 71 64 93 65 58 66 41 67
REMARK SMILES IDX 42 68 51 69 43 70 44 71 50 72 52 73 45 74 46 75 47 76 48 77
REMARK SMILES IDX 49 78 75 79 76 80 85 81 77 82 78 83 84 84 86 85 79 86 80 87
REMARK SMILES IDX 81 88 82 89 83 90 59 91 60 92 69 93 61 94 62 95 68 96 70 97
REMARK SMILES IDX 63 98 64 99 65 100 66 101 67 102
REMARK H PARENT 10 14 13 16 17 27 91 52 57 63
REMARK Flexibility Score: inf
ROOT
ATOM      1  C   UNL A   1      34.376  32.567  27.924  1.00  0.00     0.188 C 
ENDROOT
BRANCH   1   2
ATOM      2  O   UNL A   1      33.354  31.585  27.876  1.00  0.00    -0.376 OA
BRANCH   2   3
ATOM      3  C   UNL A   1      33.435  30.504  26.958  1.00  0.00     0.202 C 
BRANCH   3   4
ATOM      4  C   UNL A   1      32.169  29.704  26.639  1.00  0.00     0.261 C 
BRANCH   4   5
ATOM      5  O   UNL A   1      32.351  28.824  25.527  1.00  0.00    -0.461 OA
BRANCH   5   6
ATOM      6  C   UNL A   1      31.395  28.881  24.558  1.00  0.00     0.339 C 
ATOM      7  O   UNL A   1      30.729  29.879  24.308  1.00  0.00    -0.249 OA
BRANCH   6   8
ATOM      8  C   UNL A   1      31.244  27.530  23.818  1.00  0.00     0.176 C 
ATOM      9  C   UNL A   1      30.517  27.799  22.501  1.00  0.00     0.057 C 
BRANCH   8  10
ATOM     10  C   UNL A   1      32.628  26.872  23.607  1.00  0.00     0.164 C 
BRANCH  10  11
ATOM     11  N   UNL A   1      32.932  26.403  22.265  1.00  0.00    -0.335 N 
ATOM     12  N   UNL A   1      32.481  24.077  22.097  1.00  0.00    -0.331 N 
ATOM     13  C   UNL A   1      32.824  25.259  21.580  1.00  0.00     0.315 C 
ATOM     14  H   UNL A   1      32.388  23.368  21.420  1.00  0.00     0.165 HD
ATOM     15  O   UNL A   1      33.073  25.307  20.375  1.00  0.00    -0.249 OA
ATOM     16  H   UNL A   1      33.322  27.119  21.714  1.00  0.00     0.165 HD
BRANCH  12  17
ATOM     17  C   UNL A   1      32.219  23.618  23.442  1.00  0.00     0.116 C 
ATOM     18  C   UNL A   1      30.744  23.365  23.637  1.00  0.00     0.036 C 
BRANCH  17  19
ATOM     19  C   UNL A   1      33.220  22.553  23.831  1.00  0.00     0.040 A 
ATOM     20  C   UNL A   1      35.152  24.209  24.425  1.00  0.00     0.071 C 
ATOM     21  C   UNL A   1      34.525  22.875  24.335  1.00  0.00     0.086 A 
ATOM     22  N   UNL A   1      35.202  21.801  24.737  1.00  0.00    -0.085 NA
ATOM     23  O   UNL A   1      34.388  20.736  24.461  1.00  0.00    -0.361 OA
ATOM     24  C   UNL A   1      33.228  21.167  23.894  1.00  0.00     0.139 A 
ATOM     25  C   UNL A   1      32.356  20.042  23.531  1.00  0.00     0.091 C 
ENDBRANCH  17  19
ENDBRANCH  12  17
ENDBRANCH  10  11
ENDBRANCH   8  10
BRANCH   8  26
ATOM     26  O   UNL A   1      30.435  26.593  24.552  1.00  0.00    -0.377 OA
ATOM     27  H   UNL A   1      29.547  26.557  24.165  1.00  0.00     0.212 HD
ENDBRANCH   8  26
ENDBRANCH   6   8
ENDBRANCH   5   6
ENDBRANCH   4   5
ENDBRANCH   3   4
ENDBRANCH   2   3
ENDBRANCH   1   2
BRANCH   1  28
ATOM     28  C   UNL A   1      34.211  33.898  28.674  1.00  0.00     0.188 C 
BRANCH  28  29
ATOM     29  O   UNL A   1      35.113  34.349  29.673  1.00  0.00    -0.376 OA
BRANCH  29  30
ATOM     30  C   UNL A   1      34.776  34.190  31.033  1.00  0.00     0.202 C 
BRANCH  30  31
ATOM     31  C   UNL A   1      34.947  32.779  31.603  1.00  0.00     0.261 C 
BRANCH  31  32
ATOM     32  O   UNL A   1      36.050  32.023  31.085  1.00  0.00    -0.460 OA
BRANCH  32  33
ATOM     33  C   UNL A   1      36.898  31.502  32.004  1.00  0.00     0.338 C 
ATOM     34  O   UNL A   1      36.783  31.549  33.227  1.00  0.00    -0.246 OA
BRANCH  33  35
ATOM     35  C   UNL A   1      38.014  30.814  31.320  1.00  0.00     0.060 A 
ATOM     36  C   UNL A   1      38.966  30.113  32.067  1.00  0.00     0.016 A 
ATOM     37  C   UNL A   1      38.173  30.934  29.940  1.00  0.00     0.016 A 
ATOM     38  C   UNL A   1      40.065  29.505  31.431  1.00  0.00     0.010 A 
ATOM     39  C   UNL A   1      39.277  30.342  29.306  1.00  0.00     0.010 A 
ATOM     40  C   UNL A   1      40.229  29.600  30.036  1.00  0.00    -0.014 A 
BRANCH  40  41
ATOM     41  C   UNL A   1      41.490  29.130  29.374  1.00  0.00     0.031 A 
ATOM     42  C   UNL A   1      42.606  30.129  29.275  1.00  0.00     0.074 A 
ATOM     43  C   UNL A   1      41.680  27.905  28.834  1.00  0.00     0.049 A 
ATOM     44  N   UNL A   1      43.788  29.995  28.736  1.00  0.00    -0.248 NA
ATOM     45  C   UNL A   1      42.324  31.474  29.799  1.00  0.00     0.031 C 
ATOM     46  C   UNL A   1      40.675  26.868  28.709  1.00  0.00     0.029 A 
ATOM     47  N   UNL A   1      42.789  27.314  28.266  1.00  0.00    -0.354 N 
ATOM     48  C   UNL A   1      44.384  31.242  28.846  1.00  0.00     0.074 A 
ATOM     49  C   UNL A   1      43.404  32.135  29.424  1.00  0.00     0.031 C 
ATOM     50  C   UNL A   1      41.197  25.753  28.178  1.00  0.00     0.029 A 
ATOM     51  C   UNL A   1      42.594  26.002  27.870  1.00  0.00     0.049 A 
ATOM     52  H   UNL A   1      43.647  27.784  28.152  1.00  0.00     0.167 HD
ATOM     53  C   UNL A   1      45.647  31.610  28.534  1.00  0.00     0.037 A 
ATOM     54  C   UNL A   1      43.428  25.098  27.317  1.00  0.00     0.037 A 
ATOM     55  C   UNL A   1      46.630  30.732  27.970  1.00  0.00     0.049 A 
ATOM     56  C   UNL A   1      44.843  25.514  27.024  1.00  0.00     0.074 A 
ATOM     57  C   UNL A   1      47.942  31.012  27.636  1.00  0.00     0.029 A 
ATOM     58  N   UNL A   1      46.411  29.398  27.660  1.00  0.00    -0.354 N 
ATOM     59  N   UNL A   1      45.409  26.682  27.211  1.00  0.00    -0.248 NA
ATOM     60  C   UNL A   1      45.734  24.497  26.447  1.00  0.00     0.031 C 
ATOM     61  C   UNL A   1      48.516  29.848  27.113  1.00  0.00     0.029 A 
ATOM     62  C   UNL A   1      47.570  28.836  27.153  1.00  0.00     0.049 A 
ATOM     63  H   UNL A   1      45.559  28.921  27.783  1.00  0.00     0.167 HD
ATOM     64  C   UNL A   1      46.726  26.533  26.796  1.00  0.00     0.074 A 
ATOM     65  C   UNL A   1      46.880  25.158  26.370  1.00  0.00     0.031 C 
ATOM     66  C   UNL A   1      47.716  27.458  26.761  1.00  0.00     0.037 A 
BRANCH  53  67
ATOM     67  C   UNL A   1      46.007  33.032  28.840  1.00  0.00     0.058 A 
ATOM     68  C   UNL A   1      45.842  34.038  27.873  1.00  0.00     0.135 A 
ATOM     69  C   UNL A   1      46.596  33.378  30.063  1.00  0.00     0.135 A 
ATOM     70  F   UNL A   1      45.314  33.744  26.673  1.00  0.00    -0.206 F 
ATOM     71  C   UNL A   1      46.304  35.328  28.087  1.00  0.00     0.059 A 
ATOM     72  C   UNL A   1      47.036  34.673  30.311  1.00  0.00     0.059 A 
ATOM     73  F   UNL A   1      46.784  32.448  31.013  1.00  0.00    -0.206 F 
ATOM     74  C   UNL A   1      46.911  35.633  29.306  1.00  0.00     0.060 A 
BRANCH  74  75
ATOM     75  S   UNL A   1      47.551  37.301  29.550  1.00  0.00     0.124 S 
ATOM     76  O   UNL A   1      46.849  37.704  30.765  1.00  0.00    -0.237 OA
ATOM     77  O   UNL A   1      48.984  37.069  29.694  1.00  0.00    -0.237 OA
ATOM     78  O   UNL A   1      47.150  37.997  28.332  1.00  0.00    -0.744 OA
ENDBRANCH  74  75
ENDBRANCH  53  67
BRANCH  54  79
ATOM     79  C   UNL A   1      42.983  23.703  27.018  1.00  0.00     0.058 A 
ATOM     80  C   UNL A   1      42.714  22.798  28.058  1.00  0.00     0.135 A 
ATOM     81  C   UNL A   1      42.878  23.225  25.703  1.00  0.00     0.135 A 
ATOM     82  F   UNL A   1      42.803  23.201  29.335  1.00  0.00    -0.206 F 
ATOM     83  C   UNL A   1      42.405  21.463  27.810  1.00  0.00     0.059 A 
ATOM     84  C   UNL A   1      42.544  21.899  25.428  1.00  0.00     0.059 A 
ATOM     85  F   UNL A   1      43.102  24.049  24.668  1.00  0.00    -0.206 F 
ATOM     86  C   UNL A   1      42.334  21.019  26.490  1.00  0.00     0.060 A 
BRANCH  86  87
ATOM     87  S   UNL A   1      41.951  19.280  26.178  1.00  0.00     0.124 S 
ATOM     88  O   UNL A   1      42.806  18.994  25.031  1.00  0.00    -0.237 OA
ATOM     89  O   UNL A   1      42.340  18.648  27.435  1.00  0.00    -0.237 OA
ATOM     90  O   UNL A   1      40.517  19.296  25.908  1.00  0.00    -0.744 OA
ENDBRANCH  86  87
ENDBRANCH  54  79
BRANCH  66  91
ATOM     91  C   UNL A   1      49.069  27.002  26.300  1.00  0.00     0.058 A 
ATOM     92  C   UNL A   1      49.479  27.135  24.966  1.00  0.00     0.135 A 
ATOM     93  C   UNL A   1      49.984  26.471  27.223  1.00  0.00     0.135 A 
ATOM     94  F   UNL A   1      48.636  27.629  24.044  1.00  0.00    -0.206 F 
ATOM     95  C   UNL A   1      50.748  26.739  24.556  1.00  0.00     0.059 A 
ATOM     96  C   UNL A   1      51.266  26.094  26.840  1.00  0.00     0.059 A 
ATOM     97  F   UNL A   1      49.640  26.330  28.512  1.00  0.00    -0.206 F 
ATOM     98  C   UNL A   1      51.635  26.222  25.502  1.00  0.00     0.060 A 
BRANCH  98  99
ATOM     99  S   UNL A   1      53.294  25.755  24.970  1.00  0.00     0.124 S 
ATOM    100  O   UNL A   1      54.112  26.758  25.646  1.00  0.00    -0.237 OA
ATOM    101  O   UNL A   1      53.415  24.392  25.477  1.00  0.00    -0.237 OA
ATOM    102  O   UNL A   1      53.229  25.872  23.516  1.00  0.00    -0.744 OA
ENDBRANCH  98  99
ENDBRANCH  66  91
ENDBRANCH  40  41
ENDBRANCH  33  35
ENDBRANCH  32  33
ENDBRANCH  31  32
ENDBRANCH  30  31
ENDBRANCH  29  30
ENDBRANCH  28  29
ENDBRANCH   1  28
TORSDOF 25
ENDMDL
MODEL 3
REMARK VINA RESULT:      -9.6      1.540      8.561
REMARK SMILES Cc1noc(C)c1[C@H](C)NC(=O)NC[C@@](C)(O)C(=O)OCCOCCOCCOC(=O)c1ccc(-c2c3nc(c(-c4c(F)cc(S(=O)(=O)[O-])cc4F)c4ccc([nH]4)c(-c4c(F)cc(S(=O)(=O)[O-])cc4F)c4nc(c(-c5c(F)cc(S(=O)(=O)[O-])cc5F)c5ccc2[nH]5)C=C4)C=C3)cc1
REMARK SMILES IDX 24 1 23 2 22 3 21 4 20 5 18 6 19 7 15 8 16 9 14 10 13 11
REMARK SMILES IDX 10 12 11 13 12 15 8 17 9 18 7 19 1 20 2 21 3 22 4 23 5 24
REMARK SMILES IDX 6 25 17 26 25 28 26 29 27 30 28 31 29 32 30 33 31 34 32 35
REMARK SMILES IDX 33 36 97 37 34 38 96 39 35 40 36 41 37 42 90 43 38 44 95 45
REMARK SMILES IDX 89 46 91 47 39 48 94 49 88 50 87 51 40 53 74 54 53 55 73 56
REMARK SMILES IDX 54 57 57 58 72 59 92 60 55 61 56 62 71 64 93 65 58 66 41 67
REMARK SMILES IDX 42 68 51 69 43 70 44 71 50 72 52 73 45 74 46 75 47 76 48 77
REMARK SMILES IDX 49 78 75 79 76 80 85 81 77 82 78 83 84 84 86 85 79 86 80 87
REMARK SMILES IDX 81 88 82 89 83 90 59 91 60 92 69 93 61 94 62 95 68 96 70 97
REMARK SMILES IDX 63 98 64 99 65 100 66 101 67 102
REMARK H PARENT 10 14 13 16 17 27 91 52 57 63
REMARK Flexibility Score: inf
ROOT
ATOM      1  C   UNL A   1      33.890  29.925  27.215  1.00  0.00     0.188 C 
ENDROOT
BRANCH   1   2
ATOM      2  O   UNL A   1      33.226  28.830  26.608  1.00  0.00    -0.376 OA
BRANCH   2   3
ATOM      3  C   UNL A   1      31.835  28.629  26.808  1.00  0.00     0.202 C 
BRANCH   3   4
ATOM      4  C   UNL A   1      31.254  27.223  26.631  1.00  0.00     0.261 C 
BRANCH   4   5
ATOM      5  O   UNL A   1      32.272  26.236  26.443  1.00  0.00    -0.461 OA
BRANCH   5   6
ATOM      6  C   UNL A   1      31.841  24.949  26.321  1.00  0.00     0.339 C 
ATOM      7  O   UNL A   1      31.217  24.349  27.188  1.00  0.00    -0.249 OA
BRANCH   6   8
ATOM      8  C   UNL A   1      32.244  24.334  24.960  1.00  0.00     0.176 C 
ATOM      9  C   UNL A   1      31.002  23.674  24.361  1.00  0.00     0.057 C 
BRANCH   8  10
ATOM     10  C   UNL A   1      32.845  25.417  24.034  1.00  0.00     0.164 C 
BRANCH  10  11
ATOM     11  N   UNL A   1      32.588  25.276  22.610  1.00  0.00    -0.335 N 
ATOM     12  N   UNL A   1      31.477  27.209  21.791  1.00  0.00    -0.331 N 
ATOM     13  C   UNL A   1      32.078  26.028  21.628  1.00  0.00     0.315 C 
ATOM     14  H   UNL A   1      31.230  27.641  20.941  1.00  0.00     0.165 HD
ATOM     15  O   UNL A   1      32.164  25.581  20.483  1.00  0.00    -0.249 OA
ATOM     16  H   UNL A   1      32.864  24.391  22.280  1.00  0.00     0.165 HD
BRANCH  12  17
ATOM     17  C   UNL A   1      31.110  27.986  22.953  1.00  0.00     0.116 C 
ATOM     18  C   UNL A   1      32.161  29.030  23.244  1.00  0.00     0.036 C 
BRANCH  17  19
ATOM     19  C   UNL A   1      29.655  28.390  22.868  1.00  0.00     0.040 A 
ATOM     20  C   UNL A   1      28.726  26.300  24.132  1.00  0.00     0.071 C 
ATOM     21  C   UNL A   1      28.609  27.619  23.479  1.00  0.00     0.086 A 
ATOM     22  N   UNL A   1      27.419  28.211  23.399  1.00  0.00    -0.085 NA
ATOM     23  O   UNL A   1      27.633  29.360  22.688  1.00  0.00    -0.361 OA
ATOM     24  C   UNL A   1      28.946  29.459  22.341  1.00  0.00     0.139 A 
ATOM     25  C   UNL A   1      29.198  30.654  21.525  1.00  0.00     0.091 C 
ENDBRANCH  17  19
ENDBRANCH  12  17
ENDBRANCH  10  11
ENDBRANCH   8  10
BRANCH   8  26
ATOM     26  O   UNL A   1      33.234  23.299  25.101  1.00  0.00    -0.377 OA
ATOM     27  H   UNL A   1      33.487  23.216  26.034  1.00  0.00     0.212 HD
ENDBRANCH   8  26
ENDBRANCH   6   8
ENDBRANCH   5   6
ENDBRANCH   4   5
ENDBRANCH   3   4
ENDBRANCH   2   3
ENDBRANCH   1   2
BRANCH   1  28
ATOM     28  C   UNL A   1      33.252  31.318  27.335  1.00  0.00     0.188 C 
BRANCH  28  29
ATOM     29  O   UNL A   1      33.875  32.408  27.996  1.00  0.00    -0.376 OA
BRANCH  29  30
ATOM     30  C   UNL A   1      35.167  32.245  28.536  1.00  0.00     0.202 C 
BRANCH  30  31
ATOM     31  C   UNL A   1      35.295  32.475  30.044  1.00  0.00     0.261 C 
BRANCH  31  32
ATOM     32  O   UNL A   1      36.551  32.112  30.630  1.00  0.00    -0.460 OA
BRANCH  32  33
ATOM     33  C   UNL A   1      36.710  30.801  30.933  1.00  0.00     0.338 C 
ATOM     34  O   UNL A   1      35.908  30.075  31.516  1.00  0.00    -0.246 OA
BRANCH  33  35
ATOM     35  C   UNL A   1      38.016  30.326  30.427  1.00  0.00     0.060 A 
ATOM     36  C   UNL A   1      38.961  29.805  31.314  1.00  0.00     0.016 A 
ATOM     37  C   UNL A   1      38.343  30.475  29.079  1.00  0.00     0.016 A 
ATOM     38  C   UNL A   1      40.230  29.404  30.851  1.00  0.00     0.010 A 
ATOM     39  C   UNL A   1      39.613  30.091  28.619  1.00  0.00     0.010 A 
ATOM     40  C   UNL A   1      40.568  29.530  29.491  1.00  0.00    -0.014 A 
BRANCH  40  41
ATOM     41  C   UNL A   1      41.974  29.295  29.021  1.00  0.00     0.031 A 
ATOM     42  C   UNL A   1      42.291  27.917  28.520  1.00  0.00     0.074 A 
ATOM     43  C   UNL A   1      42.971  30.209  29.050  1.00  0.00     0.049 A 
ATOM     44  N   UNL A   1      43.423  27.439  28.079  1.00  0.00    -0.248 NA
ATOM     45  C   UNL A   1      41.199  26.933  28.587  1.00  0.00     0.031 C 
ATOM     46  C   UNL A   1      42.888  31.536  29.629  1.00  0.00     0.029 A 
ATOM     47  N   UNL A   1      44.271  30.164  28.595  1.00  0.00    -0.354 N 
ATOM     48  C   UNL A   1      43.181  26.098  27.826  1.00  0.00     0.074 A 
ATOM     49  C   UNL A   1      41.825  25.822  28.244  1.00  0.00     0.031 C 
ATOM     50  C   UNL A   1      44.032  32.212  29.447  1.00  0.00     0.029 A 
ATOM     51  C   UNL A   1      44.975  31.343  28.767  1.00  0.00     0.049 A 
ATOM     52  H   UNL A   1      44.666  29.362  28.181  1.00  0.00     0.167 HD
ATOM     53  C   UNL A   1      43.997  25.180  27.261  1.00  0.00     0.037 A 
ATOM     54  C   UNL A   1      46.232  31.695  28.428  1.00  0.00     0.037 A 
ATOM     55  C   UNL A   1      45.340  25.444  26.834  1.00  0.00     0.049 A 
ATOM     56  C   UNL A   1      47.106  30.674  27.755  1.00  0.00     0.074 A 
ATOM     57  C   UNL A   1      46.237  24.579  26.235  1.00  0.00     0.029 A 
ATOM     58  N   UNL A   1      45.981  26.667  26.957  1.00  0.00    -0.354 N 
ATOM     59  N   UNL A   1      46.827  29.428  27.454  1.00  0.00    -0.248 NA
ATOM     60  C   UNL A   1      48.461  31.097  27.375  1.00  0.00     0.031 C 
ATOM     61  C   UNL A   1      47.427  25.278  26.004  1.00  0.00     0.029 A 
ATOM     62  C   UNL A   1      47.257  26.585  26.429  1.00  0.00     0.049 A 
ATOM     63  H   UNL A   1      45.586  27.475  27.359  1.00  0.00     0.167 HD
ATOM     64  C   UNL A   1      47.963  28.928  26.829  1.00  0.00     0.074 A 
ATOM     65  C   UNL A   1      48.923  30.010  26.775  1.00  0.00     0.031 C 
ATOM     66  C   UNL A   1      48.192  27.680  26.355  1.00  0.00     0.037 A 
BRANCH  53  67
ATOM     67  C   UNL A   1      43.408  23.817  27.062  1.00  0.00     0.058 A 
ATOM     68  C   UNL A   1      42.950  23.410  25.798  1.00  0.00     0.135 A 
ATOM     69  C   UNL A   1      43.220  22.949  28.146  1.00  0.00     0.135 A 
ATOM     70  F   UNL A   1      43.077  24.225  24.737  1.00  0.00    -0.206 F 
ATOM     71  C   UNL A   1      42.271  22.213  25.626  1.00  0.00     0.059 A 
ATOM     72  C   UNL A   1      42.572  21.729  27.990  1.00  0.00     0.059 A 
ATOM     73  F   UNL A   1      43.632  23.300  29.375  1.00  0.00    -0.206 F 
ATOM     74  C   UNL A   1      42.077  21.383  26.732  1.00  0.00     0.060 A 
BRANCH  74  75
ATOM     75  S   UNL A   1      41.149  19.855  26.502  1.00  0.00     0.124 S 
ATOM     76  O   UNL A   1      41.327  19.212  27.801  1.00  0.00    -0.237 OA
ATOM     77  O   UNL A   1      39.805  20.343  26.216  1.00  0.00    -0.237 OA
ATOM     78  O   UNL A   1      41.831  19.211  25.384  1.00  0.00    -0.744 OA
ENDBRANCH  74  75
ENDBRANCH  53  67
BRANCH  54  79
ATOM     79  C   UNL A   1      46.755  33.072  28.685  1.00  0.00     0.058 A 
ATOM     80  C   UNL A   1      47.356  33.392  29.913  1.00  0.00     0.135 A 
ATOM     81  C   UNL A   1      46.612  34.106  27.747  1.00  0.00     0.135 A 
ATOM     82  F   UNL A   1      47.515  32.442  30.848  1.00  0.00    -0.206 F 
ATOM     83  C   UNL A   1      47.752  34.691  30.222  1.00  0.00     0.059 A 
ATOM     84  C   UNL A   1      47.025  35.409  28.022  1.00  0.00     0.059 A 
ATOM     85  F   UNL A   1      46.064  33.854  26.548  1.00  0.00    -0.206 F 
ATOM     86  C   UNL A   1      47.571  35.697  29.273  1.00  0.00     0.060 A 
BRANCH  86  87
ATOM     87  S   UNL A   1      48.071  37.383  29.690  1.00  0.00     0.124 S 
ATOM     88  O   UNL A   1      46.789  38.079  29.676  1.00  0.00    -0.237 OA
ATOM     89  O   UNL A   1      48.686  37.208  31.002  1.00  0.00    -0.237 OA
ATOM     90  O   UNL A   1      48.992  37.735  28.613  1.00  0.00    -0.744 OA
ENDBRANCH  86  87
ENDBRANCH  54  79
BRANCH  66  91
ATOM     91  C   UNL A   1      49.509  27.429  25.682  1.00  0.00     0.058 A 
ATOM     92  C   UNL A   1      49.643  27.444  24.287  1.00  0.00     0.135 A 
ATOM     93  C   UNL A   1      50.664  27.221  26.454  1.00  0.00     0.135 A 
ATOM     94  F   UNL A   1      48.566  27.630  23.506  1.00  0.00    -0.206 F 
ATOM     95  C   UNL A   1      50.875  27.242  23.675  1.00  0.00     0.059 A 
ATOM     96  C   UNL A   1      51.910  27.044  25.865  1.00  0.00     0.059 A 
ATOM     97  F   UNL A   1      50.588  27.204  27.794  1.00  0.00    -0.206 F 
ATOM     98  C   UNL A   1      52.004  27.045  24.474  1.00  0.00     0.060 A 
BRANCH  98  99
ATOM     99  S   UNL A   1      53.606  26.831  23.672  1.00  0.00     0.124 S 
ATOM    100  O   UNL A   1      53.871  25.417  23.919  1.00  0.00    -0.237 OA
ATOM    101  O   UNL A   1      53.316  27.190  22.288  1.00  0.00    -0.237 OA
ATOM    102  O   UNL A   1      54.470  27.766  24.388  1.00  0.00    -0.744 OA
ENDBRANCH  98  99
ENDBRANCH  66  91
ENDBRANCH  40  41
ENDBRANCH  33  35
ENDBRANCH  32  33
ENDBRANCH  31  32
ENDBRANCH  30  31
ENDBRANCH  29  30
ENDBRANCH  28  29
ENDBRANCH   1  28
TORSDOF 25
ENDMDL
