MODEL 1
REMARK VINA RESULT:     -13.0      0.000      0.000
REMARK SMILES Cc1ccnc(C(=O)c2[nH]c3cc(Cl)c(F)cc3c2CC(=O)OCCOCCOCCOC(=O)c2ccc(-c3c4nc(c(-c5c(F)cc(S(=O)(=O)[O-])cc5F)c5ccc([nH]5)c(-c5c(F)cc(S(=O)(=O)[O-])cc5F)c5nc(c(-c6c(F)cc(S(=O)(=O)[O-])cc6F)c6ccc3[nH]6)C=C5)C=C4)cc2)c1
REMARK SMILES IDX 27 1 26 2 25 3 24 4 23 5 21 6 22 7 20 8 19 9 9 10 10 11
REMARK SMILES IDX 11 12 18 14 12 15 17 16 13 17 15 18 14 19 16 20 7 21 8 22
REMARK SMILES IDX 6 23 1 24 2 25 3 26 101 27 4 28 5 29 28 30 29 31 30 32 31 33
REMARK SMILES IDX 32 34 33 35 34 36 35 37 36 38 100 39 37 40 99 41 38 42 39 43
REMARK SMILES IDX 40 44 93 45 41 46 98 47 92 48 94 49 42 50 97 51 91 52 90 53
REMARK SMILES IDX 43 55 77 56 56 57 76 58 57 59 60 60 75 61 95 62 58 63 59 64
REMARK SMILES IDX 74 66 96 67 61 68 44 69 45 70 54 71 46 72 47 73 53 74 55 75
REMARK SMILES IDX 48 76 49 77 50 78 51 79 52 80 78 81 79 82 88 83 80 84 81 85
REMARK SMILES IDX 87 86 89 87 82 88 83 89 84 90 85 91 86 92 62 93 63 94 72 95
REMARK SMILES IDX 64 96 65 97 71 98 73 99 66 100 67 101 68 102 69 103 70 104
REMARK H PARENT 10 13 94 54 60 65
REMARK Flexibility Score: inf
ROOT
ATOM      1  C   UNL A   1      38.068  21.945  25.576  1.00  0.00     0.188 C 
ENDROOT
BRANCH   1   2
ATOM      2  O   UNL A   1      37.457  22.890  24.693  1.00  0.00    -0.376 OA
BRANCH   2   3
ATOM      3  C   UNL A   1      36.000  22.919  24.884  1.00  0.00     0.202 C 
BRANCH   3   4
ATOM      4  C   UNL A   1      35.388  23.921  23.887  1.00  0.00     0.261 C 
BRANCH   4   5
ATOM      5  O   UNL A   1      35.012  23.271  22.646  1.00  0.00    -0.463 OA
BRANCH   5   6
ATOM      6  C   UNL A   1      33.715  23.419  22.340  1.00  0.00     0.310 C 
ATOM      7  O   UNL A   1      33.337  24.288  21.558  1.00  0.00    -0.252 OA
BRANCH   6   8
ATOM      8  C   UNL A   1      32.741  22.392  22.839  1.00  0.00     0.161 C 
BRANCH   8   9
ATOM      9  C   UNL A   1      32.526  21.672  24.142  1.00  0.00     0.000 A 
ATOM     10  C   UNL A   1      32.465  22.181  25.459  1.00  0.00     0.093 A 
ATOM     11  N   UNL A   1      32.779  21.030  26.235  1.00  0.00    -0.351 N 
ATOM     12  C   UNL A   1      32.712  19.852  25.566  1.00  0.00     0.048 A 
ATOM     13  H   UNL A   1      33.027  21.084  27.187  1.00  0.00     0.167 HD
ATOM     14  C   UNL A   1      32.625  20.209  24.231  1.00  0.00     0.007 A 
ATOM     15  C   UNL A   1      32.770  18.529  26.040  1.00  0.00     0.050 A 
ATOM     16  C   UNL A   1      32.692  19.159  23.288  1.00  0.00     0.051 A 
ATOM     17  C   UNL A   1      32.723  17.512  25.085  1.00  0.00     0.078 A 
ATOM     18  C   UNL A   1      32.708  17.828  23.730  1.00  0.00     0.142 A 
ATOM     19  Cl  UNL A   1      32.662  15.869  25.607  1.00  0.00    -0.081 Cl
ATOM     20  F   UNL A   1      32.678  16.851  22.811  1.00  0.00    -0.205 F 
BRANCH  10  21
ATOM     21  C   UNL A   1      32.248  23.401  26.354  1.00  0.00     0.227 C 
ATOM     22  O   UNL A   1      31.783  22.919  27.386  1.00  0.00    -0.285 OA
BRANCH  21  23
ATOM     23  C   UNL A   1      32.157  25.126  26.231  1.00  0.00     0.113 A 
ATOM     24  C   UNL A   1      33.952  28.108  24.619  1.00  0.00     0.044 C 
ATOM     25  C   UNL A   1      32.821  27.380  25.300  1.00  0.00    -0.047 A 
ATOM     26  C   UNL A   1      31.758  27.963  25.917  1.00  0.00     0.023 A 
ATOM     27  C   UNL A   1      32.871  25.981  25.353  1.00  0.00     0.036 A 
ATOM     28  C   UNL A   1      30.952  27.109  26.654  1.00  0.00     0.112 A 
ATOM     29  N   UNL A   1      31.169  25.760  26.879  1.00  0.00    -0.253 NA
ENDBRANCH  21  23
ENDBRANCH  10  21
ENDBRANCH   8   9
ENDBRANCH   6   8
ENDBRANCH   5   6
ENDBRANCH   4   5
ENDBRANCH   3   4
ENDBRANCH   2   3
ENDBRANCH   1   2
BRANCH   1  30
ATOM     30  C   UNL A   1      39.451  22.241  26.356  1.00  0.00     0.188 C 
BRANCH  30  31
ATOM     31  O   UNL A   1      40.387  21.229  26.865  1.00  0.00    -0.376 OA
BRANCH  31  32
ATOM     32  C   UNL A   1      40.561  19.829  26.470  1.00  0.00     0.202 C 
BRANCH  32  33
ATOM     33  C   UNL A   1      42.056  19.113  25.976  1.00  0.00     0.261 C 
BRANCH  33  34
ATOM     34  O   UNL A   1      43.037  19.714  24.952  1.00  0.00    -0.460 OA
BRANCH  34  35
ATOM     35  C   UNL A   1      44.287  20.289  25.233  1.00  0.00     0.338 C 
ATOM     36  O   UNL A   1      45.348  19.742  24.955  1.00  0.00    -0.246 OA
BRANCH  35  37
ATOM     37  C   UNL A   1      44.241  21.828  25.627  1.00  0.00     0.060 A 
ATOM     38  C   UNL A   1      45.021  22.440  26.606  1.00  0.00     0.016 A 
ATOM     39  C   UNL A   1      43.147  22.607  25.177  1.00  0.00     0.016 A 
ATOM     40  C   UNL A   1      44.575  23.620  27.292  1.00  0.00     0.010 A 
ATOM     41  C   UNL A   1      42.709  23.799  25.846  1.00  0.00     0.010 A 
ATOM     42  C   UNL A   1      43.378  24.302  26.966  1.00  0.00    -0.014 A 
BRANCH  42  43
ATOM     43  C   UNL A   1      43.107  25.678  27.546  1.00  0.00     0.031 A 
ATOM     44  C   UNL A   1      44.220  26.589  27.257  1.00  0.00     0.074 A 
ATOM     45  C   UNL A   1      42.065  26.303  28.167  1.00  0.00     0.049 A 
ATOM     46  N   UNL A   1      45.097  27.022  28.098  1.00  0.00    -0.248 NA
ATOM     47  C   UNL A   1      44.468  26.928  25.856  1.00  0.00     0.031 C 
ATOM     48  C   UNL A   1      40.840  25.663  28.566  1.00  0.00     0.029 A 
ATOM     49  N   UNL A   1      41.824  27.587  28.641  1.00  0.00    -0.354 N 
ATOM     50  C   UNL A   1      45.846  27.927  27.371  1.00  0.00     0.074 A 
ATOM     51  C   UNL A   1      45.573  27.662  25.979  1.00  0.00     0.031 C 
ATOM     52  C   UNL A   1      39.845  26.538  28.837  1.00  0.00     0.029 A 
ATOM     53  C   UNL A   1      40.479  27.838  28.986  1.00  0.00     0.049 A 
ATOM     54  H   UNL A   1      42.533  28.265  28.727  1.00  0.00     0.167 HD
ATOM     55  C   UNL A   1      46.356  29.032  27.973  1.00  0.00     0.037 A 
ATOM     56  C   UNL A   1      39.855  28.899  29.574  1.00  0.00     0.037 A 
ATOM     57  C   UNL A   1      46.414  28.897  29.409  1.00  0.00     0.049 A 
ATOM     58  C   UNL A   1      40.885  29.659  30.303  1.00  0.00     0.074 A 
ATOM     59  C   UNL A   1      47.002  28.016  30.294  1.00  0.00     0.029 A 
ATOM     60  N   UNL A   1      45.499  29.617  30.133  1.00  0.00    -0.354 N 
ATOM     61  N   UNL A   1      41.458  29.259  31.404  1.00  0.00    -0.248 NA
ATOM     62  C   UNL A   1      41.557  30.731  29.593  1.00  0.00     0.031 C 
ATOM     63  C   UNL A   1      46.159  27.996  31.443  1.00  0.00     0.029 A 
ATOM     64  C   UNL A   1      45.112  28.893  31.232  1.00  0.00     0.049 A 
ATOM     65  H   UNL A   1      45.171  30.516  29.901  1.00  0.00     0.167 HD
ATOM     66  C   UNL A   1      42.765  29.697  31.283  1.00  0.00     0.074 A 
ATOM     67  C   UNL A   1      42.731  30.701  30.224  1.00  0.00     0.031 C 
ATOM     68  C   UNL A   1      43.795  28.995  31.837  1.00  0.00     0.037 A 
BRANCH  55  69
ATOM     69  C   UNL A   1      46.385  30.371  27.280  1.00  0.00     0.058 A 
ATOM     70  C   UNL A   1      47.602  31.063  27.165  1.00  0.00     0.135 A 
ATOM     71  C   UNL A   1      45.222  31.116  26.964  1.00  0.00     0.135 A 
ATOM     72  F   UNL A   1      48.759  30.465  27.492  1.00  0.00    -0.206 F 
ATOM     73  C   UNL A   1      47.659  32.406  26.793  1.00  0.00     0.059 A 
ATOM     74  C   UNL A   1      45.261  32.430  26.525  1.00  0.00     0.059 A 
ATOM     75  F   UNL A   1      43.987  30.639  27.166  1.00  0.00    -0.206 F 
ATOM     76  C   UNL A   1      46.481  33.079  26.477  1.00  0.00     0.060 A 
BRANCH  76  77
ATOM     77  S   UNL A   1      46.548  34.831  26.073  1.00  0.00     0.124 S 
ATOM     78  O   UNL A   1      46.725  35.424  27.387  1.00  0.00    -0.237 OA
ATOM     79  O   UNL A   1      47.689  34.889  25.174  1.00  0.00    -0.237 OA
ATOM     80  O   UNL A   1      45.244  35.074  25.437  1.00  0.00    -0.744 OA
ENDBRANCH  76  77
ENDBRANCH  55  69
BRANCH  56  81
ATOM     81  C   UNL A   1      38.445  29.389  29.408  1.00  0.00     0.058 A 
ATOM     82  C   UNL A   1      37.627  29.709  30.515  1.00  0.00     0.135 A 
ATOM     83  C   UNL A   1      37.971  29.840  28.160  1.00  0.00     0.135 A 
ATOM     84  F   UNL A   1      37.962  29.303  31.749  1.00  0.00    -0.206 F 
ATOM     85  C   UNL A   1      36.489  30.525  30.402  1.00  0.00     0.059 A 
ATOM     86  C   UNL A   1      36.836  30.642  28.022  1.00  0.00     0.059 A 
ATOM     87  F   UNL A   1      38.650  29.597  27.030  1.00  0.00    -0.206 F 
ATOM     88  C   UNL A   1      36.128  31.025  29.152  1.00  0.00     0.060 A 
BRANCH  88  89
ATOM     89  S   UNL A   1      34.847  32.299  29.026  1.00  0.00     0.124 S 
ATOM     90  O   UNL A   1      33.914  31.706  28.075  1.00  0.00    -0.237 OA
ATOM     91  O   UNL A   1      34.376  32.398  30.403  1.00  0.00    -0.237 OA
ATOM     92  O   UNL A   1      35.578  33.466  28.539  1.00  0.00    -0.744 OA
ENDBRANCH  88  89
ENDBRANCH  56  81
BRANCH  68  93
ATOM     93  C   UNL A   1      43.514  28.108  33.026  1.00  0.00     0.058 A 
ATOM     94  C   UNL A   1      43.511  26.703  33.016  1.00  0.00     0.135 A 
ATOM     95  C   UNL A   1      43.375  28.739  34.277  1.00  0.00     0.135 A 
ATOM     96  F   UNL A   1      43.722  26.021  31.880  1.00  0.00    -0.206 F 
ATOM     97  C   UNL A   1      43.363  25.963  34.196  1.00  0.00     0.059 A 
ATOM     98  C   UNL A   1      43.263  28.022  35.466  1.00  0.00     0.059 A 
ATOM     99  F   UNL A   1      43.408  30.080  34.361  1.00  0.00    -0.206 F 
ATOM    100  C   UNL A   1      43.256  26.631  35.419  1.00  0.00     0.060 A 
BRANCH 100 101
ATOM    101  S   UNL A   1      43.201  25.674  36.952  1.00  0.00     0.124 S 
ATOM    102  O   UNL A   1      43.552  26.670  37.959  1.00  0.00    -0.237 OA
ATOM    103  O   UNL A   1      41.817  25.205  36.980  1.00  0.00    -0.237 OA
ATOM    104  O   UNL A   1      44.198  24.627  36.740  1.00  0.00    -0.744 OA
ENDBRANCH 100 101
ENDBRANCH  68  93
ENDBRANCH  42  43
ENDBRANCH  35  37
ENDBRANCH  34  35
ENDBRANCH  33  34
ENDBRANCH  32  33
ENDBRANCH  31  32
ENDBRANCH  30  31
ENDBRANCH   1  30
TORSDOF 23
ENDMDL
MODEL 2
REMARK VINA RESULT:     -12.1      1.756      2.350
REMARK SMILES Cc1ccnc(C(=O)c2[nH]c3cc(Cl)c(F)cc3c2CC(=O)OCCOCCOCCOC(=O)c2ccc(-c3c4nc(c(-c5c(F)cc(S(=O)(=O)[O-])cc5F)c5ccc([nH]5)c(-c5c(F)cc(S(=O)(=O)[O-])cc5F)c5nc(c(-c6c(F)cc(S(=O)(=O)[O-])cc6F)c6ccc3[nH]6)C=C5)C=C4)cc2)c1
REMARK SMILES IDX 27 1 26 2 25 3 24 4 23 5 21 6 22 7 20 8 19 9 9 10 10 11
REMARK SMILES IDX 11 12 18 14 12 15 17 16 13 17 15 18 14 19 16 20 7 21 8 22
REMARK SMILES IDX 6 23 1 24 2 25 3 26 101 27 4 28 5 29 28 30 29 31 30 32 31 33
REMARK SMILES IDX 32 34 33 35 34 36 35 37 36 38 100 39 37 40 99 41 38 42 39 43
REMARK SMILES IDX 40 44 93 45 41 46 98 47 92 48 94 49 42 50 97 51 91 52 90 53
REMARK SMILES IDX 43 55 77 56 56 57 76 58 57 59 60 60 75 61 95 62 58 63 59 64
REMARK SMILES IDX 74 66 96 67 61 68 44 69 45 70 54 71 46 72 47 73 53 74 55 75
REMARK SMILES IDX 48 76 49 77 50 78 51 79 52 80 78 81 79 82 88 83 80 84 81 85
REMARK SMILES IDX 87 86 89 87 82 88 83 89 84 90 85 91 86 92 62 93 63 94 72 95
REMARK SMILES IDX 64 96 65 97 71 98 73 99 66 100 67 101 68 102 69 103 70 104
REMARK H PARENT 10 13 94 54 60 65
REMARK Flexibility Score: inf
ROOT
ATOM      1  C   UNL A   1      37.849  22.572  25.884  1.00  0.00     0.188 C 
ENDROOT
BRANCH   1   2
ATOM      2  O   UNL A   1      37.266  22.854  24.608  1.00  0.00    -0.376 OA
BRANCH   2   3
ATOM      3  C   UNL A   1      35.828  22.554  24.613  1.00  0.00     0.202 C 
BRANCH   3   4
ATOM      4  C   UNL A   1      35.086  23.664  23.843  1.00  0.00     0.261 C 
BRANCH   4   5
ATOM      5  O   UNL A   1      34.844  23.281  22.466  1.00  0.00    -0.463 OA
BRANCH   5   6
ATOM      6  C   UNL A   1      33.546  23.315  22.125  1.00  0.00     0.310 C 
ATOM      7  O   UNL A   1      33.096  24.208  21.411  1.00  0.00    -0.252 OA
BRANCH   6   8
ATOM      8  C   UNL A   1      32.680  22.145  22.490  1.00  0.00     0.161 C 
BRANCH   8   9
ATOM      9  C   UNL A   1      32.323  21.443  23.771  1.00  0.00     0.000 A 
ATOM     10  C   UNL A   1      31.940  21.979  25.022  1.00  0.00     0.093 A 
ATOM     11  N   UNL A   1      32.257  20.913  25.909  1.00  0.00    -0.351 N 
ATOM     12  C   UNL A   1      32.485  19.717  25.310  1.00  0.00     0.048 A 
ATOM     13  H   UNL A   1      32.308  21.034  26.886  1.00  0.00     0.167 HD
ATOM     14  C   UNL A   1      32.606  20.014  23.964  1.00  0.00     0.007 A 
ATOM     15  C   UNL A   1      32.636  18.433  25.865  1.00  0.00     0.050 A 
ATOM     16  C   UNL A   1      32.999  18.957  23.114  1.00  0.00     0.051 A 
ATOM     17  C   UNL A   1      32.915  17.391  24.980  1.00  0.00     0.078 A 
ATOM     18  C   UNL A   1      33.115  17.658  23.630  1.00  0.00     0.142 A 
ATOM     19  Cl  UNL A   1      32.985  15.775  25.579  1.00  0.00    -0.081 Cl
ATOM     20  F   UNL A   1      33.399  16.658  22.781  1.00  0.00    -0.205 F 
BRANCH  10  21
ATOM     21  C   UNL A   1      31.387  23.182  25.787  1.00  0.00     0.227 C 
ATOM     22  O   UNL A   1      30.650  22.670  26.629  1.00  0.00    -0.285 OA
BRANCH  21  23
ATOM     23  C   UNL A   1      31.244  24.899  25.617  1.00  0.00     0.113 A 
ATOM     24  C   UNL A   1      31.590  28.144  27.633  1.00  0.00     0.044 C 
ATOM     25  C   UNL A   1      31.487  27.292  26.393  1.00  0.00    -0.047 A 
ATOM     26  C   UNL A   1      31.200  27.741  25.142  1.00  0.00     0.023 A 
ATOM     27  C   UNL A   1      31.654  25.907  26.525  1.00  0.00     0.036 A 
ATOM     28  C   UNL A   1      30.951  26.759  24.196  1.00  0.00     0.112 A 
ATOM     29  N   UNL A   1      30.893  25.393  24.421  1.00  0.00    -0.253 NA
ENDBRANCH  21  23
ENDBRANCH  10  21
ENDBRANCH   8   9
ENDBRANCH   6   8
ENDBRANCH   5   6
ENDBRANCH   4   5
ENDBRANCH   3   4
ENDBRANCH   2   3
ENDBRANCH   1   2
BRANCH   1  30
ATOM     30  C   UNL A   1      38.824  23.607  26.650  1.00  0.00     0.188 C 
BRANCH  30  31
ATOM     31  O   UNL A   1      39.952  23.247  27.520  1.00  0.00    -0.376 OA
BRANCH  31  32
ATOM     32  C   UNL A   1      40.735  22.010  27.575  1.00  0.00     0.202 C 
BRANCH  32  33
ATOM     33  C   UNL A   1      42.009  21.588  26.483  1.00  0.00     0.261 C 
BRANCH  33  34
ATOM     34  O   UNL A   1      42.287  22.272  25.131  1.00  0.00    -0.460 OA
BRANCH  34  35
ATOM     35  C   UNL A   1      43.384  23.094  24.823  1.00  0.00     0.338 C 
ATOM     36  O   UNL A   1      44.159  22.852  23.906  1.00  0.00    -0.246 OA
BRANCH  35  37
ATOM     37  C   UNL A   1      43.362  24.524  25.518  1.00  0.00     0.060 A 
ATOM     38  C   UNL A   1      44.281  24.983  26.460  1.00  0.00     0.016 A 
ATOM     39  C   UNL A   1      42.186  25.306  25.415  1.00  0.00     0.016 A 
ATOM     40  C   UNL A   1      43.926  25.981  27.430  1.00  0.00     0.010 A 
ATOM     41  C   UNL A   1      41.836  26.319  26.370  1.00  0.00     0.010 A 
ATOM     42  C   UNL A   1      42.672  26.637  27.445  1.00  0.00    -0.014 A 
BRANCH  42  43
ATOM     43  C   UNL A   1      42.466  27.857  28.323  1.00  0.00     0.031 A 
ATOM     44  C   UNL A   1      43.586  28.794  28.178  1.00  0.00     0.074 A 
ATOM     45  C   UNL A   1      41.473  28.347  29.121  1.00  0.00     0.049 A 
ATOM     46  N   UNL A   1      44.514  29.022  29.044  1.00  0.00    -0.248 NA
ATOM     47  C   UNL A   1      43.771  29.427  26.873  1.00  0.00     0.031 C 
ATOM     48  C   UNL A   1      40.254  27.653  29.439  1.00  0.00     0.029 A 
ATOM     49  N   UNL A   1      41.289  29.500  29.875  1.00  0.00    -0.354 N 
ATOM     50  C   UNL A   1      45.249  30.053  28.490  1.00  0.00     0.074 A 
ATOM     51  C   UNL A   1      44.899  30.101  27.091  1.00  0.00     0.031 C 
ATOM     52  C   UNL A   1      39.296  28.461  29.948  1.00  0.00     0.029 A 
ATOM     53  C   UNL A   1      39.970  29.688  30.340  1.00  0.00     0.049 A 
ATOM     54  H   UNL A   1      42.018  30.133  30.067  1.00  0.00     0.167 HD
ATOM     55  C   UNL A   1      45.817  30.993  29.288  1.00  0.00     0.037 A 
ATOM     56  C   UNL A   1      39.404  30.604  31.177  1.00  0.00     0.037 A 
ATOM     57  C   UNL A   1      45.944  30.548  30.655  1.00  0.00     0.049 A 
ATOM     58  C   UNL A   1      40.489  31.173  31.996  1.00  0.00     0.074 A 
ATOM     59  C   UNL A   1      46.553  29.487  31.294  1.00  0.00     0.029 A 
ATOM     60  N   UNL A   1      45.086  31.105  31.568  1.00  0.00    -0.354 N 
ATOM     61  N   UNL A   1      41.106  30.535  32.951  1.00  0.00    -0.248 NA
ATOM     62  C   UNL A   1      41.151  32.364  31.500  1.00  0.00     0.031 C 
ATOM     63  C   UNL A   1      45.769  29.229  32.457  1.00  0.00     0.029 A 
ATOM     64  C   UNL A   1      44.736  30.164  32.503  1.00  0.00     0.049 A 
ATOM     65  H   UNL A   1      44.769  32.037  31.554  1.00  0.00     0.167 HD
ATOM     66  C   UNL A   1      42.416  30.970  32.856  1.00  0.00     0.074 A 
ATOM     67  C   UNL A   1      42.354  32.181  32.044  1.00  0.00     0.031 C 
ATOM     68  C   UNL A   1      43.454  30.150  33.187  1.00  0.00     0.037 A 
BRANCH  55  69
ATOM     69  C   UNL A   1      45.844  32.450  28.902  1.00  0.00     0.058 A 
ATOM     70  C   UNL A   1      44.641  33.101  28.578  1.00  0.00     0.135 A 
ATOM     71  C   UNL A   1      47.029  33.155  28.580  1.00  0.00     0.135 A 
ATOM     72  F   UNL A   1      43.461  32.498  28.794  1.00  0.00    -0.206 F 
ATOM     73  C   UNL A   1      44.618  34.348  27.954  1.00  0.00     0.059 A 
ATOM     74  C   UNL A   1      47.029  34.423  28.023  1.00  0.00     0.059 A 
ATOM     75  F   UNL A   1      48.245  32.603  28.693  1.00  0.00    -0.206 F 
ATOM     76  C   UNL A   1      45.819  34.998  27.679  1.00  0.00     0.060 A 
BRANCH  76  77
ATOM     77  S   UNL A   1      45.790  36.570  26.804  1.00  0.00     0.124 S 
ATOM     78  O   UNL A   1      44.368  36.864  26.787  1.00  0.00    -0.237 OA
ATOM     79  O   UNL A   1      46.618  37.406  27.657  1.00  0.00    -0.237 OA
ATOM     80  O   UNL A   1      46.384  36.233  25.500  1.00  0.00    -0.744 OA
ENDBRANCH  76  77
ENDBRANCH  55  69
BRANCH  56  81
ATOM     81  C   UNL A   1      38.000  31.138  31.199  1.00  0.00     0.058 A 
ATOM     82  C   UNL A   1      37.176  31.036  32.343  1.00  0.00     0.135 A 
ATOM     83  C   UNL A   1      37.540  32.024  30.205  1.00  0.00     0.135 A 
ATOM     84  F   UNL A   1      37.498  30.198  33.341  1.00  0.00    -0.206 F 
ATOM     85  C   UNL A   1      36.048  31.849  32.536  1.00  0.00     0.059 A 
ATOM     86  C   UNL A   1      36.415  32.834  30.369  1.00  0.00     0.059 A 
ATOM     87  F   UNL A   1      38.226  32.208  29.068  1.00  0.00    -0.206 F 
ATOM     88  C   UNL A   1      35.702  32.780  31.559  1.00  0.00     0.060 A 
BRANCH  88  89
ATOM     89  S   UNL A   1      34.435  34.026  31.907  1.00  0.00     0.124 S 
ATOM     90  O   UNL A   1      33.802  34.197  30.605  1.00  0.00    -0.237 OA
ATOM     91  O   UNL A   1      33.625  33.365  32.926  1.00  0.00    -0.237 OA
ATOM     92  O   UNL A   1      35.207  35.171  32.382  1.00  0.00    -0.744 OA
ENDBRANCH  88  89
ENDBRANCH  56  81
BRANCH  68  93
ATOM     93  C   UNL A   1      43.211  29.030  34.169  1.00  0.00     0.058 A 
ATOM     94  C   UNL A   1      42.713  27.756  33.849  1.00  0.00     0.135 A 
ATOM     95  C   UNL A   1      43.645  29.233  35.493  1.00  0.00     0.135 A 
ATOM     96  F   UNL A   1      42.358  27.449  32.592  1.00  0.00    -0.206 F 
ATOM     97  C   UNL A   1      42.638  26.737  34.808  1.00  0.00     0.059 A 
ATOM     98  C   UNL A   1      43.613  28.223  36.452  1.00  0.00     0.059 A 
ATOM     99  F   UNL A   1      44.167  30.417  35.855  1.00  0.00    -0.206 F 
ATOM    100  C   UNL A   1      43.106  26.975  36.103  1.00  0.00     0.060 A 
BRANCH 100 101
ATOM    101  S   UNL A   1      43.133  25.620  37.300  1.00  0.00     0.124 S 
ATOM    102  O   UNL A   1      42.668  24.488  36.507  1.00  0.00    -0.237 OA
ATOM    103  O   UNL A   1      44.538  25.580  37.698  1.00  0.00    -0.237 OA
ATOM    104  O   UNL A   1      42.213  26.066  38.345  1.00  0.00    -0.744 OA
ENDBRANCH 100 101
ENDBRANCH  68  93
ENDBRANCH  42  43
ENDBRANCH  35  37
ENDBRANCH  34  35
ENDBRANCH  33  34
ENDBRANCH  32  33
ENDBRANCH  31  32
ENDBRANCH  30  31
ENDBRANCH   1  30
TORSDOF 23
ENDMDL
MODEL 3
REMARK VINA RESULT:     -11.1      2.269      6.761
REMARK SMILES Cc1ccnc(C(=O)c2[nH]c3cc(Cl)c(F)cc3c2CC(=O)OCCOCCOCCOC(=O)c2ccc(-c3c4nc(c(-c5c(F)cc(S(=O)(=O)[O-])cc5F)c5ccc([nH]5)c(-c5c(F)cc(S(=O)(=O)[O-])cc5F)c5nc(c(-c6c(F)cc(S(=O)(=O)[O-])cc6F)c6ccc3[nH]6)C=C5)C=C4)cc2)c1
REMARK SMILES IDX 27 1 26 2 25 3 24 4 23 5 21 6 22 7 20 8 19 9 9 10 10 11
REMARK SMILES IDX 11 12 18 14 12 15 17 16 13 17 15 18 14 19 16 20 7 21 8 22
REMARK SMILES IDX 6 23 1 24 2 25 3 26 101 27 4 28 5 29 28 30 29 31 30 32 31 33
REMARK SMILES IDX 32 34 33 35 34 36 35 37 36 38 100 39 37 40 99 41 38 42 39 43
REMARK SMILES IDX 40 44 93 45 41 46 98 47 92 48 94 49 42 50 97 51 91 52 90 53
REMARK SMILES IDX 43 55 77 56 56 57 76 58 57 59 60 60 75 61 95 62 58 63 59 64
REMARK SMILES IDX 74 66 96 67 61 68 44 69 45 70 54 71 46 72 47 73 53 74 55 75
REMARK SMILES IDX 48 76 49 77 50 78 51 79 52 80 78 81 79 82 88 83 80 84 81 85
REMARK SMILES IDX 87 86 89 87 82 88 83 89 84 90 85 91 86 92 62 93 63 94 72 95
REMARK SMILES IDX 64 96 65 97 71 98 73 99 66 100 67 101 68 102 69 103 70 104
REMARK H PARENT 10 13 94 54 60 65
REMARK Flexibility Score: inf
ROOT
ATOM      1  C   UNL A   1      37.937  22.603  25.522  1.00  0.00     0.188 C 
ENDROOT
BRANCH   1   2
ATOM      2  O   UNL A   1      37.471  23.244  24.331  1.00  0.00    -0.376 OA
BRANCH   2   3
ATOM      3  C   UNL A   1      36.168  22.701  23.920  1.00  0.00     0.202 C 
BRANCH   3   4
ATOM      4  C   UNL A   1      35.131  23.841  23.922  1.00  0.00     0.261 C 
BRANCH   4   5
ATOM      5  O   UNL A   1      34.614  24.087  22.590  1.00  0.00    -0.463 OA
BRANCH   5   6
ATOM      6  C   UNL A   1      33.337  23.706  22.437  1.00  0.00     0.310 C 
ATOM      7  O   UNL A   1      32.513  24.436  21.893  1.00  0.00    -0.252 OA
BRANCH   6   8
ATOM      8  C   UNL A   1      32.966  22.295  22.790  1.00  0.00     0.161 C 
BRANCH   8   9
ATOM      9  C   UNL A   1      32.557  21.584  24.050  1.00  0.00     0.000 A 
ATOM     10  C   UNL A   1      32.228  22.109  25.320  1.00  0.00     0.093 A 
ATOM     11  N   UNL A   1      32.458  20.991  26.171  1.00  0.00    -0.351 N 
ATOM     12  C   UNL A   1      32.580  19.801  25.532  1.00  0.00     0.048 A 
ATOM     13  H   UNL A   1      32.524  21.076  27.150  1.00  0.00     0.167 HD
ATOM     14  C   UNL A   1      32.719  20.131  24.195  1.00  0.00     0.007 A 
ATOM     15  C   UNL A   1      32.624  18.492  26.043  1.00  0.00     0.050 A 
ATOM     16  C   UNL A   1      33.015  19.072  23.308  1.00  0.00     0.051 A 
ATOM     17  C   UNL A   1      32.809  17.459  25.123  1.00  0.00     0.078 A 
ATOM     18  C   UNL A   1      33.023  17.752  23.780  1.00  0.00     0.142 A 
ATOM     19  Cl  UNL A   1      32.744  15.824  25.668  1.00  0.00    -0.081 Cl
ATOM     20  F   UNL A   1      33.217  16.760  22.897  1.00  0.00    -0.205 F 
BRANCH  10  21
ATOM     21  C   UNL A   1      31.783  23.329  26.128  1.00  0.00     0.227 C 
ATOM     22  O   UNL A   1      31.385  22.841  27.186  1.00  0.00    -0.285 OA
BRANCH  21  23
ATOM     23  C   UNL A   1      31.399  25.000  25.888  1.00  0.00     0.113 A 
ATOM     24  C   UNL A   1      31.873  28.443  27.511  1.00  0.00     0.044 C 
ATOM     25  C   UNL A   1      31.551  27.469  26.406  1.00  0.00    -0.047 A 
ATOM     26  C   UNL A   1      30.897  27.766  25.251  1.00  0.00     0.023 A 
ATOM     27  C   UNL A   1      31.910  26.126  26.581  1.00  0.00     0.036 A 
ATOM     28  C   UNL A   1      30.528  26.677  24.476  1.00  0.00     0.112 A 
ATOM     29  N   UNL A   1      30.692  25.340  24.800  1.00  0.00    -0.253 NA
ENDBRANCH  21  23
ENDBRANCH  10  21
ENDBRANCH   8   9
ENDBRANCH   6   8
ENDBRANCH   5   6
ENDBRANCH   4   5
ENDBRANCH   3   4
ENDBRANCH   2   3
ENDBRANCH   1   2
BRANCH   1  30
ATOM     30  C   UNL A   1      38.762  23.382  26.670  1.00  0.00     0.188 C 
BRANCH  30  31
ATOM     31  O   UNL A   1      39.834  22.813  27.499  1.00  0.00    -0.376 OA
BRANCH  31  32
ATOM     32  C   UNL A   1      40.594  21.573  27.326  1.00  0.00     0.202 C 
BRANCH  32  33
ATOM     33  C   UNL A   1      41.977  21.386  26.304  1.00  0.00     0.261 C 
BRANCH  33  34
ATOM     34  O   UNL A   1      42.275  22.224  25.047  1.00  0.00    -0.460 OA
BRANCH  34  35
ATOM     35  C   UNL A   1      43.432  22.983  24.806  1.00  0.00     0.338 C 
ATOM     36  O   UNL A   1      44.277  22.665  23.978  1.00  0.00    -0.246 OA
BRANCH  35  37
ATOM     37  C   UNL A   1      43.413  24.444  25.433  1.00  0.00     0.060 A 
ATOM     38  C   UNL A   1      44.513  25.292  25.550  1.00  0.00     0.016 A 
ATOM     39  C   UNL A   1      42.285  24.838  26.193  1.00  0.00     0.016 A 
ATOM     40  C   UNL A   1      44.580  26.297  26.574  1.00  0.00     0.010 A 
ATOM     41  C   UNL A   1      42.341  25.856  27.204  1.00  0.00     0.010 A 
ATOM     42  C   UNL A   1      43.514  26.569  27.465  1.00  0.00    -0.014 A 
BRANCH  42  43
ATOM     43  C   UNL A   1      43.554  27.811  28.337  1.00  0.00     0.031 A 
ATOM     44  C   UNL A   1      43.745  27.448  29.746  1.00  0.00     0.074 A 
ATOM     45  C   UNL A   1      43.562  29.161  28.138  1.00  0.00     0.049 A 
ATOM     46  N   UNL A   1      42.858  27.502  30.680  1.00  0.00    -0.248 NA
ATOM     47  C   UNL A   1      45.012  26.816  30.113  1.00  0.00     0.031 C 
ATOM     48  C   UNL A   1      43.402  29.806  26.862  1.00  0.00     0.029 A 
ATOM     49  N   UNL A   1      43.655  30.280  28.957  1.00  0.00    -0.354 N 
ATOM     50  C   UNL A   1      43.553  27.173  31.828  1.00  0.00     0.074 A 
ATOM     51  C   UNL A   1      44.783  26.551  31.399  1.00  0.00     0.031 C 
ATOM     52  C   UNL A   1      43.786  31.103  26.869  1.00  0.00     0.029 A 
ATOM     53  C   UNL A   1      43.880  31.490  28.266  1.00  0.00     0.049 A 
ATOM     54  H   UNL A   1      43.570  30.232  29.936  1.00  0.00     0.167 HD
ATOM     55  C   UNL A   1      43.224  27.745  33.014  1.00  0.00     0.037 A 
ATOM     56  C   UNL A   1      43.924  32.793  28.669  1.00  0.00     0.037 A 
ATOM     57  C   UNL A   1      41.894  28.304  33.003  1.00  0.00     0.049 A 
ATOM     58  C   UNL A   1      43.194  32.878  29.946  1.00  0.00     0.074 A 
ATOM     59  C   UNL A   1      40.623  27.822  32.763  1.00  0.00     0.029 A 
ATOM     60  N   UNL A   1      41.799  29.672  32.962  1.00  0.00    -0.354 N 
ATOM     61  N   UNL A   1      41.900  32.782  30.065  1.00  0.00    -0.248 NA
ATOM     62  C   UNL A   1      43.957  32.705  31.168  1.00  0.00     0.031 C 
ATOM     63  C   UNL A   1      39.882  28.918  32.232  1.00  0.00     0.029 A 
ATOM     64  C   UNL A   1      40.716  30.035  32.203  1.00  0.00     0.049 A 
ATOM     65  H   UNL A   1      42.414  30.297  33.410  1.00  0.00     0.167 HD
ATOM     66  C   UNL A   1      41.720  32.096  31.253  1.00  0.00     0.074 A 
ATOM     67  C   UNL A   1      43.001  32.195  31.945  1.00  0.00     0.031 C 
ATOM     68  C   UNL A   1      40.654  31.263  31.429  1.00  0.00     0.037 A 
BRANCH  55  69
ATOM     69  C   UNL A   1      44.275  28.166  34.011  1.00  0.00     0.058 A 
ATOM     70  C   UNL A   1      44.197  27.699  35.334  1.00  0.00     0.135 A 
ATOM     71  C   UNL A   1      45.196  29.217  33.783  1.00  0.00     0.135 A 
ATOM     72  F   UNL A   1      43.318  26.741  35.667  1.00  0.00    -0.206 F 
ATOM     73  C   UNL A   1      44.958  28.255  36.362  1.00  0.00     0.059 A 
ATOM     74  C   UNL A   1      46.011  29.738  34.776  1.00  0.00     0.059 A 
ATOM     75  F   UNL A   1      45.275  29.861  32.612  1.00  0.00    -0.206 F 
ATOM     76  C   UNL A   1      45.860  29.276  36.070  1.00  0.00     0.060 A 
BRANCH  76  77
ATOM     77  S   UNL A   1      46.783  30.045  37.410  1.00  0.00     0.124 S 
ATOM     78  O   UNL A   1      47.963  30.523  36.710  1.00  0.00    -0.237 OA
ATOM     79  O   UNL A   1      45.849  31.057  37.877  1.00  0.00    -0.237 OA
ATOM     80  O   UNL A   1      47.006  28.929  38.341  1.00  0.00    -0.744 OA
ENDBRANCH  76  77
ENDBRANCH  55  69
BRANCH  56  81
ATOM     81  C   UNL A   1      44.703  33.943  28.098  1.00  0.00     0.058 A 
ATOM     82  C   UNL A   1      44.121  34.874  27.207  1.00  0.00     0.135 A 
ATOM     83  C   UNL A   1      45.944  34.328  28.643  1.00  0.00     0.135 A 
ATOM     84  F   UNL A   1      42.955  34.599  26.601  1.00  0.00    -0.206 F 
ATOM     85  C   UNL A   1      44.672  36.145  26.977  1.00  0.00     0.059 A 
ATOM     86  C   UNL A   1      46.517  35.581  28.418  1.00  0.00     0.059 A 
ATOM     87  F   UNL A   1      46.604  33.532  29.496  1.00  0.00    -0.206 F 
ATOM     88  C   UNL A   1      45.851  36.505  27.626  1.00  0.00     0.060 A 
BRANCH  88  89
ATOM     89  S   UNL A   1      46.423  38.223  27.571  1.00  0.00     0.124 S 
ATOM     90  O   UNL A   1      47.604  38.184  28.426  1.00  0.00    -0.237 OA
ATOM     91  O   UNL A   1      46.674  38.418  26.147  1.00  0.00    -0.237 OA
ATOM     92  O   UNL A   1      45.290  38.974  28.105  1.00  0.00    -0.744 OA
ENDBRANCH  88  89
ENDBRANCH  56  81
BRANCH  68  93
ATOM     93  C   UNL A   1      39.401  31.504  30.622  1.00  0.00     0.058 A 
ATOM     94  C   UNL A   1      39.091  30.896  29.393  1.00  0.00     0.135 A 
ATOM     95  C   UNL A   1      38.402  32.301  31.211  1.00  0.00     0.135 A 
ATOM     96  F   UNL A   1      39.951  30.053  28.803  1.00  0.00    -0.206 F 
ATOM     97  C   UNL A   1      37.847  31.086  28.777  1.00  0.00     0.059 A 
ATOM     98  C   UNL A   1      37.147  32.474  30.633  1.00  0.00     0.059 A 
ATOM     99  F   UNL A   1      38.621  32.881  32.404  1.00  0.00    -0.206 F 
ATOM    100  C   UNL A   1      36.875  31.863  29.413  1.00  0.00     0.060 A 
BRANCH 100 101
ATOM    101  S   UNL A   1      35.227  31.996  28.681  1.00  0.00     0.124 S 
ATOM    102  O   UNL A   1      35.427  32.988  27.630  1.00  0.00    -0.237 OA
ATOM    103  O   UNL A   1      34.974  30.632  28.224  1.00  0.00    -0.237 OA
ATOM    104  O   UNL A   1      34.390  32.435  29.797  1.00  0.00    -0.744 OA
ENDBRANCH 100 101
ENDBRANCH  68  93
ENDBRANCH  42  43
ENDBRANCH  35  37
ENDBRANCH  34  35
ENDBRANCH  33  34
ENDBRANCH  32  33
ENDBRANCH  31  32
ENDBRANCH  30  31
ENDBRANCH   1  30
TORSDOF 23
ENDMDL
