MODEL 1
REMARK VINA RESULT:      -9.7      0.000      0.000
REMARK SMILES CC[C@H](C)[C@H](NC(=O)[C@@H]1CCC[NH2+]1)C(=O)OCCOCCOCCOC(=O)c1ccc(-c2c3nc(c(-c4c(F)cc(S(=O)(=O)[O-])cc4F)c4ccc([nH]4)c(-c4c(F)cc(S(=O)(=O)[O-])cc4F)c4nc(c(-c5c(F)cc(S(=O)(=O)[O-])cc5F)c5ccc2[nH]5)C=C4)C=C3)cc1
REMARK SMILES IDX 21 1 20 2 19 3 18 4 17 5 16 6 14 7 15 8 5 9 3 10 4 11 2 12
REMARK SMILES IDX 1 13 6 14 7 15 8 17 9 18 10 19 13 20 11 21 12 22 22 25 23 26
REMARK SMILES IDX 24 27 25 28 26 29 27 30 28 31 29 32 93 33 30 34 92 35 31 36
REMARK SMILES IDX 32 37 33 38 86 39 34 40 91 41 85 42 87 43 35 44 90 45 84 46
REMARK SMILES IDX 83 47 36 49 70 50 49 51 69 52 50 53 53 54 68 55 88 56 51 57
REMARK SMILES IDX 52 58 67 60 89 61 54 62 37 63 38 64 47 65 39 66 40 67 46 68
REMARK SMILES IDX 48 69 41 70 42 71 43 72 44 73 45 74 71 75 72 76 81 77 73 78
REMARK SMILES IDX 74 79 80 80 82 81 75 82 76 83 77 84 78 85 79 86 55 87 56 88
REMARK SMILES IDX 65 89 57 90 58 91 64 92 66 93 59 94 60 95 61 96 62 97 63 98
REMARK H PARENT 6 16 13 23 13 24 87 48 53 59
REMARK Flexibility Score: inf
ROOT
ATOM      1  C   UNL A   1      38.634  21.394  25.479  1.00  0.00     0.188 C 
ENDROOT
BRANCH   1   2
ATOM      2  C   UNL A   1      37.176  21.665  25.073  1.00  0.00     0.188 C 
BRANCH   2   3
ATOM      3  O   UNL A   1      36.594  22.768  25.767  1.00  0.00    -0.376 OA
BRANCH   3   4
ATOM      4  C   UNL A   1      36.152  23.844  24.938  1.00  0.00     0.202 C 
BRANCH   4   5
ATOM      5  C   UNL A   1      35.408  23.390  23.676  1.00  0.00     0.261 C 
BRANCH   5   6
ATOM      6  O   UNL A   1      34.738  24.479  23.009  1.00  0.00    -0.462 OA
BRANCH   6   7
ATOM      7  C   UNL A   1      33.554  24.143  22.417  1.00  0.00     0.328 C 
ATOM      8  O   UNL A   1      33.460  23.437  21.418  1.00  0.00    -0.250 OA
BRANCH   7   9
ATOM      9  C   UNL A   1      32.334  24.896  23.011  1.00  0.00     0.195 C 
BRANCH   9  10
ATOM     10  C   UNL A   1      31.365  23.829  23.590  1.00  0.00     0.019 C 
ATOM     11  C   UNL A   1      31.908  22.404  23.458  1.00  0.00     0.010 C 
BRANCH  10  12
ATOM     12  C   UNL A   1      30.854  24.128  25.015  1.00  0.00     0.002 C 
ATOM     13  C   UNL A   1      30.651  22.925  25.924  1.00  0.00     0.004 C 
ENDBRANCH  10  12
ENDBRANCH   9  10
BRANCH   9  14
ATOM     14  N   UNL A   1      31.651  25.891  22.177  1.00  0.00    -0.337 N 
ATOM     15  C   UNL A   1      31.267  27.151  22.575  1.00  0.00     0.278 C 
ATOM     16  H   UNL A   1      31.448  25.634  21.249  1.00  0.00     0.164 HD
ATOM     17  O   UNL A   1      30.438  27.753  21.896  1.00  0.00    -0.268 OA
BRANCH  15  18
ATOM     18  C   UNL A   1      31.987  27.726  23.793  1.00  0.00     0.272 C 
ATOM     19  C   UNL A   1      31.202  27.767  25.086  1.00  0.00     0.081 C 
ATOM     20  N   UNL A   1      32.406  29.115  23.631  1.00  0.00    -0.336 N 
ATOM     21  C   UNL A   1      31.862  28.878  25.883  1.00  0.00     0.068 C 
ATOM     22  C   UNL A   1      32.891  29.484  24.951  1.00  0.00     0.261 C 
ATOM     23  H   UNL A   1      31.619  29.704  23.354  1.00  0.00     0.346 HD
ATOM     24  H   UNL A   1      33.111  29.235  22.902  1.00  0.00     0.346 HD
ENDBRANCH  15  18
ENDBRANCH   9  14
ENDBRANCH   7   9
ENDBRANCH   6   7
ENDBRANCH   5   6
ENDBRANCH   4   5
ENDBRANCH   3   4
ENDBRANCH   2   3
ENDBRANCH   1   2
BRANCH   1  25
ATOM     25  O   UNL A   1      39.095  22.417  26.364  1.00  0.00    -0.376 OA
BRANCH  25  26
ATOM     26  C   UNL A   1      40.366  22.170  26.979  1.00  0.00     0.202 C 
BRANCH  26  27
ATOM     27  C   UNL A   1      41.605  22.647  26.206  1.00  0.00     0.261 C 
BRANCH  27  28
ATOM     28  O   UNL A   1      42.215  23.789  26.829  1.00  0.00    -0.460 OA
BRANCH  28  29
ATOM     29  C   UNL A   1      42.062  25.002  26.243  1.00  0.00     0.338 C 
ATOM     30  O   UNL A   1      42.143  25.265  25.057  1.00  0.00    -0.246 OA
BRANCH  29  31
ATOM     31  C   UNL A   1      41.761  25.970  27.324  1.00  0.00     0.060 A 
ATOM     32  C   UNL A   1      40.651  25.762  28.148  1.00  0.00     0.016 A 
ATOM     33  C   UNL A   1      42.651  27.019  27.593  1.00  0.00     0.016 A 
ATOM     34  C   UNL A   1      40.473  26.565  29.286  1.00  0.00     0.010 A 
ATOM     35  C   UNL A   1      42.453  27.840  28.712  1.00  0.00     0.010 A 
ATOM     36  C   UNL A   1      41.371  27.610  29.579  1.00  0.00    -0.014 A 
BRANCH  36  37
ATOM     37  C   UNL A   1      41.020  28.613  30.625  1.00  0.00     0.031 A 
ATOM     38  C   UNL A   1      41.881  28.615  31.853  1.00  0.00     0.074 A 
ATOM     39  C   UNL A   1      40.000  29.491  30.532  1.00  0.00     0.049 A 
ATOM     40  N   UNL A   1      41.812  29.375  32.912  1.00  0.00    -0.248 NA
ATOM     41  C   UNL A   1      42.944  27.597  31.898  1.00  0.00     0.031 C 
ATOM     42  C   UNL A   1      39.042  29.566  29.439  1.00  0.00     0.029 A 
ATOM     43  N   UNL A   1      39.602  30.505  31.377  1.00  0.00    -0.354 N 
ATOM     44  C   UNL A   1      42.822  28.925  33.750  1.00  0.00     0.074 A 
ATOM     45  C   UNL A   1      43.472  27.817  33.089  1.00  0.00     0.031 C 
ATOM     46  C   UNL A   1      38.228  30.622  29.623  1.00  0.00     0.029 A 
ATOM     47  C   UNL A   1      38.540  31.248  30.906  1.00  0.00     0.049 A 
ATOM     48  H   UNL A   1      40.039  30.684  32.241  1.00  0.00     0.167 HD
ATOM     49  C   UNL A   1      43.175  29.383  34.972  1.00  0.00     0.037 A 
ATOM     50  C   UNL A   1      37.876  32.288  31.457  1.00  0.00     0.037 A 
ATOM     51  C   UNL A   1      42.500  30.438  35.668  1.00  0.00     0.049 A 
ATOM     52  C   UNL A   1      38.261  32.751  32.845  1.00  0.00     0.074 A 
ATOM     53  C   UNL A   1      42.756  30.932  36.933  1.00  0.00     0.029 A 
ATOM     54  N   UNL A   1      41.422  31.151  35.166  1.00  0.00    -0.354 N 
ATOM     55  N   UNL A   1      39.233  32.327  33.618  1.00  0.00    -0.248 NA
ATOM     56  C   UNL A   1      37.435  33.807  33.453  1.00  0.00     0.031 C 
ATOM     57  C   UNL A   1      41.808  31.921  37.213  1.00  0.00     0.029 A 
ATOM     58  C   UNL A   1      40.994  32.075  36.102  1.00  0.00     0.049 A 
ATOM     59  H   UNL A   1      41.022  31.019  34.277  1.00  0.00     0.167 HD
ATOM     60  C   UNL A   1      39.143  33.072  34.790  1.00  0.00     0.074 A 
ATOM     61  C   UNL A   1      38.035  33.987  34.622  1.00  0.00     0.031 C 
ATOM     62  C   UNL A   1      39.902  32.997  35.911  1.00  0.00     0.037 A 
BRANCH  49  63
ATOM     63  C   UNL A   1      44.318  28.677  35.631  1.00  0.00     0.058 A 
ATOM     64  C   UNL A   1      44.101  27.598  36.502  1.00  0.00     0.135 A 
ATOM     65  C   UNL A   1      45.631  29.135  35.454  1.00  0.00     0.135 A 
ATOM     66  F   UNL A   1      42.856  27.154  36.733  1.00  0.00    -0.206 F 
ATOM     67  C   UNL A   1      45.149  27.018  37.205  1.00  0.00     0.059 A 
ATOM     68  C   UNL A   1      46.698  28.553  36.127  1.00  0.00     0.059 A 
ATOM     69  F   UNL A   1      45.881  30.179  34.647  1.00  0.00    -0.206 F 
ATOM     70  C   UNL A   1      46.442  27.509  37.017  1.00  0.00     0.060 A 
BRANCH  70  71
ATOM     71  S   UNL A   1      47.789  26.770  37.962  1.00  0.00     0.124 S 
ATOM     72  O   UNL A   1      48.540  26.089  36.912  1.00  0.00    -0.237 OA
ATOM     73  O   UNL A   1      48.437  27.938  38.549  1.00  0.00    -0.237 OA
ATOM     74  O   UNL A   1      47.100  25.899  38.908  1.00  0.00    -0.744 OA
ENDBRANCH  70  71
ENDBRANCH  49  63
BRANCH  50  75
ATOM     75  C   UNL A   1      36.740  32.953  30.747  1.00  0.00     0.058 A 
ATOM     76  C   UNL A   1      36.971  33.906  29.740  1.00  0.00     0.135 A 
ATOM     77  C   UNL A   1      35.406  32.706  31.104  1.00  0.00     0.135 A 
ATOM     78  F   UNL A   1      38.228  34.203  29.374  1.00  0.00    -0.206 F 
ATOM     79  C   UNL A   1      35.928  34.603  29.132  1.00  0.00     0.059 A 
ATOM     80  C   UNL A   1      34.344  33.367  30.491  1.00  0.00     0.059 A 
ATOM     81  F   UNL A   1      35.121  31.809  32.061  1.00  0.00    -0.206 F 
ATOM     82  C   UNL A   1      34.615  34.327  29.517  1.00  0.00     0.060 A 
BRANCH  82  83
ATOM     83  S   UNL A   1      33.263  35.214  28.710  1.00  0.00     0.124 S 
ATOM     84  O   UNL A   1      33.981  36.273  28.011  1.00  0.00    -0.237 OA
ATOM     85  O   UNL A   1      32.673  34.179  27.868  1.00  0.00    -0.237 OA
ATOM     86  O   UNL A   1      32.432  35.647  29.830  1.00  0.00    -0.744 OA
ENDBRANCH  82  83
ENDBRANCH  50  75
BRANCH  62  87
ATOM     87  C   UNL A   1      39.605  33.953  37.033  1.00  0.00     0.058 A 
ATOM     88  C   UNL A   1      38.908  33.552  38.182  1.00  0.00     0.135 A 
ATOM     89  C   UNL A   1      40.111  35.263  36.995  1.00  0.00     0.135 A 
ATOM     90  F   UNL A   1      38.401  32.311  38.267  1.00  0.00    -0.206 F 
ATOM     91  C   UNL A   1      38.717  34.419  39.254  1.00  0.00     0.059 A 
ATOM     92  C   UNL A   1      39.953  36.138  38.064  1.00  0.00     0.059 A 
ATOM     93  F   UNL A   1      40.796  35.692  35.923  1.00  0.00    -0.206 F 
ATOM     94  C   UNL A   1      39.249  35.708  39.188  1.00  0.00     0.060 A 
BRANCH  94  95
ATOM     95  S   UNL A   1      39.049  36.805  40.609  1.00  0.00     0.124 S 
ATOM     96  O   UNL A   1      38.653  38.053  39.965  1.00  0.00    -0.237 OA
ATOM     97  O   UNL A   1      38.009  36.132  41.381  1.00  0.00    -0.237 OA
ATOM     98  O   UNL A   1      40.374  36.809  41.224  1.00  0.00    -0.744 OA
ENDBRANCH  94  95
ENDBRANCH  62  87
ENDBRANCH  36  37
ENDBRANCH  29  31
ENDBRANCH  28  29
ENDBRANCH  27  28
ENDBRANCH  26  27
ENDBRANCH  25  26
ENDBRANCH   1  25
TORSDOF 24
ENDMDL
MODEL 2
REMARK VINA RESULT:      -9.5      2.513      9.016
REMARK SMILES CC[C@H](C)[C@H](NC(=O)[C@@H]1CCC[NH2+]1)C(=O)OCCOCCOCCOC(=O)c1ccc(-c2c3nc(c(-c4c(F)cc(S(=O)(=O)[O-])cc4F)c4ccc([nH]4)c(-c4c(F)cc(S(=O)(=O)[O-])cc4F)c4nc(c(-c5c(F)cc(S(=O)(=O)[O-])cc5F)c5ccc2[nH]5)C=C4)C=C3)cc1
REMARK SMILES IDX 21 1 20 2 19 3 18 4 17 5 16 6 14 7 15 8 5 9 3 10 4 11 2 12
REMARK SMILES IDX 1 13 6 14 7 15 8 17 9 18 10 19 13 20 11 21 12 22 22 25 23 26
REMARK SMILES IDX 24 27 25 28 26 29 27 30 28 31 29 32 93 33 30 34 92 35 31 36
REMARK SMILES IDX 32 37 33 38 86 39 34 40 91 41 85 42 87 43 35 44 90 45 84 46
REMARK SMILES IDX 83 47 36 49 70 50 49 51 69 52 50 53 53 54 68 55 88 56 51 57
REMARK SMILES IDX 52 58 67 60 89 61 54 62 37 63 38 64 47 65 39 66 40 67 46 68
REMARK SMILES IDX 48 69 41 70 42 71 43 72 44 73 45 74 71 75 72 76 81 77 73 78
REMARK SMILES IDX 74 79 80 80 82 81 75 82 76 83 77 84 78 85 79 86 55 87 56 88
REMARK SMILES IDX 65 89 57 90 58 91 64 92 66 93 59 94 60 95 61 96 62 97 63 98
REMARK H PARENT 6 16 13 23 13 24 87 48 53 59
REMARK Flexibility Score: inf
ROOT
ATOM      1  C   UNL A   1      35.613  33.447  28.588  1.00  0.00     0.188 C 
ENDROOT
BRANCH   1   2
ATOM      2  C   UNL A   1      35.939  32.060  28.010  1.00  0.00     0.188 C 
BRANCH   2   3
ATOM      3  O   UNL A   1      34.790  31.226  27.863  1.00  0.00    -0.376 OA
BRANCH   3   4
ATOM      4  C   UNL A   1      35.020  29.984  27.195  1.00  0.00     0.202 C 
BRANCH   4   5
ATOM      5  C   UNL A   1      33.946  28.925  27.466  1.00  0.00     0.261 C 
BRANCH   5   6
ATOM      6  O   UNL A   1      32.623  29.377  27.114  1.00  0.00    -0.462 OA
BRANCH   6   7
ATOM      7  C   UNL A   1      31.678  28.393  27.065  1.00  0.00     0.328 C 
ATOM      8  O   UNL A   1      31.035  28.007  28.037  1.00  0.00    -0.250 OA
BRANCH   7   9
ATOM      9  C   UNL A   1      31.620  27.663  25.696  1.00  0.00     0.195 C 
BRANCH   9  10
ATOM     10  C   UNL A   1      32.026  26.184  25.940  1.00  0.00     0.019 C 
ATOM     11  C   UNL A   1      31.002  25.191  25.384  1.00  0.00     0.010 C 
BRANCH  10  12
ATOM     12  C   UNL A   1      33.467  25.833  25.514  1.00  0.00     0.002 C 
ATOM     13  C   UNL A   1      33.673  24.455  24.904  1.00  0.00     0.004 C 
ENDBRANCH  10  12
ENDBRANCH   9  10
BRANCH   9  14
ATOM     14  N   UNL A   1      32.315  28.262  24.552  1.00  0.00    -0.337 N 
ATOM     15  C   UNL A   1      31.717  28.796  23.433  1.00  0.00     0.278 C 
ATOM     16  H   UNL A   1      33.298  28.285  24.587  1.00  0.00     0.164 HD
ATOM     17  O   UNL A   1      32.403  28.970  22.429  1.00  0.00    -0.268 OA
BRANCH  15  18
ATOM     18  C   UNL A   1      30.254  29.208  23.578  1.00  0.00     0.272 C 
ATOM     19  C   UNL A   1      29.221  28.242  23.039  1.00  0.00     0.081 C 
ATOM     20  N   UNL A   1      29.919  30.450  22.887  1.00  0.00    -0.336 N 
ATOM     21  C   UNL A   1      28.015  29.116  22.748  1.00  0.00     0.068 C 
ATOM     22  C   UNL A   1      28.473  30.535  23.015  1.00  0.00     0.261 C 
ATOM     23  H   UNL A   1      30.196  30.408  21.906  1.00  0.00     0.346 HD
ATOM     24  H   UNL A   1      30.399  31.263  23.276  1.00  0.00     0.346 HD
ENDBRANCH  15  18
ENDBRANCH   9  14
ENDBRANCH   7   9
ENDBRANCH   6   7
ENDBRANCH   5   6
ENDBRANCH   4   5
ENDBRANCH   3   4
ENDBRANCH   2   3
ENDBRANCH   1   2
BRANCH   1  25
ATOM     25  O   UNL A   1      34.611  34.086  27.793  1.00  0.00    -0.376 OA
BRANCH  25  26
ATOM     26  C   UNL A   1      34.167  35.361  28.273  1.00  0.00     0.202 C 
BRANCH  26  27
ATOM     27  C   UNL A   1      32.895  35.364  29.133  1.00  0.00     0.261 C 
BRANCH  27  28
ATOM     28  O   UNL A   1      33.060  36.146  30.327  1.00  0.00    -0.460 OA
BRANCH  28  29
ATOM     29  C   UNL A   1      32.791  35.564  31.522  1.00  0.00     0.338 C 
ATOM     30  O   UNL A   1      31.761  35.642  32.167  1.00  0.00    -0.246 OA
BRANCH  29  31
ATOM     31  C   UNL A   1      33.995  34.791  31.908  1.00  0.00     0.060 A 
ATOM     32  C   UNL A   1      35.254  35.394  31.841  1.00  0.00     0.016 A 
ATOM     33  C   UNL A   1      33.858  33.504  32.447  1.00  0.00     0.016 A 
ATOM     34  C   UNL A   1      36.368  34.734  32.383  1.00  0.00     0.010 A 
ATOM     35  C   UNL A   1      34.979  32.834  32.960  1.00  0.00     0.010 A 
ATOM     36  C   UNL A   1      36.242  33.450  32.948  1.00  0.00    -0.014 A 
BRANCH  36  37
ATOM     37  C   UNL A   1      37.465  32.661  33.268  1.00  0.00     0.031 A 
ATOM     38  C   UNL A   1      38.113  32.952  34.588  1.00  0.00     0.074 A 
ATOM     39  C   UNL A   1      38.007  31.728  32.457  1.00  0.00     0.049 A 
ATOM     40  N   UNL A   1      39.176  32.418  35.126  1.00  0.00    -0.248 NA
ATOM     41  C   UNL A   1      37.488  34.015  35.393  1.00  0.00     0.031 C 
ATOM     42  C   UNL A   1      37.534  31.381  31.125  1.00  0.00     0.029 A 
ATOM     43  N   UNL A   1      39.082  30.884  32.645  1.00  0.00    -0.354 N 
ATOM     44  C   UNL A   1      39.347  33.082  36.332  1.00  0.00     0.074 A 
ATOM     45  C   UNL A   1      38.296  34.068  36.437  1.00  0.00     0.031 C 
ATOM     46  C   UNL A   1      38.245  30.342  30.649  1.00  0.00     0.029 A 
ATOM     47  C   UNL A   1      39.298  30.004  31.605  1.00  0.00     0.049 A 
ATOM     48  H   UNL A   1      39.646  30.907  33.452  1.00  0.00     0.167 HD
ATOM     49  C   UNL A   1      40.302  32.900  37.271  1.00  0.00     0.037 A 
ATOM     50  C   UNL A   1      40.250  29.062  31.427  1.00  0.00     0.037 A 
ATOM     51  C   UNL A   1      41.387  31.970  37.153  1.00  0.00     0.049 A 
ATOM     52  C   UNL A   1      41.334  28.910  32.472  1.00  0.00     0.074 A 
ATOM     53  C   UNL A   1      42.431  31.756  38.032  1.00  0.00     0.029 A 
ATOM     54  N   UNL A   1      41.578  31.114  36.080  1.00  0.00    -0.354 N 
ATOM     55  N   UNL A   1      41.471  29.533  33.618  1.00  0.00    -0.248 NA
ATOM     56  C   UNL A   1      42.415  27.954  32.181  1.00  0.00     0.031 C 
ATOM     57  C   UNL A   1      43.279  30.794  37.473  1.00  0.00     0.029 A 
ATOM     58  C   UNL A   1      42.733  30.375  36.270  1.00  0.00     0.049 A 
ATOM     59  H   UNL A   1      40.983  31.042  35.300  1.00  0.00     0.167 HD
ATOM     60  C   UNL A   1      42.639  29.035  34.188  1.00  0.00     0.074 A 
ATOM     61  C   UNL A   1      43.164  28.046  33.272  1.00  0.00     0.031 C 
ATOM     62  C   UNL A   1      43.231  29.375  35.359  1.00  0.00     0.037 A 
BRANCH  49  63
ATOM     63  C   UNL A   1      40.216  33.784  38.474  1.00  0.00     0.058 A 
ATOM     64  C   UNL A   1      41.037  34.915  38.606  1.00  0.00     0.135 A 
ATOM     65  C   UNL A   1      39.365  33.454  39.538  1.00  0.00     0.135 A 
ATOM     66  F   UNL A   1      41.897  35.244  37.629  1.00  0.00    -0.206 F 
ATOM     67  C   UNL A   1      41.043  35.670  39.772  1.00  0.00     0.059 A 
ATOM     68  C   UNL A   1      39.335  34.210  40.703  1.00  0.00     0.059 A 
ATOM     69  F   UNL A   1      38.578  32.369  39.464  1.00  0.00    -0.206 F 
ATOM     70  C   UNL A   1      40.194  35.304  40.817  1.00  0.00     0.060 A 
BRANCH  70  71
ATOM     71  S   UNL A   1      40.236  36.272  42.339  1.00  0.00     0.124 S 
ATOM     72  O   UNL A   1      38.960  35.910  42.947  1.00  0.00    -0.237 OA
ATOM     73  O   UNL A   1      41.426  35.755  43.006  1.00  0.00    -0.237 OA
ATOM     74  O   UNL A   1      40.337  37.647  41.861  1.00  0.00    -0.744 OA
ENDBRANCH  70  71
ENDBRANCH  49  63
BRANCH  50  75
ATOM     75  C   UNL A   1      40.282  28.207  30.201  1.00  0.00     0.058 A 
ATOM     76  C   UNL A   1      39.461  27.072  30.084  1.00  0.00     0.135 A 
ATOM     77  C   UNL A   1      41.180  28.461  29.153  1.00  0.00     0.135 A 
ATOM     78  F   UNL A   1      38.600  26.763  31.067  1.00  0.00    -0.206 F 
ATOM     79  C   UNL A   1      39.544  26.212  28.990  1.00  0.00     0.059 A 
ATOM     80  C   UNL A   1      41.261  27.634  28.034  1.00  0.00     0.059 A 
ATOM     81  F   UNL A   1      41.992  29.528  29.207  1.00  0.00    -0.206 F 
ATOM     82  C   UNL A   1      40.450  26.502  27.970  1.00  0.00     0.060 A 
BRANCH  82  83
ATOM     83  S   UNL A   1      40.538  25.399  26.540  1.00  0.00     0.124 S 
ATOM     84  O   UNL A   1      40.875  26.329  25.470  1.00  0.00    -0.237 OA
ATOM     85  O   UNL A   1      41.591  24.468  26.933  1.00  0.00    -0.237 OA
ATOM     86  O   UNL A   1      39.197  24.823  26.479  1.00  0.00    -0.744 OA
ENDBRANCH  82  83
ENDBRANCH  50  75
BRANCH  62  87
ATOM     87  C   UNL A   1      44.488  28.650  35.754  1.00  0.00     0.058 A 
ATOM     88  C   UNL A   1      45.760  29.138  35.421  1.00  0.00     0.135 A 
ATOM     89  C   UNL A   1      44.414  27.503  36.561  1.00  0.00     0.135 A 
ATOM     90  F   UNL A   1      45.885  30.229  34.649  1.00  0.00    -0.206 F 
ATOM     91  C   UNL A   1      46.918  28.509  35.868  1.00  0.00     0.059 A 
ATOM     92  C   UNL A   1      45.558  26.872  37.040  1.00  0.00     0.059 A 
ATOM     93  F   UNL A   1      43.221  27.003  36.918  1.00  0.00    -0.206 F 
ATOM     94  C   UNL A   1      46.806  27.379  36.682  1.00  0.00     0.060 A 
BRANCH  94  95
ATOM     95  S   UNL A   1      48.314  26.607  37.309  1.00  0.00     0.124 S 
ATOM     96  O   UNL A   1      49.216  27.750  37.397  1.00  0.00    -0.237 OA
ATOM     97  O   UNL A   1      47.873  26.047  38.584  1.00  0.00    -0.237 OA
ATOM     98  O   UNL A   1      48.644  25.623  36.282  1.00  0.00    -0.744 OA
ENDBRANCH  94  95
ENDBRANCH  62  87
ENDBRANCH  36  37
ENDBRANCH  29  31
ENDBRANCH  28  29
ENDBRANCH  27  28
ENDBRANCH  26  27
ENDBRANCH  25  26
ENDBRANCH   1  25
TORSDOF 24
ENDMDL
MODEL 3
REMARK VINA RESULT:      -9.5      2.426      8.696
REMARK SMILES CC[C@H](C)[C@H](NC(=O)[C@@H]1CCC[NH2+]1)C(=O)OCCOCCOCCOC(=O)c1ccc(-c2c3nc(c(-c4c(F)cc(S(=O)(=O)[O-])cc4F)c4ccc([nH]4)c(-c4c(F)cc(S(=O)(=O)[O-])cc4F)c4nc(c(-c5c(F)cc(S(=O)(=O)[O-])cc5F)c5ccc2[nH]5)C=C4)C=C3)cc1
REMARK SMILES IDX 21 1 20 2 19 3 18 4 17 5 16 6 14 7 15 8 5 9 3 10 4 11 2 12
REMARK SMILES IDX 1 13 6 14 7 15 8 17 9 18 10 19 13 20 11 21 12 22 22 25 23 26
REMARK SMILES IDX 24 27 25 28 26 29 27 30 28 31 29 32 93 33 30 34 92 35 31 36
REMARK SMILES IDX 32 37 33 38 86 39 34 40 91 41 85 42 87 43 35 44 90 45 84 46
REMARK SMILES IDX 83 47 36 49 70 50 49 51 69 52 50 53 53 54 68 55 88 56 51 57
REMARK SMILES IDX 52 58 67 60 89 61 54 62 37 63 38 64 47 65 39 66 40 67 46 68
REMARK SMILES IDX 48 69 41 70 42 71 43 72 44 73 45 74 71 75 72 76 81 77 73 78
REMARK SMILES IDX 74 79 80 80 82 81 75 82 76 83 77 84 78 85 79 86 55 87 56 88
REMARK SMILES IDX 65 89 57 90 58 91 64 92 66 93 59 94 60 95 61 96 62 97 63 98
REMARK H PARENT 6 16 13 23 13 24 87 48 53 59
REMARK Flexibility Score: inf
ROOT
ATOM      1  C   UNL A   1      32.907  29.011  27.208  1.00  0.00     0.188 C 
ENDROOT
BRANCH   1   2
ATOM      2  C   UNL A   1      31.778  28.062  26.776  1.00  0.00     0.188 C 
BRANCH   2   3
ATOM      3  O   UNL A   1      31.679  27.909  25.361  1.00  0.00    -0.376 OA
BRANCH   3   4
ATOM      4  C   UNL A   1      30.759  26.910  24.919  1.00  0.00     0.202 C 
BRANCH   4   5
ATOM      5  C   UNL A   1      30.291  25.963  26.030  1.00  0.00     0.261 C 
BRANCH   5   6
ATOM      6  O   UNL A   1      30.045  24.626  25.548  1.00  0.00    -0.462 OA
BRANCH   6   7
ATOM      7  C   UNL A   1      30.550  23.633  26.338  1.00  0.00     0.328 C 
ATOM      8  O   UNL A   1      30.086  23.321  27.431  1.00  0.00    -0.250 OA
BRANCH   7   9
ATOM      9  C   UNL A   1      31.891  23.052  25.816  1.00  0.00     0.195 C 
BRANCH   9  10
ATOM     10  C   UNL A   1      33.033  23.693  26.653  1.00  0.00     0.019 C 
ATOM     11  C   UNL A   1      33.893  22.651  27.374  1.00  0.00     0.010 C 
BRANCH  10  12
ATOM     12  C   UNL A   1      33.888  24.728  25.893  1.00  0.00     0.002 C 
ATOM     13  C   UNL A   1      35.272  24.270  25.460  1.00  0.00     0.004 C 
ENDBRANCH  10  12
ENDBRANCH   9  10
BRANCH   9  14
ATOM     14  N   UNL A   1      32.157  23.087  24.375  1.00  0.00    -0.337 N 
ATOM     15  C   UNL A   1      32.829  22.127  23.654  1.00  0.00     0.278 C 
ATOM     16  H   UNL A   1      31.824  23.868  23.877  1.00  0.00     0.164 HD
ATOM     17  O   UNL A   1      33.254  22.421  22.539  1.00  0.00    -0.268 OA
BRANCH  15  18
ATOM     18  C   UNL A   1      32.907  20.738  24.284  1.00  0.00     0.272 C 
ATOM     19  C   UNL A   1      34.293  20.201  24.570  1.00  0.00     0.081 C 
ATOM     20  N   UNL A   1      32.321  19.683  23.463  1.00  0.00    -0.336 N 
ATOM     21  C   UNL A   1      34.111  18.694  24.578  1.00  0.00     0.068 C 
ATOM     22  C   UNL A   1      32.670  18.462  24.172  1.00  0.00     0.261 C 
ATOM     23  H   UNL A   1      32.720  19.686  22.524  1.00  0.00     0.346 HD
ATOM     24  H   UNL A   1      31.314  19.792  23.336  1.00  0.00     0.346 HD
ENDBRANCH  15  18
ENDBRANCH   9  14
ENDBRANCH   7   9
ENDBRANCH   6   7
ENDBRANCH   5   6
ENDBRANCH   4   5
ENDBRANCH   3   4
ENDBRANCH   2   3
ENDBRANCH   1   2
BRANCH   1  25
ATOM     25  O   UNL A   1      32.933  30.161  26.359  1.00  0.00    -0.376 OA
BRANCH  25  26
ATOM     26  C   UNL A   1      32.448  31.373  26.951  1.00  0.00     0.202 C 
BRANCH  26  27
ATOM     27  C   UNL A   1      33.487  32.246  27.670  1.00  0.00     0.261 C 
BRANCH  27  28
ATOM     28  O   UNL A   1      33.212  33.646  27.507  1.00  0.00    -0.460 OA
BRANCH  28  29
ATOM     29  C   UNL A   1      33.299  34.453  28.594  1.00  0.00     0.338 C 
ATOM     30  O   UNL A   1      32.584  35.399  28.870  1.00  0.00    -0.246 OA
BRANCH  29  31
ATOM     31  C   UNL A   1      34.436  33.962  29.407  1.00  0.00     0.060 A 
ATOM     32  C   UNL A   1      34.209  33.026  30.419  1.00  0.00     0.016 A 
ATOM     33  C   UNL A   1      35.746  34.346  29.083  1.00  0.00     0.016 A 
ATOM     34  C   UNL A   1      35.301  32.420  31.061  1.00  0.00     0.010 A 
ATOM     35  C   UNL A   1      36.833  33.761  29.747  1.00  0.00     0.010 A 
ATOM     36  C   UNL A   1      36.622  32.780  30.731  1.00  0.00    -0.014 A 
BRANCH  36  37
ATOM     37  C   UNL A   1      37.747  32.331  31.599  1.00  0.00     0.031 A 
ATOM     38  C   UNL A   1      38.613  31.239  31.048  1.00  0.00     0.074 A 
ATOM     39  C   UNL A   1      38.021  32.839  32.820  1.00  0.00     0.049 A 
ATOM     40  N   UNL A   1      39.658  30.661  31.577  1.00  0.00    -0.248 NA
ATOM     41  C   UNL A   1      38.221  30.708  29.731  1.00  0.00     0.031 C 
ATOM     42  C   UNL A   1      37.238  33.851  33.514  1.00  0.00     0.029 A 
ATOM     43  N   UNL A   1      39.051  32.574  33.696  1.00  0.00    -0.354 N 
ATOM     44  C   UNL A   1      40.047  29.698  30.658  1.00  0.00     0.074 A 
ATOM     45  C   UNL A   1      39.117  29.753  29.552  1.00  0.00     0.031 C 
ATOM     46  C   UNL A   1      37.856  34.193  34.659  1.00  0.00     0.029 A 
ATOM     47  C   UNL A   1      39.037  33.351  34.836  1.00  0.00     0.049 A 
ATOM     48  H   UNL A   1      39.738  31.889  33.524  1.00  0.00     0.167 HD
ATOM     49  C   UNL A   1      41.080  28.831  30.727  1.00  0.00     0.037 A 
ATOM     50  C   UNL A   1      39.859  33.361  35.909  1.00  0.00     0.037 A 
ATOM     51  C   UNL A   1      41.972  28.720  31.843  1.00  0.00     0.049 A 
ATOM     52  C   UNL A   1      40.980  32.348  35.983  1.00  0.00     0.074 A 
ATOM     53  C   UNL A   1      43.015  27.832  32.022  1.00  0.00     0.029 A 
ATOM     54  N   UNL A   1      41.913  29.511  32.980  1.00  0.00    -0.354 N 
ATOM     55  N   UNL A   1      41.348  31.455  35.095  1.00  0.00    -0.248 NA
ATOM     56  C   UNL A   1      41.775  32.318  37.222  1.00  0.00     0.031 C 
ATOM     57  C   UNL A   1      43.567  28.060  33.287  1.00  0.00     0.029 A 
ATOM     58  C   UNL A   1      42.898  29.123  33.872  1.00  0.00     0.049 A 
ATOM     59  H   UNL A   1      41.268  30.238  33.131  1.00  0.00     0.167 HD
ATOM     60  C   UNL A   1      42.420  30.772  35.660  1.00  0.00     0.074 A 
ATOM     61  C   UNL A   1      42.657  31.363  36.959  1.00  0.00     0.031 C 
ATOM     62  C   UNL A   1      43.137  29.738  35.154  1.00  0.00     0.037 A 
BRANCH  49  63
ATOM     63  C   UNL A   1      41.237  27.904  29.563  1.00  0.00     0.058 A 
ATOM     64  C   UNL A   1      40.364  26.821  29.372  1.00  0.00     0.135 A 
ATOM     65  C   UNL A   1      42.316  28.052  28.679  1.00  0.00     0.135 A 
ATOM     66  F   UNL A   1      39.343  26.618  30.219  1.00  0.00    -0.206 F 
ATOM     67  C   UNL A   1      40.577  25.892  28.362  1.00  0.00     0.059 A 
ATOM     68  C   UNL A   1      42.533  27.149  27.645  1.00  0.00     0.059 A 
ATOM     69  F   UNL A   1      43.188  29.060  28.838  1.00  0.00    -0.206 F 
ATOM     70  C   UNL A   1      41.670  26.061  27.509  1.00  0.00     0.060 A 
BRANCH  70  71
ATOM     71  S   UNL A   1      41.956  24.830  26.222  1.00  0.00     0.124 S 
ATOM     72  O   UNL A   1      43.262  24.307  26.607  1.00  0.00    -0.237 OA
ATOM     73  O   UNL A   1      40.829  23.921  26.403  1.00  0.00    -0.237 OA
ATOM     74  O   UNL A   1      41.930  25.616  24.992  1.00  0.00    -0.744 OA
ENDBRANCH  70  71
ENDBRANCH  49  63
BRANCH  50  75
ATOM     75  C   UNL A   1      39.649  34.314  37.042  1.00  0.00     0.058 A 
ATOM     76  C   UNL A   1      40.239  35.589  37.038  1.00  0.00     0.135 A 
ATOM     77  C   UNL A   1      38.918  33.948  38.183  1.00  0.00     0.135 A 
ATOM     78  F   UNL A   1      40.973  35.985  35.985  1.00  0.00    -0.206 F 
ATOM     79  C   UNL A   1      40.132  36.455  38.126  1.00  0.00     0.059 A 
ATOM     80  C   UNL A   1      38.770  34.806  39.271  1.00  0.00     0.059 A 
ATOM     81  F   UNL A   1      38.333  32.742  38.248  1.00  0.00    -0.206 F 
ATOM     82  C   UNL A   1      39.395  36.051  39.240  1.00  0.00     0.060 A 
BRANCH  82  83
ATOM     83  S   UNL A   1      39.237  37.185  40.639  1.00  0.00     0.124 S 
ATOM     84  O   UNL A   1      40.606  37.664  40.788  1.00  0.00    -0.237 OA
ATOM     85  O   UNL A   1      38.271  38.158  40.141  1.00  0.00    -0.237 OA
ATOM     86  O   UNL A   1      38.748  36.324  41.714  1.00  0.00    -0.744 OA
ENDBRANCH  82  83
ENDBRANCH  50  75
BRANCH  62  87
ATOM     87  C   UNL A   1      44.278  29.200  35.972  1.00  0.00     0.058 A 
ATOM     88  C   UNL A   1      44.126  28.087  36.813  1.00  0.00     0.135 A 
ATOM     89  C   UNL A   1      45.563  29.749  35.835  1.00  0.00     0.135 A 
ATOM     90  F   UNL A   1      42.918  27.527  36.981  1.00  0.00    -0.206 F 
ATOM     91  C   UNL A   1      45.209  27.542  37.497  1.00  0.00     0.059 A 
ATOM     92  C   UNL A   1      46.664  29.205  36.489  1.00  0.00     0.059 A 
ATOM     93  F   UNL A   1      45.765  30.807  35.033  1.00  0.00    -0.206 F 
ATOM     94  C   UNL A   1      46.475  28.104  37.323  1.00  0.00     0.060 A 
BRANCH  94  95
ATOM     95  S   UNL A   1      47.884  27.351  38.165  1.00  0.00     0.124 S 
ATOM     96  O   UNL A   1      47.303  26.105  38.654  1.00  0.00    -0.237 OA
ATOM     97  O   UNL A   1      48.859  27.215  37.086  1.00  0.00    -0.237 OA
ATOM     98  O   UNL A   1      48.229  28.329  39.193  1.00  0.00    -0.744 OA
ENDBRANCH  94  95
ENDBRANCH  62  87
ENDBRANCH  36  37
ENDBRANCH  29  31
ENDBRANCH  28  29
ENDBRANCH  27  28
ENDBRANCH  26  27
ENDBRANCH  25  26
ENDBRANCH   1  25
TORSDOF 24
ENDMDL
