MODEL 1
REMARK VINA RESULT:     -11.4      0.000      0.000
REMARK SMILES Cc1ccc(C)c(S(=O)(=O)N[C@H](CC2=c3ccccc3=NC2)C(=O)OCCOCCOCCOC(=O)c2ccc(-c3c4nc(c(-c5c(F)cc(S(=O)(=O)[O-])cc5F)c5ccc([nH]5)c(-c5c(F)cc(S(=O)(=O)[O-])cc5F)c5nc(c(-c6c(F)cc(S(=O)(=O)[O-])cc6F)c6ccc3[nH]6)C=C5)C=C4)cc2)c1
REMARK SMILES IDX 29 1 28 2 27 3 26 4 25 5 23 6 24 7 12 8 11 9 8 11 9 12 10 13
REMARK SMILES IDX 7 14 1 15 2 16 3 17 103 18 4 19 5 20 6 21 13 22 14 23 15 24
REMARK SMILES IDX 22 25 16 26 20 27 21 28 17 29 19 30 18 31 30 32 31 33 32 34
REMARK SMILES IDX 33 35 34 36 35 37 36 38 37 39 38 40 102 41 39 42 101 43
REMARK SMILES IDX 40 44 41 45 42 46 95 47 43 48 100 49 94 50 96 51 44 52 99 53
REMARK SMILES IDX 93 54 92 55 45 57 79 58 58 59 78 60 59 61 62 62 77 63 97 64
REMARK SMILES IDX 60 65 61 66 76 68 98 69 63 70 46 71 47 72 56 73 48 74 49 75
REMARK SMILES IDX 55 76 57 77 50 78 51 79 52 80 53 81 54 82 80 83 81 84 90 85
REMARK SMILES IDX 82 86 83 87 89 88 91 89 84 90 85 91 86 92 87 93 88 94 64 95
REMARK SMILES IDX 65 96 74 97 66 98 67 99 73 100 75 101 68 102 69 103 70 104
REMARK SMILES IDX 71 105 72 106
REMARK H PARENT 11 10 96 56 62 67
REMARK Flexibility Score: inf
ROOT
ATOM      1  C   UNL A   1      29.690  27.599  24.035  1.00  0.00     0.188 C 
ENDROOT
BRANCH   1   2
ATOM      2  O   UNL A   1      28.833  26.549  23.625  1.00  0.00    -0.376 OA
BRANCH   2   3
ATOM      3  C   UNL A   1      29.458  25.405  23.047  1.00  0.00     0.202 C 
BRANCH   3   4
ATOM      4  C   UNL A   1      30.425  24.513  23.899  1.00  0.00     0.261 C 
BRANCH   4   5
ATOM      5  O   UNL A   1      31.863  24.565  23.547  1.00  0.00    -0.462 OA
BRANCH   5   6
ATOM      6  C   UNL A   1      32.884  25.022  24.363  1.00  0.00     0.324 C 
ATOM      7  O   UNL A   1      32.630  25.888  25.198  1.00  0.00    -0.250 OA
BRANCH   6   8
ATOM      8  C   UNL A   1      34.249  24.101  24.528  1.00  0.00     0.183 C 
BRANCH   8   9
ATOM      9  N   UNL A   1      34.079  22.608  24.251  1.00  0.00    -0.197 NA
ATOM     10  H   UNL A   1      33.557  22.563  23.377  1.00  0.00     0.142 HD
BRANCH   9  11
ATOM     11  S   UNL A   1      33.356  21.460  25.238  1.00  0.00     0.241 S 
ATOM     12  O   UNL A   1      32.053  21.959  25.599  1.00  0.00    -0.207 OA
ATOM     13  O   UNL A   1      34.345  21.146  26.251  1.00  0.00    -0.207 OA
BRANCH  11  14
ATOM     14  C   UNL A   1      33.101  19.882  24.389  1.00  0.00     0.085 A 
ATOM     15  C   UNL A   1      33.792  16.118  24.785  1.00  0.00     0.044 C 
ATOM     16  C   UNL A   1      33.354  17.450  24.241  1.00  0.00    -0.050 A 
ATOM     17  C   UNL A   1      32.795  17.469  22.960  1.00  0.00     0.004 A 
ATOM     18  C   UNL A   1      33.488  18.657  24.964  1.00  0.00     0.025 A 
ATOM     19  C   UNL A   1      32.345  18.663  22.414  1.00  0.00     0.005 A 
ATOM     20  C   UNL A   1      32.464  19.874  23.121  1.00  0.00    -0.031 A 
ATOM     21  C   UNL A   1      31.865  21.078  22.441  1.00  0.00     0.046 C 
ENDBRANCH  11  14
ENDBRANCH   9  11
ENDBRANCH   8   9
BRANCH   8  22
ATOM     22  C   UNL A   1      35.667  24.063  25.730  1.00  0.00     0.065 C 
BRANCH  22  23
ATOM     23  C   UNL A   1      37.526  22.982  26.209  1.00  0.00    -0.037 C 
ATOM     24  C   UNL A   1      38.855  23.329  26.755  1.00  0.00     0.001 A 
ATOM     25  C   UNL A   1      38.180  21.584  25.381  1.00  0.00     0.174 C 
ATOM     26  C   UNL A   1      39.543  24.535  27.350  1.00  0.00     0.010 A 
ATOM     27  C   UNL A   1      39.808  22.208  26.629  1.00  0.00     0.065 A 
ATOM     28  N   UNL A   1      39.530  21.250  25.832  1.00  0.00    -0.280 NA
ATOM     29  C   UNL A   1      40.598  24.428  28.169  1.00  0.00     0.001 A 
ATOM     30  C   UNL A   1      40.998  22.153  27.511  1.00  0.00     0.028 A 
ATOM     31  C   UNL A   1      41.274  23.177  28.326  1.00  0.00     0.002 A 
ENDBRANCH  22  23
ENDBRANCH   8  22
ENDBRANCH   6   8
ENDBRANCH   5   6
ENDBRANCH   4   5
ENDBRANCH   3   4
ENDBRANCH   2   3
ENDBRANCH   1   2
BRANCH   1  32
ATOM     32  C   UNL A   1      30.550  28.190  22.929  1.00  0.00     0.188 C 
BRANCH  32  33
ATOM     33  O   UNL A   1      31.329  29.278  23.350  1.00  0.00    -0.376 OA
BRANCH  33  34
ATOM     34  C   UNL A   1      32.670  29.020  22.926  1.00  0.00     0.202 C 
BRANCH  34  35
ATOM     35  C   UNL A   1      33.646  28.742  24.138  1.00  0.00     0.261 C 
BRANCH  35  36
ATOM     36  O   UNL A   1      33.567  29.317  25.671  1.00  0.00    -0.460 OA
BRANCH  36  37
ATOM     37  C   UNL A   1      33.574  30.009  26.887  1.00  0.00     0.338 C 
ATOM     38  O   UNL A   1      32.534  30.073  27.538  1.00  0.00    -0.246 OA
BRANCH  37  39
ATOM     39  C   UNL A   1      34.845  30.812  27.478  1.00  0.00     0.060 A 
ATOM     40  C   UNL A   1      35.329  31.605  29.116  1.00  0.00     0.016 A 
ATOM     41  C   UNL A   1      35.996  29.799  26.727  1.00  0.00     0.016 A 
ATOM     42  C   UNL A   1      36.932  31.079  29.924  1.00  0.00     0.010 A 
ATOM     43  C   UNL A   1      37.498  29.311  27.521  1.00  0.00     0.010 A 
ATOM     44  C   UNL A   1      38.011  29.852  29.037  1.00  0.00    -0.014 A 
BRANCH  44  45
ATOM     45  C   UNL A   1      39.413  29.038  29.237  1.00  0.00     0.031 A 
ATOM     46  C   UNL A   1      39.542  29.247  30.652  1.00  0.00     0.074 A 
ATOM     47  C   UNL A   1      40.481  28.473  28.462  1.00  0.00     0.049 A 
ATOM     48  N   UNL A   1      39.912  30.397  31.116  1.00  0.00    -0.248 NA
ATOM     49  C   UNL A   1      38.744  28.431  31.573  1.00  0.00     0.031 C 
ATOM     50  C   UNL A   1      40.526  28.092  27.017  1.00  0.00     0.029 A 
ATOM     51  N   UNL A   1      41.855  28.110  28.785  1.00  0.00    -0.354 N 
ATOM     52  C   UNL A   1      39.913  30.150  32.465  1.00  0.00     0.074 A 
ATOM     53  C   UNL A   1      38.873  29.169  32.681  1.00  0.00     0.031 C 
ATOM     54  C   UNL A   1      41.671  27.442  26.657  1.00  0.00     0.029 A 
ATOM     55  C   UNL A   1      42.594  27.348  27.770  1.00  0.00     0.049 A 
ATOM     56  H   UNL A   1      42.268  28.364  29.643  1.00  0.00     0.167 HD
ATOM     57  C   UNL A   1      41.126  30.249  33.066  1.00  0.00     0.037 A 
ATOM     58  C   UNL A   1      43.889  26.808  27.730  1.00  0.00     0.037 A 
ATOM     59  C   UNL A   1      42.040  31.068  32.302  1.00  0.00     0.049 A 
ATOM     60  C   UNL A   1      44.725  27.580  28.661  1.00  0.00     0.074 A 
ATOM     61  C   UNL A   1      42.079  32.390  31.903  1.00  0.00     0.029 A 
ATOM     62  N   UNL A   1      42.848  30.378  31.438  1.00  0.00    -0.354 N 
ATOM     63  N   UNL A   1      45.135  28.789  28.415  1.00  0.00    -0.248 NA
ATOM     64  C   UNL A   1      44.711  27.161  30.048  1.00  0.00     0.031 C 
ATOM     65  C   UNL A   1      42.941  32.464  30.775  1.00  0.00     0.029 A 
ATOM     66  C   UNL A   1      43.513  31.214  30.579  1.00  0.00     0.049 A 
ATOM     67  H   UNL A   1      42.942  29.398  31.434  1.00  0.00     0.167 HD
ATOM     68  C   UNL A   1      44.888  29.427  29.608  1.00  0.00     0.074 A 
ATOM     69  C   UNL A   1      44.729  28.369  30.607  1.00  0.00     0.031 C 
ATOM     70  C   UNL A   1      44.439  30.710  29.598  1.00  0.00     0.037 A 
BRANCH  57  71
ATOM     71  C   UNL A   1      41.579  29.180  34.006  1.00  0.00     0.058 A 
ATOM     72  C   UNL A   1      41.983  27.947  33.496  1.00  0.00     0.135 A 
ATOM     73  C   UNL A   1      41.482  29.275  35.417  1.00  0.00     0.135 A 
ATOM     74  F   UNL A   1      41.989  27.735  32.172  1.00  0.00    -0.206 F 
ATOM     75  C   UNL A   1      42.353  26.902  34.337  1.00  0.00     0.059 A 
ATOM     76  C   UNL A   1      41.929  28.288  36.273  1.00  0.00     0.059 A 
ATOM     77  F   UNL A   1      40.864  30.297  36.020  1.00  0.00    -0.206 F 
ATOM     78  C   UNL A   1      42.357  27.097  35.720  1.00  0.00     0.060 A 
BRANCH  78  79
ATOM     79  S   UNL A   1      42.895  25.765  36.796  1.00  0.00     0.124 S 
ATOM     80  O   UNL A   1      41.670  24.984  36.923  1.00  0.00    -0.237 OA
ATOM     81  O   UNL A   1      43.965  25.164  36.007  1.00  0.00    -0.237 OA
ATOM     82  O   UNL A   1      43.332  26.463  38.002  1.00  0.00    -0.744 OA
ENDBRANCH  78  79
ENDBRANCH  57  71
BRANCH  58  83
ATOM     83  C   UNL A   1      44.533  25.514  27.163  1.00  0.00     0.058 A 
ATOM     84  C   UNL A   1      44.521  24.242  27.836  1.00  0.00     0.135 A 
ATOM     85  C   UNL A   1      44.839  25.420  25.803  1.00  0.00     0.135 A 
ATOM     86  F   UNL A   1      44.331  24.172  29.166  1.00  0.00    -0.206 F 
ATOM     87  C   UNL A   1      44.630  22.994  27.169  1.00  0.00     0.059 A 
ATOM     88  C   UNL A   1      44.943  24.195  25.117  1.00  0.00     0.059 A 
ATOM     89  F   UNL A   1      44.972  26.533  25.072  1.00  0.00    -0.206 F 
ATOM     90  C   UNL A   1      44.778  22.985  25.786  1.00  0.00     0.060 A 
BRANCH  90  91
ATOM     91  S   UNL A   1      44.591  21.441  24.832  1.00  0.00     0.124 S 
ATOM     92  O   UNL A   1      45.770  20.675  25.223  1.00  0.00    -0.237 OA
ATOM     93  O   UNL A   1      43.312  20.925  25.310  1.00  0.00    -0.237 OA
ATOM     94  O   UNL A   1      44.587  21.905  23.446  1.00  0.00    -0.744 OA
ENDBRANCH  90  91
ENDBRANCH  58  83
BRANCH  70  95
ATOM     95  C   UNL A   1      44.937  31.634  28.525  1.00  0.00     0.058 A 
ATOM     96  C   UNL A   1      44.411  31.779  27.232  1.00  0.00     0.135 A 
ATOM     97  C   UNL A   1      45.979  32.501  28.896  1.00  0.00     0.135 A 
ATOM     98  F   UNL A   1      43.381  31.020  26.817  1.00  0.00    -0.206 F 
ATOM     99  C   UNL A   1      44.901  32.754  26.352  1.00  0.00     0.059 A 
ATOM    100  C   UNL A   1      46.463  33.489  28.052  1.00  0.00     0.059 A 
ATOM    101  F   UNL A   1      46.517  32.413  30.125  1.00  0.00    -0.206 F 
ATOM    102  C   UNL A   1      45.926  33.608  26.776  1.00  0.00     0.060 A 
BRANCH 102 103
ATOM    103  S   UNL A   1      46.556  34.881  25.658  1.00  0.00     0.124 S 
ATOM    104  O   UNL A   1      47.943  34.467  25.475  1.00  0.00    -0.237 OA
ATOM    105  O   UNL A   1      45.692  34.732  24.493  1.00  0.00    -0.237 OA
ATOM    106  O   UNL A   1      46.374  36.121  26.410  1.00  0.00    -0.744 OA
ENDBRANCH 102 103
ENDBRANCH  70  95
ENDBRANCH  44  45
ENDBRANCH  37  39
ENDBRANCH  36  37
ENDBRANCH  35  36
ENDBRANCH  34  35
ENDBRANCH  33  34
ENDBRANCH  32  33
ENDBRANCH   1  32
TORSDOF 25
ENDMDL
MODEL 2
REMARK VINA RESULT:      -9.5      2.752      9.834
REMARK SMILES Cc1ccc(C)c(S(=O)(=O)N[C@H](CC2=c3ccccc3=NC2)C(=O)OCCOCCOCCOC(=O)c2ccc(-c3c4nc(c(-c5c(F)cc(S(=O)(=O)[O-])cc5F)c5ccc([nH]5)c(-c5c(F)cc(S(=O)(=O)[O-])cc5F)c5nc(c(-c6c(F)cc(S(=O)(=O)[O-])cc6F)c6ccc3[nH]6)C=C5)C=C4)cc2)c1
REMARK SMILES IDX 29 1 28 2 27 3 26 4 25 5 23 6 24 7 12 8 11 9 8 11 9 12 10 13
REMARK SMILES IDX 7 14 1 15 2 16 3 17 103 18 4 19 5 20 6 21 13 22 14 23 15 24
REMARK SMILES IDX 22 25 16 26 20 27 21 28 17 29 19 30 18 31 30 32 31 33 32 34
REMARK SMILES IDX 33 35 34 36 35 37 36 38 37 39 38 40 102 41 39 42 101 43
REMARK SMILES IDX 40 44 41 45 42 46 95 47 43 48 100 49 94 50 96 51 44 52 99 53
REMARK SMILES IDX 93 54 92 55 45 57 79 58 58 59 78 60 59 61 62 62 77 63 97 64
REMARK SMILES IDX 60 65 61 66 76 68 98 69 63 70 46 71 47 72 56 73 48 74 49 75
REMARK SMILES IDX 55 76 57 77 50 78 51 79 52 80 53 81 54 82 80 83 81 84 90 85
REMARK SMILES IDX 82 86 83 87 89 88 91 89 84 90 85 91 86 92 87 93 88 94 64 95
REMARK SMILES IDX 65 96 74 97 66 98 67 99 73 100 75 101 68 102 69 103 70 104
REMARK SMILES IDX 71 105 72 106
REMARK H PARENT 11 10 96 56 62 67
REMARK Flexibility Score: inf
ROOT
ATOM      1  C   UNL A   1      37.649  22.234  25.425  1.00  0.00     0.188 C 
ENDROOT
BRANCH   1   2
ATOM      2  O   UNL A   1      36.996  23.102  24.517  1.00  0.00    -0.376 OA
BRANCH   2   3
ATOM      3  C   UNL A   1      35.572  23.028  24.476  1.00  0.00     0.202 C 
BRANCH   3   4
ATOM      4  C   UNL A   1      34.715  24.330  24.313  1.00  0.00     0.261 C 
BRANCH   4   5
ATOM      5  O   UNL A   1      34.537  24.842  22.934  1.00  0.00    -0.462 OA
BRANCH   5   6
ATOM      6  C   UNL A   1      33.327  25.087  22.307  1.00  0.00     0.324 C 
ATOM      7  O   UNL A   1      33.335  25.567  21.175  1.00  0.00    -0.250 OA
BRANCH   6   8
ATOM      8  C   UNL A   1      31.969  24.321  22.861  1.00  0.00     0.183 C 
BRANCH   8   9
ATOM      9  N   UNL A   1      31.024  25.175  23.706  1.00  0.00    -0.197 NA
ATOM     10  H   UNL A   1      30.197  24.594  23.838  1.00  0.00     0.142 HD
BRANCH   9  11
ATOM     11  S   UNL A   1      30.423  26.699  23.345  1.00  0.00     0.241 S 
ATOM     12  O   UNL A   1      29.028  26.709  23.708  1.00  0.00    -0.207 OA
ATOM     13  O   UNL A   1      30.844  26.966  21.984  1.00  0.00    -0.207 OA
BRANCH  11  14
ATOM     14  C   UNL A   1      31.228  28.004  24.306  1.00  0.00     0.085 A 
ATOM     15  C   UNL A   1      34.077  28.542  26.834  1.00  0.00     0.044 C 
ATOM     16  C   UNL A   1      32.907  28.768  25.917  1.00  0.00    -0.050 A 
ATOM     17  C   UNL A   1      32.359  30.054  25.880  1.00  0.00     0.004 A 
ATOM     18  C   UNL A   1      32.352  27.747  25.113  1.00  0.00     0.025 A 
ATOM     19  C   UNL A   1      31.296  30.334  25.032  1.00  0.00     0.005 A 
ATOM     20  C   UNL A   1      30.734  29.331  24.219  1.00  0.00    -0.031 A 
ATOM     21  C   UNL A   1      29.638  29.792  23.294  1.00  0.00     0.046 C 
ENDBRANCH  11  14
ENDBRANCH   9  11
ENDBRANCH   8   9
BRANCH   8  22
ATOM     22  C   UNL A   1      31.603  22.631  23.546  1.00  0.00     0.065 C 
BRANCH  22  23
ATOM     23  C   UNL A   1      31.913  20.484  23.164  1.00  0.00    -0.037 C 
ATOM     24  C   UNL A   1      32.553  19.354  23.869  1.00  0.00     0.001 A 
ATOM     25  C   UNL A   1      32.149  19.709  21.611  1.00  0.00     0.174 C 
ATOM     26  C   UNL A   1      33.189  19.086  25.213  1.00  0.00     0.010 A 
ATOM     27  C   UNL A   1      32.669  18.163  23.003  1.00  0.00     0.065 A 
ATOM     28  N   UNL A   1      32.530  18.303  21.742  1.00  0.00    -0.280 NA
ATOM     29  C   UNL A   1      33.270  17.855  25.736  1.00  0.00     0.001 A 
ATOM     30  C   UNL A   1      32.819  16.822  23.615  1.00  0.00     0.028 A 
ATOM     31  C   UNL A   1      32.976  16.704  24.938  1.00  0.00     0.002 A 
ENDBRANCH  22  23
ENDBRANCH   8  22
ENDBRANCH   6   8
ENDBRANCH   5   6
ENDBRANCH   4   5
ENDBRANCH   3   4
ENDBRANCH   2   3
ENDBRANCH   1   2
BRANCH   1  32
ATOM     32  C   UNL A   1      37.815  20.805  24.934  1.00  0.00     0.188 C 
BRANCH  32  33
ATOM     33  O   UNL A   1      38.898  20.136  25.523  1.00  0.00    -0.376 OA
BRANCH  33  34
ATOM     34  C   UNL A   1      39.679  21.123  26.202  1.00  0.00     0.202 C 
BRANCH  34  35
ATOM     35  C   UNL A   1      41.228  20.809  26.154  1.00  0.00     0.261 C 
BRANCH  35  36
ATOM     36  O   UNL A   1      42.424  21.658  25.422  1.00  0.00    -0.460 OA
BRANCH  36  37
ATOM     37  C   UNL A   1      43.491  22.463  25.011  1.00  0.00     0.338 C 
ATOM     38  O   UNL A   1      43.776  22.505  23.816  1.00  0.00    -0.246 OA
BRANCH  37  39
ATOM     39  C   UNL A   1      44.446  23.301  26.010  1.00  0.00     0.060 A 
ATOM     40  C   UNL A   1      46.051  24.277  25.880  1.00  0.00     0.016 A 
ATOM     41  C   UNL A   1      43.148  24.033  26.842  1.00  0.00     0.016 A 
ATOM     42  C   UNL A   1      46.068  26.051  26.472  1.00  0.00     0.010 A 
ATOM     43  C   UNL A   1      43.191  25.717  27.381  1.00  0.00     0.010 A 
ATOM     44  C   UNL A   1      44.520  26.748  27.231  1.00  0.00    -0.014 A 
BRANCH  44  45
ATOM     45  C   UNL A   1      43.947  28.143  27.857  1.00  0.00     0.031 A 
ATOM     46  C   UNL A   1      45.182  28.876  27.824  1.00  0.00     0.074 A 
ATOM     47  C   UNL A   1      42.789  28.655  28.533  1.00  0.00     0.049 A 
ATOM     48  N   UNL A   1      46.113  28.635  28.691  1.00  0.00    -0.248 NA
ATOM     49  C   UNL A   1      45.646  29.442  26.553  1.00  0.00     0.031 C 
ATOM     50  C   UNL A   1      41.400  28.109  28.613  1.00  0.00     0.029 A 
ATOM     51  N   UNL A   1      42.569  29.827  29.371  1.00  0.00    -0.354 N 
ATOM     52  C   UNL A   1      47.070  29.539  28.308  1.00  0.00     0.074 A 
ATOM     53  C   UNL A   1      46.922  29.679  26.877  1.00  0.00     0.031 C 
ATOM     54  C   UNL A   1      40.515  28.948  29.228  1.00  0.00     0.029 A 
ATOM     55  C   UNL A   1      41.176  30.142  29.715  1.00  0.00     0.049 A 
ATOM     56  H   UNL A   1      43.318  30.380  29.692  1.00  0.00     0.167 HD
ATOM     57  C   UNL A   1      47.362  30.492  29.229  1.00  0.00     0.037 A 
ATOM     58  C   UNL A   1      40.581  31.176  30.455  1.00  0.00     0.037 A 
ATOM     59  C   UNL A   1      47.003  30.076  30.566  1.00  0.00     0.049 A 
ATOM     60  C   UNL A   1      41.586  31.689  31.397  1.00  0.00     0.074 A 
ATOM     61  C   UNL A   1      47.396  29.063  31.421  1.00  0.00     0.029 A 
ATOM     62  N   UNL A   1      45.758  30.470  30.979  1.00  0.00    -0.354 N 
ATOM     63  N   UNL A   1      41.965  31.039  32.457  1.00  0.00    -0.248 NA
ATOM     64  C   UNL A   1      42.484  32.711  30.897  1.00  0.00     0.031 C 
ATOM     65  C   UNL A   1      46.345  28.872  32.359  1.00  0.00     0.029 A 
ATOM     66  C   UNL A   1      45.384  29.850  32.143  1.00  0.00     0.049 A 
ATOM     67  H   UNL A   1      45.198  31.121  30.498  1.00  0.00     0.167 HD
ATOM     68  C   UNL A   1      43.333  31.174  32.406  1.00  0.00     0.074 A 
ATOM     69  C   UNL A   1      43.595  32.291  31.497  1.00  0.00     0.031 C 
ATOM     70  C   UNL A   1      44.120  30.131  32.776  1.00  0.00     0.037 A 
BRANCH  57  71
ATOM     71  C   UNL A   1      47.444  31.926  28.816  1.00  0.00     0.058 A 
ATOM     72  C   UNL A   1      48.641  32.618  28.988  1.00  0.00     0.135 A 
ATOM     73  C   UNL A   1      46.330  32.692  28.394  1.00  0.00     0.135 A 
ATOM     74  F   UNL A   1      49.715  31.994  29.495  1.00  0.00    -0.206 F 
ATOM     75  C   UNL A   1      48.747  33.971  28.677  1.00  0.00     0.059 A 
ATOM     76  C   UNL A   1      46.427  34.009  27.991  1.00  0.00     0.059 A 
ATOM     77  F   UNL A   1      45.080  32.217  28.443  1.00  0.00    -0.206 F 
ATOM     78  C   UNL A   1      47.644  34.644  28.145  1.00  0.00     0.060 A 
BRANCH  78  79
ATOM     79  S   UNL A   1      47.804  36.372  27.687  1.00  0.00     0.124 S 
ATOM     80  O   UNL A   1      49.199  36.631  28.023  1.00  0.00    -0.237 OA
ATOM     81  O   UNL A   1      47.479  36.331  26.265  1.00  0.00    -0.237 OA
ATOM     82  O   UNL A   1      46.814  37.036  28.530  1.00  0.00    -0.744 OA
ENDBRANCH  78  79
ENDBRANCH  57  71
BRANCH  58  83
ATOM     83  C   UNL A   1      39.279  32.014  30.338  1.00  0.00     0.058 A 
ATOM     84  C   UNL A   1      38.222  31.741  29.399  1.00  0.00     0.135 A 
ATOM     85  C   UNL A   1      38.890  32.856  31.383  1.00  0.00     0.135 A 
ATOM     86  F   UNL A   1      38.461  31.019  28.290  1.00  0.00    -0.206 F 
ATOM     87  C   UNL A   1      36.872  32.133  29.594  1.00  0.00     0.059 A 
ATOM     88  C   UNL A   1      37.557  33.250  31.602  1.00  0.00     0.059 A 
ATOM     89  F   UNL A   1      39.794  33.265  32.281  1.00  0.00    -0.206 F 
ATOM     90  C   UNL A   1      36.539  32.840  30.744  1.00  0.00     0.060 A 
BRANCH  90  91
ATOM     91  S   UNL A   1      34.796  33.084  31.226  1.00  0.00     0.124 S 
ATOM     92  O   UNL A   1      34.629  32.135  32.321  1.00  0.00    -0.237 OA
ATOM     93  O   UNL A   1      34.763  34.495  31.598  1.00  0.00    -0.237 OA
ATOM     94  O   UNL A   1      34.064  32.754  30.004  1.00  0.00    -0.744 OA
ENDBRANCH  90  91
ENDBRANCH  58  83
BRANCH  70  95
ATOM     95  C   UNL A   1      43.655  29.244  33.895  1.00  0.00     0.058 A 
ATOM     96  C   UNL A   1      43.646  29.556  35.264  1.00  0.00     0.135 A 
ATOM     97  C   UNL A   1      43.092  28.015  33.511  1.00  0.00     0.135 A 
ATOM     98  F   UNL A   1      44.123  30.732  35.706  1.00  0.00    -0.206 F 
ATOM     99  C   UNL A   1      43.089  28.679  36.206  1.00  0.00     0.059 A 
ATOM    100  C   UNL A   1      42.514  27.144  34.422  1.00  0.00     0.059 A 
ATOM    101  F   UNL A   1      43.067  27.666  32.213  1.00  0.00    -0.206 F 
ATOM    102  C   UNL A   1      42.521  27.476  35.771  1.00  0.00     0.060 A 
BRANCH 102 103
ATOM    103  S   UNL A   1      41.785  26.343  36.973  1.00  0.00     0.124 S 
ATOM    104  O   UNL A   1      42.829  26.256  37.989  1.00  0.00    -0.237 OA
ATOM    105  O   UNL A   1      40.573  27.051  37.370  1.00  0.00    -0.237 OA
ATOM    106  O   UNL A   1      41.565  25.121  36.203  1.00  0.00    -0.744 OA
ENDBRANCH 102 103
ENDBRANCH  70  95
ENDBRANCH  44  45
ENDBRANCH  37  39
ENDBRANCH  36  37
ENDBRANCH  35  36
ENDBRANCH  34  35
ENDBRANCH  33  34
ENDBRANCH  32  33
ENDBRANCH   1  32
TORSDOF 25
ENDMDL
MODEL 3
REMARK VINA RESULT:      -9.5      2.778      7.519
REMARK SMILES Cc1ccc(C)c(S(=O)(=O)N[C@H](CC2=c3ccccc3=NC2)C(=O)OCCOCCOCCOC(=O)c2ccc(-c3c4nc(c(-c5c(F)cc(S(=O)(=O)[O-])cc5F)c5ccc([nH]5)c(-c5c(F)cc(S(=O)(=O)[O-])cc5F)c5nc(c(-c6c(F)cc(S(=O)(=O)[O-])cc6F)c6ccc3[nH]6)C=C5)C=C4)cc2)c1
REMARK SMILES IDX 29 1 28 2 27 3 26 4 25 5 23 6 24 7 12 8 11 9 8 11 9 12 10 13
REMARK SMILES IDX 7 14 1 15 2 16 3 17 103 18 4 19 5 20 6 21 13 22 14 23 15 24
REMARK SMILES IDX 22 25 16 26 20 27 21 28 17 29 19 30 18 31 30 32 31 33 32 34
REMARK SMILES IDX 33 35 34 36 35 37 36 38 37 39 38 40 102 41 39 42 101 43
REMARK SMILES IDX 40 44 41 45 42 46 95 47 43 48 100 49 94 50 96 51 44 52 99 53
REMARK SMILES IDX 93 54 92 55 45 57 79 58 58 59 78 60 59 61 62 62 77 63 97 64
REMARK SMILES IDX 60 65 61 66 76 68 98 69 63 70 46 71 47 72 56 73 48 74 49 75
REMARK SMILES IDX 55 76 57 77 50 78 51 79 52 80 53 81 54 82 80 83 81 84 90 85
REMARK SMILES IDX 82 86 83 87 89 88 91 89 84 90 85 91 86 92 87 93 88 94 64 95
REMARK SMILES IDX 65 96 74 97 66 98 67 99 73 100 75 101 68 102 69 103 70 104
REMARK SMILES IDX 71 105 72 106
REMARK H PARENT 11 10 96 56 62 67
REMARK Flexibility Score: inf
ROOT
ATOM      1  C   UNL A   1      31.865  29.189  24.534  1.00  0.00     0.188 C 
ENDROOT
BRANCH   1   2
ATOM      2  O   UNL A   1      32.363  29.275  23.211  1.00  0.00    -0.376 OA
BRANCH   2   3
ATOM      3  C   UNL A   1      33.584  28.590  22.943  1.00  0.00     0.202 C 
BRANCH   3   4
ATOM      4  C   UNL A   1      33.713  27.655  21.692  1.00  0.00     0.261 C 
BRANCH   4   5
ATOM      5  O   UNL A   1      32.987  26.365  21.747  1.00  0.00    -0.462 OA
BRANCH   5   6
ATOM      6  C   UNL A   1      31.749  26.152  22.331  1.00  0.00     0.324 C 
ATOM      7  O   UNL A   1      30.813  26.884  22.014  1.00  0.00    -0.250 OA
BRANCH   6   8
ATOM      8  C   UNL A   1      31.440  24.690  23.041  1.00  0.00     0.183 C 
BRANCH   8   9
ATOM      9  N   UNL A   1      31.316  24.705  24.563  1.00  0.00    -0.197 NA
ATOM     10  H   UNL A   1      30.529  25.324  24.754  1.00  0.00     0.142 HD
BRANCH   9  11
ATOM     11  S   UNL A   1      32.486  25.146  25.682  1.00  0.00     0.241 S 
ATOM     12  O   UNL A   1      31.859  25.164  26.979  1.00  0.00    -0.207 OA
ATOM     13  O   UNL A   1      33.111  26.335  25.136  1.00  0.00    -0.207 OA
BRANCH  11  14
ATOM     14  C   UNL A   1      33.843  23.952  25.768  1.00  0.00     0.085 A 
ATOM     15  C   UNL A   1      36.991  22.847  23.852  1.00  0.00     0.044 C 
ATOM     16  C   UNL A   1      35.883  22.940  24.864  1.00  0.00    -0.050 A 
ATOM     17  C   UNL A   1      35.860  21.982  25.882  1.00  0.00     0.004 A 
ATOM     18  C   UNL A   1      34.883  23.938  24.820  1.00  0.00     0.025 A 
ATOM     19  C   UNL A   1      34.879  22.031  26.863  1.00  0.00     0.005 A 
ATOM     20  C   UNL A   1      33.879  23.021  26.839  1.00  0.00    -0.031 A 
ATOM     21  C   UNL A   1      32.926  23.002  28.005  1.00  0.00     0.046 C 
ENDBRANCH  11  14
ENDBRANCH   9  11
ENDBRANCH   8   9
BRANCH   8  22
ATOM     22  C   UNL A   1      32.031  22.948  22.767  1.00  0.00     0.065 C 
BRANCH  22  23
ATOM     23  C   UNL A   1      32.454  21.058  23.817  1.00  0.00    -0.037 C 
ATOM     24  C   UNL A   1      32.523  19.627  23.457  1.00  0.00     0.001 A 
ATOM     25  C   UNL A   1      32.082  20.668  25.484  1.00  0.00     0.174 C 
ATOM     26  C   UNL A   1      32.460  18.781  22.207  1.00  0.00     0.010 A 
ATOM     27  C   UNL A   1      32.615  18.765  24.653  1.00  0.00     0.065 A 
ATOM     28  N   UNL A   1      32.314  19.258  25.791  1.00  0.00    -0.280 NA
ATOM     29  C   UNL A   1      33.006  17.558  22.140  1.00  0.00     0.001 A 
ATOM     30  C   UNL A   1      33.167  17.395  24.531  1.00  0.00     0.028 A 
ATOM     31  C   UNL A   1      33.462  16.898  23.325  1.00  0.00     0.002 A 
ENDBRANCH  22  23
ENDBRANCH   8  22
ENDBRANCH   6   8
ENDBRANCH   5   6
ENDBRANCH   4   5
ENDBRANCH   3   4
ENDBRANCH   2   3
ENDBRANCH   1   2
BRANCH   1  32
ATOM     32  C   UNL A   1      30.994  30.359  24.964  1.00  0.00     0.188 C 
BRANCH  32  33
ATOM     33  O   UNL A   1      31.548  31.109  26.011  1.00  0.00    -0.376 OA
BRANCH  33  34
ATOM     34  C   UNL A   1      32.251  30.193  26.855  1.00  0.00     0.202 C 
BRANCH  34  35
ATOM     35  C   UNL A   1      33.806  30.477  26.896  1.00  0.00     0.261 C 
BRANCH  35  36
ATOM     36  O   UNL A   1      34.680  31.229  28.061  1.00  0.00    -0.460 OA
BRANCH  36  37
ATOM     37  C   UNL A   1      35.337  32.068  28.967  1.00  0.00     0.338 C 
ATOM     38  O   UNL A   1      34.714  32.498  29.935  1.00  0.00    -0.246 OA
BRANCH  37  39
ATOM     39  C   UNL A   1      36.858  32.589  28.799  1.00  0.00     0.060 A 
ATOM     40  C   UNL A   1      37.893  34.032  29.424  1.00  0.00     0.016 A 
ATOM     41  C   UNL A   1      37.539  31.028  28.912  1.00  0.00     0.016 A 
ATOM     42  C   UNL A   1      39.495  33.662  30.316  1.00  0.00     0.010 A 
ATOM     43  C   UNL A   1      39.051  30.708  29.771  1.00  0.00     0.010 A 
ATOM     44  C   UNL A   1      40.030  31.889  30.480  1.00  0.00    -0.014 A 
BRANCH  44  45
ATOM     45  C   UNL A   1      41.228  30.994  31.137  1.00  0.00     0.031 A 
ATOM     46  C   UNL A   1      42.327  31.696  30.534  1.00  0.00     0.074 A 
ATOM     47  C   UNL A   1      41.424  29.759  31.842  1.00  0.00     0.049 A 
ATOM     48  N   UNL A   1      42.611  31.524  29.284  1.00  0.00    -0.248 NA
ATOM     49  C   UNL A   1      42.751  32.982  31.099  1.00  0.00     0.031 C 
ATOM     50  C   UNL A   1      40.450  28.924  32.609  1.00  0.00     0.029 A 
ATOM     51  N   UNL A   1      42.585  28.901  32.033  1.00  0.00    -0.354 N 
ATOM     52  C   UNL A   1      43.698  32.349  29.144  1.00  0.00     0.074 A 
ATOM     53  C   UNL A   1      43.484  33.434  30.075  1.00  0.00     0.031 C 
ATOM     54  C   UNL A   1      41.028  27.883  33.278  1.00  0.00     0.029 A 
ATOM     55  C   UNL A   1      42.451  27.813  33.011  1.00  0.00     0.049 A 
ATOM     56  H   UNL A   1      43.420  29.043  31.530  1.00  0.00     0.167 HD
ATOM     57  C   UNL A   1      44.858  31.722  28.822  1.00  0.00     0.037 A 
ATOM     58  C   UNL A   1      43.335  26.827  33.477  1.00  0.00     0.037 A 
ATOM     59  C   UNL A   1      44.621  30.436  28.205  1.00  0.00     0.049 A 
ATOM     60  C   UNL A   1      44.349  26.607  32.435  1.00  0.00     0.074 A 
ATOM     61  C   UNL A   1      44.008  29.997  27.047  1.00  0.00     0.029 A 
ATOM     62  N   UNL A   1      44.625  29.373  29.069  1.00  0.00    -0.354 N 
ATOM     63  N   UNL A   1      44.104  25.977  31.325  1.00  0.00    -0.248 NA
ATOM     64  C   UNL A   1      45.499  27.489  32.451  1.00  0.00     0.031 C 
ATOM     65  C   UNL A   1      43.652  28.636  27.249  1.00  0.00     0.029 A 
ATOM     66  C   UNL A   1      44.162  28.228  28.474  1.00  0.00     0.049 A 
ATOM     67  H   UNL A   1      44.924  29.424  30.004  1.00  0.00     0.167 HD
ATOM     68  C   UNL A   1      44.700  26.793  30.392  1.00  0.00     0.074 A 
ATOM     69  C   UNL A   1      45.629  27.645  31.135  1.00  0.00     0.031 C 
ATOM     70  C   UNL A   1      44.100  26.977  29.187  1.00  0.00     0.037 A 
BRANCH  57  71
ATOM     71  C   UNL A   1      46.113  32.053  29.562  1.00  0.00     0.058 A 
ATOM     72  C   UNL A   1      46.265  31.618  30.878  1.00  0.00     0.135 A 
ATOM     73  C   UNL A   1      47.115  32.924  29.069  1.00  0.00     0.135 A 
ATOM     74  F   UNL A   1      45.304  30.887  31.462  1.00  0.00    -0.206 F 
ATOM     75  C   UNL A   1      47.388  31.956  31.627  1.00  0.00     0.059 A 
ATOM     76  C   UNL A   1      48.281  33.200  29.754  1.00  0.00     0.059 A 
ATOM     77  F   UNL A   1      46.960  33.617  27.934  1.00  0.00    -0.206 F 
ATOM     78  C   UNL A   1      48.405  32.716  31.042  1.00  0.00     0.060 A 
BRANCH  78  79
ATOM     79  S   UNL A   1      49.879  33.096  31.993  1.00  0.00     0.124 S 
ATOM     80  O   UNL A   1      49.310  33.385  33.303  1.00  0.00    -0.237 OA
ATOM     81  O   UNL A   1      50.632  31.851  31.876  1.00  0.00    -0.237 OA
ATOM     82  O   UNL A   1      50.452  34.235  31.282  1.00  0.00    -0.744 OA
ENDBRANCH  78  79
ENDBRANCH  57  71
BRANCH  58  83
ATOM     83  C   UNL A   1      43.617  26.148  34.844  1.00  0.00     0.058 A 
ATOM     84  C   UNL A   1      43.202  24.813  35.186  1.00  0.00     0.135 A 
ATOM     85  C   UNL A   1      44.607  26.657  35.690  1.00  0.00     0.135 A 
ATOM     86  F   UNL A   1      42.195  24.217  34.522  1.00  0.00    -0.206 F 
ATOM     87  C   UNL A   1      43.847  24.011  36.164  1.00  0.00     0.059 A 
ATOM     88  C   UNL A   1      45.266  25.880  36.660  1.00  0.00     0.059 A 
ATOM     89  F   UNL A   1      45.023  27.919  35.544  1.00  0.00    -0.206 F 
ATOM     90  C   UNL A   1      44.930  24.542  36.856  1.00  0.00     0.060 A 
BRANCH  90  91
ATOM     91  S   UNL A   1      46.007  23.477  37.874  1.00  0.00     0.124 S 
ATOM     92  O   UNL A   1      47.304  24.139  37.771  1.00  0.00    -0.237 OA
ATOM     93  O   UNL A   1      45.368  23.538  39.185  1.00  0.00    -0.237 OA
ATOM     94  O   UNL A   1      45.919  22.180  37.207  1.00  0.00    -0.744 OA
ENDBRANCH  90  91
ENDBRANCH  58  83
BRANCH  70  95
ATOM     95  C   UNL A   1      43.352  25.828  28.575  1.00  0.00     0.058 A 
ATOM     96  C   UNL A   1      43.910  24.673  28.006  1.00  0.00     0.135 A 
ATOM     97  C   UNL A   1      41.951  25.888  28.669  1.00  0.00     0.135 A 
ATOM     98  F   UNL A   1      45.243  24.519  27.923  1.00  0.00    -0.206 F 
ATOM     99  C   UNL A   1      43.100  23.619  27.558  1.00  0.00     0.059 A 
ATOM    100  C   UNL A   1      41.132  24.848  28.256  1.00  0.00     0.059 A 
ATOM    101  F   UNL A   1      41.362  26.967  29.211  1.00  0.00    -0.206 F 
ATOM    102  C   UNL A   1      41.711  23.717  27.693  1.00  0.00     0.060 A 
BRANCH 102 103
ATOM    103  S   UNL A   1      40.655  22.359  27.135  1.00  0.00     0.124 S 
ATOM    104  O   UNL A   1      40.780  21.405  28.232  1.00  0.00    -0.237 OA
ATOM    105  O   UNL A   1      39.354  23.006  27.004  1.00  0.00    -0.237 OA
ATOM    106  O   UNL A   1      41.269  21.941  25.876  1.00  0.00    -0.744 OA
ENDBRANCH 102 103
ENDBRANCH  70  95
ENDBRANCH  44  45
ENDBRANCH  37  39
ENDBRANCH  36  37
ENDBRANCH  35  36
ENDBRANCH  34  35
ENDBRANCH  33  34
ENDBRANCH  32  33
ENDBRANCH   1  32
TORSDOF 25
ENDMDL
