MODEL 1
REMARK VINA RESULT:     -10.7      0.000      0.000
REMARK SMILES O=C(OCCOCCOCCOCCOC(=O)c1c(C2CC2)nn(-c2ccc(Cl)c(F)c2)c1Cl)c1ccc(-c2c3nc(c(-c4c(F)cc(S(=O)(=O)[O-])cc4F)c4ccc([nH]4)c(-c4c(F)cc(S(=O)(=O)[O-])cc4F)c4nc(c(-c5c(F)cc(S(=O)(=O)[O-])cc5F)c5ccc2[nH]5)C=C4)C=C3)cc1
REMARK SMILES IDX 8 1 7 2 6 3 5 4 4 5 3 6 2 7 1 8 35 9 36 10 100 11 37 12
REMARK SMILES IDX 99 13 38 14 39 15 40 16 93 17 41 18 98 19 92 20 94 21 42 22
REMARK SMILES IDX 97 23 91 24 90 25 43 27 77 28 56 29 76 30 57 31 60 32 75 33
REMARK SMILES IDX 95 34 58 35 59 36 74 38 96 39 61 40 44 41 45 42 54 43 46 44
REMARK SMILES IDX 47 45 53 46 55 47 48 48 49 49 50 50 51 51 52 52 78 53 79 54
REMARK SMILES IDX 88 55 80 56 81 57 87 58 89 59 82 60 83 61 84 62 85 63 86 64
REMARK SMILES IDX 62 65 63 66 72 67 64 68 65 69 71 70 73 71 66 72 67 73 68 74
REMARK SMILES IDX 69 75 70 76 9 77 10 78 11 79 12 80 13 81 14 82 15 83 16 84
REMARK SMILES IDX 17 85 18 86 19 87 33 88 23 89 24 90 34 91 20 92 21 93 22 94
REMARK SMILES IDX 25 95 26 96 32 97 27 98 30 99 28 100 31 101 29 102
REMARK H PARENT 94 26 60 37
REMARK Flexibility Score: inf
ROOT
ATOM      1  C   UNL A   1      37.598  20.881  25.038  1.00  0.00     0.188 C 
ENDROOT
BRANCH   1   2
ATOM      2  C   UNL A   1      38.859  21.473  25.688  1.00  0.00     0.188 C 
BRANCH   2   3
ATOM      3  O   UNL A   1      39.976  20.721  26.163  1.00  0.00    -0.376 OA
BRANCH   3   4
ATOM      4  C   UNL A   1      41.084  21.162  26.915  1.00  0.00     0.202 C 
BRANCH   4   5
ATOM      5  C   UNL A   1      42.371  21.532  26.171  1.00  0.00     0.261 C 
BRANCH   5   6
ATOM      6  O   UNL A   1      42.257  22.557  25.183  1.00  0.00    -0.460 OA
BRANCH   6   7
ATOM      7  C   UNL A   1      42.917  23.734  25.094  1.00  0.00     0.338 C 
ATOM      8  O   UNL A   1      44.058  23.719  24.630  1.00  0.00    -0.246 OA
BRANCH   7   9
ATOM      9  C   UNL A   1      42.404  25.024  25.630  1.00  0.00     0.060 A 
ATOM     10  C   UNL A   1      42.757  26.294  25.166  1.00  0.00     0.016 A 
ATOM     11  C   UNL A   1      41.527  24.924  26.729  1.00  0.00     0.016 A 
ATOM     12  C   UNL A   1      42.339  27.428  25.828  1.00  0.00     0.010 A 
ATOM     13  C   UNL A   1      41.111  26.058  27.409  1.00  0.00     0.010 A 
ATOM     14  C   UNL A   1      41.590  27.295  26.990  1.00  0.00    -0.014 A 
BRANCH  14  15
ATOM     15  C   UNL A   1      41.502  28.485  27.812  1.00  0.00     0.031 A 
ATOM     16  C   UNL A   1      42.668  29.400  27.801  1.00  0.00     0.074 A 
ATOM     17  C   UNL A   1      40.404  28.683  28.564  1.00  0.00     0.049 A 
ATOM     18  N   UNL A   1      43.438  29.730  28.786  1.00  0.00    -0.248 NA
ATOM     19  C   UNL A   1      43.078  29.951  26.503  1.00  0.00     0.031 C 
ATOM     20  C   UNL A   1      39.122  27.973  28.481  1.00  0.00     0.029 A 
ATOM     21  N   UNL A   1      40.166  29.647  29.490  1.00  0.00    -0.354 N 
ATOM     22  C   UNL A   1      44.312  30.689  28.278  1.00  0.00     0.074 A 
ATOM     23  C   UNL A   1      44.135  30.685  26.848  1.00  0.00     0.031 C 
ATOM     24  C   UNL A   1      38.182  28.691  29.129  1.00  0.00     0.029 A 
ATOM     25  C   UNL A   1      38.822  29.826  29.769  1.00  0.00     0.049 A 
ATOM     26  H   UNL A   1      40.881  30.168  29.922  1.00  0.00     0.167 HD
ATOM     27  C   UNL A   1      44.972  31.569  29.079  1.00  0.00     0.037 A 
ATOM     28  C   UNL A   1      38.269  30.904  30.373  1.00  0.00     0.037 A 
ATOM     29  C   UNL A   1      45.014  31.135  30.449  1.00  0.00     0.049 A 
ATOM     30  C   UNL A   1      39.347  31.587  31.138  1.00  0.00     0.074 A 
ATOM     31  C   UNL A   1      45.543  30.042  31.104  1.00  0.00     0.029 A 
ATOM     32  N   UNL A   1      44.164  31.735  31.345  1.00  0.00    -0.354 N 
ATOM     33  N   UNL A   1      39.935  31.080  32.188  1.00  0.00    -0.248 NA
ATOM     34  C   UNL A   1      40.074  32.666  30.484  1.00  0.00     0.031 C 
ATOM     35  C   UNL A   1      44.642  29.775  32.175  1.00  0.00     0.029 A 
ATOM     36  C   UNL A   1      43.633  30.739  32.125  1.00  0.00     0.049 A 
ATOM     37  H   UNL A   1      43.972  32.697  31.417  1.00  0.00     0.167 HD
ATOM     38  C   UNL A   1      41.261  31.478  32.086  1.00  0.00     0.074 A 
ATOM     39  C   UNL A   1      41.262  32.536  31.081  1.00  0.00     0.031 C 
ATOM     40  C   UNL A   1      42.272  30.731  32.618  1.00  0.00     0.037 A 
BRANCH  27  41
ATOM     41  C   UNL A   1      45.298  32.983  28.670  1.00  0.00     0.058 A 
ATOM     42  C   UNL A   1      46.627  33.447  28.726  1.00  0.00     0.135 A 
ATOM     43  C   UNL A   1      44.307  33.975  28.497  1.00  0.00     0.135 A 
ATOM     44  F   UNL A   1      47.643  32.589  28.909  1.00  0.00    -0.206 F 
ATOM     45  C   UNL A   1      46.943  34.806  28.674  1.00  0.00     0.059 A 
ATOM     46  C   UNL A   1      44.604  35.328  28.387  1.00  0.00     0.059 A 
ATOM     47  F   UNL A   1      43.000  33.685  28.532  1.00  0.00    -0.206 F 
ATOM     48  C   UNL A   1      45.920  35.738  28.524  1.00  0.00     0.060 A 
BRANCH  48  49
ATOM     49  S   UNL A   1      46.302  37.498  28.588  1.00  0.00     0.124 S 
ATOM     50  O   UNL A   1      47.694  37.504  28.152  1.00  0.00    -0.237 OA
ATOM     51  O   UNL A   1      45.334  38.058  27.651  1.00  0.00    -0.237 OA
ATOM     52  O   UNL A   1      46.077  37.837  29.991  1.00  0.00    -0.744 OA
ENDBRANCH  48  49
ENDBRANCH  27  41
BRANCH  28  53
ATOM     53  C   UNL A   1      36.986  31.552  29.997  1.00  0.00     0.058 A 
ATOM     54  C   UNL A   1      36.100  32.026  30.976  1.00  0.00     0.135 A 
ATOM     55  C   UNL A   1      36.711  31.942  28.668  1.00  0.00     0.135 A 
ATOM     56  F   UNL A   1      36.304  31.731  32.269  1.00  0.00    -0.206 F 
ATOM     57  C   UNL A   1      35.025  32.865  30.662  1.00  0.00     0.059 A 
ATOM     58  C   UNL A   1      35.636  32.755  28.328  1.00  0.00     0.059 A 
ATOM     59  F   UNL A   1      37.536  31.620  27.660  1.00  0.00    -0.206 F 
ATOM     60  C   UNL A   1      34.811  33.236  29.333  1.00  0.00     0.060 A 
BRANCH  60  61
ATOM     61  S   UNL A   1      33.531  34.448  28.941  1.00  0.00     0.124 S 
ATOM     62  O   UNL A   1      32.961  34.719  30.256  1.00  0.00    -0.237 OA
ATOM     63  O   UNL A   1      34.307  35.531  28.346  1.00  0.00    -0.237 OA
ATOM     64  O   UNL A   1      32.656  33.731  28.017  1.00  0.00    -0.744 OA
ENDBRANCH  60  61
ENDBRANCH  28  53
BRANCH  40  65
ATOM     65  C   UNL A   1      41.915  29.632  33.585  1.00  0.00     0.058 A 
ATOM     66  C   UNL A   1      41.546  28.334  33.192  1.00  0.00     0.135 A 
ATOM     67  C   UNL A   1      42.120  29.853  34.957  1.00  0.00     0.135 A 
ATOM     68  F   UNL A   1      41.441  28.011  31.896  1.00  0.00    -0.206 F 
ATOM     69  C   UNL A   1      41.350  27.312  34.122  1.00  0.00     0.059 A 
ATOM     70  C   UNL A   1      41.960  28.840  35.899  1.00  0.00     0.059 A 
ATOM     71  F   UNL A   1      42.540  31.053  35.389  1.00  0.00    -0.206 F 
ATOM     72  C   UNL A   1      41.565  27.574  35.475  1.00  0.00     0.060 A 
BRANCH  72  73
ATOM     73  S   UNL A   1      41.412  26.221  36.663  1.00  0.00     0.124 S 
ATOM     74  O   UNL A   1      42.798  26.005  37.062  1.00  0.00    -0.237 OA
ATOM     75  O   UNL A   1      40.539  26.791  37.686  1.00  0.00    -0.237 OA
ATOM     76  O   UNL A   1      40.813  25.145  35.878  1.00  0.00    -0.744 OA
ENDBRANCH  72  73
ENDBRANCH  40  65
ENDBRANCH  14  15
ENDBRANCH   7   9
ENDBRANCH   6   7
ENDBRANCH   5   6
ENDBRANCH   4   5
ENDBRANCH   3   4
ENDBRANCH   2   3
ENDBRANCH   1   2
BRANCH   1  77
ATOM     77  O   UNL A   1      36.573  21.816  24.750  1.00  0.00    -0.377 OA
BRANCH  77  78
ATOM     78  C   UNL A   1      36.355  22.751  25.779  1.00  0.00     0.188 C 
BRANCH  78  79
ATOM     79  C   UNL A   1      35.077  23.589  25.586  1.00  0.00     0.188 C 
BRANCH  79  80
ATOM     80  O   UNL A   1      35.158  24.853  24.942  1.00  0.00    -0.376 OA
BRANCH  80  81
ATOM     81  C   UNL A   1      34.346  25.918  25.406  1.00  0.00     0.202 C 
BRANCH  81  82
ATOM     82  C   UNL A   1      33.698  26.804  24.340  1.00  0.00     0.261 C 
BRANCH  82  83
ATOM     83  O   UNL A   1      33.417  26.137  23.096  1.00  0.00    -0.460 OA
BRANCH  83  84
ATOM     84  C   UNL A   1      32.137  25.760  22.809  1.00  0.00     0.343 C 
ATOM     85  O   UNL A   1      31.331  26.435  22.168  1.00  0.00    -0.246 OA
BRANCH  84  86
ATOM     86  C   UNL A   1      31.807  24.477  23.387  1.00  0.00     0.121 A 
ATOM     87  C   UNL A   1      31.109  24.042  24.555  1.00  0.00     0.082 A 
ATOM     88  C   UNL A   1      32.280  23.297  22.857  1.00  0.00     0.147 A 
ATOM     89  N   UNL A   1      31.145  22.708  24.701  1.00  0.00    -0.170 NA
ATOM     90  N   UNL A   1      31.948  22.280  23.708  1.00  0.00    -0.221 N 
ATOM     91  Cl  UNL A   1      33.149  22.988  21.412  1.00  0.00    -0.061 Cl
BRANCH  87  92
ATOM     92  C   UNL A   1      30.330  24.802  25.631  1.00  0.00     0.041 C 
ATOM     93  C   UNL A   1      30.681  26.155  26.174  1.00  0.00     0.011 C 
ATOM     94  C   UNL A   1      29.527  26.018  25.231  1.00  0.00     0.011 C 
ENDBRANCH  87  92
BRANCH  90  95
ATOM     95  C   UNL A   1      32.469  20.972  23.749  1.00  0.00     0.069 A 
ATOM     96  C   UNL A   1      33.371  20.613  24.754  1.00  0.00     0.030 A 
ATOM     97  C   UNL A   1      32.066  20.052  22.775  1.00  0.00     0.069 A 
ATOM     98  C   UNL A   1      33.802  19.286  24.833  1.00  0.00     0.026 A 
ATOM     99  C   UNL A   1      32.534  18.748  22.844  1.00  0.00     0.143 A 
ATOM    100  C   UNL A   1      33.378  18.354  23.880  1.00  0.00     0.076 A 
ATOM    101  F   UNL A   1      32.149  17.882  21.896  1.00  0.00    -0.205 F 
ATOM    102  Cl  UNL A   1      33.900  16.719  23.999  1.00  0.00    -0.081 Cl
ENDBRANCH  90  95
ENDBRANCH  84  86
ENDBRANCH  83  84
ENDBRANCH  82  83
ENDBRANCH  81  82
ENDBRANCH  80  81
ENDBRANCH  79  80
ENDBRANCH  78  79
ENDBRANCH  77  78
ENDBRANCH   1  77
TORSDOF 25
ENDMDL
MODEL 2
REMARK VINA RESULT:     -10.4      3.023      9.381
REMARK SMILES O=C(OCCOCCOCCOCCOC(=O)c1c(C2CC2)nn(-c2ccc(Cl)c(F)c2)c1Cl)c1ccc(-c2c3nc(c(-c4c(F)cc(S(=O)(=O)[O-])cc4F)c4ccc([nH]4)c(-c4c(F)cc(S(=O)(=O)[O-])cc4F)c4nc(c(-c5c(F)cc(S(=O)(=O)[O-])cc5F)c5ccc2[nH]5)C=C4)C=C3)cc1
REMARK SMILES IDX 8 1 7 2 6 3 5 4 4 5 3 6 2 7 1 8 35 9 36 10 100 11 37 12
REMARK SMILES IDX 99 13 38 14 39 15 40 16 93 17 41 18 98 19 92 20 94 21 42 22
REMARK SMILES IDX 97 23 91 24 90 25 43 27 77 28 56 29 76 30 57 31 60 32 75 33
REMARK SMILES IDX 95 34 58 35 59 36 74 38 96 39 61 40 44 41 45 42 54 43 46 44
REMARK SMILES IDX 47 45 53 46 55 47 48 48 49 49 50 50 51 51 52 52 78 53 79 54
REMARK SMILES IDX 88 55 80 56 81 57 87 58 89 59 82 60 83 61 84 62 85 63 86 64
REMARK SMILES IDX 62 65 63 66 72 67 64 68 65 69 71 70 73 71 66 72 67 73 68 74
REMARK SMILES IDX 69 75 70 76 9 77 10 78 11 79 12 80 13 81 14 82 15 83 16 84
REMARK SMILES IDX 17 85 18 86 19 87 33 88 23 89 24 90 34 91 20 92 21 93 22 94
REMARK SMILES IDX 25 95 26 96 32 97 27 98 30 99 28 100 31 101 29 102
REMARK H PARENT 94 26 60 37
REMARK Flexibility Score: inf
ROOT
ATOM      1  C   UNL A   1      29.590  31.293  23.802  1.00  0.00     0.188 C 
ENDROOT
BRANCH   1   2
ATOM      2  C   UNL A   1      30.097  32.032  25.052  1.00  0.00     0.188 C 
BRANCH   2   3
ATOM      3  O   UNL A   1      31.133  31.575  25.919  1.00  0.00    -0.376 OA
BRANCH   3   4
ATOM      4  C   UNL A   1      31.673  30.279  26.048  1.00  0.00     0.202 C 
BRANCH   4   5
ATOM      5  C   UNL A   1      32.879  30.079  26.972  1.00  0.00     0.261 C 
BRANCH   5   6
ATOM      6  O   UNL A   1      33.604  31.256  27.329  1.00  0.00    -0.460 OA
BRANCH   6   7
ATOM      7  C   UNL A   1      34.534  31.426  28.296  1.00  0.00     0.338 C 
ATOM      8  O   UNL A   1      34.228  32.108  29.275  1.00  0.00    -0.246 OA
BRANCH   7   9
ATOM      9  C   UNL A   1      35.940  30.946  28.198  1.00  0.00     0.060 A 
ATOM     10  C   UNL A   1      36.334  29.641  27.893  1.00  0.00     0.016 A 
ATOM     11  C   UNL A   1      36.934  31.903  28.490  1.00  0.00     0.016 A 
ATOM     12  C   UNL A   1      37.658  29.267  27.973  1.00  0.00     0.010 A 
ATOM     13  C   UNL A   1      38.267  31.534  28.586  1.00  0.00     0.010 A 
ATOM     14  C   UNL A   1      38.599  30.196  28.399  1.00  0.00    -0.014 A 
BRANCH  14  15
ATOM     15  C   UNL A   1      39.877  29.645  28.803  1.00  0.00     0.031 A 
ATOM     16  C   UNL A   1      40.191  29.665  30.251  1.00  0.00     0.074 A 
ATOM     17  C   UNL A   1      40.721  29.186  27.861  1.00  0.00     0.049 A 
ATOM     18  N   UNL A   1      41.155  30.281  30.855  1.00  0.00    -0.248 NA
ATOM     19  C   UNL A   1      39.258  28.974  31.150  1.00  0.00     0.031 C 
ATOM     20  C   UNL A   1      40.425  28.916  26.449  1.00  0.00     0.029 A 
ATOM     21  N   UNL A   1      41.999  28.752  27.999  1.00  0.00    -0.354 N 
ATOM     22  C   UNL A   1      41.071  29.896  32.191  1.00  0.00     0.074 A 
ATOM     23  C   UNL A   1      39.816  29.206  32.339  1.00  0.00     0.031 C 
ATOM     24  C   UNL A   1      41.400  28.138  25.938  1.00  0.00     0.029 A 
ATOM     25  C   UNL A   1      42.434  27.968  26.944  1.00  0.00     0.049 A 
ATOM     26  H   UNL A   1      42.563  28.973  28.775  1.00  0.00     0.167 HD
ATOM     27  C   UNL A   1      42.130  29.985  33.041  1.00  0.00     0.037 A 
ATOM     28  C   UNL A   1      43.504  27.139  26.954  1.00  0.00     0.037 A 
ATOM     29  C   UNL A   1      43.144  30.882  32.558  1.00  0.00     0.049 A 
ATOM     30  C   UNL A   1      44.409  27.592  28.044  1.00  0.00     0.074 A 
ATOM     31  C   UNL A   1      43.186  32.230  32.261  1.00  0.00     0.029 A 
ATOM     32  N   UNL A   1      44.279  30.341  32.006  1.00  0.00    -0.354 N 
ATOM     33  N   UNL A   1      45.063  28.722  28.032  1.00  0.00    -0.248 NA
ATOM     34  C   UNL A   1      44.263  26.978  29.356  1.00  0.00     0.031 C 
ATOM     35  C   UNL A   1      44.085  32.343  31.162  1.00  0.00     0.029 A 
ATOM     36  C   UNL A   1      44.560  31.062  30.873  1.00  0.00     0.049 A 
ATOM     37  H   UNL A   1      44.796  29.581  32.357  1.00  0.00     0.167 HD
ATOM     38  C   UNL A   1      45.048  29.161  29.350  1.00  0.00     0.074 A 
ATOM     39  C   UNL A   1      44.639  27.999  30.131  1.00  0.00     0.031 C 
ATOM     40  C   UNL A   1      45.101  30.490  29.659  1.00  0.00     0.037 A 
BRANCH  27  41
ATOM     41  C   UNL A   1      42.386  29.004  34.158  1.00  0.00     0.058 A 
ATOM     42  C   UNL A   1      42.604  27.644  33.867  1.00  0.00     0.135 A 
ATOM     43  C   UNL A   1      42.143  29.312  35.515  1.00  0.00     0.135 A 
ATOM     44  F   UNL A   1      42.824  27.241  32.605  1.00  0.00    -0.206 F 
ATOM     45  C   UNL A   1      42.526  26.652  34.848  1.00  0.00     0.059 A 
ATOM     46  C   UNL A   1      42.116  28.349  36.515  1.00  0.00     0.059 A 
ATOM     47  F   UNL A   1      41.817  30.549  35.914  1.00  0.00    -0.206 F 
ATOM     48  C   UNL A   1      42.262  27.016  36.165  1.00  0.00     0.060 A 
BRANCH  48  49
ATOM     49  S   UNL A   1      42.028  25.737  37.412  1.00  0.00     0.124 S 
ATOM     50  O   UNL A   1      42.948  26.180  38.453  1.00  0.00    -0.237 OA
ATOM     51  O   UNL A   1      40.607  25.861  37.718  1.00  0.00    -0.237 OA
ATOM     52  O   UNL A   1      42.408  24.513  36.711  1.00  0.00    -0.744 OA
ENDBRANCH  48  49
ENDBRANCH  27  41
BRANCH  28  53
ATOM     53  C   UNL A   1      43.567  25.789  26.336  1.00  0.00     0.058 A 
ATOM     54  C   UNL A   1      44.491  25.499  25.322  1.00  0.00     0.135 A 
ATOM     55  C   UNL A   1      42.890  24.683  26.897  1.00  0.00     0.135 A 
ATOM     56  F   UNL A   1      45.203  26.486  24.756  1.00  0.00    -0.206 F 
ATOM     57  C   UNL A   1      44.755  24.188  24.910  1.00  0.00     0.059 A 
ATOM     58  C   UNL A   1      43.118  23.374  26.488  1.00  0.00     0.059 A 
ATOM     59  F   UNL A   1      42.048  24.829  27.931  1.00  0.00    -0.206 F 
ATOM     60  C   UNL A   1      44.072  23.130  25.511  1.00  0.00     0.060 A 
BRANCH  60  61
ATOM     61  S   UNL A   1      44.525  21.430  25.104  1.00  0.00     0.124 S 
ATOM     62  O   UNL A   1      44.507  21.455  23.646  1.00  0.00    -0.237 OA
ATOM     63  O   UNL A   1      45.839  21.306  25.725  1.00  0.00    -0.237 OA
ATOM     64  O   UNL A   1      43.467  20.638  25.727  1.00  0.00    -0.744 OA
ENDBRANCH  60  61
ENDBRANCH  28  53
BRANCH  40  65
ATOM     65  C   UNL A   1      45.486  31.461  28.573  1.00  0.00     0.058 A 
ATOM     66  C   UNL A   1      44.570  32.032  27.674  1.00  0.00     0.135 A 
ATOM     67  C   UNL A   1      46.799  31.959  28.554  1.00  0.00     0.135 A 
ATOM     68  F   UNL A   1      43.273  31.694  27.704  1.00  0.00    -0.206 F 
ATOM     69  C   UNL A   1      44.949  33.025  26.769  1.00  0.00     0.059 A 
ATOM     70  C   UNL A   1      47.192  32.971  27.681  1.00  0.00     0.059 A 
ATOM     71  F   UNL A   1      47.704  31.503  29.436  1.00  0.00    -0.206 F 
ATOM     72  C   UNL A   1      46.263  33.492  26.784  1.00  0.00     0.060 A 
BRANCH  72  73
ATOM     73  S   UNL A   1      46.721  34.850  25.684  1.00  0.00     0.124 S 
ATOM     74  O   UNL A   1      48.172  34.717  25.619  1.00  0.00    -0.237 OA
ATOM     75  O   UNL A   1      45.999  34.524  24.456  1.00  0.00    -0.237 OA
ATOM     76  O   UNL A   1      46.233  36.035  26.383  1.00  0.00    -0.744 OA
ENDBRANCH  72  73
ENDBRANCH  40  65
ENDBRANCH  14  15
ENDBRANCH   7   9
ENDBRANCH   6   7
ENDBRANCH   5   6
ENDBRANCH   4   5
ENDBRANCH   3   4
ENDBRANCH   2   3
ENDBRANCH   1   2
BRANCH   1  77
ATOM     77  O   UNL A   1      28.202  31.006  23.794  1.00  0.00    -0.377 OA
BRANCH  77  78
ATOM     78  C   UNL A   1      27.841  29.988  22.892  1.00  0.00     0.188 C 
BRANCH  78  79
ATOM     79  C   UNL A   1      28.684  28.706  23.043  1.00  0.00     0.188 C 
BRANCH  79  80
ATOM     80  O   UNL A   1      29.623  28.362  22.036  1.00  0.00    -0.376 OA
BRANCH  80  81
ATOM     81  C   UNL A   1      30.670  27.459  22.346  1.00  0.00     0.202 C 
BRANCH  81  82
ATOM     82  C   UNL A   1      31.490  27.762  23.603  1.00  0.00     0.261 C 
BRANCH  82  83
ATOM     83  O   UNL A   1      31.867  26.602  24.366  1.00  0.00    -0.460 OA
BRANCH  83  84
ATOM     84  C   UNL A   1      32.067  25.412  23.728  1.00  0.00     0.343 C 
ATOM     85  O   UNL A   1      31.672  25.147  22.593  1.00  0.00    -0.246 OA
BRANCH  84  86
ATOM     86  C   UNL A   1      32.769  24.461  24.560  1.00  0.00     0.121 A 
ATOM     87  C   UNL A   1      32.548  23.888  25.850  1.00  0.00     0.082 A 
ATOM     88  C   UNL A   1      34.004  23.962  24.212  1.00  0.00     0.147 A 
ATOM     89  N   UNL A   1      33.560  23.095  26.234  1.00  0.00    -0.170 NA
ATOM     90  N   UNL A   1      34.484  23.231  25.264  1.00  0.00    -0.221 N 
ATOM     91  Cl  UNL A   1      34.917  24.135  22.772  1.00  0.00    -0.061 Cl
BRANCH  87  92
ATOM     92  C   UNL A   1      31.385  23.998  26.839  1.00  0.00     0.041 C 
ATOM     93  C   UNL A   1      29.975  24.371  26.493  1.00  0.00     0.011 C 
ATOM     94  C   UNL A   1      30.301  22.946  26.812  1.00  0.00     0.011 C 
ENDBRANCH  87  92
BRANCH  90  95
ATOM     95  C   UNL A   1      35.804  22.796  25.493  1.00  0.00     0.069 A 
ATOM     96  C   UNL A   1      36.166  21.481  25.192  1.00  0.00     0.030 A 
ATOM     97  C   UNL A   1      36.733  23.701  26.017  1.00  0.00     0.069 A 
ATOM     98  C   UNL A   1      37.503  21.097  25.337  1.00  0.00     0.026 A 
ATOM     99  C   UNL A   1      38.047  23.294  26.192  1.00  0.00     0.143 A 
ATOM    100  C   UNL A   1      38.442  22.007  25.833  1.00  0.00     0.076 A 
ATOM    101  F   UNL A   1      38.923  24.168  26.709  1.00  0.00    -0.205 F 
ATOM    102  Cl  UNL A   1      40.088  21.530  25.987  1.00  0.00    -0.081 Cl
ENDBRANCH  90  95
ENDBRANCH  84  86
ENDBRANCH  83  84
ENDBRANCH  82  83
ENDBRANCH  81  82
ENDBRANCH  80  81
ENDBRANCH  79  80
ENDBRANCH  78  79
ENDBRANCH  77  78
ENDBRANCH   1  77
TORSDOF 25
ENDMDL
MODEL 3
REMARK VINA RESULT:     -10.1      2.603      4.269
REMARK SMILES O=C(OCCOCCOCCOCCOC(=O)c1c(C2CC2)nn(-c2ccc(Cl)c(F)c2)c1Cl)c1ccc(-c2c3nc(c(-c4c(F)cc(S(=O)(=O)[O-])cc4F)c4ccc([nH]4)c(-c4c(F)cc(S(=O)(=O)[O-])cc4F)c4nc(c(-c5c(F)cc(S(=O)(=O)[O-])cc5F)c5ccc2[nH]5)C=C4)C=C3)cc1
REMARK SMILES IDX 8 1 7 2 6 3 5 4 4 5 3 6 2 7 1 8 35 9 36 10 100 11 37 12
REMARK SMILES IDX 99 13 38 14 39 15 40 16 93 17 41 18 98 19 92 20 94 21 42 22
REMARK SMILES IDX 97 23 91 24 90 25 43 27 77 28 56 29 76 30 57 31 60 32 75 33
REMARK SMILES IDX 95 34 58 35 59 36 74 38 96 39 61 40 44 41 45 42 54 43 46 44
REMARK SMILES IDX 47 45 53 46 55 47 48 48 49 49 50 50 51 51 52 52 78 53 79 54
REMARK SMILES IDX 88 55 80 56 81 57 87 58 89 59 82 60 83 61 84 62 85 63 86 64
REMARK SMILES IDX 62 65 63 66 72 67 64 68 65 69 71 70 73 71 66 72 67 73 68 74
REMARK SMILES IDX 69 75 70 76 9 77 10 78 11 79 12 80 13 81 14 82 15 83 16 84
REMARK SMILES IDX 17 85 18 86 19 87 33 88 23 89 24 90 34 91 20 92 21 93 22 94
REMARK SMILES IDX 25 95 26 96 32 97 27 98 30 99 28 100 31 101 29 102
REMARK H PARENT 94 26 60 37
REMARK Flexibility Score: inf
ROOT
ATOM      1  C   UNL A   1      40.905  20.067  26.505  1.00  0.00     0.188 C 
ENDROOT
BRANCH   1   2
ATOM      2  C   UNL A   1      42.335  19.516  26.615  1.00  0.00     0.188 C 
BRANCH   2   3
ATOM      3  O   UNL A   1      43.092  18.961  25.540  1.00  0.00    -0.376 OA
BRANCH   3   4
ATOM      4  C   UNL A   1      44.433  19.210  25.181  1.00  0.00     0.202 C 
BRANCH   4   5
ATOM      5  C   UNL A   1      45.096  20.498  25.680  1.00  0.00     0.261 C 
BRANCH   5   6
ATOM      6  O   UNL A   1      44.771  21.693  24.969  1.00  0.00    -0.460 OA
BRANCH   6   7
ATOM      7  C   UNL A   1      43.765  22.570  25.188  1.00  0.00     0.338 C 
ATOM      8  O   UNL A   1      42.669  22.324  24.682  1.00  0.00    -0.246 OA
BRANCH   7   9
ATOM      9  C   UNL A   1      43.925  23.870  25.896  1.00  0.00     0.060 A 
ATOM     10  C   UNL A   1      44.386  24.030  27.204  1.00  0.00     0.016 A 
ATOM     11  C   UNL A   1      43.526  25.012  25.173  1.00  0.00     0.016 A 
ATOM     12  C   UNL A   1      44.357  25.265  27.816  1.00  0.00     0.010 A 
ATOM     13  C   UNL A   1      43.481  26.256  25.783  1.00  0.00     0.010 A 
ATOM     14  C   UNL A   1      43.828  26.348  27.127  1.00  0.00    -0.014 A 
BRANCH  14  15
ATOM     15  C   UNL A   1      43.499  27.502  27.941  1.00  0.00     0.031 A 
ATOM     16  C   UNL A   1      44.500  28.592  28.002  1.00  0.00     0.074 A 
ATOM     17  C   UNL A   1      42.337  27.513  28.621  1.00  0.00     0.049 A 
ATOM     18  N   UNL A   1      45.144  29.034  29.033  1.00  0.00    -0.248 NA
ATOM     19  C   UNL A   1      44.897  29.212  26.731  1.00  0.00     0.031 C 
ATOM     20  C   UNL A   1      41.195  26.607  28.457  1.00  0.00     0.029 A 
ATOM     21  N   UNL A   1      41.890  28.418  29.528  1.00  0.00    -0.354 N 
ATOM     22  C   UNL A   1      45.882  30.125  28.580  1.00  0.00     0.074 A 
ATOM     23  C   UNL A   1      45.798  30.104  27.142  1.00  0.00     0.031 C 
ATOM     24  C   UNL A   1      40.113  27.158  29.044  1.00  0.00     0.029 A 
ATOM     25  C   UNL A   1      40.519  28.377  29.721  1.00  0.00     0.049 A 
ATOM     26  H   UNL A   1      42.483  29.044  30.004  1.00  0.00     0.167 HD
ATOM     27  C   UNL A   1      46.340  31.093  29.420  1.00  0.00     0.037 A 
ATOM     28  C   UNL A   1      39.763  29.346  30.287  1.00  0.00     0.037 A 
ATOM     29  C   UNL A   1      46.364  30.659  30.790  1.00  0.00     0.049 A 
ATOM     30  C   UNL A   1      40.666  30.187  31.118  1.00  0.00     0.074 A 
ATOM     31  C   UNL A   1      47.020  29.660  31.480  1.00  0.00     0.029 A 
ATOM     32  N   UNL A   1      45.374  31.107  31.630  1.00  0.00    -0.354 N 
ATOM     33  N   UNL A   1      41.261  29.773  32.204  1.00  0.00    -0.248 NA
ATOM     34  C   UNL A   1      41.250  31.374  30.509  1.00  0.00     0.031 C 
ATOM     35  C   UNL A   1      46.108  29.242  32.492  1.00  0.00     0.029 A 
ATOM     36  C   UNL A   1      44.962  30.032  32.376  1.00  0.00     0.049 A 
ATOM     37  H   UNL A   1      45.026  32.025  31.687  1.00  0.00     0.167 HD
ATOM     38  C   UNL A   1      42.510  30.380  32.185  1.00  0.00     0.074 A 
ATOM     39  C   UNL A   1      42.404  31.432  31.180  1.00  0.00     0.031 C 
ATOM     40  C   UNL A   1      43.593  29.800  32.782  1.00  0.00     0.037 A 
BRANCH  27  41
ATOM     41  C   UNL A   1      46.458  32.544  29.030  1.00  0.00     0.058 A 
ATOM     42  C   UNL A   1      45.317  33.263  28.624  1.00  0.00     0.135 A 
ATOM     43  C   UNL A   1      47.701  33.166  28.775  1.00  0.00     0.135 A 
ATOM     44  F   UNL A   1      44.088  32.752  28.802  1.00  0.00    -0.206 F 
ATOM     45  C   UNL A   1      45.408  34.486  27.957  1.00  0.00     0.059 A 
ATOM     46  C   UNL A   1      47.811  34.408  28.163  1.00  0.00     0.059 A 
ATOM     47  F   UNL A   1      48.865  32.549  29.014  1.00  0.00    -0.206 F 
ATOM     48  C   UNL A   1      46.662  35.039  27.715  1.00  0.00     0.060 A 
BRANCH  48  49
ATOM     49  S   UNL A   1      46.796  36.549  26.740  1.00  0.00     0.124 S 
ATOM     50  O   UNL A   1      47.477  36.059  25.547  1.00  0.00    -0.237 OA
ATOM     51  O   UNL A   1      45.399  36.930  26.569  1.00  0.00    -0.237 OA
ATOM     52  O   UNL A   1      47.581  37.432  27.599  1.00  0.00    -0.744 OA
ENDBRANCH  48  49
ENDBRANCH  27  41
BRANCH  28  53
ATOM     53  C   UNL A   1      38.419  29.782  29.829  1.00  0.00     0.058 A 
ATOM     54  C   UNL A   1      37.402  30.079  30.749  1.00  0.00     0.135 A 
ATOM     55  C   UNL A   1      38.174  30.154  28.488  1.00  0.00     0.135 A 
ATOM     56  F   UNL A   1      37.564  29.791  32.049  1.00  0.00    -0.206 F 
ATOM     57  C   UNL A   1      36.226  30.737  30.369  1.00  0.00     0.059 A 
ATOM     58  C   UNL A   1      37.004  30.787  28.083  1.00  0.00     0.059 A 
ATOM     59  F   UNL A   1      39.107  29.997  27.537  1.00  0.00    -0.206 F 
ATOM     60  C   UNL A   1      36.044  31.099  29.034  1.00  0.00     0.060 A 
BRANCH  60  61
ATOM     61  S   UNL A   1      34.609  32.093  28.567  1.00  0.00     0.124 S 
ATOM     62  O   UNL A   1      33.710  31.084  28.021  1.00  0.00    -0.237 OA
ATOM     63  O   UNL A   1      34.213  32.677  29.845  1.00  0.00    -0.237 OA
ATOM     64  O   UNL A   1      35.153  33.038  27.595  1.00  0.00    -0.744 OA
ENDBRANCH  60  61
ENDBRANCH  28  53
BRANCH  40  65
ATOM     65  C   UNL A   1      43.357  28.651  33.726  1.00  0.00     0.058 A 
ATOM     66  C   UNL A   1      43.077  28.808  35.095  1.00  0.00     0.135 A 
ATOM     67  C   UNL A   1      43.241  27.357  33.193  1.00  0.00     0.135 A 
ATOM     68  F   UNL A   1      43.055  30.024  35.658  1.00  0.00    -0.206 F 
ATOM     69  C   UNL A   1      42.736  27.723  35.904  1.00  0.00     0.059 A 
ATOM     70  C   UNL A   1      42.872  26.266  33.976  1.00  0.00     0.059 A 
ATOM     71  F   UNL A   1      43.428  27.153  31.878  1.00  0.00    -0.206 F 
ATOM     72  C   UNL A   1      42.632  26.455  35.334  1.00  0.00     0.060 A 
BRANCH  72  73
ATOM     73  S   UNL A   1      42.088  25.075  36.365  1.00  0.00     0.124 S 
ATOM     74  O   UNL A   1      42.728  25.374  37.642  1.00  0.00    -0.237 OA
ATOM     75  O   UNL A   1      40.634  25.209  36.338  1.00  0.00    -0.237 OA
ATOM     76  O   UNL A   1      42.607  23.902  35.666  1.00  0.00    -0.744 OA
ENDBRANCH  72  73
ENDBRANCH  40  65
ENDBRANCH  14  15
ENDBRANCH   7   9
ENDBRANCH   6   7
ENDBRANCH   5   6
ENDBRANCH   4   5
ENDBRANCH   3   4
ENDBRANCH   2   3
ENDBRANCH   1   2
BRANCH   1  77
ATOM     77  O   UNL A   1      40.532  20.982  27.521  1.00  0.00    -0.377 OA
BRANCH  77  78
ATOM     78  C   UNL A   1      39.790  22.080  27.049  1.00  0.00     0.188 C 
BRANCH  78  79
ATOM     79  C   UNL A   1      39.252  21.889  25.618  1.00  0.00     0.188 C 
BRANCH  79  80
ATOM     80  O   UNL A   1      37.887  22.161  25.339  1.00  0.00    -0.376 OA
BRANCH  80  81
ATOM     81  C   UNL A   1      37.266  23.279  25.951  1.00  0.00     0.202 C 
BRANCH  81  82
ATOM     82  C   UNL A   1      35.749  23.207  26.138  1.00  0.00     0.261 C 
BRANCH  82  83
ATOM     83  O   UNL A   1      35.047  24.421  25.814  1.00  0.00    -0.460 OA
BRANCH  83  84
ATOM     84  C   UNL A   1      34.425  24.537  24.605  1.00  0.00     0.343 C 
ATOM     85  O   UNL A   1      34.931  24.243  23.522  1.00  0.00    -0.246 OA
BRANCH  84  86
ATOM     86  C   UNL A   1      33.098  25.096  24.729  1.00  0.00     0.121 A 
ATOM     87  C   UNL A   1      31.791  24.561  24.941  1.00  0.00     0.082 A 
ATOM     88  C   UNL A   1      32.850  26.436  24.531  1.00  0.00     0.147 A 
ATOM     89  N   UNL A   1      30.840  25.508  24.894  1.00  0.00    -0.170 NA
ATOM     90  N   UNL A   1      31.497  26.630  24.545  1.00  0.00    -0.221 N 
ATOM     91  Cl  UNL A   1      33.926  27.749  24.289  1.00  0.00    -0.061 Cl
BRANCH  87  92
ATOM     92  C   UNL A   1      31.293  23.141  25.226  1.00  0.00     0.041 C 
ATOM     93  C   UNL A   1      31.908  21.878  24.705  1.00  0.00     0.011 C 
ATOM     94  C   UNL A   1      32.104  22.252  26.140  1.00  0.00     0.011 C 
ENDBRANCH  87  92
BRANCH  90  95
ATOM     95  C   UNL A   1      30.772  27.748  24.088  1.00  0.00     0.069 A 
ATOM     96  C   UNL A   1      29.816  27.594  23.081  1.00  0.00     0.030 A 
ATOM     97  C   UNL A   1      31.026  28.999  24.661  1.00  0.00     0.069 A 
ATOM     98  C   UNL A   1      29.041  28.696  22.710  1.00  0.00     0.026 A 
ATOM     99  C   UNL A   1      30.276  30.092  24.253  1.00  0.00     0.143 A 
ATOM    100  C   UNL A   1      29.270  29.944  23.301  1.00  0.00     0.076 A 
ATOM    101  F   UNL A   1      30.540  31.287  24.801  1.00  0.00    -0.205 F 
ATOM    102  Cl  UNL A   1      28.296  31.289  22.850  1.00  0.00    -0.081 Cl
ENDBRANCH  90  95
ENDBRANCH  84  86
ENDBRANCH  83  84
ENDBRANCH  82  83
ENDBRANCH  81  82
ENDBRANCH  80  81
ENDBRANCH  79  80
ENDBRANCH  78  79
ENDBRANCH  77  78
ENDBRANCH   1  77
TORSDOF 25
ENDMDL
