MODEL 1
REMARK VINA RESULT:      -9.8      0.000      0.000
REMARK SMILES O=C(OCCOCCOCCOCCOC(=O)c1ccn(-c2cc(-c3ccncc3)nc(-c3ccccc3F)n2)n1)c1ccc(-c2c3nc(c(-c4c(F)cc(S(=O)(=O)[O-])cc4F)c4ccc([nH]4)c(-c4c(F)cc(S(=O)(=O)[O-])cc4F)c4nc(c(-c5c(F)cc(S(=O)(=O)[O-])cc5F)c5ccc2[nH]5)C=C4)C=C3)cc1
REMARK SMILES IDX 8 1 7 2 6 3 5 4 4 5 3 6 2 7 1 8 42 9 43 10 107 11 44 12
REMARK SMILES IDX 106 13 45 14 46 15 47 16 100 17 48 18 105 19 99 20 101 21
REMARK SMILES IDX 49 22 104 23 98 24 97 25 50 27 84 28 63 29 83 30 64 31 67 32
REMARK SMILES IDX 82 33 102 34 65 35 66 36 81 38 103 39 68 40 51 41 52 42
REMARK SMILES IDX 61 43 53 44 54 45 60 46 62 47 55 48 56 49 57 50 58 51 59 52
REMARK SMILES IDX 85 53 86 54 95 55 87 56 88 57 94 58 96 59 89 60 90 61 91 62
REMARK SMILES IDX 92 63 93 64 69 65 70 66 79 67 71 68 72 69 78 70 80 71 73 72
REMARK SMILES IDX 74 73 75 74 76 75 77 76 9 77 10 78 11 79 12 80 13 81 14 82
REMARK SMILES IDX 15 83 16 84 17 85 18 86 19 87 41 88 20 89 21 90 22 91 23 92
REMARK SMILES IDX 40 93 24 94 32 95 31 96 25 97 26 98 30 99 27 100 29 101
REMARK SMILES IDX 28 102 33 103 34 104 38 105 35 106 37 107 39 108 36 109
REMARK H PARENT 101 26 67 37
REMARK Flexibility Score: inf
ROOT
ATOM      1  C   UNL A   1      44.796  21.332  25.259  1.00  0.00     0.188 C 
ENDROOT
BRANCH   1   2
ATOM      2  C   UNL A   1      45.692  22.501  25.716  1.00  0.00     0.188 C 
BRANCH   2   3
ATOM      3  O   UNL A   1      46.026  22.730  27.071  1.00  0.00    -0.376 OA
BRANCH   3   4
ATOM      4  C   UNL A   1      45.458  23.598  28.030  1.00  0.00     0.202 C 
BRANCH   4   5
ATOM      5  C   UNL A   1      44.488  24.756  27.789  1.00  0.00     0.261 C 
BRANCH   5   6
ATOM      6  O   UNL A   1      45.019  25.941  27.224  1.00  0.00    -0.460 OA
BRANCH   6   7
ATOM      7  C   UNL A   1      44.419  26.810  26.389  1.00  0.00     0.338 C 
ATOM      8  O   UNL A   1      43.879  26.360  25.379  1.00  0.00    -0.246 OA
BRANCH   7   9
ATOM      9  C   UNL A   1      44.486  28.287  26.541  1.00  0.00     0.060 A 
ATOM     10  C   UNL A   1      45.636  29.044  26.762  1.00  0.00     0.016 A 
ATOM     11  C   UNL A   1      43.235  28.934  26.499  1.00  0.00     0.016 A 
ATOM     12  C   UNL A   1      45.522  30.354  27.173  1.00  0.00     0.010 A 
ATOM     13  C   UNL A   1      43.116  30.256  26.872  1.00  0.00     0.010 A 
ATOM     14  C   UNL A   1      44.254  30.905  27.322  1.00  0.00    -0.014 A 
BRANCH  14  15
ATOM     15  C   UNL A   1      44.176  32.169  28.018  1.00  0.00     0.031 A 
ATOM     16  C   UNL A   1      44.806  33.296  27.291  1.00  0.00     0.074 A 
ATOM     17  C   UNL A   1      43.586  32.235  29.228  1.00  0.00     0.049 A 
ATOM     18  N   UNL A   1      45.864  33.965  27.617  1.00  0.00    -0.248 NA
ATOM     19  C   UNL A   1      44.314  33.579  25.933  1.00  0.00     0.031 C 
ATOM     20  C   UNL A   1      42.782  31.213  29.909  1.00  0.00     0.029 A 
ATOM     21  N   UNL A   1      43.512  33.288  30.078  1.00  0.00    -0.354 N 
ATOM     22  C   UNL A   1      46.020  34.922  26.618  1.00  0.00     0.074 A 
ATOM     23  C   UNL A   1      45.173  34.516  25.530  1.00  0.00     0.031 C 
ATOM     24  C   UNL A   1      42.104  31.783  30.931  1.00  0.00     0.029 A 
ATOM     25  C   UNL A   1      42.541  33.159  31.065  1.00  0.00     0.049 A 
ATOM     26  H   UNL A   1      44.096  34.078  30.003  1.00  0.00     0.167 HD
ATOM     27  C   UNL A   1      46.633  36.111  26.873  1.00  0.00     0.037 A 
ATOM     28  C   UNL A   1      42.083  34.166  31.851  1.00  0.00     0.037 A 
ATOM     29  C   UNL A   1      47.503  36.011  28.018  1.00  0.00     0.049 A 
ATOM     30  C   UNL A   1      43.137  35.220  31.841  1.00  0.00     0.074 A 
ATOM     31  C   UNL A   1      48.620  35.253  28.312  1.00  0.00     0.029 A 
ATOM     32  N   UNL A   1      47.044  36.482  29.225  1.00  0.00    -0.354 N 
ATOM     33  N   UNL A   1      44.331  35.049  32.349  1.00  0.00    -0.248 NA
ATOM     34  C   UNL A   1      43.037  36.260  30.827  1.00  0.00     0.031 C 
ATOM     35  C   UNL A   1      48.479  34.905  29.686  1.00  0.00     0.029 A 
ATOM     36  C   UNL A   1      47.329  35.529  30.171  1.00  0.00     0.049 A 
ATOM     37  H   UNL A   1      46.596  37.343  29.381  1.00  0.00     0.167 HD
ATOM     38  C   UNL A   1      45.197  35.661  31.452  1.00  0.00     0.074 A 
ATOM     39  C   UNL A   1      44.334  36.435  30.561  1.00  0.00     0.031 C 
ATOM     40  C   UNL A   1      46.499  35.265  31.329  1.00  0.00     0.037 A 
BRANCH  27  41
ATOM     41  C   UNL A   1      46.135  37.429  26.326  1.00  0.00     0.058 A 
ATOM     42  C   UNL A   1      44.924  38.041  26.723  1.00  0.00     0.135 A 
ATOM     43  C   UNL A   1      47.019  38.256  25.601  1.00  0.00     0.135 A 
ATOM     44  F   UNL A   1      44.011  37.420  27.478  1.00  0.00    -0.206 F 
ATOM     45  C   UNL A   1      44.620  39.367  26.451  1.00  0.00     0.059 A 
ATOM     46  C   UNL A   1      46.756  39.608  25.362  1.00  0.00     0.059 A 
ATOM     47  F   UNL A   1      48.201  37.785  25.176  1.00  0.00    -0.206 F 
ATOM     48  C   UNL A   1      45.556  40.155  25.804  1.00  0.00     0.060 A 
BRANCH  48  49
ATOM     49  S   UNL A   1      45.200  41.912  25.655  1.00  0.00     0.124 S 
ATOM     50  O   UNL A   1      44.886  42.262  27.036  1.00  0.00    -0.237 OA
ATOM     51  O   UNL A   1      46.461  42.430  25.136  1.00  0.00    -0.237 OA
ATOM     52  O   UNL A   1      44.076  41.947  24.724  1.00  0.00    -0.744 OA
ENDBRANCH  48  49
ENDBRANCH  27  41
BRANCH  28  53
ATOM     53  C   UNL A   1      40.654  34.451  32.167  1.00  0.00     0.058 A 
ATOM     54  C   UNL A   1      40.176  34.463  33.495  1.00  0.00     0.135 A 
ATOM     55  C   UNL A   1      39.673  34.442  31.160  1.00  0.00     0.135 A 
ATOM     56  F   UNL A   1      41.015  34.421  34.540  1.00  0.00    -0.206 F 
ATOM     57  C   UNL A   1      38.818  34.423  33.805  1.00  0.00     0.059 A 
ATOM     58  C   UNL A   1      38.302  34.395  31.447  1.00  0.00     0.059 A 
ATOM     59  F   UNL A   1      40.038  34.412  29.869  1.00  0.00    -0.206 F 
ATOM     60  C   UNL A   1      37.887  34.358  32.776  1.00  0.00     0.060 A 
BRANCH  60  61
ATOM     61  S   UNL A   1      36.150  34.137  33.226  1.00  0.00     0.124 S 
ATOM     62  O   UNL A   1      35.573  33.673  31.969  1.00  0.00    -0.237 OA
ATOM     63  O   UNL A   1      36.237  33.138  34.287  1.00  0.00    -0.237 OA
ATOM     64  O   UNL A   1      35.735  35.469  33.654  1.00  0.00    -0.744 OA
ENDBRANCH  60  61
ENDBRANCH  28  53
BRANCH  40  65
ATOM     65  C   UNL A   1      47.063  34.299  32.344  1.00  0.00     0.058 A 
ATOM     66  C   UNL A   1      47.819  34.824  33.401  1.00  0.00     0.135 A 
ATOM     67  C   UNL A   1      47.051  32.899  32.199  1.00  0.00     0.135 A 
ATOM     68  F   UNL A   1      47.919  36.154  33.561  1.00  0.00    -0.206 F 
ATOM     69  C   UNL A   1      48.545  34.009  34.265  1.00  0.00     0.059 A 
ATOM     70  C   UNL A   1      47.746  32.058  33.073  1.00  0.00     0.059 A 
ATOM     71  F   UNL A   1      46.431  32.322  31.159  1.00  0.00    -0.206 F 
ATOM     72  C   UNL A   1      48.506  32.626  34.094  1.00  0.00     0.060 A 
BRANCH  72  73
ATOM     73  S   UNL A   1      49.499  31.606  35.205  1.00  0.00     0.124 S 
ATOM     74  O   UNL A   1      48.612  30.470  35.443  1.00  0.00    -0.237 OA
ATOM     75  O   UNL A   1      50.680  31.322  34.396  1.00  0.00    -0.237 OA
ATOM     76  O   UNL A   1      49.727  32.469  36.360  1.00  0.00    -0.744 OA
ENDBRANCH  72  73
ENDBRANCH  40  65
ENDBRANCH  14  15
ENDBRANCH   7   9
ENDBRANCH   6   7
ENDBRANCH   5   6
ENDBRANCH   4   5
ENDBRANCH   3   4
ENDBRANCH   2   3
ENDBRANCH   1   2
BRANCH   1  77
ATOM     77  O   UNL A   1      45.239  20.574  24.147  1.00  0.00    -0.377 OA
BRANCH  77  78
ATOM     78  C   UNL A   1      44.700  19.272  24.093  1.00  0.00     0.188 C 
BRANCH  78  79
ATOM     79  C   UNL A   1      44.932  18.439  25.373  1.00  0.00     0.188 C 
BRANCH  79  80
ATOM     80  O   UNL A   1      43.875  18.159  26.284  1.00  0.00    -0.376 OA
BRANCH  80  81
ATOM     81  C   UNL A   1      42.531  18.488  25.977  1.00  0.00     0.202 C 
BRANCH  81  82
ATOM     82  C   UNL A   1      41.795  19.584  26.765  1.00  0.00     0.261 C 
BRANCH  82  83
ATOM     83  O   UNL A   1      41.132  20.580  25.978  1.00  0.00    -0.458 OA
BRANCH  83  84
ATOM     84  C   UNL A   1      41.047  21.829  26.532  1.00  0.00     0.358 C 
ATOM     85  O   UNL A   1      41.970  22.436  27.034  1.00  0.00    -0.244 OA
BRANCH  84  86
ATOM     86  C   UNL A   1      39.680  22.372  26.421  1.00  0.00     0.170 A 
ATOM     87  C   UNL A   1      39.288  23.702  26.696  1.00  0.00     0.058 A 
ATOM     88  N   UNL A   1      38.619  21.621  26.039  1.00  0.00    -0.159 NA
ATOM     89  C   UNL A   1      37.965  23.764  26.338  1.00  0.00     0.118 A 
ATOM     90  N   UNL A   1      37.585  22.490  25.988  1.00  0.00    -0.222 N 
BRANCH  90  91
ATOM     91  C   UNL A   1      36.310  22.133  25.478  1.00  0.00     0.158 A 
ATOM     92  C   UNL A   1      36.036  20.809  25.173  1.00  0.00     0.078 A 
ATOM     93  N   UNL A   1      35.389  23.116  25.438  1.00  0.00    -0.209 NA
ATOM     94  C   UNL A   1      34.716  20.537  24.848  1.00  0.00     0.077 A 
ATOM     95  C   UNL A   1      34.170  22.763  25.017  1.00  0.00     0.165 A 
ATOM     96  N   UNL A   1      33.790  21.513  24.724  1.00  0.00    -0.228 NA
BRANCH  94  97
ATOM     97  C   UNL A   1      34.162  19.180  24.699  1.00  0.00     0.003 A 
ATOM     98  C   UNL A   1      32.781  18.954  24.637  1.00  0.00     0.030 A 
ATOM     99  C   UNL A   1      35.006  18.082  24.484  1.00  0.00     0.030 A 
ATOM    100  C   UNL A   1      32.318  17.672  24.367  1.00  0.00     0.111 A 
ATOM    101  C   UNL A   1      34.451  16.837  24.232  1.00  0.00     0.111 A 
ATOM    102  N   UNL A   1      33.124  16.611  24.165  1.00  0.00    -0.265 NA
ENDBRANCH  94  97
BRANCH  95 103
ATOM    103  C   UNL A   1      33.212  23.835  24.814  1.00  0.00     0.055 A 
ATOM    104  C   UNL A   1      32.044  23.912  25.595  1.00  0.00     0.015 A 
ATOM    105  C   UNL A   1      33.408  24.801  23.825  1.00  0.00     0.134 A 
ATOM    106  C   UNL A   1      31.109  24.929  25.386  1.00  0.00     0.001 A 
ATOM    107  C   UNL A   1      32.476  25.813  23.607  1.00  0.00     0.040 A 
ATOM    108  F   UNL A   1      34.491  24.752  23.035  1.00  0.00    -0.206 F 
ATOM    109  C   UNL A   1      31.325  25.879  24.390  1.00  0.00     0.003 A 
ENDBRANCH  95 103
ENDBRANCH  90  91
ENDBRANCH  84  86
ENDBRANCH  83  84
ENDBRANCH  82  83
ENDBRANCH  81  82
ENDBRANCH  80  81
ENDBRANCH  79  80
ENDBRANCH  78  79
ENDBRANCH  77  78
ENDBRANCH   1  77
TORSDOF 26
ENDMDL
MODEL 2
REMARK VINA RESULT:      -9.8      0.871      2.662
REMARK SMILES O=C(OCCOCCOCCOCCOC(=O)c1ccn(-c2cc(-c3ccncc3)nc(-c3ccccc3F)n2)n1)c1ccc(-c2c3nc(c(-c4c(F)cc(S(=O)(=O)[O-])cc4F)c4ccc([nH]4)c(-c4c(F)cc(S(=O)(=O)[O-])cc4F)c4nc(c(-c5c(F)cc(S(=O)(=O)[O-])cc5F)c5ccc2[nH]5)C=C4)C=C3)cc1
REMARK SMILES IDX 8 1 7 2 6 3 5 4 4 5 3 6 2 7 1 8 42 9 43 10 107 11 44 12
REMARK SMILES IDX 106 13 45 14 46 15 47 16 100 17 48 18 105 19 99 20 101 21
REMARK SMILES IDX 49 22 104 23 98 24 97 25 50 27 84 28 63 29 83 30 64 31 67 32
REMARK SMILES IDX 82 33 102 34 65 35 66 36 81 38 103 39 68 40 51 41 52 42
REMARK SMILES IDX 61 43 53 44 54 45 60 46 62 47 55 48 56 49 57 50 58 51 59 52
REMARK SMILES IDX 85 53 86 54 95 55 87 56 88 57 94 58 96 59 89 60 90 61 91 62
REMARK SMILES IDX 92 63 93 64 69 65 70 66 79 67 71 68 72 69 78 70 80 71 73 72
REMARK SMILES IDX 74 73 75 74 76 75 77 76 9 77 10 78 11 79 12 80 13 81 14 82
REMARK SMILES IDX 15 83 16 84 17 85 18 86 19 87 41 88 20 89 21 90 22 91 23 92
REMARK SMILES IDX 40 93 24 94 32 95 31 96 25 97 26 98 30 99 27 100 29 101
REMARK SMILES IDX 28 102 33 103 34 104 38 105 35 106 37 107 39 108 36 109
REMARK H PARENT 101 26 67 37
REMARK Flexibility Score: inf
ROOT
ATOM      1  C   UNL A   1      44.635  21.318  25.083  1.00  0.00     0.188 C 
ENDROOT
BRANCH   1   2
ATOM      2  C   UNL A   1      45.603  22.455  25.471  1.00  0.00     0.188 C 
BRANCH   2   3
ATOM      3  O   UNL A   1      46.029  22.681  26.800  1.00  0.00    -0.376 OA
BRANCH   3   4
ATOM      4  C   UNL A   1      45.478  23.481  27.826  1.00  0.00     0.202 C 
BRANCH   4   5
ATOM      5  C   UNL A   1      44.462  24.616  27.686  1.00  0.00     0.261 C 
BRANCH   5   6
ATOM      6  O   UNL A   1      44.872  25.770  26.975  1.00  0.00    -0.460 OA
BRANCH   6   7
ATOM      7  C   UNL A   1      44.106  26.669  26.329  1.00  0.00     0.338 C 
ATOM      8  O   UNL A   1      43.332  26.254  25.468  1.00  0.00    -0.246 OA
BRANCH   7   9
ATOM      9  C   UNL A   1      44.235  28.140  26.497  1.00  0.00     0.060 A 
ATOM     10  C   UNL A   1      45.408  28.842  26.775  1.00  0.00     0.016 A 
ATOM     11  C   UNL A   1      43.019  28.847  26.404  1.00  0.00     0.016 A 
ATOM     12  C   UNL A   1      45.337  30.152  27.192  1.00  0.00     0.010 A 
ATOM     13  C   UNL A   1      42.946  30.170  26.782  1.00  0.00     0.010 A 
ATOM     14  C   UNL A   1      44.091  30.762  27.288  1.00  0.00    -0.014 A 
BRANCH  14  15
ATOM     15  C   UNL A   1      44.041  32.024  27.991  1.00  0.00     0.031 A 
ATOM     16  C   UNL A   1      44.726  33.132  27.286  1.00  0.00     0.074 A 
ATOM     17  C   UNL A   1      43.426  32.103  29.187  1.00  0.00     0.049 A 
ATOM     18  N   UNL A   1      45.799  33.762  27.641  1.00  0.00    -0.248 NA
ATOM     19  C   UNL A   1      44.276  33.440  25.920  1.00  0.00     0.031 C 
ATOM     20  C   UNL A   1      42.572  31.106  29.843  1.00  0.00     0.029 A 
ATOM     21  N   UNL A   1      43.368  33.153  30.043  1.00  0.00    -0.354 N 
ATOM     22  C   UNL A   1      46.011  34.719  26.652  1.00  0.00     0.074 A 
ATOM     23  C   UNL A   1      45.176  34.349  25.542  1.00  0.00     0.031 C 
ATOM     24  C   UNL A   1      41.890  31.693  30.853  1.00  0.00     0.029 A 
ATOM     25  C   UNL A   1      42.372  33.052  31.007  1.00  0.00     0.049 A 
ATOM     26  H   UNL A   1      43.981  33.922  29.986  1.00  0.00     0.167 HD
ATOM     27  C   UNL A   1      46.659  35.884  26.929  1.00  0.00     0.037 A 
ATOM     28  C   UNL A   1      41.930  34.070  31.789  1.00  0.00     0.037 A 
ATOM     29  C   UNL A   1      47.498  35.747  28.092  1.00  0.00     0.049 A 
ATOM     30  C   UNL A   1      43.021  35.087  31.809  1.00  0.00     0.074 A 
ATOM     31  C   UNL A   1      48.582  34.949  28.407  1.00  0.00     0.029 A 
ATOM     32  N   UNL A   1      47.029  36.227  29.292  1.00  0.00    -0.354 N 
ATOM     33  N   UNL A   1      44.196  34.871  32.344  1.00  0.00    -0.248 NA
ATOM     34  C   UNL A   1      42.980  36.136  30.800  1.00  0.00     0.031 C 
ATOM     35  C   UNL A   1      48.397  34.598  29.775  1.00  0.00     0.029 A 
ATOM     36  C   UNL A   1      47.258  35.259  30.237  1.00  0.00     0.049 A 
ATOM     37  H   UNL A   1      46.607  37.102  29.444  1.00  0.00     0.167 HD
ATOM     38  C   UNL A   1      45.103  35.458  31.470  1.00  0.00     0.074 A 
ATOM     39  C   UNL A   1      44.288  36.266  30.565  1.00  0.00     0.031 C 
ATOM     40  C   UNL A   1      46.393  35.017  31.374  1.00  0.00     0.037 A 
BRANCH  27  41
ATOM     41  C   UNL A   1      46.219  37.222  26.379  1.00  0.00     0.058 A 
ATOM     42  C   UNL A   1      45.036  37.888  26.775  1.00  0.00     0.135 A 
ATOM     43  C   UNL A   1      47.139  38.008  25.653  1.00  0.00     0.135 A 
ATOM     44  F   UNL A   1      44.097  37.309  27.531  1.00  0.00    -0.206 F 
ATOM     45  C   UNL A   1      44.792  39.225  26.501  1.00  0.00     0.059 A 
ATOM     46  C   UNL A   1      46.937  39.370  25.411  1.00  0.00     0.059 A 
ATOM     47  F   UNL A   1      48.299  37.484  25.228  1.00  0.00    -0.206 F 
ATOM     48  C   UNL A   1      45.762  39.970  25.852  1.00  0.00     0.060 A 
BRANCH  48  49
ATOM     49  S   UNL A   1      45.484  41.741  25.700  1.00  0.00     0.124 S 
ATOM     50  O   UNL A   1      46.833  42.263  25.885  1.00  0.00    -0.237 OA
ATOM     51  O   UNL A   1      44.940  41.842  24.349  1.00  0.00    -0.237 OA
ATOM     52  O   UNL A   1      44.542  42.025  26.778  1.00  0.00    -0.744 OA
ENDBRANCH  48  49
ENDBRANCH  27  41
BRANCH  28  53
ATOM     53  C   UNL A   1      40.505  34.402  32.074  1.00  0.00     0.058 A 
ATOM     54  C   UNL A   1      39.977  34.342  33.381  1.00  0.00     0.135 A 
ATOM     55  C   UNL A   1      39.565  34.515  31.035  1.00  0.00     0.135 A 
ATOM     56  F   UNL A   1      40.772  34.183  34.450  1.00  0.00    -0.206 F 
ATOM     57  C   UNL A   1      38.608  34.348  33.639  1.00  0.00     0.059 A 
ATOM     58  C   UNL A   1      38.183  34.517  31.269  1.00  0.00     0.059 A 
ATOM     59  F   UNL A   1      39.979  34.561  29.758  1.00  0.00    -0.206 F 
ATOM     60  C   UNL A   1      37.716  34.405  32.576  1.00  0.00     0.060 A 
BRANCH  60  61
ATOM     61  S   UNL A   1      35.954  34.240  32.945  1.00  0.00     0.124 S 
ATOM     62  O   UNL A   1      35.971  33.325  34.082  1.00  0.00    -0.237 OA
ATOM     63  O   UNL A   1      35.578  35.618  33.251  1.00  0.00    -0.237 OA
ATOM     64  O   UNL A   1      35.394  33.699  31.712  1.00  0.00    -0.744 OA
ENDBRANCH  60  61
ENDBRANCH  28  53
BRANCH  40  65
ATOM     65  C   UNL A   1      46.899  34.027  32.396  1.00  0.00     0.058 A 
ATOM     66  C   UNL A   1      47.708  34.509  33.435  1.00  0.00     0.135 A 
ATOM     67  C   UNL A   1      46.783  32.630  32.271  1.00  0.00     0.135 A 
ATOM     68  F   UNL A   1      47.908  35.829  33.573  1.00  0.00    -0.206 F 
ATOM     69  C   UNL A   1      48.385  33.655  34.300  1.00  0.00     0.059 A 
ATOM     70  C   UNL A   1      47.427  31.752  33.149  1.00  0.00     0.059 A 
ATOM     71  F   UNL A   1      46.106  32.086  31.249  1.00  0.00    -0.206 F 
ATOM     72  C   UNL A   1      48.242  32.276  34.150  1.00  0.00     0.060 A 
BRANCH  72  73
ATOM     73  S   UNL A   1      49.174  31.201  35.262  1.00  0.00     0.124 S 
ATOM     74  O   UNL A   1      48.184  30.178  35.590  1.00  0.00    -0.237 OA
ATOM     75  O   UNL A   1      50.278  30.759  34.416  1.00  0.00    -0.237 OA
ATOM     76  O   UNL A   1      49.547  32.080  36.366  1.00  0.00    -0.744 OA
ENDBRANCH  72  73
ENDBRANCH  40  65
ENDBRANCH  14  15
ENDBRANCH   7   9
ENDBRANCH   6   7
ENDBRANCH   5   6
ENDBRANCH   4   5
ENDBRANCH   3   4
ENDBRANCH   2   3
ENDBRANCH   1   2
BRANCH   1  77
ATOM     77  O   UNL A   1      45.002  20.504  23.982  1.00  0.00    -0.377 OA
BRANCH  77  78
ATOM     78  C   UNL A   1      44.495  19.190  24.051  1.00  0.00     0.188 C 
BRANCH  78  79
ATOM     79  C   UNL A   1      44.821  18.455  25.369  1.00  0.00     0.188 C 
BRANCH  79  80
ATOM     80  O   UNL A   1      43.808  18.137  26.317  1.00  0.00    -0.376 OA
BRANCH  80  81
ATOM     81  C   UNL A   1      42.448  18.457  26.078  1.00  0.00     0.202 C 
BRANCH  81  82
ATOM     82  C   UNL A   1      41.759  19.580  26.869  1.00  0.00     0.261 C 
BRANCH  82  83
ATOM     83  O   UNL A   1      40.896  20.439  26.112  1.00  0.00    -0.458 OA
BRANCH  83  84
ATOM     84  C   UNL A   1      41.033  21.782  26.338  1.00  0.00     0.358 C 
ATOM     85  O   UNL A   1      42.088  22.362  26.487  1.00  0.00    -0.244 OA
BRANCH  84  86
ATOM     86  C   UNL A   1      39.722  22.458  26.352  1.00  0.00     0.170 A 
ATOM     87  C   UNL A   1      39.495  23.824  26.635  1.00  0.00     0.058 A 
ATOM     88  N   UNL A   1      38.559  21.813  26.096  1.00  0.00    -0.159 NA
ATOM     89  C   UNL A   1      38.155  24.015  26.410  1.00  0.00     0.118 A 
ATOM     90  N   UNL A   1      37.616  22.782  26.129  1.00  0.00    -0.222 N 
BRANCH  90  91
ATOM     91  C   UNL A   1      36.267  22.548  25.759  1.00  0.00     0.158 A 
ATOM     92  C   UNL A   1      35.366  23.600  25.735  1.00  0.00     0.078 A 
ATOM     93  N   UNL A   1      35.976  21.304  25.329  1.00  0.00    -0.209 NA
ATOM     94  C   UNL A   1      34.124  23.305  25.196  1.00  0.00     0.077 A 
ATOM     95  C   UNL A   1      34.719  21.102  24.921  1.00  0.00     0.165 A 
ATOM     96  N   UNL A   1      33.778  22.051  24.830  1.00  0.00    -0.228 NA
BRANCH  94  97
ATOM     97  C   UNL A   1      33.096  24.312  24.879  1.00  0.00     0.003 A 
ATOM     98  C   UNL A   1      31.739  23.974  24.792  1.00  0.00     0.030 A 
ATOM     99  C   UNL A   1      33.432  25.669  24.779  1.00  0.00     0.030 A 
ATOM    100  C   UNL A   1      30.802  24.985  24.618  1.00  0.00     0.111 A 
ATOM    101  C   UNL A   1      32.426  26.605  24.594  1.00  0.00     0.111 A 
ATOM    102  N   UNL A   1      31.118  26.291  24.515  1.00  0.00    -0.265 NA
ENDBRANCH  94  97
BRANCH  95 103
ATOM    103  C   UNL A   1      34.345  19.734  24.608  1.00  0.00     0.055 A 
ATOM    104  C   UNL A   1      35.303  18.705  24.626  1.00  0.00     0.015 A 
ATOM    105  C   UNL A   1      33.034  19.408  24.254  1.00  0.00     0.134 A 
ATOM    106  C   UNL A   1      34.951  17.392  24.302  1.00  0.00     0.001 A 
ATOM    107  C   UNL A   1      32.677  18.102  23.924  1.00  0.00     0.040 A 
ATOM    108  F   UNL A   1      32.091  20.360  24.192  1.00  0.00    -0.206 F 
ATOM    109  C   UNL A   1      33.637  17.092  23.949  1.00  0.00     0.003 A 
ENDBRANCH  95 103
ENDBRANCH  90  91
ENDBRANCH  84  86
ENDBRANCH  83  84
ENDBRANCH  82  83
ENDBRANCH  81  82
ENDBRANCH  80  81
ENDBRANCH  79  80
ENDBRANCH  78  79
ENDBRANCH  77  78
ENDBRANCH   1  77
TORSDOF 26
ENDMDL
MODEL 3
REMARK VINA RESULT:      -9.7      4.330      7.094
REMARK SMILES O=C(OCCOCCOCCOCCOC(=O)c1ccn(-c2cc(-c3ccncc3)nc(-c3ccccc3F)n2)n1)c1ccc(-c2c3nc(c(-c4c(F)cc(S(=O)(=O)[O-])cc4F)c4ccc([nH]4)c(-c4c(F)cc(S(=O)(=O)[O-])cc4F)c4nc(c(-c5c(F)cc(S(=O)(=O)[O-])cc5F)c5ccc2[nH]5)C=C4)C=C3)cc1
REMARK SMILES IDX 8 1 7 2 6 3 5 4 4 5 3 6 2 7 1 8 42 9 43 10 107 11 44 12
REMARK SMILES IDX 106 13 45 14 46 15 47 16 100 17 48 18 105 19 99 20 101 21
REMARK SMILES IDX 49 22 104 23 98 24 97 25 50 27 84 28 63 29 83 30 64 31 67 32
REMARK SMILES IDX 82 33 102 34 65 35 66 36 81 38 103 39 68 40 51 41 52 42
REMARK SMILES IDX 61 43 53 44 54 45 60 46 62 47 55 48 56 49 57 50 58 51 59 52
REMARK SMILES IDX 85 53 86 54 95 55 87 56 88 57 94 58 96 59 89 60 90 61 91 62
REMARK SMILES IDX 92 63 93 64 69 65 70 66 79 67 71 68 72 69 78 70 80 71 73 72
REMARK SMILES IDX 74 73 75 74 76 75 77 76 9 77 10 78 11 79 12 80 13 81 14 82
REMARK SMILES IDX 15 83 16 84 17 85 18 86 19 87 41 88 20 89 21 90 22 91 23 92
REMARK SMILES IDX 40 93 24 94 32 95 31 96 25 97 26 98 30 99 27 100 29 101
REMARK SMILES IDX 28 102 33 103 34 104 38 105 35 106 37 107 39 108 36 109
REMARK H PARENT 101 26 67 37
REMARK Flexibility Score: inf
ROOT
ATOM      1  C   UNL A   1      42.821  22.820  28.367  1.00  0.00     0.188 C 
ENDROOT
BRANCH   1   2
ATOM      2  C   UNL A   1      43.193  23.559  29.669  1.00  0.00     0.188 C 
BRANCH   2   3
ATOM      3  O   UNL A   1      43.582  22.887  30.851  1.00  0.00    -0.376 OA
BRANCH   3   4
ATOM      4  C   UNL A   1      44.073  23.383  32.079  1.00  0.00     0.202 C 
BRANCH   4   5
ATOM      5  C   UNL A   1      45.141  24.456  32.297  1.00  0.00     0.261 C 
BRANCH   5   6
ATOM      6  O   UNL A   1      45.148  25.119  33.549  1.00  0.00    -0.460 OA
BRANCH   6   7
ATOM      7  C   UNL A   1      44.098  25.469  34.316  1.00  0.00     0.338 C 
ATOM      8  O   UNL A   1      43.809  24.740  35.264  1.00  0.00    -0.246 OA
BRANCH   7   9
ATOM      9  C   UNL A   1      43.188  26.602  34.007  1.00  0.00     0.060 A 
ATOM     10  C   UNL A   1      43.392  27.587  33.040  1.00  0.00     0.016 A 
ATOM     11  C   UNL A   1      42.046  26.674  34.829  1.00  0.00     0.016 A 
ATOM     12  C   UNL A   1      42.625  28.730  33.058  1.00  0.00     0.010 A 
ATOM     13  C   UNL A   1      41.250  27.798  34.826  1.00  0.00     0.010 A 
ATOM     14  C   UNL A   1      41.632  28.860  34.023  1.00  0.00    -0.014 A 
BRANCH  14  15
ATOM     15  C   UNL A   1      41.052  30.174  34.183  1.00  0.00     0.031 A 
ATOM     16  C   UNL A   1      40.144  30.569  33.080  1.00  0.00     0.074 A 
ATOM     17  C   UNL A   1      41.374  30.925  35.254  1.00  0.00     0.049 A 
ATOM     18  N   UNL A   1      40.313  31.503  32.202  1.00  0.00    -0.248 NA
ATOM     19  C   UNL A   1      39.003  29.683  32.800  1.00  0.00     0.031 C 
ATOM     20  C   UNL A   1      42.104  30.525  36.463  1.00  0.00     0.029 A 
ATOM     21  N   UNL A   1      41.030  32.207  35.525  1.00  0.00    -0.354 N 
ATOM     22  C   UNL A   1      39.169  31.478  31.409  1.00  0.00     0.074 A 
ATOM     23  C   UNL A   1      38.506  30.234  31.692  1.00  0.00     0.031 C 
ATOM     24  C   UNL A   1      41.924  31.458  37.425  1.00  0.00     0.029 A 
ATOM     25  C   UNL A   1      41.202  32.578  36.853  1.00  0.00     0.049 A 
ATOM     26  H   UNL A   1      40.686  32.824  34.838  1.00  0.00     0.167 HD
ATOM     27  C   UNL A   1      38.725  32.600  30.780  1.00  0.00     0.037 A 
ATOM     28  C   UNL A   1      40.683  33.691  37.431  1.00  0.00     0.037 A 
ATOM     29  C   UNL A   1      39.792  33.551  30.600  1.00  0.00     0.049 A 
ATOM     30  C   UNL A   1      40.396  34.645  36.322  1.00  0.00     0.074 A 
ATOM     31  C   UNL A   1      40.999  33.525  29.926  1.00  0.00     0.029 A 
ATOM     32  N   UNL A   1      39.881  34.603  31.481  1.00  0.00    -0.354 N 
ATOM     33  N   UNL A   1      41.327  35.181  35.574  1.00  0.00    -0.248 NA
ATOM     34  C   UNL A   1      39.068  34.602  35.725  1.00  0.00     0.031 C 
ATOM     35  C   UNL A   1      41.909  34.225  30.771  1.00  0.00     0.029 A 
ATOM     36  C   UNL A   1      41.193  34.701  31.871  1.00  0.00     0.049 A 
ATOM     37  H   UNL A   1      39.140  35.178  31.777  1.00  0.00     0.167 HD
ATOM     38  C   UNL A   1      40.806  35.170  34.286  1.00  0.00     0.074 A 
ATOM     39  C   UNL A   1      39.390  34.848  34.452  1.00  0.00     0.031 C 
ATOM     40  C   UNL A   1      41.616  35.137  33.186  1.00  0.00     0.037 A 
BRANCH  27  41
ATOM     41  C   UNL A   1      37.262  32.973  30.695  1.00  0.00     0.058 A 
ATOM     42  C   UNL A   1      36.498  33.427  31.795  1.00  0.00     0.135 A 
ATOM     43  C   UNL A   1      36.669  33.166  29.429  1.00  0.00     0.135 A 
ATOM     44  F   UNL A   1      36.947  33.386  33.054  1.00  0.00    -0.206 F 
ATOM     45  C   UNL A   1      35.264  34.043  31.657  1.00  0.00     0.059 A 
ATOM     46  C   UNL A   1      35.452  33.832  29.264  1.00  0.00     0.059 A 
ATOM     47  F   UNL A   1      37.304  32.780  28.311  1.00  0.00    -0.206 F 
ATOM     48  C   UNL A   1      34.763  34.277  30.387  1.00  0.00     0.060 A 
BRANCH  48  49
ATOM     49  S   UNL A   1      33.260  35.256  30.256  1.00  0.00     0.124 S 
ATOM     50  O   UNL A   1      32.568  34.579  29.164  1.00  0.00    -0.237 OA
ATOM     51  O   UNL A   1      32.677  35.087  31.583  1.00  0.00    -0.237 OA
ATOM     52  O   UNL A   1      33.757  36.594  29.955  1.00  0.00    -0.744 OA
ENDBRANCH  48  49
ENDBRANCH  27  41
BRANCH  28  53
ATOM     53  C   UNL A   1      39.997  33.754  38.753  1.00  0.00     0.058 A 
ATOM     54  C   UNL A   1      40.643  34.261  39.901  1.00  0.00     0.135 A 
ATOM     55  C   UNL A   1      38.793  33.064  38.980  1.00  0.00     0.135 A 
ATOM     56  F   UNL A   1      41.823  34.894  39.816  1.00  0.00    -0.206 F 
ATOM     57  C   UNL A   1      40.155  34.059  41.190  1.00  0.00     0.059 A 
ATOM     58  C   UNL A   1      38.285  32.842  40.267  1.00  0.00     0.059 A 
ATOM     59  F   UNL A   1      38.121  32.533  37.946  1.00  0.00    -0.206 F 
ATOM     60  C   UNL A   1      38.991  33.322  41.368  1.00  0.00     0.060 A 
BRANCH  60  61
ATOM     61  S   UNL A   1      38.486  32.941  43.061  1.00  0.00     0.124 S 
ATOM     62  O   UNL A   1      37.598  34.057  43.367  1.00  0.00    -0.237 OA
ATOM     63  O   UNL A   1      37.835  31.644  42.898  1.00  0.00    -0.237 OA
ATOM     64  O   UNL A   1      39.746  32.918  43.797  1.00  0.00    -0.744 OA
ENDBRANCH  60  61
ENDBRANCH  28  53
BRANCH  40  65
ATOM     65  C   UNL A   1      43.101  35.344  33.372  1.00  0.00     0.058 A 
ATOM     66  C   UNL A   1      43.896  34.219  33.630  1.00  0.00     0.135 A 
ATOM     67  C   UNL A   1      43.715  36.604  33.500  1.00  0.00     0.135 A 
ATOM     68  F   UNL A   1      43.356  32.990  33.581  1.00  0.00    -0.206 F 
ATOM     69  C   UNL A   1      45.228  34.329  34.014  1.00  0.00     0.059 A 
ATOM     70  C   UNL A   1      45.061  36.740  33.853  1.00  0.00     0.059 A 
ATOM     71  F   UNL A   1      43.002  37.733  33.364  1.00  0.00    -0.206 F 
ATOM     72  C   UNL A   1      45.805  35.593  34.127  1.00  0.00     0.060 A 
BRANCH  72  73
ATOM     73  S   UNL A   1      47.523  35.696  34.674  1.00  0.00     0.124 S 
ATOM     74  O   UNL A   1      48.185  36.226  33.484  1.00  0.00    -0.237 OA
ATOM     75  O   UNL A   1      47.435  36.614  35.806  1.00  0.00    -0.237 OA
ATOM     76  O   UNL A   1      47.865  34.318  35.012  1.00  0.00    -0.744 OA
ENDBRANCH  72  73
ENDBRANCH  40  65
ENDBRANCH  14  15
ENDBRANCH   7   9
ENDBRANCH   6   7
ENDBRANCH   5   6
ENDBRANCH   4   5
ENDBRANCH   3   4
ENDBRANCH   2   3
ENDBRANCH   1   2
BRANCH   1  77
ATOM     77  O   UNL A   1      43.842  22.669  27.396  1.00  0.00    -0.377 OA
BRANCH  77  78
ATOM     78  C   UNL A   1      43.372  22.237  26.138  1.00  0.00     0.188 C 
BRANCH  78  79
ATOM     79  C   UNL A   1      43.742  23.174  24.969  1.00  0.00     0.188 C 
BRANCH  79  80
ATOM     80  O   UNL A   1      43.094  24.427  24.782  1.00  0.00    -0.376 OA
BRANCH  80  81
ATOM     81  C   UNL A   1      43.084  25.411  25.803  1.00  0.00     0.202 C 
BRANCH  81  82
ATOM     82  C   UNL A   1      41.783  26.143  26.170  1.00  0.00     0.261 C 
BRANCH  82  83
ATOM     83  O   UNL A   1      40.568  25.443  25.876  1.00  0.00    -0.458 OA
BRANCH  83  84
ATOM     84  C   UNL A   1      39.951  24.833  26.935  1.00  0.00     0.358 C 
ATOM     85  O   UNL A   1      39.996  25.216  28.085  1.00  0.00    -0.244 OA
BRANCH  84  86
ATOM     86  C   UNL A   1      39.189  23.648  26.500  1.00  0.00     0.170 A 
ATOM     87  C   UNL A   1      39.658  22.314  26.494  1.00  0.00     0.058 A 
ATOM     88  N   UNL A   1      37.920  23.720  26.034  1.00  0.00    -0.159 NA
ATOM     89  C   UNL A   1      38.573  21.558  26.130  1.00  0.00     0.118 A 
ATOM     90  N   UNL A   1      37.559  22.433  25.821  1.00  0.00    -0.222 N 
BRANCH  90  91
ATOM     91  C   UNL A   1      36.237  22.058  25.471  1.00  0.00     0.158 A 
ATOM     92  C   UNL A   1      35.977  20.764  25.049  1.00  0.00     0.078 A 
ATOM     93  N   UNL A   1      35.279  22.979  25.695  1.00  0.00    -0.209 NA
ATOM     94  C   UNL A   1      34.635  20.449  24.898  1.00  0.00     0.077 A 
ATOM     95  C   UNL A   1      34.025  22.602  25.425  1.00  0.00     0.165 A 
ATOM     96  N   UNL A   1      33.659  21.372  25.040  1.00  0.00    -0.228 NA
BRANCH  94  97
ATOM     97  C   UNL A   1      34.124  19.086  24.668  1.00  0.00     0.003 A 
ATOM     98  C   UNL A   1      34.980  18.026  24.345  1.00  0.00     0.030 A 
ATOM     99  C   UNL A   1      32.774  18.782  24.890  1.00  0.00     0.030 A 
ATOM    100  C   UNL A   1      34.461  16.740  24.265  1.00  0.00     0.111 A 
ATOM    101  C   UNL A   1      32.346  17.468  24.777  1.00  0.00     0.111 A 
ATOM    102  N   UNL A   1      33.163  16.440  24.472  1.00  0.00    -0.265 NA
ENDBRANCH  94  97
BRANCH  95 103
ATOM    103  C   UNL A   1      33.001  23.627  25.505  1.00  0.00     0.055 A 
ATOM    104  C   UNL A   1      32.082  23.642  26.570  1.00  0.00     0.015 A 
ATOM    105  C   UNL A   1      32.882  24.608  24.518  1.00  0.00     0.134 A 
ATOM    106  C   UNL A   1      31.080  24.615  26.638  1.00  0.00     0.001 A 
ATOM    107  C   UNL A   1      31.882  25.576  24.577  1.00  0.00     0.040 A 
ATOM    108  F   UNL A   1      33.716  24.617  23.467  1.00  0.00    -0.206 F 
ATOM    109  C   UNL A   1      30.980  25.581  25.639  1.00  0.00     0.003 A 
ENDBRANCH  95 103
ENDBRANCH  90  91
ENDBRANCH  84  86
ENDBRANCH  83  84
ENDBRANCH  82  83
ENDBRANCH  81  82
ENDBRANCH  80  81
ENDBRANCH  79  80
ENDBRANCH  78  79
ENDBRANCH  77  78
ENDBRANCH   1  77
TORSDOF 26
ENDMDL
