MODEL 1
REMARK VINA RESULT:      -9.1      0.000      0.000
REMARK SMILES COc1ccc2[nH]c(C(=O)c3cc(C)ccn3)c(CC(=O)OCCOCCOCCOCCOC(=O)c3ccc(-c4c5nc(c(-c6c(F)cc(S(=O)(=O)[O-])cc6F)c6ccc([nH]6)c(-c6c(F)cc(S(=O)(=O)[O-])cc6F)c6nc(c(-c7c(F)cc(S(=O)(=O)[O-])cc7F)c7ccc4[nH]7)C=C6)C=C5)cc3)c2c1
REMARK SMILES IDX 28 1 27 2 26 3 25 4 24 5 23 6 22 7 20 8 21 9 19 10 18 11
REMARK SMILES IDX 3 12 4 13 104 14 5 15 103 16 6 17 7 18 8 19 2 21 1 22 9 23
REMARK SMILES IDX 10 24 11 25 12 26 17 27 13 28 16 29 14 30 15 31 29 32 30 33
REMARK SMILES IDX 31 34 32 35 33 36 34 37 35 38 36 39 37 40 38 41 102 42 39 43
REMARK SMILES IDX 101 44 40 45 41 46 42 47 95 48 43 49 100 50 94 51 96 52
REMARK SMILES IDX 44 53 99 54 93 55 92 56 45 58 79 59 58 60 78 61 59 62 62 63
REMARK SMILES IDX 77 64 97 65 60 66 61 67 76 69 98 70 63 71 46 72 47 73 56 74
REMARK SMILES IDX 48 75 49 76 55 77 57 78 50 79 51 80 52 81 53 82 54 83 80 84
REMARK SMILES IDX 81 85 90 86 82 87 83 88 89 89 91 90 84 91 85 92 86 93 87 94
REMARK SMILES IDX 88 95 64 96 65 97 74 98 66 99 67 100 73 101 75 102 68 103
REMARK SMILES IDX 69 104 70 105 71 106 72 107
REMARK H PARENT 7 20 96 57 62 68
REMARK Flexibility Score: inf
ROOT
ATOM      1  O   UNL A   1      34.379  32.185  29.113  1.00  0.00    -0.377 OA
ENDROOT
BRANCH   1   2
ATOM      2  C   UNL A   1      34.199  33.470  28.543  1.00  0.00     0.188 C 
BRANCH   2   3
ATOM      3  C   UNL A   1      33.064  33.604  27.502  1.00  0.00     0.188 C 
BRANCH   3   4
ATOM      4  O   UNL A   1      31.833  32.902  27.653  1.00  0.00    -0.376 OA
BRANCH   4   5
ATOM      5  C   UNL A   1      31.603  31.750  26.863  1.00  0.00     0.202 C 
BRANCH   5   6
ATOM      6  C   UNL A   1      32.804  30.828  26.558  1.00  0.00     0.261 C 
BRANCH   6   7
ATOM      7  O   UNL A   1      32.706  29.458  27.030  1.00  0.00    -0.463 OA
BRANCH   7   8
ATOM      8  C   UNL A   1      33.271  28.497  26.261  1.00  0.00     0.310 C 
ATOM      9  O   UNL A   1      34.119  28.741  25.403  1.00  0.00    -0.252 OA
BRANCH   8  10
ATOM     10  C   UNL A   1      32.821  27.053  26.501  1.00  0.00     0.161 C 
BRANCH  10  11
ATOM     11  C   UNL A   1      31.528  26.478  25.934  1.00  0.00     0.000 A 
ATOM     12  C   UNL A   1      29.797  28.786  23.396  1.00  0.00     0.119 A 
ATOM     13  C   UNL A   1      28.751  27.917  23.093  1.00  0.00     0.048 A 
ATOM     14  C   UNL A   1      30.749  28.431  24.361  1.00  0.00     0.057 A 
ATOM     15  C   UNL A   1      28.638  26.678  23.737  1.00  0.00     0.030 A 
ATOM     16  C   UNL A   1      30.681  27.175  25.000  1.00  0.00     0.008 A 
ATOM     17  C   UNL A   1      29.629  26.331  24.663  1.00  0.00     0.046 A 
ATOM     18  N   UNL A   1      29.795  25.181  25.390  1.00  0.00    -0.352 N 
ATOM     19  C   UNL A   1      31.032  25.156  26.006  1.00  0.00     0.093 A 
ATOM     20  H   UNL A   1      29.122  24.466  25.463  1.00  0.00     0.167 HD
BRANCH  12  21
ATOM     21  O   UNL A   1      30.045  29.976  22.766  1.00  0.00    -0.497 OA
ATOM     22  C   UNL A   1      29.280  30.245  21.598  1.00  0.00     0.278 C 
ENDBRANCH  12  21
BRANCH  19  23
ATOM     23  C   UNL A   1      31.630  23.970  26.637  1.00  0.00     0.227 C 
ATOM     24  O   UNL A   1      31.029  23.323  27.493  1.00  0.00    -0.285 OA
BRANCH  23  25
ATOM     25  C   UNL A   1      32.999  23.463  26.245  1.00  0.00     0.113 A 
ATOM     26  C   UNL A   1      33.527  23.578  24.958  1.00  0.00     0.036 A 
ATOM     27  N   UNL A   1      33.707  22.913  27.269  1.00  0.00    -0.253 NA
ATOM     28  C   UNL A   1      34.815  23.071  24.706  1.00  0.00    -0.047 A 
ATOM     29  C   UNL A   1      34.949  22.455  27.007  1.00  0.00     0.112 A 
ATOM     30  C   UNL A   1      35.452  23.130  23.348  1.00  0.00     0.044 C 
ATOM     31  C   UNL A   1      35.524  22.477  25.753  1.00  0.00     0.023 A 
ENDBRANCH  23  25
ENDBRANCH  19  23
ENDBRANCH  10  11
ENDBRANCH   8  10
ENDBRANCH   7   8
ENDBRANCH   6   7
ENDBRANCH   5   6
ENDBRANCH   4   5
ENDBRANCH   3   4
ENDBRANCH   2   3
ENDBRANCH   1   2
BRANCH   1  32
ATOM     32  C   UNL A   1      34.780  32.182  30.470  1.00  0.00     0.188 C 
BRANCH  32  33
ATOM     33  C   UNL A   1      35.051  33.586  31.020  1.00  0.00     0.188 C 
BRANCH  33  34
ATOM     34  O   UNL A   1      35.655  33.573  32.307  1.00  0.00    -0.376 OA
BRANCH  34  35
ATOM     35  C   UNL A   1      35.692  32.359  33.038  1.00  0.00     0.202 C 
BRANCH  35  36
ATOM     36  C   UNL A   1      36.848  31.385  32.745  1.00  0.00     0.261 C 
BRANCH  36  37
ATOM     37  O   UNL A   1      38.083  31.668  33.402  1.00  0.00    -0.460 OA
BRANCH  37  38
ATOM     38  C   UNL A   1      38.869  32.606  32.838  1.00  0.00     0.338 C 
ATOM     39  O   UNL A   1      38.834  33.809  33.019  1.00  0.00    -0.246 OA
BRANCH  38  40
ATOM     40  C   UNL A   1      39.939  31.874  32.145  1.00  0.00     0.060 A 
ATOM     41  C   UNL A   1      40.740  31.010  32.900  1.00  0.00     0.016 A 
ATOM     42  C   UNL A   1      40.098  31.988  30.761  1.00  0.00     0.016 A 
ATOM     43  C   UNL A   1      41.725  30.266  32.271  1.00  0.00     0.010 A 
ATOM     44  C   UNL A   1      41.112  31.268  30.134  1.00  0.00     0.010 A 
ATOM     45  C   UNL A   1      41.946  30.436  30.898  1.00  0.00    -0.014 A 
BRANCH  45  46
ATOM     46  C   UNL A   1      43.217  29.943  30.338  1.00  0.00     0.031 A 
ATOM     47  C   UNL A   1      43.204  28.585  29.698  1.00  0.00     0.074 A 
ATOM     48  C   UNL A   1      44.312  30.719  30.338  1.00  0.00     0.049 A 
ATOM     49  N   UNL A   1      44.170  27.932  29.117  1.00  0.00    -0.248 NA
ATOM     50  C   UNL A   1      41.915  27.865  29.716  1.00  0.00     0.031 C 
ATOM     51  C   UNL A   1      44.391  32.070  30.891  1.00  0.00     0.029 A 
ATOM     52  N   UNL A   1      45.567  30.480  29.845  1.00  0.00    -0.354 N 
ATOM     53  C   UNL A   1      43.611  26.730  28.699  1.00  0.00     0.074 A 
ATOM     54  C   UNL A   1      42.232  26.725  29.124  1.00  0.00     0.031 C 
ATOM     55  C   UNL A   1      45.639  32.541  30.711  1.00  0.00     0.029 A 
ATOM     56  C   UNL A   1      46.446  31.513  30.060  1.00  0.00     0.049 A 
ATOM     57  H   UNL A   1      45.815  29.647  29.383  1.00  0.00     0.167 HD
ATOM     58  C   UNL A   1      44.202  25.726  28.013  1.00  0.00     0.037 A 
ATOM     59  C   UNL A   1      47.759  31.598  29.772  1.00  0.00     0.037 A 
ATOM     60  C   UNL A   1      45.582  25.755  27.612  1.00  0.00     0.049 A 
ATOM     61  C   UNL A   1      48.413  30.436  29.068  1.00  0.00     0.074 A 
ATOM     62  C   UNL A   1      46.299  24.799  26.919  1.00  0.00     0.029 A 
ATOM     63  N   UNL A   1      46.457  26.801  27.880  1.00  0.00    -0.354 N 
ATOM     64  N   UNL A   1      47.876  29.305  28.668  1.00  0.00    -0.248 NA
ATOM     65  C   UNL A   1      49.844  30.561  28.769  1.00  0.00     0.031 C 
ATOM     66  C   UNL A   1      47.623  25.242  26.818  1.00  0.00     0.029 A 
ATOM     67  C   UNL A   1      47.715  26.503  27.389  1.00  0.00     0.049 A 
ATOM     68  H   UNL A   1      46.216  27.632  28.350  1.00  0.00     0.167 HD
ATOM     69  C   UNL A   1      48.898  28.595  28.046  1.00  0.00     0.074 A 
ATOM     70  C   UNL A   1      50.080  29.434  28.111  1.00  0.00     0.031 C 
ATOM     71  C   UNL A   1      48.868  27.366  27.471  1.00  0.00     0.037 A 
BRANCH  58  72
ATOM     72  C   UNL A   1      43.370  24.513  27.700  1.00  0.00     0.058 A 
ATOM     73  C   UNL A   1      43.352  23.385  28.535  1.00  0.00     0.135 A 
ATOM     74  C   UNL A   1      42.574  24.481  26.543  1.00  0.00     0.135 A 
ATOM     75  F   UNL A   1      44.117  23.347  29.639  1.00  0.00    -0.206 F 
ATOM     76  C   UNL A   1      42.593  22.260  28.225  1.00  0.00     0.059 A 
ATOM     77  C   UNL A   1      41.785  23.379  26.228  1.00  0.00     0.059 A 
ATOM     78  F   UNL A   1      42.565  25.525  25.699  1.00  0.00    -0.206 F 
ATOM     79  C   UNL A   1      41.812  22.268  27.069  1.00  0.00     0.060 A 
BRANCH  79  80
ATOM     80  S   UNL A   1      40.827  20.805  26.684  1.00  0.00     0.124 S 
ATOM     81  O   UNL A   1      39.617  21.404  26.130  1.00  0.00    -0.237 OA
ATOM     82  O   UNL A   1      41.678  20.100  25.730  1.00  0.00    -0.237 OA
ATOM     83  O   UNL A   1      40.666  20.150  27.979  1.00  0.00    -0.744 OA
ENDBRANCH  79  80
ENDBRANCH  58  72
BRANCH  59  84
ATOM     84  C   UNL A   1      48.532  32.810  30.156  1.00  0.00     0.058 A 
ATOM     85  C   UNL A   1      48.594  33.934  29.321  1.00  0.00     0.135 A 
ATOM     86  C   UNL A   1      49.220  32.869  31.380  1.00  0.00     0.135 A 
ATOM     87  F   UNL A   1      47.961  33.926  28.138  1.00  0.00    -0.206 F 
ATOM     88  C   UNL A   1      49.323  35.067  29.673  1.00  0.00     0.059 A 
ATOM     89  C   UNL A   1      49.932  34.001  31.767  1.00  0.00     0.059 A 
ATOM     90  F   UNL A   1      49.186  31.825  32.223  1.00  0.00    -0.206 F 
ATOM     91  C   UNL A   1      49.986  35.091  30.902  1.00  0.00     0.060 A 
BRANCH  91  92
ATOM     92  S   UNL A   1      50.895  36.581  31.368  1.00  0.00     0.124 S 
ATOM     93  O   UNL A   1      51.830  36.057  32.357  1.00  0.00    -0.237 OA
ATOM     94  O   UNL A   1      51.475  36.994  30.094  1.00  0.00    -0.237 OA
ATOM     95  O   UNL A   1      49.853  37.460  31.889  1.00  0.00    -0.744 OA
ENDBRANCH  91  92
ENDBRANCH  59  84
BRANCH  71  96
ATOM     96  C   UNL A   1      50.140  26.875  26.837  1.00  0.00     0.058 A 
ATOM     97  C   UNL A   1      51.068  26.096  27.545  1.00  0.00     0.135 A 
ATOM     98  C   UNL A   1      50.406  27.149  25.485  1.00  0.00     0.135 A 
ATOM     99  F   UNL A   1      50.861  25.809  28.840  1.00  0.00    -0.206 F 
ATOM    100  C   UNL A   1      52.233  25.635  26.944  1.00  0.00     0.059 A 
ATOM    101  C   UNL A   1      51.547  26.669  24.854  1.00  0.00     0.059 A 
ATOM    102  F   UNL A   1      49.542  27.876  24.758  1.00  0.00    -0.206 F 
ATOM    103  C   UNL A   1      52.463  25.925  25.597  1.00  0.00     0.060 A 
BRANCH 103 104
ATOM    104  S   UNL A   1      53.970  25.302  24.825  1.00  0.00     0.124 S 
ATOM    105  O   UNL A   1      53.904  25.926  23.508  1.00  0.00    -0.237 OA
ATOM    106  O   UNL A   1      55.009  25.808  25.717  1.00  0.00    -0.237 OA
ATOM    107  O   UNL A   1      53.786  23.854  24.843  1.00  0.00    -0.744 OA
ENDBRANCH 103 104
ENDBRANCH  71  96
ENDBRANCH  45  46
ENDBRANCH  38  40
ENDBRANCH  37  38
ENDBRANCH  36  37
ENDBRANCH  35  36
ENDBRANCH  34  35
ENDBRANCH  33  34
ENDBRANCH  32  33
ENDBRANCH   1  32
TORSDOF 27
ENDMDL
MODEL 2
REMARK VINA RESULT:      -9.0      6.045     11.478
REMARK SMILES COc1ccc2[nH]c(C(=O)c3cc(C)ccn3)c(CC(=O)OCCOCCOCCOCCOC(=O)c3ccc(-c4c5nc(c(-c6c(F)cc(S(=O)(=O)[O-])cc6F)c6ccc([nH]6)c(-c6c(F)cc(S(=O)(=O)[O-])cc6F)c6nc(c(-c7c(F)cc(S(=O)(=O)[O-])cc7F)c7ccc4[nH]7)C=C6)C=C5)cc3)c2c1
REMARK SMILES IDX 28 1 27 2 26 3 25 4 24 5 23 6 22 7 20 8 21 9 19 10 18 11
REMARK SMILES IDX 3 12 4 13 104 14 5 15 103 16 6 17 7 18 8 19 2 21 1 22 9 23
REMARK SMILES IDX 10 24 11 25 12 26 17 27 13 28 16 29 14 30 15 31 29 32 30 33
REMARK SMILES IDX 31 34 32 35 33 36 34 37 35 38 36 39 37 40 38 41 102 42 39 43
REMARK SMILES IDX 101 44 40 45 41 46 42 47 95 48 43 49 100 50 94 51 96 52
REMARK SMILES IDX 44 53 99 54 93 55 92 56 45 58 79 59 58 60 78 61 59 62 62 63
REMARK SMILES IDX 77 64 97 65 60 66 61 67 76 69 98 70 63 71 46 72 47 73 56 74
REMARK SMILES IDX 48 75 49 76 55 77 57 78 50 79 51 80 52 81 53 82 54 83 80 84
REMARK SMILES IDX 81 85 90 86 82 87 83 88 89 89 91 90 84 91 85 92 86 93 87 94
REMARK SMILES IDX 88 95 64 96 65 97 74 98 66 99 67 100 73 101 75 102 68 103
REMARK SMILES IDX 69 104 70 105 71 106 72 107
REMARK H PARENT 7 20 96 57 62 68
REMARK Flexibility Score: inf
ROOT
ATOM      1  O   UNL A   1      35.862  29.655  27.535  1.00  0.00    -0.377 OA
ENDROOT
BRANCH   1   2
ATOM      2  C   UNL A   1      36.600  29.992  28.697  1.00  0.00     0.188 C 
BRANCH   2   3
ATOM      3  C   UNL A   1      38.123  29.733  28.642  1.00  0.00     0.188 C 
BRANCH   3   4
ATOM      4  O   UNL A   1      38.648  28.511  28.128  1.00  0.00    -0.376 OA
BRANCH   4   5
ATOM      5  C   UNL A   1      40.023  28.230  28.311  1.00  0.00     0.202 C 
BRANCH   5   6
ATOM      6  C   UNL A   1      40.451  26.752  28.438  1.00  0.00     0.261 C 
BRANCH   6   7
ATOM      7  O   UNL A   1      41.768  26.503  28.997  1.00  0.00    -0.463 OA
BRANCH   7   8
ATOM      8  C   UNL A   1      42.506  25.519  28.429  1.00  0.00     0.310 C 
ATOM      9  O   UNL A   1      43.205  24.747  29.085  1.00  0.00    -0.252 OA
BRANCH   8  10
ATOM     10  C   UNL A   1      42.441  25.383  26.906  1.00  0.00     0.161 C 
BRANCH  10  11
ATOM     11  C   UNL A   1      42.773  24.091  26.169  1.00  0.00     0.000 A 
ATOM     12  C   UNL A   1      46.241  24.104  24.516  1.00  0.00     0.119 A 
ATOM     13  C   UNL A   1      46.181  22.800  24.030  1.00  0.00     0.048 A 
ATOM     14  C   UNL A   1      45.146  24.653  25.198  1.00  0.00     0.057 A 
ATOM     15  C   UNL A   1      45.036  22.015  24.222  1.00  0.00     0.030 A 
ATOM     16  C   UNL A   1      43.994  23.875  25.437  1.00  0.00     0.008 A 
ATOM     17  C   UNL A   1      43.976  22.574  24.947  1.00  0.00     0.046 A 
ATOM     18  N   UNL A   1      42.778  22.025  25.323  1.00  0.00    -0.352 N 
ATOM     19  C   UNL A   1      42.121  22.837  26.229  1.00  0.00     0.093 A 
ATOM     20  H   UNL A   1      42.430  21.166  24.991  1.00  0.00     0.167 HD
BRANCH  12  21
ATOM     21  O   UNL A   1      47.339  24.921  24.456  1.00  0.00    -0.497 OA
ATOM     22  C   UNL A   1      47.193  26.220  25.017  1.00  0.00     0.278 C 
ENDBRANCH  12  21
BRANCH  19  23
ATOM     23  C   UNL A   1      40.953  22.432  27.024  1.00  0.00     0.227 C 
ATOM     24  O   UNL A   1      41.074  21.962  28.155  1.00  0.00    -0.285 OA
BRANCH  23  25
ATOM     25  C   UNL A   1      39.541  22.602  26.512  1.00  0.00     0.113 A 
ATOM     26  C   UNL A   1      38.812  21.581  25.901  1.00  0.00     0.036 A 
ATOM     27  N   UNL A   1      39.010  23.835  26.731  1.00  0.00    -0.253 NA
ATOM     28  C   UNL A   1      37.503  21.851  25.462  1.00  0.00    -0.047 A 
ATOM     29  C   UNL A   1      37.744  24.062  26.323  1.00  0.00     0.112 A 
ATOM     30  C   UNL A   1      36.655  20.820  24.774  1.00  0.00     0.044 C 
ATOM     31  C   UNL A   1      36.975  23.129  25.660  1.00  0.00     0.023 A 
ENDBRANCH  23  25
ENDBRANCH  19  23
ENDBRANCH  10  11
ENDBRANCH   8  10
ENDBRANCH   7   8
ENDBRANCH   6   7
ENDBRANCH   5   6
ENDBRANCH   4   5
ENDBRANCH   3   4
ENDBRANCH   2   3
ENDBRANCH   1   2
BRANCH   1  32
ATOM     32  C   UNL A   1      34.462  29.569  27.718  1.00  0.00     0.188 C 
BRANCH  32  33
ATOM     33  C   UNL A   1      33.674  30.463  26.756  1.00  0.00     0.188 C 
BRANCH  33  34
ATOM     34  O   UNL A   1      32.542  31.072  27.363  1.00  0.00    -0.376 OA
BRANCH  34  35
ATOM     35  C   UNL A   1      32.354  32.470  27.224  1.00  0.00     0.202 C 
BRANCH  35  36
ATOM     36  C   UNL A   1      33.414  33.399  27.843  1.00  0.00     0.261 C 
BRANCH  36  37
ATOM     37  O   UNL A   1      33.825  33.076  29.171  1.00  0.00    -0.460 OA
BRANCH  37  38
ATOM     38  C   UNL A   1      33.741  34.060  30.088  1.00  0.00     0.338 C 
ATOM     39  O   UNL A   1      32.891  34.927  30.168  1.00  0.00    -0.246 OA
BRANCH  38  40
ATOM     40  C   UNL A   1      34.739  33.740  31.118  1.00  0.00     0.060 A 
ATOM     41  C   UNL A   1      35.452  34.797  31.695  1.00  0.00     0.016 A 
ATOM     42  C   UNL A   1      34.911  32.423  31.558  1.00  0.00     0.016 A 
ATOM     43  C   UNL A   1      36.363  34.536  32.705  1.00  0.00     0.010 A 
ATOM     44  C   UNL A   1      35.853  32.158  32.548  1.00  0.00     0.010 A 
ATOM     45  C   UNL A   1      36.602  33.213  33.093  1.00  0.00    -0.014 A 
BRANCH  45  46
ATOM     46  C   UNL A   1      37.822  32.932  33.872  1.00  0.00     0.031 A 
ATOM     47  C   UNL A   1      39.040  32.502  33.106  1.00  0.00     0.074 A 
ATOM     48  C   UNL A   1      37.850  33.132  35.198  1.00  0.00     0.049 A 
ATOM     49  N   UNL A   1      40.236  32.217  33.540  1.00  0.00    -0.248 NA
ATOM     50  C   UNL A   1      38.886  32.380  31.643  1.00  0.00     0.031 C 
ATOM     51  C   UNL A   1      36.725  33.601  36.006  1.00  0.00     0.029 A 
ATOM     52  N   UNL A   1      38.870  32.973  36.097  1.00  0.00    -0.354 N 
ATOM     53  C   UNL A   1      40.974  31.883  32.411  1.00  0.00     0.074 A 
ATOM     54  C   UNL A   1      40.087  31.966  31.275  1.00  0.00     0.031 C 
ATOM     55  C   UNL A   1      37.118  33.686  37.290  1.00  0.00     0.029 A 
ATOM     56  C   UNL A   1      38.508  33.250  37.392  1.00  0.00     0.049 A 
ATOM     57  H   UNL A   1      39.776  32.687  35.839  1.00  0.00     0.167 HD
ATOM     58  C   UNL A   1      42.281  31.548  32.335  1.00  0.00     0.037 A 
ATOM     59  C   UNL A   1      39.225  33.141  38.527  1.00  0.00     0.037 A 
ATOM     60  C   UNL A   1      43.139  31.465  33.486  1.00  0.00     0.049 A 
ATOM     61  C   UNL A   1      40.663  32.698  38.425  1.00  0.00     0.074 A 
ATOM     62  C   UNL A   1      44.478  31.130  33.542  1.00  0.00     0.029 A 
ATOM     63  N   UNL A   1      42.730  31.713  34.791  1.00  0.00    -0.354 N 
ATOM     64  N   UNL A   1      41.358  32.393  37.352  1.00  0.00    -0.248 NA
ATOM     65  C   UNL A   1      41.415  32.591  39.680  1.00  0.00     0.031 C 
ATOM     66  C   UNL A   1      44.865  31.121  34.887  1.00  0.00     0.029 A 
ATOM     67  C   UNL A   1      43.784  31.515  35.663  1.00  0.00     0.049 A 
ATOM     68  H   UNL A   1      41.823  31.991  35.055  1.00  0.00     0.167 HD
ATOM     69  C   UNL A   1      42.638  32.084  37.800  1.00  0.00     0.074 A 
ATOM     70  C   UNL A   1      42.621  32.255  39.241  1.00  0.00     0.031 C 
ATOM     71  C   UNL A   1      43.729  31.697  37.093  1.00  0.00     0.037 A 
BRANCH  58  72
ATOM     72  C   UNL A   1      42.837  31.211  30.979  1.00  0.00     0.058 A 
ATOM     73  C   UNL A   1      42.847  29.898  30.483  1.00  0.00     0.135 A 
ATOM     74  C   UNL A   1      43.365  32.222  30.160  1.00  0.00     0.135 A 
ATOM     75  F   UNL A   1      42.383  28.886  31.235  1.00  0.00    -0.206 F 
ATOM     76  C   UNL A   1      43.381  29.594  29.234  1.00  0.00     0.059 A 
ATOM     77  C   UNL A   1      43.877  31.946  28.895  1.00  0.00     0.059 A 
ATOM     78  F   UNL A   1      43.396  33.493  30.589  1.00  0.00    -0.206 F 
ATOM     79  C   UNL A   1      43.893  30.627  28.447  1.00  0.00     0.060 A 
BRANCH  79  80
ATOM     80  S   UNL A   1      44.575  30.219  26.826  1.00  0.00     0.124 S 
ATOM     81  O   UNL A   1      43.631  29.210  26.357  1.00  0.00    -0.237 OA
ATOM     82  O   UNL A   1      44.524  31.504  26.135  1.00  0.00    -0.237 OA
ATOM     83  O   UNL A   1      45.916  29.729  27.133  1.00  0.00    -0.744 OA
ENDBRANCH  79  80
ENDBRANCH  58  72
BRANCH  59  84
ATOM     84  C   UNL A   1      38.595  33.445  39.841  1.00  0.00     0.058 A 
ATOM     85  C   UNL A   1      37.892  32.467  40.559  1.00  0.00     0.135 A 
ATOM     86  C   UNL A   1      38.694  34.726  40.410  1.00  0.00     0.135 A 
ATOM     87  F   UNL A   1      37.762  31.230  40.056  1.00  0.00    -0.206 F 
ATOM     88  C   UNL A   1      37.294  32.750  41.784  1.00  0.00     0.059 A 
ATOM     89  C   UNL A   1      38.130  35.025  41.647  1.00  0.00     0.059 A 
ATOM     90  F   UNL A   1      39.365  35.696  39.770  1.00  0.00    -0.206 F 
ATOM     91  C   UNL A   1      37.423  34.032  42.321  1.00  0.00     0.060 A 
BRANCH  91  92
ATOM     92  S   UNL A   1      36.679  34.377  43.931  1.00  0.00     0.124 S 
ATOM     93  O   UNL A   1      37.209  35.704  44.221  1.00  0.00    -0.237 OA
ATOM     94  O   UNL A   1      35.253  34.310  43.628  1.00  0.00    -0.237 OA
ATOM     95  O   UNL A   1      37.186  33.297  44.773  1.00  0.00    -0.744 OA
ENDBRANCH  91  92
ENDBRANCH  59  84
BRANCH  71  96
ATOM     96  C   UNL A   1      45.000  31.469  37.864  1.00  0.00     0.058 A 
ATOM     97  C   UNL A   1      45.384  30.191  38.298  1.00  0.00     0.135 A 
ATOM     98  C   UNL A   1      45.868  32.542  38.127  1.00  0.00     0.135 A 
ATOM     99  F   UNL A   1      44.588  29.134  38.074  1.00  0.00    -0.206 F 
ATOM    100  C   UNL A   1      46.569  29.991  38.997  1.00  0.00     0.059 A 
ATOM    101  C   UNL A   1      47.074  32.358  38.793  1.00  0.00     0.059 A 
ATOM    102  F   UNL A   1      45.555  33.782  37.718  1.00  0.00    -0.206 F 
ATOM    103  C   UNL A   1      47.408  31.080  39.238  1.00  0.00     0.060 A 
BRANCH 103 104
ATOM    104  S   UNL A   1      48.952  30.801  40.128  1.00  0.00     0.124 S 
ATOM    105  O   UNL A   1      49.149  32.088  40.785  1.00  0.00    -0.237 OA
ATOM    106  O   UNL A   1      48.609  29.685  41.004  1.00  0.00    -0.237 OA
ATOM    107  O   UNL A   1      49.903  30.486  39.066  1.00  0.00    -0.744 OA
ENDBRANCH 103 104
ENDBRANCH  71  96
ENDBRANCH  45  46
ENDBRANCH  38  40
ENDBRANCH  37  38
ENDBRANCH  36  37
ENDBRANCH  35  36
ENDBRANCH  34  35
ENDBRANCH  33  34
ENDBRANCH  32  33
ENDBRANCH   1  32
TORSDOF 27
ENDMDL
MODEL 3
REMARK VINA RESULT:      -8.8      5.246      9.316
REMARK SMILES COc1ccc2[nH]c(C(=O)c3cc(C)ccn3)c(CC(=O)OCCOCCOCCOCCOC(=O)c3ccc(-c4c5nc(c(-c6c(F)cc(S(=O)(=O)[O-])cc6F)c6ccc([nH]6)c(-c6c(F)cc(S(=O)(=O)[O-])cc6F)c6nc(c(-c7c(F)cc(S(=O)(=O)[O-])cc7F)c7ccc4[nH]7)C=C6)C=C5)cc3)c2c1
REMARK SMILES IDX 28 1 27 2 26 3 25 4 24 5 23 6 22 7 20 8 21 9 19 10 18 11
REMARK SMILES IDX 3 12 4 13 104 14 5 15 103 16 6 17 7 18 8 19 2 21 1 22 9 23
REMARK SMILES IDX 10 24 11 25 12 26 17 27 13 28 16 29 14 30 15 31 29 32 30 33
REMARK SMILES IDX 31 34 32 35 33 36 34 37 35 38 36 39 37 40 38 41 102 42 39 43
REMARK SMILES IDX 101 44 40 45 41 46 42 47 95 48 43 49 100 50 94 51 96 52
REMARK SMILES IDX 44 53 99 54 93 55 92 56 45 58 79 59 58 60 78 61 59 62 62 63
REMARK SMILES IDX 77 64 97 65 60 66 61 67 76 69 98 70 63 71 46 72 47 73 56 74
REMARK SMILES IDX 48 75 49 76 55 77 57 78 50 79 51 80 52 81 53 82 54 83 80 84
REMARK SMILES IDX 81 85 90 86 82 87 83 88 89 89 91 90 84 91 85 92 86 93 87 94
REMARK SMILES IDX 88 95 64 96 65 97 74 98 66 99 67 100 73 101 75 102 68 103
REMARK SMILES IDX 69 104 70 105 71 106 72 107
REMARK H PARENT 7 20 96 57 62 68
REMARK Flexibility Score: inf
ROOT
ATOM      1  O   UNL A   1      39.261  34.513  35.384  1.00  0.00    -0.377 OA
ENDROOT
BRANCH   1   2
ATOM      2  C   UNL A   1      39.386  34.578  33.974  1.00  0.00     0.188 C 
BRANCH   2   3
ATOM      3  C   UNL A   1      38.810  33.383  33.179  1.00  0.00     0.188 C 
BRANCH   3   4
ATOM      4  O   UNL A   1      37.729  32.607  33.689  1.00  0.00    -0.376 OA
BRANCH   4   5
ATOM      5  C   UNL A   1      38.019  31.469  34.479  1.00  0.00     0.202 C 
BRANCH   5   6
ATOM      6  C   UNL A   1      38.373  30.153  33.753  1.00  0.00     0.261 C 
BRANCH   6   7
ATOM      7  O   UNL A   1      39.726  30.040  33.237  1.00  0.00    -0.463 OA
BRANCH   7   8
ATOM      8  C   UNL A   1      40.181  28.795  32.957  1.00  0.00     0.310 C 
ATOM      9  O   UNL A   1      41.208  28.333  33.454  1.00  0.00    -0.252 OA
BRANCH   8  10
ATOM     10  C   UNL A   1      39.355  27.950  31.984  1.00  0.00     0.161 C 
BRANCH  10  11
ATOM     11  C   UNL A   1      39.286  28.231  30.487  1.00  0.00     0.000 A 
ATOM     12  C   UNL A   1      36.531  30.724  29.511  1.00  0.00     0.119 A 
ATOM     13  C   UNL A   1      36.827  30.750  28.150  1.00  0.00     0.048 A 
ATOM     14  C   UNL A   1      37.252  29.886  30.373  1.00  0.00     0.057 A 
ATOM     15  C   UNL A   1      37.851  29.951  27.623  1.00  0.00     0.030 A 
ATOM     16  C   UNL A   1      38.310  29.097  29.877  1.00  0.00     0.008 A 
ATOM     17  C   UNL A   1      38.584  29.158  28.515  1.00  0.00     0.046 A 
ATOM     18  N   UNL A   1      39.654  28.332  28.288  1.00  0.00    -0.352 N 
ATOM     19  C   UNL A   1      40.226  27.921  29.477  1.00  0.00     0.093 A 
ATOM     20  H   UNL A   1      39.973  28.067  27.395  1.00  0.00     0.167 HD
BRANCH  12  21
ATOM     21  O   UNL A   1      35.613  31.526  30.136  1.00  0.00    -0.497 OA
ATOM     22  C   UNL A   1      34.618  32.113  29.308  1.00  0.00     0.278 C 
ENDBRANCH  12  21
BRANCH  19  23
ATOM     23  C   UNL A   1      41.531  27.253  29.592  1.00  0.00     0.227 C 
ATOM     24  O   UNL A   1      42.299  27.495  30.522  1.00  0.00    -0.285 OA
BRANCH  23  25
ATOM     25  C   UNL A   1      41.985  26.212  28.596  1.00  0.00     0.113 A 
ATOM     26  C   UNL A   1      43.325  25.944  28.312  1.00  0.00     0.036 A 
ATOM     27  N   UNL A   1      40.971  25.513  28.015  1.00  0.00    -0.253 NA
ATOM     28  C   UNL A   1      43.632  24.949  27.365  1.00  0.00    -0.047 A 
ATOM     29  C   UNL A   1      41.293  24.548  27.129  1.00  0.00     0.112 A 
ATOM     30  C   UNL A   1      45.044  24.612  26.982  1.00  0.00     0.044 C 
ATOM     31  C   UNL A   1      42.587  24.259  26.748  1.00  0.00     0.023 A 
ENDBRANCH  23  25
ENDBRANCH  19  23
ENDBRANCH  10  11
ENDBRANCH   8  10
ENDBRANCH   7   8
ENDBRANCH   6   7
ENDBRANCH   5   6
ENDBRANCH   4   5
ENDBRANCH   3   4
ENDBRANCH   2   3
ENDBRANCH   1   2
BRANCH   1  32
ATOM     32  C   UNL A   1      39.617  35.697  36.072  1.00  0.00     0.188 C 
BRANCH  32  33
ATOM     33  C   UNL A   1      41.098  36.057  35.925  1.00  0.00     0.188 C 
BRANCH  33  34
ATOM     34  O   UNL A   1      41.851  35.810  37.105  1.00  0.00    -0.376 OA
BRANCH  34  35
ATOM     35  C   UNL A   1      41.313  36.195  38.359  1.00  0.00     0.202 C 
BRANCH  35  36
ATOM     36  C   UNL A   1      41.241  35.125  39.463  1.00  0.00     0.261 C 
BRANCH  36  37
ATOM     37  O   UNL A   1      40.681  33.870  39.078  1.00  0.00    -0.460 OA
BRANCH  37  38
ATOM     38  C   UNL A   1      41.471  32.787  39.211  1.00  0.00     0.338 C 
ATOM     39  O   UNL A   1      41.559  32.048  40.174  1.00  0.00    -0.246 OA
BRANCH  38  40
ATOM     40  C   UNL A   1      42.027  32.526  37.876  1.00  0.00     0.060 A 
ATOM     41  C   UNL A   1      41.151  32.106  36.869  1.00  0.00     0.016 A 
ATOM     42  C   UNL A   1      43.380  32.763  37.610  1.00  0.00     0.016 A 
ATOM     43  C   UNL A   1      41.633  31.900  35.587  1.00  0.00     0.010 A 
ATOM     44  C   UNL A   1      43.870  32.520  36.330  1.00  0.00     0.010 A 
ATOM     45  C   UNL A   1      43.001  32.054  35.331  1.00  0.00    -0.014 A 
BRANCH  45  46
ATOM     46  C   UNL A   1      43.542  31.468  34.091  1.00  0.00     0.031 A 
ATOM     47  C   UNL A   1      43.571  32.346  32.873  1.00  0.00     0.074 A 
ATOM     48  C   UNL A   1      44.054  30.228  34.086  1.00  0.00     0.049 A 
ATOM     49  N   UNL A   1      44.010  32.087  31.674  1.00  0.00    -0.248 NA
ATOM     50  C   UNL A   1      43.030  33.710  33.035  1.00  0.00     0.031 C 
ATOM     51  C   UNL A   1      44.112  29.333  35.241  1.00  0.00     0.029 A 
ATOM     52  N   UNL A   1      44.632  29.512  33.072  1.00  0.00    -0.354 N 
ATOM     53  C   UNL A   1      43.802  33.249  30.940  1.00  0.00     0.074 A 
ATOM     54  C   UNL A   1      43.164  34.203  31.815  1.00  0.00     0.031 C 
ATOM     55  C   UNL A   1      44.691  28.178  34.866  1.00  0.00     0.029 A 
ATOM     56  C   UNL A   1      45.015  28.246  33.444  1.00  0.00     0.049 A 
ATOM     57  H   UNL A   1      44.760  29.870  32.165  1.00  0.00     0.167 HD
ATOM     58  C   UNL A   1      44.126  33.494  29.651  1.00  0.00     0.037 A 
ATOM     59  C   UNL A   1      45.549  27.258  32.702  1.00  0.00     0.037 A 
ATOM     60  C   UNL A   1      44.752  32.519  28.799  1.00  0.00     0.049 A 
ATOM     61  C   UNL A   1      45.838  27.531  31.247  1.00  0.00     0.074 A 
ATOM     62  C   UNL A   1      45.124  32.643  27.475  1.00  0.00     0.029 A 
ATOM     63  N   UNL A   1      45.091  31.231  29.197  1.00  0.00    -0.354 N 
ATOM     64  N   UNL A   1      45.645  28.636  30.561  1.00  0.00    -0.248 NA
ATOM     65  C   UNL A   1      46.420  26.433  30.468  1.00  0.00     0.031 C 
ATOM     66  C   UNL A   1      45.636  31.410  27.054  1.00  0.00     0.029 A 
ATOM     67  C   UNL A   1      45.645  30.539  28.135  1.00  0.00     0.049 A 
ATOM     68  H   UNL A   1      44.956  30.865  30.101  1.00  0.00     0.167 HD
ATOM     69  C   UNL A   1      46.109  28.374  29.276  1.00  0.00     0.074 A 
ATOM     70  C   UNL A   1      46.603  27.011  29.288  1.00  0.00     0.031 C 
ATOM     71  C   UNL A   1      46.128  29.181  28.186  1.00  0.00     0.037 A 
BRANCH  58  72
ATOM     72  C   UNL A   1      43.769  34.841  29.087  1.00  0.00     0.058 A 
ATOM     73  C   UNL A   1      42.448  35.187  28.757  1.00  0.00     0.135 A 
ATOM     74  C   UNL A   1      44.767  35.806  28.876  1.00  0.00     0.135 A 
ATOM     75  F   UNL A   1      41.457  34.293  28.909  1.00  0.00    -0.206 F 
ATOM     76  C   UNL A   1      42.133  36.430  28.217  1.00  0.00     0.059 A 
ATOM     77  C   UNL A   1      44.471  37.067  28.365  1.00  0.00     0.059 A 
ATOM     78  F   UNL A   1      46.049  35.526  29.158  1.00  0.00    -0.206 F 
ATOM     79  C   UNL A   1      43.152  37.364  28.027  1.00  0.00     0.060 A 
BRANCH  79  80
ATOM     80  S   UNL A   1      42.726  38.975  27.333  1.00  0.00     0.124 S 
ATOM     81  O   UNL A   1      42.529  39.770  28.541  1.00  0.00    -0.237 OA
ATOM     82  O   UNL A   1      43.914  39.299  26.548  1.00  0.00    -0.237 OA
ATOM     83  O   UNL A   1      41.519  38.705  26.557  1.00  0.00    -0.744 OA
ENDBRANCH  79  80
ENDBRANCH  58  72
BRANCH  59  84
ATOM     84  C   UNL A   1      45.831  25.932  33.315  1.00  0.00     0.058 A 
ATOM     85  C   UNL A   1      47.073  25.643  33.897  1.00  0.00     0.135 A 
ATOM     86  C   UNL A   1      44.852  24.924  33.337  1.00  0.00     0.135 A 
ATOM     87  F   UNL A   1      48.045  26.568  33.895  1.00  0.00    -0.206 F 
ATOM     88  C   UNL A   1      47.343  24.400  34.464  1.00  0.00     0.059 A 
ATOM     89  C   UNL A   1      45.088  23.684  33.923  1.00  0.00     0.059 A 
ATOM     90  F   UNL A   1      43.641  25.150  32.803  1.00  0.00    -0.206 F 
ATOM     91  C   UNL A   1      46.341  23.429  34.475  1.00  0.00     0.060 A 
BRANCH  91  92
ATOM     92  S   UNL A   1      46.688  21.834  35.250  1.00  0.00     0.124 S 
ATOM     93  O   UNL A   1      48.145  21.847  35.307  1.00  0.00    -0.237 OA
ATOM     94  O   UNL A   1      45.997  21.960  36.530  1.00  0.00    -0.237 OA
ATOM     95  O   UNL A   1      46.101  20.874  34.320  1.00  0.00    -0.744 OA
ENDBRANCH  91  92
ENDBRANCH  59  84
BRANCH  71  96
ATOM     96  C   UNL A   1      46.736  28.621  26.929  1.00  0.00     0.058 A 
ATOM     97  C   UNL A   1      48.125  28.577  26.736  1.00  0.00     0.135 A 
ATOM     98  C   UNL A   1      45.914  28.074  25.930  1.00  0.00     0.135 A 
ATOM     99  F   UNL A   1      48.954  29.088  27.660  1.00  0.00    -0.206 F 
ATOM    100  C   UNL A   1      48.677  28.042  25.577  1.00  0.00     0.059 A 
ATOM    101  C   UNL A   1      46.446  27.503  24.780  1.00  0.00     0.059 A 
ATOM    102  F   UNL A   1      44.579  28.076  26.075  1.00  0.00    -0.206 F 
ATOM    103  C   UNL A   1      47.829  27.507  24.606  1.00  0.00     0.060 A 
BRANCH 103 104
ATOM    104  S   UNL A   1      48.561  26.797  23.117  1.00  0.00     0.124 S 
ATOM    105  O   UNL A   1      47.943  27.606  22.072  1.00  0.00    -0.237 OA
ATOM    106  O   UNL A   1      49.987  27.021  23.334  1.00  0.00    -0.237 OA
ATOM    107  O   UNL A   1      48.137  25.401  23.163  1.00  0.00    -0.744 OA
ENDBRANCH 103 104
ENDBRANCH  71  96
ENDBRANCH  45  46
ENDBRANCH  38  40
ENDBRANCH  37  38
ENDBRANCH  36  37
ENDBRANCH  35  36
ENDBRANCH  34  35
ENDBRANCH  33  34
ENDBRANCH  32  33
ENDBRANCH   1  32
TORSDOF 27
ENDMDL
