MODEL 1
REMARK VINA RESULT:     -10.3      0.000      0.000
REMARK SMILES CCc1ccc(C(=O)N2Cc3nc[nH]c3C[C@@H]2C(=O)OCCOCCOCCOCCOC(=O)c2ccc(-c3c4nc(c(-c5c(F)cc(S(=O)(=O)[O-])cc5F)c5ccc([nH]5)c(-c5c(F)cc(S(=O)(=O)[O-])cc5F)c5nc(c(-c6c(F)cc(S(=O)(=O)[O-])cc6F)c6ccc3[nH]6)C=C5)C=C4)cc2)o1
REMARK SMILES IDX 26 1 25 2 24 3 23 4 22 5 21 6 20 7 18 8 19 9 17 10 9 11
REMARK SMILES IDX 10 12 11 13 16 14 12 15 15 16 13 17 14 18 7 20 8 21 6 22
REMARK SMILES IDX 3 23 4 24 101 25 5 26 2 27 1 28 27 29 28 30 29 31 30 32
REMARK SMILES IDX 31 33 32 34 33 35 34 36 35 37 36 38 100 39 37 40 99 41 38 42
REMARK SMILES IDX 39 43 40 44 93 45 41 46 98 47 92 48 94 49 42 50 97 51 91 52
REMARK SMILES IDX 90 53 43 55 77 56 56 57 76 58 57 59 60 60 75 61 95 62 58 63
REMARK SMILES IDX 59 64 74 66 96 67 61 68 44 69 45 70 54 71 46 72 47 73 53 74
REMARK SMILES IDX 55 75 48 76 49 77 50 78 51 79 52 80 78 81 79 82 88 83 80 84
REMARK SMILES IDX 81 85 87 86 89 87 82 88 83 89 84 90 85 91 86 92 62 93 63 94
REMARK SMILES IDX 72 95 64 96 65 97 71 98 73 99 66 100 67 101 68 102 69 103
REMARK SMILES IDX 70 104
REMARK H PARENT 14 19 94 54 60 65
REMARK Flexibility Score: inf
ROOT
ATOM      1  O   UNL A   1      34.427  22.854  26.168  1.00  0.00    -0.377 OA
ENDROOT
BRANCH   1   2
ATOM      2  C   UNL A   1      33.308  23.495  26.771  1.00  0.00     0.188 C 
BRANCH   2   3
ATOM      3  C   UNL A   1      31.947  22.790  26.931  1.00  0.00     0.188 C 
BRANCH   3   4
ATOM      4  O   UNL A   1      30.973  23.206  25.985  1.00  0.00    -0.376 OA
BRANCH   4   5
ATOM      5  C   UNL A   1      31.267  22.901  24.632  1.00  0.00     0.202 C 
BRANCH   5   6
ATOM      6  C   UNL A   1      31.596  24.187  23.875  1.00  0.00     0.261 C 
BRANCH   6   7
ATOM      7  O   UNL A   1      30.407  24.875  23.442  1.00  0.00    -0.462 OA
BRANCH   7   8
ATOM      8  C   UNL A   1      30.122  26.058  24.067  1.00  0.00     0.329 C 
ATOM      9  O   UNL A   1      30.033  26.199  25.277  1.00  0.00    -0.250 OA
BRANCH   8  10
ATOM     10  C   UNL A   1      29.998  27.154  22.995  1.00  0.00     0.201 C 
ATOM     11  N   UNL A   1      31.103  28.159  22.915  1.00  0.00    -0.316 N 
ATOM     12  C   UNL A   1      30.945  29.290  21.985  1.00  0.00     0.179 C 
ATOM     13  C   UNL A   1      29.543  29.775  22.004  1.00  0.00     0.081 A 
ATOM     14  C   UNL A   1      28.616  27.814  23.303  1.00  0.00     0.093 C 
ATOM     15  N   UNL A   1      29.097  30.933  21.427  1.00  0.00    -0.240 NA
ATOM     16  C   UNL A   1      28.501  29.094  22.581  1.00  0.00     0.042 A 
ATOM     17  C   UNL A   1      27.805  30.965  21.683  1.00  0.00     0.197 A 
ATOM     18  N   UNL A   1      27.394  29.864  22.389  1.00  0.00    -0.348 N 
ATOM     19  H   UNL A   1      26.479  29.669  22.697  1.00  0.00     0.167 HD
BRANCH  11  20
ATOM     20  C   UNL A   1      32.424  27.908  23.290  1.00  0.00     0.290 C 
ATOM     21  O   UNL A   1      33.105  27.152  22.596  1.00  0.00    -0.265 OA
BRANCH  20  22
ATOM     22  C   UNL A   1      32.888  28.403  24.574  1.00  0.00     0.191 A 
ATOM     23  C   UNL A   1      32.790  29.724  26.350  1.00  0.00     0.104 A 
ATOM     24  C   UNL A   1      34.013  29.091  26.403  1.00  0.00     0.046 A 
ATOM     25  O   UNL A   1      32.113  29.319  25.236  1.00  0.00    -0.456 OA
ATOM     26  C   UNL A   1      34.074  28.236  25.269  1.00  0.00     0.056 A 
BRANCH  23  27
ATOM     27  C   UNL A   1      32.078  30.697  27.223  1.00  0.00     0.072 C 
ATOM     28  C   UNL A   1      31.322  31.768  26.451  1.00  0.00     0.012 C 
ENDBRANCH  23  27
ENDBRANCH  20  22
ENDBRANCH  11  20
ENDBRANCH   8  10
ENDBRANCH   7   8
ENDBRANCH   6   7
ENDBRANCH   5   6
ENDBRANCH   4   5
ENDBRANCH   3   4
ENDBRANCH   2   3
ENDBRANCH   1   2
BRANCH   1  29
ATOM     29  C   UNL A   1      34.450  21.437  26.103  1.00  0.00     0.188 C 
BRANCH  29  30
ATOM     30  C   UNL A   1      35.380  20.813  25.036  1.00  0.00     0.188 C 
BRANCH  30  31
ATOM     31  O   UNL A   1      36.531  21.596  24.717  1.00  0.00    -0.376 OA
BRANCH  31  32
ATOM     32  C   UNL A   1      37.816  21.075  25.019  1.00  0.00     0.202 C 
BRANCH  32  33
ATOM     33  C   UNL A   1      38.589  21.914  26.037  1.00  0.00     0.261 C 
BRANCH  33  34
ATOM     34  O   UNL A   1      39.995  21.788  25.901  1.00  0.00    -0.460 OA
BRANCH  34  35
ATOM     35  C   UNL A   1      40.669  21.683  27.052  1.00  0.00     0.338 C 
ATOM     36  O   UNL A   1      40.423  20.910  27.986  1.00  0.00    -0.246 OA
BRANCH  35  37
ATOM     37  C   UNL A   1      41.741  22.666  27.083  1.00  0.00     0.060 A 
ATOM     38  C   UNL A   1      42.379  22.831  28.312  1.00  0.00     0.016 A 
ATOM     39  C   UNL A   1      41.822  23.613  26.051  1.00  0.00     0.016 A 
ATOM     40  C   UNL A   1      42.791  24.093  28.639  1.00  0.00     0.010 A 
ATOM     41  C   UNL A   1      42.217  24.881  26.383  1.00  0.00     0.010 A 
ATOM     42  C   UNL A   1      42.563  25.113  27.711  1.00  0.00    -0.014 A 
BRANCH  42  43
ATOM     43  C   UNL A   1      42.549  26.456  28.231  1.00  0.00     0.031 A 
ATOM     44  C   UNL A   1      43.730  27.249  27.878  1.00  0.00     0.074 A 
ATOM     45  C   UNL A   1      41.506  26.905  28.951  1.00  0.00     0.049 A 
ATOM     46  N   UNL A   1      44.671  27.663  28.656  1.00  0.00    -0.248 NA
ATOM     47  C   UNL A   1      43.964  27.477  26.446  1.00  0.00     0.031 C 
ATOM     48  C   UNL A   1      40.179  26.293  29.097  1.00  0.00     0.029 A 
ATOM     49  N   UNL A   1      41.385  28.077  29.624  1.00  0.00    -0.354 N 
ATOM     50  C   UNL A   1      45.511  28.401  27.836  1.00  0.00     0.074 A 
ATOM     51  C   UNL A   1      45.145  28.092  26.477  1.00  0.00     0.031 C 
ATOM     52  C   UNL A   1      39.333  27.203  29.626  1.00  0.00     0.029 A 
ATOM     53  C   UNL A   1      40.083  28.401  29.964  1.00  0.00     0.049 A 
ATOM     54  H   UNL A   1      42.156  28.647  29.851  1.00  0.00     0.167 HD
ATOM     55  C   UNL A   1      46.265  29.417  28.327  1.00  0.00     0.037 A 
ATOM     56  C   UNL A   1      39.656  29.614  30.389  1.00  0.00     0.037 A 
ATOM     57  C   UNL A   1      46.406  29.342  29.757  1.00  0.00     0.049 A 
ATOM     58  C   UNL A   1      40.842  30.349  30.905  1.00  0.00     0.074 A 
ATOM     59  C   UNL A   1      46.961  28.429  30.630  1.00  0.00     0.029 A 
ATOM     60  N   UNL A   1      45.608  30.164  30.515  1.00  0.00    -0.354 N 
ATOM     61  N   UNL A   1      41.519  30.004  31.968  1.00  0.00    -0.248 NA
ATOM     62  C   UNL A   1      41.534  31.266  30.009  1.00  0.00     0.031 C 
ATOM     63  C   UNL A   1      46.168  28.496  31.812  1.00  0.00     0.029 A 
ATOM     64  C   UNL A   1      45.173  29.456  31.608  1.00  0.00     0.049 A 
ATOM     65  H   UNL A   1      45.385  31.101  30.308  1.00  0.00     0.167 HD
ATOM     66  C   UNL A   1      42.837  30.328  31.681  1.00  0.00     0.074 A 
ATOM     67  C   UNL A   1      42.764  31.216  30.527  1.00  0.00     0.031 C 
ATOM     68  C   UNL A   1      43.874  29.628  32.228  1.00  0.00     0.037 A 
BRANCH  55  69
ATOM     69  C   UNL A   1      46.549  30.664  27.537  1.00  0.00     0.058 A 
ATOM     70  C   UNL A   1      47.876  31.100  27.381  1.00  0.00     0.135 A 
ATOM     71  C   UNL A   1      45.546  31.584  27.151  1.00  0.00     0.135 A 
ATOM     72  F   UNL A   1      48.900  30.312  27.743  1.00  0.00    -0.206 F 
ATOM     73  C   UNL A   1      48.184  32.381  26.922  1.00  0.00     0.059 A 
ATOM     74  C   UNL A   1      45.830  32.836  26.630  1.00  0.00     0.059 A 
ATOM     75  F   UNL A   1      44.243  31.352  27.358  1.00  0.00    -0.206 F 
ATOM     76  C   UNL A   1      47.151  33.245  26.564  1.00  0.00     0.060 A 
BRANCH  76  77
ATOM     77  S   UNL A   1      47.529  34.940  26.096  1.00  0.00     0.124 S 
ATOM     78  O   UNL A   1      48.279  35.397  27.261  1.00  0.00    -0.237 OA
ATOM     79  O   UNL A   1      48.297  34.756  24.870  1.00  0.00    -0.237 OA
ATOM     80  O   UNL A   1      46.209  35.540  25.918  1.00  0.00    -0.744 OA
ENDBRANCH  76  77
ENDBRANCH  55  69
BRANCH  56  81
ATOM     81  C   UNL A   1      38.376  30.277  30.033  1.00  0.00     0.058 A 
ATOM     82  C   UNL A   1      37.595  30.920  31.007  1.00  0.00     0.135 A 
ATOM     83  C   UNL A   1      38.017  30.518  28.689  1.00  0.00     0.135 A 
ATOM     84  F   UNL A   1      37.885  30.771  32.310  1.00  0.00    -0.206 F 
ATOM     85  C   UNL A   1      36.547  31.782  30.671  1.00  0.00     0.059 A 
ATOM     86  C   UNL A   1      36.966  31.356  28.330  1.00  0.00     0.059 A 
ATOM     87  F   UNL A   1      38.738  30.019  27.675  1.00  0.00    -0.206 F 
ATOM     88  C   UNL A   1      36.250  32.005  29.326  1.00  0.00     0.060 A 
BRANCH  88  89
ATOM     89  S   UNL A   1      35.010  33.242  28.880  1.00  0.00     0.124 S 
ATOM     90  O   UNL A   1      33.981  33.013  29.889  1.00  0.00    -0.237 OA
ATOM     91  O   UNL A   1      35.761  34.487  29.004  1.00  0.00    -0.237 OA
ATOM     92  O   UNL A   1      34.639  32.874  27.516  1.00  0.00    -0.744 OA
ENDBRANCH  88  89
ENDBRANCH  56  81
BRANCH  68  93
ATOM     93  C   UNL A   1      43.576  28.762  33.426  1.00  0.00     0.058 A 
ATOM     94  C   UNL A   1      43.562  29.234  34.751  1.00  0.00     0.135 A 
ATOM     95  C   UNL A   1      43.142  27.445  33.210  1.00  0.00     0.135 A 
ATOM     96  F   UNL A   1      43.865  30.509  35.028  1.00  0.00    -0.206 F 
ATOM     97  C   UNL A   1      43.171  28.421  35.816  1.00  0.00     0.059 A 
ATOM     98  C   UNL A   1      42.719  26.627  34.254  1.00  0.00     0.059 A 
ATOM     99  F   UNL A   1      43.072  26.957  31.960  1.00  0.00    -0.206 F 
ATOM    100  C   UNL A   1      42.745  27.118  35.558  1.00  0.00     0.060 A 
BRANCH 100 101
ATOM    101  S   UNL A   1      42.140  26.104  36.925  1.00  0.00     0.124 S 
ATOM    102  O   UNL A   1      42.303  24.752  36.401  1.00  0.00    -0.237 OA
ATOM    103  O   UNL A   1      43.035  26.473  38.017  1.00  0.00    -0.237 OA
ATOM    104  O   UNL A   1      40.757  26.548  37.090  1.00  0.00    -0.744 OA
ENDBRANCH 100 101
ENDBRANCH  68  93
ENDBRANCH  42  43
ENDBRANCH  35  37
ENDBRANCH  34  35
ENDBRANCH  33  34
ENDBRANCH  32  33
ENDBRANCH  31  32
ENDBRANCH  30  31
ENDBRANCH  29  30
ENDBRANCH   1  29
TORSDOF 26
ENDMDL
MODEL 2
REMARK VINA RESULT:     -10.2      1.694      2.086
REMARK SMILES CCc1ccc(C(=O)N2Cc3nc[nH]c3C[C@@H]2C(=O)OCCOCCOCCOCCOC(=O)c2ccc(-c3c4nc(c(-c5c(F)cc(S(=O)(=O)[O-])cc5F)c5ccc([nH]5)c(-c5c(F)cc(S(=O)(=O)[O-])cc5F)c5nc(c(-c6c(F)cc(S(=O)(=O)[O-])cc6F)c6ccc3[nH]6)C=C5)C=C4)cc2)o1
REMARK SMILES IDX 26 1 25 2 24 3 23 4 22 5 21 6 20 7 18 8 19 9 17 10 9 11
REMARK SMILES IDX 10 12 11 13 16 14 12 15 15 16 13 17 14 18 7 20 8 21 6 22
REMARK SMILES IDX 3 23 4 24 101 25 5 26 2 27 1 28 27 29 28 30 29 31 30 32
REMARK SMILES IDX 31 33 32 34 33 35 34 36 35 37 36 38 100 39 37 40 99 41 38 42
REMARK SMILES IDX 39 43 40 44 93 45 41 46 98 47 92 48 94 49 42 50 97 51 91 52
REMARK SMILES IDX 90 53 43 55 77 56 56 57 76 58 57 59 60 60 75 61 95 62 58 63
REMARK SMILES IDX 59 64 74 66 96 67 61 68 44 69 45 70 54 71 46 72 47 73 53 74
REMARK SMILES IDX 55 75 48 76 49 77 50 78 51 79 52 80 78 81 79 82 88 83 80 84
REMARK SMILES IDX 81 85 87 86 89 87 82 88 83 89 84 90 85 91 86 92 62 93 63 94
REMARK SMILES IDX 72 95 64 96 65 97 71 98 73 99 66 100 67 101 68 102 69 103
REMARK SMILES IDX 70 104
REMARK H PARENT 14 19 94 54 60 65
REMARK Flexibility Score: inf
ROOT
ATOM      1  O   UNL A   1      35.071  22.732  25.398  1.00  0.00    -0.377 OA
ENDROOT
BRANCH   1   2
ATOM      2  C   UNL A   1      35.362  23.072  24.047  1.00  0.00     0.188 C 
BRANCH   2   3
ATOM      3  C   UNL A   1      34.258  23.460  23.043  1.00  0.00     0.188 C 
BRANCH   3   4
ATOM      4  O   UNL A   1      33.209  22.507  22.951  1.00  0.00    -0.376 OA
BRANCH   4   5
ATOM      5  C   UNL A   1      31.904  23.012  23.183  1.00  0.00     0.202 C 
BRANCH   5   6
ATOM      6  C   UNL A   1      31.985  24.265  24.055  1.00  0.00     0.261 C 
BRANCH   6   7
ATOM      7  O   UNL A   1      30.682  24.716  24.470  1.00  0.00    -0.462 OA
BRANCH   7   8
ATOM      8  C   UNL A   1      30.587  26.015  24.885  1.00  0.00     0.329 C 
ATOM      9  O   UNL A   1      30.652  26.378  26.050  1.00  0.00    -0.250 OA
BRANCH   8  10
ATOM     10  C   UNL A   1      30.445  26.911  23.643  1.00  0.00     0.201 C 
ATOM     11  N   UNL A   1      31.440  28.017  23.482  1.00  0.00    -0.316 N 
ATOM     12  C   UNL A   1      31.248  28.964  22.371  1.00  0.00     0.179 C 
ATOM     13  C   UNL A   1      29.807  29.276  22.208  1.00  0.00     0.081 A 
ATOM     14  C   UNL A   1      28.979  27.441  23.738  1.00  0.00     0.093 C 
ATOM     15  N   UNL A   1      29.294  30.270  21.420  1.00  0.00    -0.240 NA
ATOM     16  C   UNL A   1      28.795  28.572  22.811  1.00  0.00     0.042 A 
ATOM     17  C   UNL A   1      27.988  30.186  21.572  1.00  0.00     0.197 A 
ATOM     18  N   UNL A   1      27.635  29.166  22.415  1.00  0.00    -0.348 N 
ATOM     19  H   UNL A   1      26.721  28.912  22.683  1.00  0.00     0.167 HD
BRANCH  11  20
ATOM     20  C   UNL A   1      32.740  27.985  23.988  1.00  0.00     0.290 C 
ATOM     21  O   UNL A   1      33.524  27.136  23.561  1.00  0.00    -0.265 OA
BRANCH  20  22
ATOM     22  C   UNL A   1      33.066  28.835  25.121  1.00  0.00     0.191 A 
ATOM     23  C   UNL A   1      34.359  29.529  26.779  1.00  0.00     0.104 A 
ATOM     24  C   UNL A   1      33.136  30.136  26.961  1.00  0.00     0.046 A 
ATOM     25  O   UNL A   1      34.315  28.730  25.673  1.00  0.00    -0.456 OA
ATOM     26  C   UNL A   1      32.307  29.699  25.892  1.00  0.00     0.056 A 
BRANCH  23  27
ATOM     27  C   UNL A   1      35.664  29.575  27.494  1.00  0.00     0.072 C 
ATOM     28  C   UNL A   1      35.528  29.763  28.998  1.00  0.00     0.012 C 
ENDBRANCH  23  27
ENDBRANCH  20  22
ENDBRANCH  11  20
ENDBRANCH   8  10
ENDBRANCH   7   8
ENDBRANCH   6   7
ENDBRANCH   5   6
ENDBRANCH   4   5
ENDBRANCH   3   4
ENDBRANCH   2   3
ENDBRANCH   1   2
BRANCH   1  29
ATOM     29  C   UNL A   1      35.695  21.591  25.966  1.00  0.00     0.188 C 
BRANCH  29  30
ATOM     30  C   UNL A   1      35.964  20.407  25.009  1.00  0.00     0.188 C 
BRANCH  30  31
ATOM     31  O   UNL A   1      37.345  20.111  24.799  1.00  0.00    -0.376 OA
BRANCH  31  32
ATOM     32  C   UNL A   1      38.284  20.496  25.791  1.00  0.00     0.202 C 
BRANCH  32  33
ATOM     33  C   UNL A   1      38.991  21.816  25.481  1.00  0.00     0.261 C 
BRANCH  33  34
ATOM     34  O   UNL A   1      39.441  22.487  26.646  1.00  0.00    -0.460 OA
BRANCH  34  35
ATOM     35  C   UNL A   1      39.041  23.758  26.759  1.00  0.00     0.338 C 
ATOM     36  O   UNL A   1      37.877  24.175  26.710  1.00  0.00    -0.246 OA
BRANCH  35  37
ATOM     37  C   UNL A   1      40.201  24.625  26.907  1.00  0.00     0.060 A 
ATOM     38  C   UNL A   1      40.912  24.489  28.100  1.00  0.00     0.016 A 
ATOM     39  C   UNL A   1      40.317  25.748  26.075  1.00  0.00     0.016 A 
ATOM     40  C   UNL A   1      41.456  25.623  28.635  1.00  0.00     0.010 A 
ATOM     41  C   UNL A   1      40.844  26.888  26.620  1.00  0.00     0.010 A 
ATOM     42  C   UNL A   1      41.277  26.823  27.941  1.00  0.00    -0.014 A 
BRANCH  42  43
ATOM     43  C   UNL A   1      41.413  28.032  28.711  1.00  0.00     0.031 A 
ATOM     44  C   UNL A   1      42.580  28.844  28.352  1.00  0.00     0.074 A 
ATOM     45  C   UNL A   1      40.507  28.357  29.650  1.00  0.00     0.049 A 
ATOM     46  N   UNL A   1      43.641  29.063  29.050  1.00  0.00    -0.248 NA
ATOM     47  C   UNL A   1      42.629  29.351  26.974  1.00  0.00     0.031 C 
ATOM     48  C   UNL A   1      39.179  27.768  29.864  1.00  0.00     0.029 A 
ATOM     49  N   UNL A   1      40.550  29.371  30.550  1.00  0.00    -0.354 N 
ATOM     50  C   UNL A   1      44.403  29.926  28.277  1.00  0.00     0.074 A 
ATOM     51  C   UNL A   1      43.836  29.911  26.952  1.00  0.00     0.031 C 
ATOM     52  C   UNL A   1      38.469  28.578  30.680  1.00  0.00     0.029 A 
ATOM     53  C   UNL A   1      39.328  29.659  31.134  1.00  0.00     0.049 A 
ATOM     54  H   UNL A   1      41.376  29.859  30.769  1.00  0.00     0.167 HD
ATOM     55  C   UNL A   1      45.276  30.798  28.842  1.00  0.00     0.037 A 
ATOM     56  C   UNL A   1      39.035  30.773  31.847  1.00  0.00     0.037 A 
ATOM     57  C   UNL A   1      45.607  30.430  30.194  1.00  0.00     0.049 A 
ATOM     58  C   UNL A   1      40.323  31.351  32.318  1.00  0.00     0.074 A 
ATOM     59  C   UNL A   1      46.221  29.342  30.780  1.00  0.00     0.029 A 
ATOM     60  N   UNL A   1      44.970  31.105  31.207  1.00  0.00    -0.354 N 
ATOM     61  N   UNL A   1      41.117  30.778  33.182  1.00  0.00    -0.248 NA
ATOM     62  C   UNL A   1      40.938  32.410  31.527  1.00  0.00     0.031 C 
ATOM     63  C   UNL A   1      45.604  29.193  32.055  1.00  0.00     0.029 A 
ATOM     64  C   UNL A   1      44.649  30.203  32.191  1.00  0.00     0.049 A 
ATOM     65  H   UNL A   1      44.777  32.070  31.223  1.00  0.00     0.167 HD
ATOM     66  C   UNL A   1      42.400  31.113  32.774  1.00  0.00     0.074 A 
ATOM     67  C   UNL A   1      42.222  32.219  31.841  1.00  0.00     0.031 C 
ATOM     68  C   UNL A   1      43.459  30.285  33.016  1.00  0.00     0.037 A 
BRANCH  55  69
ATOM     69  C   UNL A   1      45.523  32.170  28.280  1.00  0.00     0.058 A 
ATOM     70  C   UNL A   1      46.834  32.571  27.977  1.00  0.00     0.135 A 
ATOM     71  C   UNL A   1      44.545  33.193  28.274  1.00  0.00     0.135 A 
ATOM     72  F   UNL A   1      47.839  31.681  27.984  1.00  0.00    -0.206 F 
ATOM     73  C   UNL A   1      47.163  33.905  27.736  1.00  0.00     0.059 A 
ATOM     74  C   UNL A   1      44.838  34.514  27.972  1.00  0.00     0.059 A 
ATOM     75  F   UNL A   1      43.282  32.979  28.662  1.00  0.00    -0.206 F 
ATOM     76  C   UNL A   1      46.157  34.869  27.751  1.00  0.00     0.060 A 
BRANCH  76  77
ATOM     77  S   UNL A   1      46.586  36.607  27.572  1.00  0.00     0.124 S 
ATOM     78  O   UNL A   1      48.001  36.590  27.922  1.00  0.00    -0.237 OA
ATOM     79  O   UNL A   1      46.274  36.857  26.168  1.00  0.00    -0.237 OA
ATOM     80  O   UNL A   1      45.704  37.269  28.530  1.00  0.00    -0.744 OA
ENDBRANCH  76  77
ENDBRANCH  55  69
BRANCH  56  81
ATOM     81  C   UNL A   1      37.760  31.533  31.819  1.00  0.00     0.058 A 
ATOM     82  C   UNL A   1      36.971  31.670  32.971  1.00  0.00     0.135 A 
ATOM     83  C   UNL A   1      37.416  32.358  30.727  1.00  0.00     0.135 A 
ATOM     84  F   UNL A   1      37.247  30.946  34.068  1.00  0.00    -0.206 F 
ATOM     85  C   UNL A   1      35.927  32.597  33.053  1.00  0.00     0.059 A 
ATOM     86  C   UNL A   1      36.369  33.274  30.777  1.00  0.00     0.059 A 
ATOM     87  F   UNL A   1      38.146  32.369  29.602  1.00  0.00    -0.206 F 
ATOM     88  C   UNL A   1      35.644  33.407  31.953  1.00  0.00     0.060 A 
BRANCH  88  89
ATOM     89  S   UNL A   1      34.411  34.719  32.105  1.00  0.00     0.124 S 
ATOM     90  O   UNL A   1      33.349  34.048  32.848  1.00  0.00    -0.237 OA
ATOM     91  O   UNL A   1      35.147  35.749  32.831  1.00  0.00    -0.237 OA
ATOM     92  O   UNL A   1      34.090  35.046  30.718  1.00  0.00    -0.744 OA
ENDBRANCH  88  89
ENDBRANCH  56  81
BRANCH  68  93
ATOM     93  C   UNL A   1      43.277  29.204  34.051  1.00  0.00     0.058 A 
ATOM     94  C   UNL A   1      43.495  29.391  35.427  1.00  0.00     0.135 A 
ATOM     95  C   UNL A   1      42.719  27.980  33.650  1.00  0.00     0.135 A 
ATOM     96  F   UNL A   1      43.930  30.567  35.900  1.00  0.00    -0.206 F 
ATOM     97  C   UNL A   1      43.205  28.393  36.359  1.00  0.00     0.059 A 
ATOM     98  C   UNL A   1      42.394  26.982  34.566  1.00  0.00     0.059 A 
ATOM     99  F   UNL A   1      42.428  27.765  32.356  1.00  0.00    -0.206 F 
ATOM    100  C   UNL A   1      42.650  27.192  35.920  1.00  0.00     0.060 A 
BRANCH 100 101
ATOM    101  S   UNL A   1      42.179  25.944  37.138  1.00  0.00     0.124 S 
ATOM    102  O   UNL A   1      42.547  24.702  36.466  1.00  0.00    -0.237 OA
ATOM    103  O   UNL A   1      42.994  26.303  38.295  1.00  0.00    -0.237 OA
ATOM    104  O   UNL A   1      40.744  26.160  37.309  1.00  0.00    -0.744 OA
ENDBRANCH 100 101
ENDBRANCH  68  93
ENDBRANCH  42  43
ENDBRANCH  35  37
ENDBRANCH  34  35
ENDBRANCH  33  34
ENDBRANCH  32  33
ENDBRANCH  31  32
ENDBRANCH  30  31
ENDBRANCH  29  30
ENDBRANCH   1  29
TORSDOF 26
ENDMDL
MODEL 3
REMARK VINA RESULT:      -9.1      1.674      2.598
REMARK SMILES CCc1ccc(C(=O)N2Cc3nc[nH]c3C[C@@H]2C(=O)OCCOCCOCCOCCOC(=O)c2ccc(-c3c4nc(c(-c5c(F)cc(S(=O)(=O)[O-])cc5F)c5ccc([nH]5)c(-c5c(F)cc(S(=O)(=O)[O-])cc5F)c5nc(c(-c6c(F)cc(S(=O)(=O)[O-])cc6F)c6ccc3[nH]6)C=C5)C=C4)cc2)o1
REMARK SMILES IDX 26 1 25 2 24 3 23 4 22 5 21 6 20 7 18 8 19 9 17 10 9 11
REMARK SMILES IDX 10 12 11 13 16 14 12 15 15 16 13 17 14 18 7 20 8 21 6 22
REMARK SMILES IDX 3 23 4 24 101 25 5 26 2 27 1 28 27 29 28 30 29 31 30 32
REMARK SMILES IDX 31 33 32 34 33 35 34 36 35 37 36 38 100 39 37 40 99 41 38 42
REMARK SMILES IDX 39 43 40 44 93 45 41 46 98 47 92 48 94 49 42 50 97 51 91 52
REMARK SMILES IDX 90 53 43 55 77 56 56 57 76 58 57 59 60 60 75 61 95 62 58 63
REMARK SMILES IDX 59 64 74 66 96 67 61 68 44 69 45 70 54 71 46 72 47 73 53 74
REMARK SMILES IDX 55 75 48 76 49 77 50 78 51 79 52 80 78 81 79 82 88 83 80 84
REMARK SMILES IDX 81 85 87 86 89 87 82 88 83 89 84 90 85 91 86 92 62 93 63 94
REMARK SMILES IDX 72 95 64 96 65 97 71 98 73 99 66 100 67 101 68 102 69 103
REMARK SMILES IDX 70 104
REMARK H PARENT 14 19 94 54 60 65
REMARK Flexibility Score: inf
ROOT
ATOM      1  O   UNL A   1      35.591  20.462  25.263  1.00  0.00    -0.377 OA
ENDROOT
BRANCH   1   2
ATOM      2  C   UNL A   1      34.910  21.702  25.110  1.00  0.00     0.188 C 
BRANCH   2   3
ATOM      3  C   UNL A   1      33.407  21.775  24.778  1.00  0.00     0.188 C 
BRANCH   3   4
ATOM      4  O   UNL A   1      33.019  22.989  24.149  1.00  0.00    -0.376 OA
BRANCH   4   5
ATOM      5  C   UNL A   1      31.919  22.891  23.260  1.00  0.00     0.202 C 
BRANCH   5   6
ATOM      6  C   UNL A   1      30.761  23.742  23.779  1.00  0.00     0.261 C 
BRANCH   6   7
ATOM      7  O   UNL A   1      30.705  25.027  23.130  1.00  0.00    -0.462 OA
BRANCH   7   8
ATOM      8  C   UNL A   1      30.081  26.032  23.814  1.00  0.00     0.329 C 
ATOM      9  O   UNL A   1      29.747  25.969  24.988  1.00  0.00    -0.250 OA
BRANCH   8  10
ATOM     10  C   UNL A   1      29.935  27.241  22.874  1.00  0.00     0.201 C 
ATOM     11  N   UNL A   1      31.050  28.239  22.868  1.00  0.00    -0.316 N 
ATOM     12  C   UNL A   1      30.875  29.467  22.074  1.00  0.00     0.179 C 
ATOM     13  C   UNL A   1      29.480  29.959  22.192  1.00  0.00     0.081 A 
ATOM     14  C   UNL A   1      28.572  27.875  23.299  1.00  0.00     0.093 C 
ATOM     15  N   UNL A   1      29.029  31.176  21.761  1.00  0.00    -0.240 NA
ATOM     16  C   UNL A   1      28.449  29.227  22.726  1.00  0.00     0.042 A 
ATOM     17  C   UNL A   1      27.746  31.191  22.062  1.00  0.00     0.197 A 
ATOM     18  N   UNL A   1      27.346  30.023  22.656  1.00  0.00    -0.348 N 
ATOM     19  H   UNL A   1      26.439  29.802  22.971  1.00  0.00     0.167 HD
BRANCH  11  20
ATOM     20  C   UNL A   1      32.378  27.937  23.169  1.00  0.00     0.290 C 
ATOM     21  O   UNL A   1      33.024  27.246  22.380  1.00  0.00    -0.265 OA
BRANCH  20  22
ATOM     22  C   UNL A   1      32.894  28.298  24.478  1.00  0.00     0.191 A 
ATOM     23  C   UNL A   1      33.162  29.661  26.203  1.00  0.00     0.104 A 
ATOM     24  C   UNL A   1      34.049  28.624  26.386  1.00  0.00     0.046 A 
ATOM     25  O   UNL A   1      32.470  29.473  25.042  1.00  0.00    -0.456 OA
ATOM     26  C   UNL A   1      33.872  27.743  25.285  1.00  0.00     0.056 A 
BRANCH  23  27
ATOM     27  C   UNL A   1      32.803  30.879  26.982  1.00  0.00     0.072 C 
ATOM     28  C   UNL A   1      33.932  31.392  27.863  1.00  0.00     0.012 C 
ENDBRANCH  23  27
ENDBRANCH  20  22
ENDBRANCH  11  20
ENDBRANCH   8  10
ENDBRANCH   7   8
ENDBRANCH   6   7
ENDBRANCH   5   6
ENDBRANCH   4   5
ENDBRANCH   3   4
ENDBRANCH   2   3
ENDBRANCH   1   2
BRANCH   1  29
ATOM     29  C   UNL A   1      36.985  20.410  25.000  1.00  0.00     0.188 C 
BRANCH  29  30
ATOM     30  C   UNL A   1      37.841  21.547  25.604  1.00  0.00     0.188 C 
BRANCH  30  31
ATOM     31  O   UNL A   1      39.251  21.381  25.446  1.00  0.00    -0.376 OA
BRANCH  31  32
ATOM     32  C   UNL A   1      40.004  20.872  26.535  1.00  0.00     0.202 C 
BRANCH  32  33
ATOM     33  C   UNL A   1      40.544  21.960  27.464  1.00  0.00     0.261 C 
BRANCH  33  34
ATOM     34  O   UNL A   1      40.847  23.166  26.783  1.00  0.00    -0.460 OA
BRANCH  34  35
ATOM     35  C   UNL A   1      40.223  24.253  27.249  1.00  0.00     0.338 C 
ATOM     36  O   UNL A   1      39.089  24.301  27.744  1.00  0.00    -0.246 OA
BRANCH  35  37
ATOM     37  C   UNL A   1      41.064  25.424  27.050  1.00  0.00     0.060 A 
ATOM     38  C   UNL A   1      42.279  25.423  27.736  1.00  0.00     0.016 A 
ATOM     39  C   UNL A   1      40.488  26.589  26.524  1.00  0.00     0.016 A 
ATOM     40  C   UNL A   1      42.732  26.623  28.207  1.00  0.00     0.010 A 
ATOM     41  C   UNL A   1      40.930  27.790  27.011  1.00  0.00     0.010 A 
ATOM     42  C   UNL A   1      41.958  27.758  27.949  1.00  0.00    -0.014 A 
BRANCH  42  43
ATOM     43  C   UNL A   1      42.167  28.884  28.822  1.00  0.00     0.031 A 
ATOM     44  C   UNL A   1      43.430  29.594  28.594  1.00  0.00     0.074 A 
ATOM     45  C   UNL A   1      41.241  29.231  29.733  1.00  0.00     0.049 A 
ATOM     46  N   UNL A   1      44.462  29.645  29.365  1.00  0.00    -0.248 NA
ATOM     47  C   UNL A   1      43.616  30.195  27.267  1.00  0.00     0.031 C 
ATOM     48  C   UNL A   1      39.849  28.772  29.826  1.00  0.00     0.029 A 
ATOM     49  N   UNL A   1      41.330  30.164  30.715  1.00  0.00    -0.354 N 
ATOM     50  C   UNL A   1      45.354  30.480  28.708  1.00  0.00     0.074 A 
ATOM     51  C   UNL A   1      44.873  30.624  27.358  1.00  0.00     0.031 C 
ATOM     52  C   UNL A   1      39.175  29.588  30.666  1.00  0.00     0.029 A 
ATOM     53  C   UNL A   1      40.109  30.534  31.252  1.00  0.00     0.049 A 
ATOM     54  H   UNL A   1      42.186  30.544  31.018  1.00  0.00     0.167 HD
ATOM     55  C   UNL A   1      46.274  31.209  29.389  1.00  0.00     0.037 A 
ATOM     56  C   UNL A   1      39.886  31.616  32.037  1.00  0.00     0.037 A 
ATOM     57  C   UNL A   1      46.481  30.707  30.722  1.00  0.00     0.049 A 
ATOM     58  C   UNL A   1      41.194  32.018  32.623  1.00  0.00     0.074 A 
ATOM     59  C   UNL A   1      46.944  29.519  31.250  1.00  0.00     0.029 A 
ATOM     60  N   UNL A   1      45.853  31.367  31.751  1.00  0.00    -0.354 N 
ATOM     61  N   UNL A   1      41.870  31.300  33.479  1.00  0.00    -0.248 NA
ATOM     62  C   UNL A   1      41.961  33.062  31.957  1.00  0.00     0.031 C 
ATOM     63  C   UNL A   1      46.235  29.339  32.473  1.00  0.00     0.029 A 
ATOM     64  C   UNL A   1      45.381  30.432  32.639  1.00  0.00     0.049 A 
ATOM     65  H   UNL A   1      45.757  32.343  31.835  1.00  0.00     0.167 HD
ATOM     66  C   UNL A   1      43.204  31.528  33.171  1.00  0.00     0.074 A 
ATOM     67  C   UNL A   1      43.197  32.713  32.324  1.00  0.00     0.031 C 
ATOM     68  C   UNL A   1      44.156  30.577  33.401  1.00  0.00     0.037 A 
BRANCH  55  69
ATOM     69  C   UNL A   1      46.692  32.586  28.956  1.00  0.00     0.058 A 
ATOM     70  C   UNL A   1      45.726  33.597  28.826  1.00  0.00     0.135 A 
ATOM     71  C   UNL A   1      47.968  32.875  28.415  1.00  0.00     0.135 A 
ATOM     72  F   UNL A   1      44.478  33.411  29.282  1.00  0.00    -0.206 F 
ATOM     73  C   UNL A   1      45.992  34.793  28.159  1.00  0.00     0.059 A 
ATOM     74  C   UNL A   1      48.273  34.082  27.807  1.00  0.00     0.059 A 
ATOM     75  F   UNL A   1      48.946  31.962  28.358  1.00  0.00    -0.206 F 
ATOM     76  C   UNL A   1      47.266  35.017  27.641  1.00  0.00     0.060 A 
BRANCH  76  77
ATOM     77  S   UNL A   1      47.585  36.495  26.666  1.00  0.00     0.124 S 
ATOM     78  O   UNL A   1      48.486  37.229  27.547  1.00  0.00    -0.237 OA
ATOM     79  O   UNL A   1      48.181  35.941  25.455  1.00  0.00    -0.237 OA
ATOM     80  O   UNL A   1      46.256  37.075  26.494  1.00  0.00    -0.744 OA
ENDBRANCH  76  77
ENDBRANCH  55  69
BRANCH  56  81
ATOM     81  C   UNL A   1      38.699  32.506  32.002  1.00  0.00     0.058 A 
ATOM     82  C   UNL A   1      38.161  32.952  30.784  1.00  0.00     0.135 A 
ATOM     83  C   UNL A   1      37.910  32.732  33.150  1.00  0.00     0.135 A 
ATOM     84  F   UNL A   1      38.830  32.750  29.637  1.00  0.00    -0.206 F 
ATOM     85  C   UNL A   1      36.899  33.549  30.702  1.00  0.00     0.059 A 
ATOM     86  C   UNL A   1      36.660  33.342  33.097  1.00  0.00     0.059 A 
ATOM     87  F   UNL A   1      38.287  32.281  34.356  1.00  0.00    -0.206 F 
ATOM     88  C   UNL A   1      36.149  33.726  31.864  1.00  0.00     0.060 A 
BRANCH  88  89
ATOM     89  S   UNL A   1      34.454  34.343  31.747  1.00  0.00     0.124 S 
ATOM     90  O   UNL A   1      34.281  34.472  30.305  1.00  0.00    -0.237 OA
ATOM     91  O   UNL A   1      33.695  33.276  32.390  1.00  0.00    -0.237 OA
ATOM     92  O   UNL A   1      34.500  35.603  32.485  1.00  0.00    -0.744 OA
ENDBRANCH  88  89
ENDBRANCH  56  81
BRANCH  68  93
ATOM     93  C   UNL A   1      43.801  29.445  34.333  1.00  0.00     0.058 A 
ATOM     94  C   UNL A   1      43.201  28.244  33.915  1.00  0.00     0.135 A 
ATOM     95  C   UNL A   1      44.220  29.521  35.670  1.00  0.00     0.135 A 
ATOM     96  F   UNL A   1      42.865  28.055  32.632  1.00  0.00    -0.206 F 
ATOM     97  C   UNL A   1      42.994  27.181  34.796  1.00  0.00     0.059 A 
ATOM     98  C   UNL A   1      44.051  28.462  36.558  1.00  0.00     0.059 A 
ATOM     99  F   UNL A   1      44.857  30.618  36.114  1.00  0.00    -0.206 F 
ATOM    100  C   UNL A   1      43.427  27.297  36.116  1.00  0.00     0.060 A 
BRANCH 100 101
ATOM    101  S   UNL A   1      43.253  25.881  37.225  1.00  0.00     0.124 S 
ATOM    102  O   UNL A   1      44.403  25.061  36.860  1.00  0.00    -0.237 OA
ATOM    103  O   UNL A   1      43.310  26.501  38.546  1.00  0.00    -0.237 OA
ATOM    104  O   UNL A   1      41.950  25.326  36.866  1.00  0.00    -0.744 OA
ENDBRANCH 100 101
ENDBRANCH  68  93
ENDBRANCH  42  43
ENDBRANCH  35  37
ENDBRANCH  34  35
ENDBRANCH  33  34
ENDBRANCH  32  33
ENDBRANCH  31  32
ENDBRANCH  30  31
ENDBRANCH  29  30
ENDBRANCH   1  29
TORSDOF 26
ENDMDL
