MODEL 1
REMARK VINA RESULT:     -11.3      0.000      0.000
REMARK SMILES C[C@]12C(=O)N(c3ccc(C(=O)OCCOCCOCCOCCOC(=O)c4ccc(-c5c6nc(c(-c7c(F)cc(S(=O)(=O)[O-])cc7F)c7ccc([nH]7)c(-c7c(F)cc(S(=O)(=O)[O-])cc7F)c7nc(c(-c8c(F)cc(S(=O)(=O)[O-])cc8F)c8ccc5[nH]8)C=C7)C=C6)cc4)cc3)C(=O)[C@H]1[C@H]1c3ccccc3[C@@H]2c2ccccc21
REMARK SMILES IDX 19 1 18 2 17 3 16 4 15 5 14 6 13 7 12 8 10 9 11 10 9 11 6 12
REMARK SMILES IDX 7 13 94 14 8 15 93 16 5 17 1 18 2 19 3 20 97 21 105 22 4 23
REMARK SMILES IDX 95 24 98 25 104 26 106 27 96 28 99 29 111 30 103 31 107 32
REMARK SMILES IDX 100 33 110 34 102 35 108 36 101 37 109 38 20 39 21 40 22 41
REMARK SMILES IDX 23 42 24 43 25 44 26 45 27 46 28 47 92 48 29 49 91 50 30 51
REMARK SMILES IDX 31 52 32 53 85 54 33 55 90 56 84 57 86 58 34 59 89 60 83 61
REMARK SMILES IDX 82 62 35 64 69 65 48 66 68 67 49 68 52 69 67 70 87 71 50 72
REMARK SMILES IDX 51 73 66 75 88 76 53 77 36 78 37 79 46 80 38 81 39 82 45 83
REMARK SMILES IDX 47 84 40 85 41 86 42 87 43 88 44 89 70 90 71 91 80 92 72 93
REMARK SMILES IDX 73 94 79 95 81 96 74 97 75 98 76 99 77 100 78 101 54 102
REMARK SMILES IDX 55 103 64 104 56 105 57 106 63 107 65 108 58 109 59 110
REMARK SMILES IDX 60 111 61 112 62 113
REMARK H PARENT 86 63 52 74
REMARK Flexibility Score: inf
ROOT
ATOM      1  C   UNL A   1      42.071  20.225  26.104  1.00  0.00     0.188 C 
ENDROOT
BRANCH   1   2
ATOM      2  O   UNL A   1      41.436  20.605  27.317  1.00  0.00    -0.377 OA
BRANCH   2   3
ATOM      3  C   UNL A   1      40.385  21.545  27.249  1.00  0.00     0.188 C 
BRANCH   3   4
ATOM      4  C   UNL A   1      39.482  21.381  26.012  1.00  0.00     0.188 C 
BRANCH   4   5
ATOM      5  O   UNL A   1      38.906  20.118  25.730  1.00  0.00    -0.376 OA
BRANCH   5   6
ATOM      6  C   UNL A   1      37.893  19.960  24.746  1.00  0.00     0.202 C 
BRANCH   6   7
ATOM      7  C   UNL A   1      36.412  19.610  25.011  1.00  0.00     0.261 C 
BRANCH   7   8
ATOM      8  O   UNL A   1      35.793  18.638  24.165  1.00  0.00    -0.460 OA
BRANCH   8   9
ATOM      9  C   UNL A   1      34.604  18.163  24.594  1.00  0.00     0.338 C 
ATOM     10  O   UNL A   1      34.329  17.015  24.900  1.00  0.00    -0.246 OA
BRANCH   9  11
ATOM     11  C   UNL A   1      33.721  19.301  24.912  1.00  0.00     0.060 A 
ATOM     12  C   UNL A   1      32.093  21.564  25.281  1.00  0.00     0.052 A 
ATOM     13  C   UNL A   1      32.044  20.820  24.090  1.00  0.00     0.028 A 
ATOM     14  C   UNL A   1      32.888  21.077  26.331  1.00  0.00     0.028 A 
ATOM     15  C   UNL A   1      32.892  19.741  23.882  1.00  0.00     0.018 A 
ATOM     16  C   UNL A   1      33.680  19.926  26.158  1.00  0.00     0.018 A 
BRANCH  12  17
ATOM     17  N   UNL A   1      31.554  22.874  25.269  1.00  0.00    -0.250 N 
ATOM     18  C   UNL A   1      30.293  25.827  24.197  1.00  0.00     0.024 C 
ATOM     19  C   UNL A   1      31.576  25.003  24.428  1.00  0.00     0.071 C 
ATOM     20  C   UNL A   1      31.248  23.568  24.152  1.00  0.00     0.241 C 
ATOM     21  C   UNL A   1      32.008  25.150  25.962  1.00  0.00     0.107 C 
ATOM     22  C   UNL A   1      32.719  25.331  23.394  1.00  0.00     0.066 C 
ATOM     23  O   UNL A   1      30.786  23.165  23.092  1.00  0.00    -0.273 OA
ATOM     24  C   UNL A   1      31.438  23.727  26.322  1.00  0.00     0.238 C 
ATOM     25  C   UNL A   1      33.426  25.906  25.830  1.00  0.00     0.063 C 
ATOM     26  C   UNL A   1      33.970  24.565  23.848  1.00  0.00    -0.036 A 
ATOM     27  C   UNL A   1      33.016  26.802  23.573  1.00  0.00    -0.036 A 
ATOM     28  O   UNL A   1      30.922  23.475  27.408  1.00  0.00    -0.274 OA
ATOM     29  C   UNL A   1      34.361  24.886  25.170  1.00  0.00    -0.036 A 
ATOM     30  C   UNL A   1      33.360  27.126  24.903  1.00  0.00    -0.036 A 
ATOM     31  C   UNL A   1      34.637  23.576  23.143  1.00  0.00     0.005 A 
ATOM     32  C   UNL A   1      33.034  27.753  22.562  1.00  0.00     0.005 A 
ATOM     33  C   UNL A   1      35.390  24.202  25.802  1.00  0.00     0.004 A 
ATOM     34  C   UNL A   1      33.741  28.422  25.218  1.00  0.00     0.004 A 
ATOM     35  C   UNL A   1      35.669  22.881  23.783  1.00  0.00     0.000 A 
ATOM     36  C   UNL A   1      33.413  29.053  22.884  1.00  0.00     0.000 A 
ATOM     37  C   UNL A   1      36.038  23.187  25.101  1.00  0.00     0.000 A 
ATOM     38  C   UNL A   1      33.766  29.385  24.201  1.00  0.00     0.000 A 
ENDBRANCH  12  17
ENDBRANCH   9  11
ENDBRANCH   8   9
ENDBRANCH   7   8
ENDBRANCH   6   7
ENDBRANCH   5   6
ENDBRANCH   4   5
ENDBRANCH   3   4
ENDBRANCH   2   3
ENDBRANCH   1   2
BRANCH   1  39
ATOM     39  C   UNL A   1      43.510  20.684  25.778  1.00  0.00     0.188 C 
BRANCH  39  40
ATOM     40  O   UNL A   1      43.608  21.742  24.832  1.00  0.00    -0.376 OA
BRANCH  40  41
ATOM     41  C   UNL A   1      42.986  22.981  25.144  1.00  0.00     0.202 C 
BRANCH  41  42
ATOM     42  C   UNL A   1      43.398  23.627  26.473  1.00  0.00     0.261 C 
BRANCH  42  43
ATOM     43  O   UNL A   1      43.278  25.052  26.533  1.00  0.00    -0.460 OA
BRANCH  43  44
ATOM     44  C   UNL A   1      44.312  25.753  27.050  1.00  0.00     0.338 C 
ATOM     45  O   UNL A   1      45.475  25.719  26.689  1.00  0.00    -0.246 OA
BRANCH  44  46
ATOM     46  C   UNL A   1      43.747  26.712  28.024  1.00  0.00     0.060 A 
ATOM     47  C   UNL A   1      42.869  26.265  29.016  1.00  0.00     0.016 A 
ATOM     48  C   UNL A   1      44.056  28.073  27.912  1.00  0.00     0.016 A 
ATOM     49  C   UNL A   1      42.325  27.180  29.915  1.00  0.00     0.010 A 
ATOM     50  C   UNL A   1      43.514  28.989  28.821  1.00  0.00     0.010 A 
ATOM     51  C   UNL A   1      42.662  28.545  29.842  1.00  0.00    -0.014 A 
BRANCH  51  52
ATOM     52  C   UNL A   1      42.251  29.438  30.954  1.00  0.00     0.031 A 
ATOM     53  C   UNL A   1      41.001  30.263  30.900  1.00  0.00     0.074 A 
ATOM     54  C   UNL A   1      43.026  29.457  32.057  1.00  0.00     0.049 A 
ATOM     55  N   UNL A   1      40.429  30.941  31.862  1.00  0.00    -0.248 NA
ATOM     56  C   UNL A   1      40.312  30.354  29.605  1.00  0.00     0.031 C 
ATOM     57  C   UNL A   1      44.292  28.733  32.196  1.00  0.00     0.029 A 
ATOM     58  N   UNL A   1      42.859  30.074  33.269  1.00  0.00    -0.354 N 
ATOM     59  C   UNL A   1      39.296  31.518  31.303  1.00  0.00     0.074 A 
ATOM     60  C   UNL A   1      39.294  31.156  29.899  1.00  0.00     0.031 C 
ATOM     61  C   UNL A   1      44.760  28.906  33.440  1.00  0.00     0.029 A 
ATOM     62  C   UNL A   1      43.843  29.769  34.179  1.00  0.00     0.049 A 
ATOM     63  H   UNL A   1      42.107  30.677  33.468  1.00  0.00     0.167 HD
ATOM     64  C   UNL A   1      38.339  32.258  31.915  1.00  0.00     0.037 A 
ATOM     65  C   UNL A   1      43.988  30.126  35.470  1.00  0.00     0.037 A 
ATOM     66  C   UNL A   1      38.366  32.620  33.312  1.00  0.00     0.049 A 
ATOM     67  C   UNL A   1      42.924  30.967  36.119  1.00  0.00     0.074 A 
ATOM     68  C   UNL A   1      37.414  33.318  34.035  1.00  0.00     0.029 A 
ATOM     69  N   UNL A   1      39.401  32.333  34.191  1.00  0.00    -0.354 N 
ATOM     70  N   UNL A   1      41.801  31.409  35.607  1.00  0.00    -0.248 NA
ATOM     71  C   UNL A   1      43.142  31.353  37.520  1.00  0.00     0.031 C 
ATOM     72  C   UNL A   1      37.899  33.504  35.334  1.00  0.00     0.029 A 
ATOM     73  C   UNL A   1      39.129  32.874  35.438  1.00  0.00     0.049 A 
ATOM     74  H   UNL A   1      40.209  31.819  33.963  1.00  0.00     0.167 HD
ATOM     75  C   UNL A   1      41.173  32.119  36.624  1.00  0.00     0.074 A 
ATOM     76  C   UNL A   1      42.031  32.028  37.788  1.00  0.00     0.031 C 
ATOM     77  C   UNL A   1      39.994  32.786  36.591  1.00  0.00     0.037 A 
BRANCH  64  78
ATOM     78  C   UNL A   1      37.169  32.724  31.090  1.00  0.00     0.058 A 
ATOM     79  C   UNL A   1      37.274  33.832  30.235  1.00  0.00     0.135 A 
ATOM     80  C   UNL A   1      35.958  32.012  31.089  1.00  0.00     0.135 A 
ATOM     81  F   UNL A   1      38.407  34.552  30.197  1.00  0.00    -0.206 F 
ATOM     82  C   UNL A   1      36.215  34.233  29.427  1.00  0.00     0.059 A 
ATOM     83  C   UNL A   1      34.893  32.379  30.269  1.00  0.00     0.059 A 
ATOM     84  F   UNL A   1      35.804  30.940  31.881  1.00  0.00    -0.206 F 
ATOM     85  C   UNL A   1      35.028  33.498  29.450  1.00  0.00     0.060 A 
BRANCH  85  86
ATOM     86  S   UNL A   1      33.668  34.035  28.392  1.00  0.00     0.124 S 
ATOM     87  O   UNL A   1      34.339  34.992  27.518  1.00  0.00    -0.237 OA
ATOM     88  O   UNL A   1      33.253  32.785  27.762  1.00  0.00    -0.237 OA
ATOM     89  O   UNL A   1      32.709  34.611  29.331  1.00  0.00    -0.744 OA
ENDBRANCH  85  86
ENDBRANCH  64  78
BRANCH  65  90
ATOM     90  C   UNL A   1      45.170  29.646  36.231  1.00  0.00     0.058 A 
ATOM     91  C   UNL A   1      45.126  28.446  36.955  1.00  0.00     0.135 A 
ATOM     92  C   UNL A   1      46.385  30.350  36.203  1.00  0.00     0.135 A 
ATOM     93  F   UNL A   1      43.988  27.739  37.014  1.00  0.00    -0.206 F 
ATOM     94  C   UNL A   1      46.245  27.961  37.626  1.00  0.00     0.059 A 
ATOM     95  C   UNL A   1      47.522  29.872  36.843  1.00  0.00     0.059 A 
ATOM     96  F   UNL A   1      46.482  31.495  35.508  1.00  0.00    -0.206 F 
ATOM     97  C   UNL A   1      47.441  28.678  37.556  1.00  0.00     0.060 A 
BRANCH  97  98
ATOM     98  S   UNL A   1      48.900  28.002  38.378  1.00  0.00     0.124 S 
ATOM     99  O   UNL A   1      48.343  27.563  39.652  1.00  0.00    -0.237 OA
ATOM    100  O   UNL A   1      49.303  26.944  37.458  1.00  0.00    -0.237 OA
ATOM    101  O   UNL A   1      49.807  29.144  38.446  1.00  0.00    -0.744 OA
ENDBRANCH  97  98
ENDBRANCH  65  90
BRANCH  77 102
ATOM    102  C   UNL A   1      39.551  33.493  37.843  1.00  0.00     0.058 A 
ATOM    103  C   UNL A   1      38.636  32.902  38.728  1.00  0.00     0.135 A 
ATOM    104  C   UNL A   1      40.127  34.718  38.217  1.00  0.00     0.135 A 
ATOM    105  F   UNL A   1      38.046  31.738  38.414  1.00  0.00    -0.206 F 
ATOM    106  C   UNL A   1      38.311  33.499  39.943  1.00  0.00     0.059 A 
ATOM    107  C   UNL A   1      39.837  35.319  39.438  1.00  0.00     0.059 A 
ATOM    108  F   UNL A   1      41.012  35.324  37.408  1.00  0.00    -0.206 F 
ATOM    109  C   UNL A   1      38.928  34.701  40.296  1.00  0.00     0.060 A 
BRANCH 109 110
ATOM    110  S   UNL A   1      38.560  35.414  41.913  1.00  0.00     0.124 S 
ATOM    111  O   UNL A   1      37.120  35.197  42.011  1.00  0.00    -0.237 OA
ATOM    112  O   UNL A   1      39.385  34.604  42.803  1.00  0.00    -0.237 OA
ATOM    113  O   UNL A   1      38.976  36.807  41.775  1.00  0.00    -0.744 OA
ENDBRANCH 109 110
ENDBRANCH  77 102
ENDBRANCH  51  52
ENDBRANCH  44  46
ENDBRANCH  43  44
ENDBRANCH  42  43
ENDBRANCH  41  42
ENDBRANCH  40  41
ENDBRANCH  39  40
ENDBRANCH   1  39
TORSDOF 24
ENDMDL
MODEL 2
REMARK VINA RESULT:     -11.1      0.737      7.481
REMARK SMILES C[C@]12C(=O)N(c3ccc(C(=O)OCCOCCOCCOCCOC(=O)c4ccc(-c5c6nc(c(-c7c(F)cc(S(=O)(=O)[O-])cc7F)c7ccc([nH]7)c(-c7c(F)cc(S(=O)(=O)[O-])cc7F)c7nc(c(-c8c(F)cc(S(=O)(=O)[O-])cc8F)c8ccc5[nH]8)C=C7)C=C6)cc4)cc3)C(=O)[C@H]1[C@H]1c3ccccc3[C@@H]2c2ccccc21
REMARK SMILES IDX 19 1 18 2 17 3 16 4 15 5 14 6 13 7 12 8 10 9 11 10 9 11 6 12
REMARK SMILES IDX 7 13 94 14 8 15 93 16 5 17 1 18 2 19 3 20 97 21 105 22 4 23
REMARK SMILES IDX 95 24 98 25 104 26 106 27 96 28 99 29 111 30 103 31 107 32
REMARK SMILES IDX 100 33 110 34 102 35 108 36 101 37 109 38 20 39 21 40 22 41
REMARK SMILES IDX 23 42 24 43 25 44 26 45 27 46 28 47 92 48 29 49 91 50 30 51
REMARK SMILES IDX 31 52 32 53 85 54 33 55 90 56 84 57 86 58 34 59 89 60 83 61
REMARK SMILES IDX 82 62 35 64 69 65 48 66 68 67 49 68 52 69 67 70 87 71 50 72
REMARK SMILES IDX 51 73 66 75 88 76 53 77 36 78 37 79 46 80 38 81 39 82 45 83
REMARK SMILES IDX 47 84 40 85 41 86 42 87 43 88 44 89 70 90 71 91 80 92 72 93
REMARK SMILES IDX 73 94 79 95 81 96 74 97 75 98 76 99 77 100 78 101 54 102
REMARK SMILES IDX 55 103 64 104 56 105 57 106 63 107 65 108 58 109 59 110
REMARK SMILES IDX 60 111 61 112 62 113
REMARK H PARENT 86 63 52 74
REMARK Flexibility Score: inf
ROOT
ATOM      1  C   UNL A   1      41.962  20.611  26.109  1.00  0.00     0.188 C 
ENDROOT
BRANCH   1   2
ATOM      2  O   UNL A   1      41.167  21.079  27.190  1.00  0.00    -0.377 OA
BRANCH   2   3
ATOM      3  C   UNL A   1      40.098  21.953  26.898  1.00  0.00     0.188 C 
BRANCH   3   4
ATOM      4  C   UNL A   1      39.192  21.466  25.751  1.00  0.00     0.188 C 
BRANCH   4   5
ATOM      5  O   UNL A   1      38.427  20.286  25.918  1.00  0.00    -0.376 OA
BRANCH   5   6
ATOM      6  C   UNL A   1      37.541  19.818  24.911  1.00  0.00     0.202 C 
BRANCH   6   7
ATOM      7  C   UNL A   1      36.163  19.160  25.144  1.00  0.00     0.261 C 
BRANCH   7   8
ATOM      8  O   UNL A   1      35.550  18.485  24.043  1.00  0.00    -0.460 OA
BRANCH   8   9
ATOM      9  C   UNL A   1      34.280  18.071  24.245  1.00  0.00     0.338 C 
ATOM     10  O   UNL A   1      33.875  16.923  24.325  1.00  0.00    -0.246 OA
BRANCH   9  11
ATOM     11  C   UNL A   1      33.457  19.229  24.639  1.00  0.00     0.060 A 
ATOM     12  C   UNL A   1      31.943  21.542  25.159  1.00  0.00     0.052 A 
ATOM     13  C   UNL A   1      31.840  20.867  23.931  1.00  0.00     0.028 A 
ATOM     14  C   UNL A   1      32.731  20.963  26.166  1.00  0.00     0.028 A 
ATOM     15  C   UNL A   1      32.633  19.763  23.651  1.00  0.00     0.018 A 
ATOM     16  C   UNL A   1      33.465  19.788  25.918  1.00  0.00     0.018 A 
BRANCH  12  17
ATOM     17  N   UNL A   1      31.467  22.875  25.226  1.00  0.00    -0.250 N 
ATOM     18  C   UNL A   1      30.327  25.935  24.337  1.00  0.00     0.024 C 
ATOM     19  C   UNL A   1      31.574  25.042  24.498  1.00  0.00     0.071 C 
ATOM     20  C   UNL A   1      31.173  23.641  24.154  1.00  0.00     0.241 C 
ATOM     21  C   UNL A   1      32.040  25.087  26.029  1.00  0.00     0.107 C 
ATOM     22  C   UNL A   1      32.712  25.372  23.460  1.00  0.00     0.066 C 
ATOM     23  O   UNL A   1      30.674  23.317  23.084  1.00  0.00    -0.273 OA
ATOM     24  C   UNL A   1      31.410  23.675  26.325  1.00  0.00     0.238 C 
ATOM     25  C   UNL A   1      33.489  25.783  25.908  1.00  0.00     0.063 C 
ATOM     26  C   UNL A   1      33.933  24.526  23.847  1.00  0.00    -0.036 A 
ATOM     27  C   UNL A   1      33.081  26.816  23.709  1.00  0.00    -0.036 A 
ATOM     28  O   UNL A   1      30.902  23.389  27.407  1.00  0.00    -0.274 OA
ATOM     29  C   UNL A   1      34.363  24.757  25.176  1.00  0.00    -0.036 A 
ATOM     30  C   UNL A   1      33.464  27.052  25.047  1.00  0.00    -0.036 A 
ATOM     31  C   UNL A   1      34.540  23.546  23.078  1.00  0.00     0.005 A 
ATOM     32  C   UNL A   1      33.125  27.818  22.749  1.00  0.00     0.005 A 
ATOM     33  C   UNL A   1      35.370  23.994  25.750  1.00  0.00     0.004 A 
ATOM     34  C   UNL A   1      33.911  28.310  25.422  1.00  0.00     0.004 A 
ATOM     35  C   UNL A   1      35.550  22.771  23.659  1.00  0.00     0.000 A 
ATOM     36  C   UNL A   1      33.572  29.079  23.131  1.00  0.00     0.000 A 
ATOM     37  C   UNL A   1      35.956  22.989  24.983  1.00  0.00     0.000 A 
ATOM     38  C   UNL A   1      33.963  29.324  24.456  1.00  0.00     0.000 A 
ENDBRANCH  12  17
ENDBRANCH   9  11
ENDBRANCH   8   9
ENDBRANCH   7   8
ENDBRANCH   6   7
ENDBRANCH   5   6
ENDBRANCH   4   5
ENDBRANCH   3   4
ENDBRANCH   2   3
ENDBRANCH   1   2
BRANCH   1  39
ATOM     39  C   UNL A   1      43.473  20.927  26.034  1.00  0.00     0.188 C 
BRANCH  39  40
ATOM     40  O   UNL A   1      43.837  21.910  25.072  1.00  0.00    -0.376 OA
BRANCH  40  41
ATOM     41  C   UNL A   1      42.964  23.013  24.876  1.00  0.00     0.202 C 
BRANCH  41  42
ATOM     42  C   UNL A   1      42.816  23.976  26.062  1.00  0.00     0.261 C 
BRANCH  42  43
ATOM     43  O   UNL A   1      42.322  25.281  25.743  1.00  0.00    -0.460 OA
BRANCH  43  44
ATOM     44  C   UNL A   1      43.161  26.331  25.894  1.00  0.00     0.338 C 
ATOM     45  O   UNL A   1      43.911  26.796  25.055  1.00  0.00    -0.246 OA
BRANCH  44  46
ATOM     46  C   UNL A   1      42.875  26.932  27.214  1.00  0.00     0.060 A 
ATOM     47  C   UNL A   1      43.316  28.227  27.502  1.00  0.00     0.016 A 
ATOM     48  C   UNL A   1      42.206  26.178  28.187  1.00  0.00     0.016 A 
ATOM     49  C   UNL A   1      43.059  28.777  28.757  1.00  0.00     0.010 A 
ATOM     50  C   UNL A   1      41.943  26.736  29.442  1.00  0.00     0.010 A 
ATOM     51  C   UNL A   1      42.349  28.047  29.728  1.00  0.00    -0.014 A 
BRANCH  51  52
ATOM     52  C   UNL A   1      41.896  28.752  30.954  1.00  0.00     0.031 A 
ATOM     53  C   UNL A   1      42.643  28.667  32.250  1.00  0.00     0.074 A 
ATOM     54  C   UNL A   1      40.792  29.520  30.858  1.00  0.00     0.049 A 
ATOM     55  N   UNL A   1      42.466  29.369  33.340  1.00  0.00    -0.248 NA
ATOM     56  C   UNL A   1      43.713  27.664  32.346  1.00  0.00     0.031 C 
ATOM     57  C   UNL A   1      39.958  29.632  29.660  1.00  0.00     0.029 A 
ATOM     58  N   UNL A   1      40.200  30.367  31.759  1.00  0.00    -0.354 N 
ATOM     59  C   UNL A   1      43.418  28.917  34.246  1.00  0.00     0.074 A 
ATOM     60  C   UNL A   1      44.133  27.838  33.593  1.00  0.00     0.031 C 
ATOM     61  C   UNL A   1      38.993  30.536  29.881  1.00  0.00     0.029 A 
ATOM     62  C   UNL A   1      39.124  31.050  31.241  1.00  0.00     0.049 A 
ATOM     63  H   UNL A   1      40.514  30.475  32.685  1.00  0.00     0.167 HD
ATOM     64  C   UNL A   1      43.680  29.380  35.493  1.00  0.00     0.037 A 
ATOM     65  C   UNL A   1      38.339  31.997  31.790  1.00  0.00     0.037 A 
ATOM     66  C   UNL A   1      42.947  30.448  36.130  1.00  0.00     0.049 A 
ATOM     67  C   UNL A   1      38.637  32.477  33.182  1.00  0.00     0.074 A 
ATOM     68  C   UNL A   1      43.176  31.025  37.368  1.00  0.00     0.029 A 
ATOM     69  N   UNL A   1      41.836  31.084  35.595  1.00  0.00    -0.354 N 
ATOM     70  N   UNL A   1      39.612  32.120  33.983  1.00  0.00    -0.248 NA
ATOM     71  C   UNL A   1      37.735  33.491  33.746  1.00  0.00     0.031 C 
ATOM     72  C   UNL A   1      42.169  31.966  37.606  1.00  0.00     0.029 A 
ATOM     73  C   UNL A   1      41.345  32.018  36.493  1.00  0.00     0.049 A 
ATOM     74  H   UNL A   1      41.453  30.899  34.707  1.00  0.00     0.167 HD
ATOM     75  C   UNL A   1      39.447  32.870  35.142  1.00  0.00     0.074 A 
ATOM     76  C   UNL A   1      38.291  33.717  34.929  1.00  0.00     0.031 C 
ATOM     77  C   UNL A   1      40.186  32.853  36.277  1.00  0.00     0.037 A 
BRANCH  64  78
ATOM     78  C   UNL A   1      44.814  28.751  36.257  1.00  0.00     0.058 A 
ATOM     79  C   UNL A   1      46.112  29.284  36.209  1.00  0.00     0.135 A 
ATOM     80  C   UNL A   1      44.590  27.657  37.110  1.00  0.00     0.135 A 
ATOM     81  F   UNL A   1      46.384  30.328  35.409  1.00  0.00    -0.206 F 
ATOM     82  C   UNL A   1      47.151  28.743  36.958  1.00  0.00     0.059 A 
ATOM     83  C   UNL A   1      45.610  27.116  37.890  1.00  0.00     0.059 A 
ATOM     84  F   UNL A   1      43.367  27.112  37.203  1.00  0.00    -0.206 F 
ATOM     85  C   UNL A   1      46.890  27.659  37.797  1.00  0.00     0.060 A 
BRANCH  85  86
ATOM     86  S   UNL A   1      48.253  26.974  38.762  1.00  0.00     0.124 S 
ATOM     87  O   UNL A   1      48.443  28.009  39.773  1.00  0.00    -0.237 OA
ATOM     88  O   UNL A   1      47.692  25.715  39.241  1.00  0.00    -0.237 OA
ATOM     89  O   UNL A   1      49.333  26.846  37.787  1.00  0.00    -0.744 OA
ENDBRANCH  85  86
ENDBRANCH  64  78
BRANCH  65  90
ATOM     90  C   UNL A   1      37.227  32.573  30.991  1.00  0.00     0.058 A 
ATOM     91  C   UNL A   1      35.926  32.059  31.084  1.00  0.00     0.135 A 
ATOM     92  C   UNL A   1      37.433  33.686  30.159  1.00  0.00     0.135 A 
ATOM     93  F   UNL A   1      35.679  30.994  31.863  1.00  0.00    -0.206 F 
ATOM     94  C   UNL A   1      34.868  32.626  30.381  1.00  0.00     0.059 A 
ATOM     95  C   UNL A   1      36.387  34.286  29.468  1.00  0.00     0.059 A 
ATOM     96  F   UNL A   1      38.657  34.227  30.051  1.00  0.00    -0.206 F 
ATOM     97  C   UNL A   1      35.107  33.746  29.582  1.00  0.00     0.060 A 
BRANCH  97  98
ATOM     98  S   UNL A   1      33.712  34.509  28.727  1.00  0.00     0.124 S 
ATOM     99  O   UNL A   1      33.371  33.484  27.747  1.00  0.00    -0.237 OA
ATOM    100  O   UNL A   1      32.757  34.698  29.814  1.00  0.00    -0.237 OA
ATOM    101  O   UNL A   1      34.282  35.737  28.182  1.00  0.00    -0.744 OA
ENDBRANCH  97  98
ENDBRANCH  65  90
BRANCH  77 102
ATOM    102  C   UNL A   1      39.772  33.765  37.400  1.00  0.00     0.058 A 
ATOM    103  C   UNL A   1      38.817  33.367  38.347  1.00  0.00     0.135 A 
ATOM    104  C   UNL A   1      40.413  35.001  37.594  1.00  0.00     0.135 A 
ATOM    105  F   UNL A   1      38.166  32.202  38.203  1.00  0.00    -0.206 F 
ATOM    106  C   UNL A   1      38.515  34.158  39.452  1.00  0.00     0.059 A 
ATOM    107  C   UNL A   1      40.145  35.795  38.704  1.00  0.00     0.059 A 
ATOM    108  F   UNL A   1      41.338  35.427  36.719  1.00  0.00    -0.206 F 
ATOM    109  C   UNL A   1      39.195  35.364  39.629  1.00  0.00     0.060 A 
BRANCH 109 110
ATOM    110  S   UNL A   1      38.852  36.334  41.112  1.00  0.00     0.124 S 
ATOM    111  O   UNL A   1      40.121  36.240  41.828  1.00  0.00    -0.237 OA
ATOM    112  O   UNL A   1      38.534  37.646  40.557  1.00  0.00    -0.237 OA
ATOM    113  O   UNL A   1      37.732  35.630  41.730  1.00  0.00    -0.744 OA
ENDBRANCH 109 110
ENDBRANCH  77 102
ENDBRANCH  51  52
ENDBRANCH  44  46
ENDBRANCH  43  44
ENDBRANCH  42  43
ENDBRANCH  41  42
ENDBRANCH  40  41
ENDBRANCH  39  40
ENDBRANCH   1  39
TORSDOF 24
ENDMDL
MODEL 3
REMARK VINA RESULT:     -10.4      2.314      8.266
REMARK SMILES C[C@]12C(=O)N(c3ccc(C(=O)OCCOCCOCCOCCOC(=O)c4ccc(-c5c6nc(c(-c7c(F)cc(S(=O)(=O)[O-])cc7F)c7ccc([nH]7)c(-c7c(F)cc(S(=O)(=O)[O-])cc7F)c7nc(c(-c8c(F)cc(S(=O)(=O)[O-])cc8F)c8ccc5[nH]8)C=C7)C=C6)cc4)cc3)C(=O)[C@H]1[C@H]1c3ccccc3[C@@H]2c2ccccc21
REMARK SMILES IDX 19 1 18 2 17 3 16 4 15 5 14 6 13 7 12 8 10 9 11 10 9 11 6 12
REMARK SMILES IDX 7 13 94 14 8 15 93 16 5 17 1 18 2 19 3 20 97 21 105 22 4 23
REMARK SMILES IDX 95 24 98 25 104 26 106 27 96 28 99 29 111 30 103 31 107 32
REMARK SMILES IDX 100 33 110 34 102 35 108 36 101 37 109 38 20 39 21 40 22 41
REMARK SMILES IDX 23 42 24 43 25 44 26 45 27 46 28 47 92 48 29 49 91 50 30 51
REMARK SMILES IDX 31 52 32 53 85 54 33 55 90 56 84 57 86 58 34 59 89 60 83 61
REMARK SMILES IDX 82 62 35 64 69 65 48 66 68 67 49 68 52 69 67 70 87 71 50 72
REMARK SMILES IDX 51 73 66 75 88 76 53 77 36 78 37 79 46 80 38 81 39 82 45 83
REMARK SMILES IDX 47 84 40 85 41 86 42 87 43 88 44 89 70 90 71 91 80 92 72 93
REMARK SMILES IDX 73 94 79 95 81 96 74 97 75 98 76 99 77 100 78 101 54 102
REMARK SMILES IDX 55 103 64 104 56 105 57 106 63 107 65 108 58 109 59 110
REMARK SMILES IDX 60 111 61 112 62 113
REMARK H PARENT 86 63 52 74
REMARK Flexibility Score: inf
ROOT
ATOM      1  C   UNL A   1      40.639  20.255  26.593  1.00  0.00     0.188 C 
ENDROOT
BRANCH   1   2
ATOM      2  O   UNL A   1      39.833  21.284  27.150  1.00  0.00    -0.377 OA
BRANCH   2   3
ATOM      3  C   UNL A   1      39.750  22.510  26.457  1.00  0.00     0.188 C 
BRANCH   3   4
ATOM      4  C   UNL A   1      38.334  22.843  25.949  1.00  0.00     0.188 C 
BRANCH   4   5
ATOM      5  O   UNL A   1      37.296  21.891  26.100  1.00  0.00    -0.376 OA
BRANCH   5   6
ATOM      6  C   UNL A   1      36.870  21.069  25.022  1.00  0.00     0.202 C 
BRANCH   6   7
ATOM      7  C   UNL A   1      35.478  20.417  24.868  1.00  0.00     0.261 C 
BRANCH   7   8
ATOM      8  O   UNL A   1      34.361  21.275  24.626  1.00  0.00    -0.460 OA
BRANCH   8   9
ATOM      9  C   UNL A   1      33.694  21.689  25.724  1.00  0.00     0.338 C 
ATOM     10  O   UNL A   1      33.334  21.014  26.675  1.00  0.00    -0.246 OA
BRANCH   9  11
ATOM     11  C   UNL A   1      33.690  23.163  25.754  1.00  0.00     0.060 A 
ATOM     12  C   UNL A   1      33.423  25.963  25.797  1.00  0.00     0.052 A 
ATOM     13  C   UNL A   1      32.609  25.143  26.597  1.00  0.00     0.028 A 
ATOM     14  C   UNL A   1      34.456  25.355  25.066  1.00  0.00     0.028 A 
ATOM     15  C   UNL A   1      32.697  23.760  26.529  1.00  0.00     0.018 A 
ATOM     16  C   UNL A   1      34.611  23.956  25.069  1.00  0.00     0.018 A 
BRANCH  12  17
ATOM     17  N   UNL A   1      33.004  27.298  25.571  1.00  0.00    -0.250 N 
ATOM     18  C   UNL A   1      31.179  30.148  25.601  1.00  0.00     0.024 C 
ATOM     19  C   UNL A   1      31.365  28.766  24.942  1.00  0.00     0.071 C 
ATOM     20  C   UNL A   1      31.837  27.820  26.003  1.00  0.00     0.241 C 
ATOM     21  C   UNL A   1      32.494  28.885  23.814  1.00  0.00     0.107 C 
ATOM     22  C   UNL A   1      30.012  28.128  24.446  1.00  0.00     0.066 C 
ATOM     23  O   UNL A   1      31.232  27.607  27.046  1.00  0.00    -0.273 OA
ATOM     24  C   UNL A   1      33.575  28.210  24.739  1.00  0.00     0.238 C 
ATOM     25  C   UNL A   1      31.653  28.566  22.476  1.00  0.00     0.063 C 
ATOM     26  C   UNL A   1      30.373  26.850  23.676  1.00  0.00    -0.036 A 
ATOM     27  C   UNL A   1      29.450  29.104  23.439  1.00  0.00    -0.036 A 
ATOM     28  O   UNL A   1      34.761  28.529  24.714  1.00  0.00    -0.274 OA
ATOM     29  C   UNL A   1      31.258  27.090  22.598  1.00  0.00    -0.036 A 
ATOM     30  C   UNL A   1      30.354  29.376  22.389  1.00  0.00    -0.036 A 
ATOM     31  C   UNL A   1      30.003  25.554  24.001  1.00  0.00     0.005 A 
ATOM     32  C   UNL A   1      28.171  29.642  23.459  1.00  0.00     0.005 A 
ATOM     33  C   UNL A   1      31.800  26.043  21.864  1.00  0.00     0.004 A 
ATOM     34  C   UNL A   1      29.960  30.191  21.337  1.00  0.00     0.004 A 
ATOM     35  C   UNL A   1      30.555  24.498  23.267  1.00  0.00     0.000 A 
ATOM     36  C   UNL A   1      27.782  30.461  22.403  1.00  0.00     0.000 A 
ATOM     37  C   UNL A   1      31.449  24.740  22.214  1.00  0.00     0.000 A 
ATOM     38  C   UNL A   1      28.668  30.732  21.350  1.00  0.00     0.000 A 
ENDBRANCH  12  17
ENDBRANCH   9  11
ENDBRANCH   8   9
ENDBRANCH   7   8
ENDBRANCH   6   7
ENDBRANCH   5   6
ENDBRANCH   4   5
ENDBRANCH   3   4
ENDBRANCH   2   3
ENDBRANCH   1   2
BRANCH   1  39
ATOM     39  C   UNL A   1      41.929  19.781  27.300  1.00  0.00     0.188 C 
BRANCH  39  40
ATOM     40  O   UNL A   1      43.131  19.992  26.569  1.00  0.00    -0.376 OA
BRANCH  40  41
ATOM     41  C   UNL A   1      43.160  21.043  25.614  1.00  0.00     0.202 C 
BRANCH  41  42
ATOM     42  C   UNL A   1      43.316  22.462  26.176  1.00  0.00     0.261 C 
BRANCH  42  43
ATOM     43  O   UNL A   1      44.462  23.188  25.720  1.00  0.00    -0.460 OA
BRANCH  43  44
ATOM     44  C   UNL A   1      45.457  23.423  26.606  1.00  0.00     0.338 C 
ATOM     45  O   UNL A   1      46.619  23.072  26.513  1.00  0.00    -0.246 OA
BRANCH  44  46
ATOM     46  C   UNL A   1      44.921  24.344  27.630  1.00  0.00     0.060 A 
ATOM     47  C   UNL A   1      44.462  23.842  28.851  1.00  0.00     0.016 A 
ATOM     48  C   UNL A   1      44.830  25.714  27.349  1.00  0.00     0.016 A 
ATOM     49  C   UNL A   1      43.938  24.717  29.802  1.00  0.00     0.010 A 
ATOM     50  C   UNL A   1      44.311  26.590  28.308  1.00  0.00     0.010 A 
ATOM     51  C   UNL A   1      43.882  26.100  29.549  1.00  0.00    -0.014 A 
BRANCH  51  52
ATOM     52  C   UNL A   1      43.541  27.012  30.670  1.00  0.00     0.031 A 
ATOM     53  C   UNL A   1      44.429  27.184  31.864  1.00  0.00     0.074 A 
ATOM     54  C   UNL A   1      42.405  27.730  30.562  1.00  0.00     0.049 A 
ATOM     55  N   UNL A   1      44.347  28.074  32.820  1.00  0.00    -0.248 NA
ATOM     56  C   UNL A   1      45.540  26.235  32.017  1.00  0.00     0.031 C 
ATOM     57  C   UNL A   1      41.440  27.603  29.468  1.00  0.00     0.029 A 
ATOM     58  N   UNL A   1      41.883  28.720  31.354  1.00  0.00    -0.354 N 
ATOM     59  C   UNL A   1      45.409  27.815  33.677  1.00  0.00     0.074 A 
ATOM     60  C   UNL A   1      46.088  26.645  33.155  1.00  0.00     0.031 C 
ATOM     61  C   UNL A   1      40.471  28.515  29.630  1.00  0.00     0.029 A 
ATOM     62  C   UNL A   1      40.732  29.276  30.848  1.00  0.00     0.049 A 
ATOM     63  H   UNL A   1      42.293  29.004  32.203  1.00  0.00     0.167 HD
ATOM     64  C   UNL A   1      45.789  28.507  34.779  1.00  0.00     0.037 A 
ATOM     65  C   UNL A   1      39.976  30.295  31.301  1.00  0.00     0.037 A 
ATOM     66  C   UNL A   1      45.091  29.662  35.290  1.00  0.00     0.049 A 
ATOM     67  C   UNL A   1      40.407  31.032  32.538  1.00  0.00     0.074 A 
ATOM     68  C   UNL A   1      45.432  30.463  36.366  1.00  0.00     0.029 A 
ATOM     69  N   UNL A   1      43.904  30.167  34.779  1.00  0.00    -0.354 N 
ATOM     70  N   UNL A   1      41.478  30.847  33.273  1.00  0.00    -0.248 NA
ATOM     71  C   UNL A   1      39.535  32.117  33.006  1.00  0.00     0.031 C 
ATOM     72  C   UNL A   1      44.423  31.415  36.542  1.00  0.00     0.029 A 
ATOM     73  C   UNL A   1      43.479  31.244  35.542  1.00  0.00     0.049 A 
ATOM     74  H   UNL A   1      43.432  29.814  33.991  1.00  0.00     0.167 HD
ATOM     75  C   UNL A   1      41.412  31.797  34.285  1.00  0.00     0.074 A 
ATOM     76  C   UNL A   1      40.209  32.569  34.056  1.00  0.00     0.031 C 
ATOM     77  C   UNL A   1      42.273  32.005  35.311  1.00  0.00     0.037 A 
BRANCH  64  78
ATOM     78  C   UNL A   1      47.024  28.051  35.510  1.00  0.00     0.058 A 
ATOM     79  C   UNL A   1      46.952  27.099  36.540  1.00  0.00     0.135 A 
ATOM     80  C   UNL A   1      48.297  28.503  35.127  1.00  0.00     0.135 A 
ATOM     81  F   UNL A   1      45.761  26.634  36.949  1.00  0.00    -0.206 F 
ATOM     82  C   UNL A   1      48.095  26.630  37.180  1.00  0.00     0.059 A 
ATOM     83  C   UNL A   1      49.457  28.027  35.736  1.00  0.00     0.059 A 
ATOM     84  F   UNL A   1      48.427  29.406  34.143  1.00  0.00    -0.206 F 
ATOM     85  C   UNL A   1      49.344  27.100  36.770  1.00  0.00     0.060 A 
BRANCH  85  86
ATOM     86  S   UNL A   1      50.813  26.476  37.614  1.00  0.00     0.124 S 
ATOM     87  O   UNL A   1      50.409  26.574  39.012  1.00  0.00    -0.237 OA
ATOM     88  O   UNL A   1      50.925  25.122  37.080  1.00  0.00    -0.237 OA
ATOM     89  O   UNL A   1      51.864  27.400  37.200  1.00  0.00    -0.744 OA
ENDBRANCH  85  86
ENDBRANCH  64  78
BRANCH  65  90
ATOM     90  C   UNL A   1      38.761  30.693  30.543  1.00  0.00     0.058 A 
ATOM     91  C   UNL A   1      37.575  29.951  30.636  1.00  0.00     0.135 A 
ATOM     92  C   UNL A   1      38.747  31.856  29.755  1.00  0.00     0.135 A 
ATOM     93  F   UNL A   1      37.540  28.832  31.374  1.00  0.00    -0.206 F 
ATOM     94  C   UNL A   1      36.418  30.346  29.973  1.00  0.00     0.059 A 
ATOM     95  C   UNL A   1      37.596  32.284  29.106  1.00  0.00     0.059 A 
ATOM     96  F   UNL A   1      39.853  32.610  29.650  1.00  0.00    -0.206 F 
ATOM     97  C   UNL A   1      36.436  31.520  29.217  1.00  0.00     0.060 A 
BRANCH  97  98
ATOM     98  S   UNL A   1      34.908  32.054  28.416  1.00  0.00     0.124 S 
ATOM     99  O   UNL A   1      34.507  30.842  27.711  1.00  0.00    -0.237 OA
ATOM    100  O   UNL A   1      34.083  32.433  29.559  1.00  0.00    -0.237 OA
ATOM    101  O   UNL A   1      35.341  33.162  27.570  1.00  0.00    -0.744 OA
ENDBRANCH  97  98
ENDBRANCH  65  90
BRANCH  77 102
ATOM    102  C   UNL A   1      41.951  33.103  36.288  1.00  0.00     0.058 A 
ATOM    103  C   UNL A   1      42.541  34.371  36.179  1.00  0.00     0.135 A 
ATOM    104  C   UNL A   1      40.964  32.921  37.271  1.00  0.00     0.135 A 
ATOM    105  F   UNL A   1      43.498  34.595  35.265  1.00  0.00    -0.206 F 
ATOM    106  C   UNL A   1      42.161  35.423  37.007  1.00  0.00     0.059 A 
ATOM    107  C   UNL A   1      40.550  33.966  38.092  1.00  0.00     0.059 A 
ATOM    108  F   UNL A   1      40.364  31.728  37.415  1.00  0.00    -0.206 F 
ATOM    109  C   UNL A   1      41.154  35.215  37.951  1.00  0.00     0.060 A 
BRANCH 109 110
ATOM    110  S   UNL A   1      40.614  36.614  38.955  1.00  0.00     0.124 S 
ATOM    111  O   UNL A   1      41.806  37.457  38.954  1.00  0.00    -0.237 OA
ATOM    112  O   UNL A   1      39.478  37.122  38.193  1.00  0.00    -0.237 OA
ATOM    113  O   UNL A   1      40.279  36.004  40.240  1.00  0.00    -0.744 OA
ENDBRANCH 109 110
ENDBRANCH  77 102
ENDBRANCH  51  52
ENDBRANCH  44  46
ENDBRANCH  43  44
ENDBRANCH  42  43
ENDBRANCH  41  42
ENDBRANCH  40  41
ENDBRANCH  39  40
ENDBRANCH   1  39
TORSDOF 24
ENDMDL
