MODEL 1
REMARK VINA RESULT:      -9.8      0.000      0.000
REMARK SMILES CC[C@]1(C(=O)OCCOCCOCCOCCOC(=O)c2ccc(-c3c4nc(c(-c5c(F)cc(S(=O)(=O)[O-])cc5F)c5ccc([nH]5)c(-c5c(F)cc(S(=O)(=O)[O-])cc5F)c5nc(c(-c6c(F)cc(S(=O)(=O)[O-])cc6F)c6ccc3[nH]6)C=C5)C=C4)cc2)CC[N@@H+](Cc2nc(C)ccc2O)C1
REMARK SMILES IDX 12 1 11 2 10 3 9 4 8 5 7 6 6 7 4 8 5 9 3 10 87 11 99 12
REMARK SMILES IDX 88 13 89 14 2 16 1 17 90 18 91 19 92 20 97 21 93 22 96 23
REMARK SMILES IDX 94 24 95 25 98 26 13 28 14 29 15 30 16 31 17 32 18 33 19 34
REMARK SMILES IDX 20 35 21 36 22 37 86 38 23 39 85 40 24 41 25 42 26 43 79 44
REMARK SMILES IDX 27 45 84 46 78 47 80 48 28 49 83 50 77 51 76 52 29 54 63 55
REMARK SMILES IDX 42 56 62 57 43 58 46 59 61 60 81 61 44 62 45 63 60 65 82 66
REMARK SMILES IDX 47 67 30 68 31 69 40 70 32 71 33 72 39 73 41 74 34 75 35 76
REMARK SMILES IDX 36 77 37 78 38 79 64 80 65 81 74 82 66 83 67 84 73 85 75 86
REMARK SMILES IDX 68 87 69 88 70 89 71 90 72 91 48 92 49 93 58 94 50 95 51 96
REMARK SMILES IDX 57 97 59 98 52 99 53 100 54 101 55 102 56 103
REMARK H PARENT 89 15 98 27 80 53 46 64
REMARK Flexibility Score: inf
ROOT
ATOM      1  O   UNL A   1      32.957  29.322  24.033  1.00  0.00    -0.377 OA
ENDROOT
BRANCH   1   2
ATOM      2  C   UNL A   1      31.935  28.363  23.822  1.00  0.00     0.188 C 
BRANCH   2   3
ATOM      3  C   UNL A   1      30.866  28.614  22.748  1.00  0.00     0.188 C 
BRANCH   3   4
ATOM      4  O   UNL A   1      29.715  27.812  22.893  1.00  0.00    -0.376 OA
BRANCH   4   5
ATOM      5  C   UNL A   1      29.619  26.939  24.002  1.00  0.00     0.202 C 
BRANCH   5   6
ATOM      6  C   UNL A   1      29.785  25.410  23.898  1.00  0.00     0.261 C 
BRANCH   6   7
ATOM      7  O   UNL A   1      31.054  24.860  24.282  1.00  0.00    -0.463 OA
BRANCH   7   8
ATOM      8  C   UNL A   1      31.211  24.547  25.588  1.00  0.00     0.318 C 
ATOM      9  O   UNL A   1      30.321  24.695  26.422  1.00  0.00    -0.251 OA
BRANCH   8  10
ATOM     10  C   UNL A   1      32.569  23.926  25.947  1.00  0.00     0.122 C 
ATOM     11  C   UNL A   1      32.669  22.927  27.120  1.00  0.00     0.086 C 
ATOM     12  C   UNL A   1      32.952  23.042  24.734  1.00  0.00     0.281 C 
ATOM     13  C   UNL A   1      33.620  21.847  26.632  1.00  0.00     0.264 C 
ATOM     14  N   UNL A   1      33.313  21.697  25.218  1.00  0.00    -0.329 N 
ATOM     15  H   UNL A   1      34.116  21.354  24.691  1.00  0.00     0.348 HD
BRANCH  10  16
ATOM     16  C   UNL A   1      33.576  25.069  26.275  1.00  0.00     0.021 C 
ATOM     17  C   UNL A   1      34.179  25.841  25.111  1.00  0.00     0.005 C 
ENDBRANCH  10  16
BRANCH  14  18
ATOM     18  C   UNL A   1      32.294  20.640  24.962  1.00  0.00     0.323 C 
BRANCH  18  19
ATOM     19  C   UNL A   1      32.705  19.349  24.262  1.00  0.00     0.136 A 
ATOM     20  N   UNL A   1      33.361  18.417  25.020  1.00  0.00    -0.248 NA
ATOM     21  C   UNL A   1      32.401  19.117  22.922  1.00  0.00     0.142 A 
ATOM     22  C   UNL A   1      33.695  17.236  24.443  1.00  0.00     0.038 A 
ATOM     23  C   UNL A   1      32.756  17.902  22.346  1.00  0.00     0.050 A 
ATOM     24  C   UNL A   1      34.469  16.252  25.272  1.00  0.00     0.067 C 
ATOM     25  C   UNL A   1      33.405  16.945  23.118  1.00  0.00     0.027 A 
BRANCH  21  26
ATOM     26  O   UNL A   1      31.736  20.055  22.189  1.00  0.00    -0.506 OA
ATOM     27  H   UNL A   1      30.891  20.351  22.464  1.00  0.00     0.293 HD
ENDBRANCH  21  26
ENDBRANCH  18  19
ENDBRANCH  14  18
ENDBRANCH   8  10
ENDBRANCH   7   8
ENDBRANCH   6   7
ENDBRANCH   5   6
ENDBRANCH   4   5
ENDBRANCH   3   4
ENDBRANCH   2   3
ENDBRANCH   1   2
BRANCH   1  28
ATOM     28  C   UNL A   1      33.322  29.690  25.358  1.00  0.00     0.188 C 
BRANCH  28  29
ATOM     29  C   UNL A   1      32.269  30.239  26.345  1.00  0.00     0.188 C 
BRANCH  29  30
ATOM     30  O   UNL A   1      32.787  30.756  27.559  1.00  0.00    -0.376 OA
BRANCH  30  31
ATOM     31  C   UNL A   1      33.945  31.576  27.480  1.00  0.00     0.202 C 
BRANCH  31  32
ATOM     32  C   UNL A   1      34.900  31.580  28.684  1.00  0.00     0.261 C 
BRANCH  32  33
ATOM     33  O   UNL A   1      35.690  30.396  28.876  1.00  0.00    -0.460 OA
BRANCH  33  34
ATOM     34  C   UNL A   1      36.337  30.257  30.054  1.00  0.00     0.338 C 
ATOM     35  O   UNL A   1      35.848  30.179  31.162  1.00  0.00    -0.246 OA
BRANCH  34  36
ATOM     36  C   UNL A   1      37.766  30.053  29.744  1.00  0.00     0.060 A 
ATOM     37  C   UNL A   1      38.166  29.887  28.411  1.00  0.00     0.016 A 
ATOM     38  C   UNL A   1      38.703  30.022  30.776  1.00  0.00     0.016 A 
ATOM     39  C   UNL A   1      39.511  29.665  28.110  1.00  0.00     0.010 A 
ATOM     40  C   UNL A   1      40.045  29.779  30.475  1.00  0.00     0.010 A 
ATOM     41  C   UNL A   1      40.451  29.571  29.144  1.00  0.00    -0.014 A 
BRANCH  41  42
ATOM     42  C   UNL A   1      41.819  29.068  28.871  1.00  0.00     0.031 A 
ATOM     43  C   UNL A   1      42.955  30.054  28.890  1.00  0.00     0.074 A 
ATOM     44  C   UNL A   1      42.050  27.772  28.590  1.00  0.00     0.049 A 
ATOM     45  N   UNL A   1      44.212  29.877  28.583  1.00  0.00    -0.248 NA
ATOM     46  C   UNL A   1      42.624  31.427  29.313  1.00  0.00     0.031 C 
ATOM     47  C   UNL A   1      41.043  26.715  28.596  1.00  0.00     0.029 A 
ATOM     48  N   UNL A   1      43.208  27.130  28.228  1.00  0.00    -0.354 N 
ATOM     49  C   UNL A   1      44.820  31.116  28.754  1.00  0.00     0.074 A 
ATOM     50  C   UNL A   1      43.791  32.040  29.177  1.00  0.00     0.031 C 
ATOM     51  C   UNL A   1      41.618  25.558  28.223  1.00  0.00     0.029 A 
ATOM     52  C   UNL A   1      43.029  25.800  27.924  1.00  0.00     0.049 A 
ATOM     53  H   UNL A   1      44.083  27.579  28.189  1.00  0.00     0.167 HD
ATOM     54  C   UNL A   1      46.119  31.449  28.576  1.00  0.00     0.037 A 
ATOM     55  C   UNL A   1      43.899  24.893  27.434  1.00  0.00     0.037 A 
ATOM     56  C   UNL A   1      47.137  30.520  28.162  1.00  0.00     0.049 A 
ATOM     57  C   UNL A   1      45.324  25.311  27.166  1.00  0.00     0.074 A 
ATOM     58  C   UNL A   1      48.491  30.751  27.993  1.00  0.00     0.029 A 
ATOM     59  N   UNL A   1      46.913  29.191  27.837  1.00  0.00    -0.354 N 
ATOM     60  N   UNL A   1      45.897  26.474  27.374  1.00  0.00    -0.248 NA
ATOM     61  C   UNL A   1      46.222  24.296  26.593  1.00  0.00     0.031 C 
ATOM     62  C   UNL A   1      49.074  29.578  27.504  1.00  0.00     0.029 A 
ATOM     63  C   UNL A   1      48.096  28.599  27.429  1.00  0.00     0.049 A 
ATOM     64  H   UNL A   1      46.041  28.735  27.887  1.00  0.00     0.167 HD
ATOM     65  C   UNL A   1      47.225  26.319  26.988  1.00  0.00     0.074 A 
ATOM     66  C   UNL A   1      47.374  24.949  26.544  1.00  0.00     0.031 C 
ATOM     67  C   UNL A   1      48.232  27.228  27.003  1.00  0.00     0.037 A 
BRANCH  54  68
ATOM     68  C   UNL A   1      46.512  32.883  28.791  1.00  0.00     0.058 A 
ATOM     69  C   UNL A   1      46.933  33.361  30.041  1.00  0.00     0.135 A 
ATOM     70  C   UNL A   1      46.514  33.782  27.710  1.00  0.00     0.135 A 
ATOM     71  F   UNL A   1      46.930  32.550  31.112  1.00  0.00    -0.206 F 
ATOM     72  C   UNL A   1      47.327  34.684  30.217  1.00  0.00     0.059 A 
ATOM     73  C   UNL A   1      46.930  35.101  27.858  1.00  0.00     0.059 A 
ATOM     74  F   UNL A   1      46.113  33.379  26.495  1.00  0.00    -0.206 F 
ATOM     75  C   UNL A   1      47.326  35.545  29.118  1.00  0.00     0.060 A 
BRANCH  75  76
ATOM     76  S   UNL A   1      47.864  37.251  29.361  1.00  0.00     0.124 S 
ATOM     77  O   UNL A   1      48.321  37.605  28.020  1.00  0.00    -0.237 OA
ATOM     78  O   UNL A   1      46.636  37.903  29.803  1.00  0.00    -0.237 OA
ATOM     79  O   UNL A   1      48.911  37.139  30.370  1.00  0.00    -0.744 OA
ENDBRANCH  75  76
ENDBRANCH  54  68
BRANCH  55  80
ATOM     80  C   UNL A   1      43.455  23.502  27.147  1.00  0.00     0.058 A 
ATOM     81  C   UNL A   1      43.059  23.122  25.856  1.00  0.00     0.135 A 
ATOM     82  C   UNL A   1      43.390  22.532  28.160  1.00  0.00     0.135 A 
ATOM     83  F   UNL A   1      43.091  24.015  24.855  1.00  0.00    -0.206 F 
ATOM     84  C   UNL A   1      42.596  21.838  25.582  1.00  0.00     0.059 A 
ATOM     85  C   UNL A   1      42.957  21.233  27.905  1.00  0.00     0.059 A 
ATOM     86  F   UNL A   1      43.764  22.839  29.412  1.00  0.00    -0.206 F 
ATOM     87  C   UNL A   1      42.550  20.900  26.614  1.00  0.00     0.060 A 
BRANCH  87  88
ATOM     88  S   UNL A   1      41.980  19.229  26.235  1.00  0.00     0.124 S 
ATOM     89  O   UNL A   1      42.022  18.600  27.549  1.00  0.00    -0.237 OA
ATOM     90  O   UNL A   1      40.649  19.480  25.689  1.00  0.00    -0.237 OA
ATOM     91  O   UNL A   1      42.964  18.749  25.271  1.00  0.00    -0.744 OA
ENDBRANCH  87  88
ENDBRANCH  55  80
BRANCH  67  92
ATOM     92  C   UNL A   1      49.598  26.772  26.565  1.00  0.00     0.058 A 
ATOM     93  C   UNL A   1      50.481  26.130  27.446  1.00  0.00     0.135 A 
ATOM     94  C   UNL A   1      49.992  26.902  25.223  1.00  0.00     0.135 A 
ATOM     95  F   UNL A   1      50.158  25.986  28.741  1.00  0.00    -0.206 F 
ATOM     96  C   UNL A   1      51.713  25.646  27.016  1.00  0.00     0.059 A 
ATOM     97  C   UNL A   1      51.204  26.398  24.763  1.00  0.00     0.059 A 
ATOM     98  F   UNL A   1      49.179  27.498  24.335  1.00  0.00    -0.206 F 
ATOM     99  C   UNL A   1      52.062  25.777  25.669  1.00  0.00     0.060 A 
BRANCH  99 100
ATOM    100  S   UNL A   1      53.636  25.090  25.113  1.00  0.00     0.124 S 
ATOM    101  O   UNL A   1      53.398  23.658  25.256  1.00  0.00    -0.237 OA
ATOM    102  O   UNL A   1      53.725  25.584  23.744  1.00  0.00    -0.237 OA
ATOM    103  O   UNL A   1      54.605  25.661  26.044  1.00  0.00    -0.744 OA
ENDBRANCH  99 100
ENDBRANCH  67  92
ENDBRANCH  41  42
ENDBRANCH  34  36
ENDBRANCH  33  34
ENDBRANCH  32  33
ENDBRANCH  31  32
ENDBRANCH  30  31
ENDBRANCH  29  30
ENDBRANCH  28  29
ENDBRANCH   1  28
TORSDOF 27
ENDMDL
MODEL 2
REMARK VINA RESULT:      -9.4      4.865      6.486
REMARK SMILES CC[C@]1(C(=O)OCCOCCOCCOCCOC(=O)c2ccc(-c3c4nc(c(-c5c(F)cc(S(=O)(=O)[O-])cc5F)c5ccc([nH]5)c(-c5c(F)cc(S(=O)(=O)[O-])cc5F)c5nc(c(-c6c(F)cc(S(=O)(=O)[O-])cc6F)c6ccc3[nH]6)C=C5)C=C4)cc2)CC[N@@H+](Cc2nc(C)ccc2O)C1
REMARK SMILES IDX 12 1 11 2 10 3 9 4 8 5 7 6 6 7 4 8 5 9 3 10 87 11 99 12
REMARK SMILES IDX 88 13 89 14 2 16 1 17 90 18 91 19 92 20 97 21 93 22 96 23
REMARK SMILES IDX 94 24 95 25 98 26 13 28 14 29 15 30 16 31 17 32 18 33 19 34
REMARK SMILES IDX 20 35 21 36 22 37 86 38 23 39 85 40 24 41 25 42 26 43 79 44
REMARK SMILES IDX 27 45 84 46 78 47 80 48 28 49 83 50 77 51 76 52 29 54 63 55
REMARK SMILES IDX 42 56 62 57 43 58 46 59 61 60 81 61 44 62 45 63 60 65 82 66
REMARK SMILES IDX 47 67 30 68 31 69 40 70 32 71 33 72 39 73 41 74 34 75 35 76
REMARK SMILES IDX 36 77 37 78 38 79 64 80 65 81 74 82 66 83 67 84 73 85 75 86
REMARK SMILES IDX 68 87 69 88 70 89 71 90 72 91 48 92 49 93 58 94 50 95 51 96
REMARK SMILES IDX 57 97 59 98 52 99 53 100 54 101 55 102 56 103
REMARK H PARENT 89 15 98 27 80 53 46 64
REMARK Flexibility Score: inf
ROOT
ATOM      1  O   UNL A   1      34.357  28.232  23.493  1.00  0.00    -0.377 OA
ENDROOT
BRANCH   1   2
ATOM      2  C   UNL A   1      33.347  27.676  22.668  1.00  0.00     0.188 C 
BRANCH   2   3
ATOM      3  C   UNL A   1      31.954  28.323  22.627  1.00  0.00     0.188 C 
BRANCH   3   4
ATOM      4  O   UNL A   1      30.894  27.394  22.660  1.00  0.00    -0.376 OA
BRANCH   4   5
ATOM      5  C   UNL A   1      31.111  26.122  23.240  1.00  0.00     0.202 C 
BRANCH   5   6
ATOM      6  C   UNL A   1      31.718  24.930  22.474  1.00  0.00     0.261 C 
BRANCH   6   7
ATOM      7  O   UNL A   1      32.765  24.195  23.126  1.00  0.00    -0.463 OA
BRANCH   7   8
ATOM      8  C   UNL A   1      32.658  22.847  23.117  1.00  0.00     0.318 C 
ATOM      9  O   UNL A   1      32.543  22.193  22.083  1.00  0.00    -0.251 OA
BRANCH   8  10
ATOM     10  C   UNL A   1      32.758  22.180  24.497  1.00  0.00     0.122 C 
ATOM     11  C   UNL A   1      33.191  20.702  24.604  1.00  0.00     0.086 C 
ATOM     12  C   UNL A   1      33.915  22.910  25.225  1.00  0.00     0.281 C 
ATOM     13  C   UNL A   1      34.117  20.653  25.808  1.00  0.00     0.264 C 
ATOM     14  N   UNL A   1      34.854  21.906  25.757  1.00  0.00    -0.329 N 
ATOM     15  H   UNL A   1      35.169  22.197  26.683  1.00  0.00     0.348 HD
BRANCH  10  16
ATOM     16  C   UNL A   1      31.373  22.270  25.203  1.00  0.00     0.021 C 
ATOM     17  C   UNL A   1      31.304  22.983  26.545  1.00  0.00     0.005 C 
ENDBRANCH  10  16
BRANCH  14  18
ATOM     18  C   UNL A   1      36.138  21.785  25.011  1.00  0.00     0.323 C 
BRANCH  18  19
ATOM     19  C   UNL A   1      37.435  22.259  25.660  1.00  0.00     0.136 A 
ATOM     20  N   UNL A   1      38.420  21.324  25.829  1.00  0.00    -0.248 NA
ATOM     21  C   UNL A   1      37.619  23.588  26.035  1.00  0.00     0.142 A 
ATOM     22  C   UNL A   1      39.604  21.722  26.355  1.00  0.00     0.038 A 
ATOM     23  C   UNL A   1      38.839  23.978  26.578  1.00  0.00     0.050 A 
ATOM     24  C   UNL A   1      40.649  20.670  26.591  1.00  0.00     0.067 C 
ATOM     25  C   UNL A   1      39.848  23.035  26.733  1.00  0.00     0.027 A 
BRANCH  21  26
ATOM     26  O   UNL A   1      36.628  24.506  25.847  1.00  0.00    -0.506 OA
ATOM     27  H   UNL A   1      35.907  24.545  26.443  1.00  0.00     0.293 HD
ENDBRANCH  21  26
ENDBRANCH  18  19
ENDBRANCH  14  18
ENDBRANCH   8  10
ENDBRANCH   7   8
ENDBRANCH   6   7
ENDBRANCH   5   6
ENDBRANCH   4   5
ENDBRANCH   3   4
ENDBRANCH   2   3
ENDBRANCH   1   2
BRANCH   1  28
ATOM     28  C   UNL A   1      34.055  28.599  24.834  1.00  0.00     0.188 C 
BRANCH  28  29
ATOM     29  C   UNL A   1      33.228  27.665  25.743  1.00  0.00     0.188 C 
BRANCH  29  30
ATOM     30  O   UNL A   1      32.227  28.303  26.518  1.00  0.00    -0.376 OA
BRANCH  30  31
ATOM     31  C   UNL A   1      31.840  29.615  26.135  1.00  0.00     0.202 C 
BRANCH  31  32
ATOM     32  C   UNL A   1      32.396  30.791  26.955  1.00  0.00     0.261 C 
BRANCH  32  33
ATOM     33  O   UNL A   1      33.627  30.554  27.656  1.00  0.00    -0.460 OA
BRANCH  33  34
ATOM     34  C   UNL A   1      34.537  31.553  27.682  1.00  0.00     0.338 C 
ATOM     35  O   UNL A   1      34.344  32.734  27.478  1.00  0.00    -0.246 OA
BRANCH  34  36
ATOM     36  C   UNL A   1      35.806  30.974  28.164  1.00  0.00     0.060 A 
ATOM     37  C   UNL A   1      35.846  29.629  28.555  1.00  0.00     0.016 A 
ATOM     38  C   UNL A   1      36.950  31.768  28.232  1.00  0.00     0.016 A 
ATOM     39  C   UNL A   1      37.034  29.080  29.040  1.00  0.00     0.010 A 
ATOM     40  C   UNL A   1      38.133  31.223  28.738  1.00  0.00     0.010 A 
ATOM     41  C   UNL A   1      38.173  29.885  29.170  1.00  0.00    -0.014 A 
BRANCH  41  42
ATOM     42  C   UNL A   1      39.351  29.401  29.931  1.00  0.00     0.031 A 
ATOM     43  C   UNL A   1      39.679  30.073  31.236  1.00  0.00     0.074 A 
ATOM     44  C   UNL A   1      40.126  28.403  29.467  1.00  0.00     0.049 A 
ATOM     45  N   UNL A   1      40.707  29.899  32.023  1.00  0.00    -0.248 NA
ATOM     46  C   UNL A   1      38.715  31.079  31.716  1.00  0.00     0.031 C 
ATOM     47  C   UNL A   1      39.879  27.639  28.247  1.00  0.00     0.029 A 
ATOM     48  N   UNL A   1      41.291  27.874  29.963  1.00  0.00    -0.354 N 
ATOM     49  C   UNL A   1      40.527  30.785  33.079  1.00  0.00     0.074 A 
ATOM     50  C   UNL A   1      39.299  31.506  32.825  1.00  0.00     0.031 C 
ATOM     51  C   UNL A   1      40.879  26.758  28.071  1.00  0.00     0.029 A 
ATOM     52  C   UNL A   1      41.853  26.917  29.150  1.00  0.00     0.049 A 
ATOM     53  H   UNL A   1      41.688  28.153  30.820  1.00  0.00     0.167 HD
ATOM     54  C   UNL A   1      41.315  30.975  34.162  1.00  0.00     0.037 A 
ATOM     55  C   UNL A   1      43.030  26.266  29.255  1.00  0.00     0.037 A 
ATOM     56  C   UNL A   1      42.531  30.248  34.409  1.00  0.00     0.049 A 
ATOM     57  C   UNL A   1      43.930  26.557  30.429  1.00  0.00     0.074 A 
ATOM     58  C   UNL A   1      43.379  30.339  35.499  1.00  0.00     0.029 A 
ATOM     59  N   UNL A   1      43.082  29.308  33.551  1.00  0.00    -0.354 N 
ATOM     60  N   UNL A   1      43.727  27.364  31.445  1.00  0.00    -0.248 NA
ATOM     61  C   UNL A   1      45.220  25.852  30.475  1.00  0.00     0.031 C 
ATOM     62  C   UNL A   1      44.475  29.502  35.269  1.00  0.00     0.029 A 
ATOM     63  C   UNL A   1      44.278  28.841  34.067  1.00  0.00     0.049 A 
ATOM     64  H   UNL A   1      42.681  29.016  32.699  1.00  0.00     0.167 HD
ATOM     65  C   UNL A   1      44.848  27.239  32.262  1.00  0.00     0.074 A 
ATOM     66  C   UNL A   1      45.720  26.271  31.628  1.00  0.00     0.031 C 
ATOM     67  C   UNL A   1      45.129  27.866  33.431  1.00  0.00     0.037 A 
BRANCH  54  68
ATOM     68  C   UNL A   1      40.911  32.037  35.146  1.00  0.00     0.058 A 
ATOM     69  C   UNL A   1      39.982  31.790  36.168  1.00  0.00     0.135 A 
ATOM     70  C   UNL A   1      41.504  33.309  35.093  1.00  0.00     0.135 A 
ATOM     71  F   UNL A   1      39.368  30.598  36.252  1.00  0.00    -0.206 F 
ATOM     72  C   UNL A   1      39.642  32.772  37.094  1.00  0.00     0.059 A 
ATOM     73  C   UNL A   1      41.201  34.297  36.024  1.00  0.00     0.059 A 
ATOM     74  F   UNL A   1      42.393  33.601  34.131  1.00  0.00    -0.206 F 
ATOM     75  C   UNL A   1      40.261  34.021  37.016  1.00  0.00     0.060 A 
BRANCH  75  76
ATOM     76  S   UNL A   1      39.826  35.275  38.239  1.00  0.00     0.124 S 
ATOM     77  O   UNL A   1      38.669  34.663  38.884  1.00  0.00    -0.237 OA
ATOM     78  O   UNL A   1      41.037  35.350  39.050  1.00  0.00    -0.237 OA
ATOM     79  O   UNL A   1      39.541  36.456  37.431  1.00  0.00    -0.744 OA
ENDBRANCH  75  76
ENDBRANCH  54  68
BRANCH  55  80
ATOM     80  C   UNL A   1      43.443  25.285  28.213  1.00  0.00     0.058 A 
ATOM     81  C   UNL A   1      44.090  25.705  27.042  1.00  0.00     0.135 A 
ATOM     82  C   UNL A   1      43.176  23.914  28.355  1.00  0.00     0.135 A 
ATOM     83  F   UNL A   1      44.357  27.006  26.852  1.00  0.00    -0.206 F 
ATOM     84  C   UNL A   1      44.439  24.806  26.038  1.00  0.00     0.059 A 
ATOM     85  C   UNL A   1      43.541  22.992  27.378  1.00  0.00     0.059 A 
ATOM     86  F   UNL A   1      42.567  23.457  29.460  1.00  0.00    -0.206 F 
ATOM     87  C   UNL A   1      44.161  23.450  26.216  1.00  0.00     0.060 A 
BRANCH  87  88
ATOM     88  S   UNL A   1      44.651  22.291  24.921  1.00  0.00     0.124 S 
ATOM     89  O   UNL A   1      45.956  21.851  25.399  1.00  0.00    -0.237 OA
ATOM     90  O   UNL A   1      43.580  21.300  24.981  1.00  0.00    -0.237 OA
ATOM     91  O   UNL A   1      44.663  23.118  23.718  1.00  0.00    -0.744 OA
ENDBRANCH  87  88
ENDBRANCH  55  80
BRANCH  67  92
ATOM     92  C   UNL A   1      46.411  27.504  34.132  1.00  0.00     0.058 A 
ATOM     93  C   UNL A   1      46.487  26.422  35.022  1.00  0.00     0.135 A 
ATOM     94  C   UNL A   1      47.597  28.198  33.843  1.00  0.00     0.135 A 
ATOM     95  F   UNL A   1      45.382  25.729  35.340  1.00  0.00    -0.206 F 
ATOM     96  C   UNL A   1      47.692  26.049  35.610  1.00  0.00     0.059 A 
ATOM     97  C   UNL A   1      48.818  27.824  34.395  1.00  0.00     0.059 A 
ATOM     98  F   UNL A   1      47.582  29.235  32.990  1.00  0.00    -0.206 F 
ATOM     99  C   UNL A   1      48.854  26.751  35.283  1.00  0.00     0.060 A 
BRANCH  99 100
ATOM    100  S   UNL A   1      50.419  26.217  36.007  1.00  0.00     0.124 S 
ATOM    101  O   UNL A   1      49.974  25.200  36.954  1.00  0.00    -0.237 OA
ATOM    102  O   UNL A   1      51.148  25.723  34.843  1.00  0.00    -0.237 OA
ATOM    103  O   UNL A   1      50.954  27.437  36.602  1.00  0.00    -0.744 OA
ENDBRANCH  99 100
ENDBRANCH  67  92
ENDBRANCH  41  42
ENDBRANCH  34  36
ENDBRANCH  33  34
ENDBRANCH  32  33
ENDBRANCH  31  32
ENDBRANCH  30  31
ENDBRANCH  29  30
ENDBRANCH  28  29
ENDBRANCH   1  28
TORSDOF 27
ENDMDL
MODEL 3
REMARK VINA RESULT:      -8.9      5.146      9.264
REMARK SMILES CC[C@]1(C(=O)OCCOCCOCCOCCOC(=O)c2ccc(-c3c4nc(c(-c5c(F)cc(S(=O)(=O)[O-])cc5F)c5ccc([nH]5)c(-c5c(F)cc(S(=O)(=O)[O-])cc5F)c5nc(c(-c6c(F)cc(S(=O)(=O)[O-])cc6F)c6ccc3[nH]6)C=C5)C=C4)cc2)CC[N@@H+](Cc2nc(C)ccc2O)C1
REMARK SMILES IDX 12 1 11 2 10 3 9 4 8 5 7 6 6 7 4 8 5 9 3 10 87 11 99 12
REMARK SMILES IDX 88 13 89 14 2 16 1 17 90 18 91 19 92 20 97 21 93 22 96 23
REMARK SMILES IDX 94 24 95 25 98 26 13 28 14 29 15 30 16 31 17 32 18 33 19 34
REMARK SMILES IDX 20 35 21 36 22 37 86 38 23 39 85 40 24 41 25 42 26 43 79 44
REMARK SMILES IDX 27 45 84 46 78 47 80 48 28 49 83 50 77 51 76 52 29 54 63 55
REMARK SMILES IDX 42 56 62 57 43 58 46 59 61 60 81 61 44 62 45 63 60 65 82 66
REMARK SMILES IDX 47 67 30 68 31 69 40 70 32 71 33 72 39 73 41 74 34 75 35 76
REMARK SMILES IDX 36 77 37 78 38 79 64 80 65 81 74 82 66 83 67 84 73 85 75 86
REMARK SMILES IDX 68 87 69 88 70 89 71 90 72 91 48 92 49 93 58 94 50 95 51 96
REMARK SMILES IDX 57 97 59 98 52 99 53 100 54 101 55 102 56 103
REMARK H PARENT 89 15 98 27 80 53 46 64
REMARK Flexibility Score: inf
ROOT
ATOM      1  O   UNL A   1      33.539  28.621  23.131  1.00  0.00    -0.377 OA
ENDROOT
BRANCH   1   2
ATOM      2  C   UNL A   1      32.441  27.792  22.788  1.00  0.00     0.188 C 
BRANCH   2   3
ATOM      3  C   UNL A   1      31.039  28.128  23.316  1.00  0.00     0.188 C 
BRANCH   3   4
ATOM      4  O   UNL A   1      30.035  27.247  22.864  1.00  0.00    -0.376 OA
BRANCH   4   5
ATOM      5  C   UNL A   1      29.702  26.120  23.653  1.00  0.00     0.202 C 
BRANCH   5   6
ATOM      6  C   UNL A   1      30.390  24.748  23.510  1.00  0.00     0.261 C 
BRANCH   6   7
ATOM      7  O   UNL A   1      31.652  24.575  24.172  1.00  0.00    -0.463 OA
BRANCH   7   8
ATOM      8  C   UNL A   1      32.030  23.304  24.437  1.00  0.00     0.318 C 
ATOM      9  O   UNL A   1      32.015  22.413  23.591  1.00  0.00    -0.251 OA
BRANCH   8  10
ATOM     10  C   UNL A   1      32.548  23.065  25.863  1.00  0.00     0.122 C 
ATOM     11  C   UNL A   1      32.949  21.642  26.304  1.00  0.00     0.086 C 
ATOM     12  C   UNL A   1      33.897  23.823  25.944  1.00  0.00     0.281 C 
ATOM     13  C   UNL A   1      34.210  21.832  27.132  1.00  0.00     0.264 C 
ATOM     14  N   UNL A   1      34.927  22.909  26.468  1.00  0.00    -0.329 N 
ATOM     15  H   UNL A   1      35.530  23.417  27.116  1.00  0.00     0.348 HD
BRANCH  10  16
ATOM     16  C   UNL A   1      31.464  23.536  26.878  1.00  0.00     0.021 C 
ATOM     17  C   UNL A   1      30.118  22.828  26.860  1.00  0.00     0.005 C 
ENDBRANCH  10  16
BRANCH  14  18
ATOM     18  C   UNL A   1      35.902  22.411  25.456  1.00  0.00     0.323 C 
BRANCH  18  19
ATOM     19  C   UNL A   1      37.391  22.397  25.787  1.00  0.00     0.136 A 
ATOM     20  N   UNL A   1      37.895  23.501  26.419  1.00  0.00    -0.248 NA
ATOM     21  C   UNL A   1      38.193  21.298  25.488  1.00  0.00     0.142 A 
ATOM     22  C   UNL A   1      39.203  23.501  26.774  1.00  0.00     0.038 A 
ATOM     23  C   UNL A   1      39.535  21.316  25.855  1.00  0.00     0.050 A 
ATOM     24  C   UNL A   1      39.752  24.746  27.408  1.00  0.00     0.067 C 
ATOM     25  C   UNL A   1      40.046  22.429  26.514  1.00  0.00     0.027 A 
BRANCH  21  26
ATOM     26  O   UNL A   1      37.667  20.202  24.869  1.00  0.00    -0.506 OA
ATOM     27  H   UNL A   1      37.799  19.350  25.235  1.00  0.00     0.293 HD
ENDBRANCH  21  26
ENDBRANCH  18  19
ENDBRANCH  14  18
ENDBRANCH   8  10
ENDBRANCH   7   8
ENDBRANCH   6   7
ENDBRANCH   5   6
ENDBRANCH   4   5
ENDBRANCH   3   4
ENDBRANCH   2   3
ENDBRANCH   1   2
BRANCH   1  28
ATOM     28  C   UNL A   1      33.931  28.752  24.492  1.00  0.00     0.188 C 
BRANCH  28  29
ATOM     29  C   UNL A   1      33.719  27.594  25.492  1.00  0.00     0.188 C 
BRANCH  29  30
ATOM     30  O   UNL A   1      32.952  27.917  26.640  1.00  0.00    -0.376 OA
BRANCH  30  31
ATOM     31  C   UNL A   1      32.069  29.025  26.547  1.00  0.00     0.202 C 
BRANCH  31  32
ATOM     32  C   UNL A   1      32.515  30.349  27.189  1.00  0.00     0.261 C 
BRANCH  32  33
ATOM     33  O   UNL A   1      33.770  30.329  27.887  1.00  0.00    -0.460 OA
BRANCH  33  34
ATOM     34  C   UNL A   1      34.550  31.430  27.809  1.00  0.00     0.338 C 
ATOM     35  O   UNL A   1      34.209  32.558  27.520  1.00  0.00    -0.246 OA
BRANCH  34  36
ATOM     36  C   UNL A   1      35.889  31.050  28.299  1.00  0.00     0.060 A 
ATOM     37  C   UNL A   1      36.116  29.741  28.744  1.00  0.00     0.016 A 
ATOM     38  C   UNL A   1      36.915  31.995  28.319  1.00  0.00     0.016 A 
ATOM     39  C   UNL A   1      37.371  29.380  29.235  1.00  0.00     0.010 A 
ATOM     40  C   UNL A   1      38.164  31.638  28.830  1.00  0.00     0.010 A 
ATOM     41  C   UNL A   1      38.390  30.338  29.317  1.00  0.00    -0.014 A 
BRANCH  41  42
ATOM     42  C   UNL A   1      39.629  30.051  30.081  1.00  0.00     0.031 A 
ATOM     43  C   UNL A   1      40.587  29.033  29.525  1.00  0.00     0.074 A 
ATOM     44  C   UNL A   1      39.892  30.663  31.251  1.00  0.00     0.049 A 
ATOM     45  N   UNL A   1      41.675  28.541  30.056  1.00  0.00    -0.248 NA
ATOM     46  C   UNL A   1      40.272  28.498  28.189  1.00  0.00     0.031 C 
ATOM     47  C   UNL A   1      39.070  31.704  31.862  1.00  0.00     0.029 A 
ATOM     48  N   UNL A   1      40.919  30.480  32.143  1.00  0.00    -0.354 N 
ATOM     49  C   UNL A   1      42.163  27.625  29.132  1.00  0.00     0.074 A 
ATOM     50  C   UNL A   1      41.246  27.617  28.013  1.00  0.00     0.031 C 
ATOM     51  C   UNL A   1      39.608  32.049  33.046  1.00  0.00     0.029 A 
ATOM     52  C   UNL A   1      40.795  31.230  33.289  1.00  0.00     0.049 A 
ATOM     53  H   UNL A   1      41.673  29.868  31.978  1.00  0.00     0.167 HD
ATOM     54  C   UNL A   1      43.278  26.863  29.210  1.00  0.00     0.037 A 
ATOM     55  C   UNL A   1      41.540  31.234  34.413  1.00  0.00     0.037 A 
ATOM     56  C   UNL A   1      44.189  26.883  30.324  1.00  0.00     0.049 A 
ATOM     57  C   UNL A   1      42.731  30.313  34.510  1.00  0.00     0.074 A 
ATOM     58  C   UNL A   1      45.369  26.178  30.479  1.00  0.00     0.029 A 
ATOM     59  N   UNL A   1      44.015  27.634  31.477  1.00  0.00    -0.354 N 
ATOM     60  N   UNL A   1      43.209  29.484  33.611  1.00  0.00    -0.248 NA
ATOM     61  C   UNL A   1      43.485  30.325  35.773  1.00  0.00     0.031 C 
ATOM     62  C   UNL A   1      45.876  26.453  31.753  1.00  0.00     0.029 A 
ATOM     63  C   UNL A   1      45.046  27.379  32.366  1.00  0.00     0.049 A 
ATOM     64  H   UNL A   1      43.269  28.257  31.639  1.00  0.00     0.167 HD
ATOM     65  C   UNL A   1      44.334  28.902  34.189  1.00  0.00     0.074 A 
ATOM     66  C   UNL A   1      44.472  29.481  35.509  1.00  0.00     0.031 C 
ATOM     67  C   UNL A   1      45.178  27.975  33.672  1.00  0.00     0.037 A 
BRANCH  54  68
ATOM     68  C   UNL A   1      43.560  25.913  28.080  1.00  0.00     0.058 A 
ATOM     69  C   UNL A   1      44.237  26.316  26.920  1.00  0.00     0.135 A 
ATOM     70  C   UNL A   1      43.187  24.562  28.186  1.00  0.00     0.135 A 
ATOM     71  F   UNL A   1      44.598  27.600  26.757  1.00  0.00    -0.206 F 
ATOM     72  C   UNL A   1      44.522  25.418  25.896  1.00  0.00     0.059 A 
ATOM     73  C   UNL A   1      43.486  23.641  27.188  1.00  0.00     0.059 A 
ATOM     74  F   UNL A   1      42.530  24.126  29.272  1.00  0.00    -0.206 F 
ATOM     75  C   UNL A   1      44.146  24.081  26.042  1.00  0.00     0.060 A 
BRANCH  75  76
ATOM     76  S   UNL A   1      44.545  22.924  24.714  1.00  0.00     0.124 S 
ATOM     77  O   UNL A   1      45.487  23.707  23.920  1.00  0.00    -0.237 OA
ATOM     78  O   UNL A   1      45.116  21.798  25.446  1.00  0.00    -0.237 OA
ATOM     79  O   UNL A   1      43.254  22.671  24.084  1.00  0.00    -0.744 OA
ENDBRANCH  75  76
ENDBRANCH  54  68
BRANCH  55  80
ATOM     80  C   UNL A   1      41.180  32.123  35.553  1.00  0.00     0.058 A 
ATOM     81  C   UNL A   1      40.092  31.825  36.386  1.00  0.00     0.135 A 
ATOM     82  C   UNL A   1      41.898  33.301  35.814  1.00  0.00     0.135 A 
ATOM     83  F   UNL A   1      39.366  30.717  36.171  1.00  0.00    -0.206 F 
ATOM     84  C   UNL A   1      39.715  32.671  37.425  1.00  0.00     0.059 A 
ATOM     85  C   UNL A   1      41.558  34.148  36.865  1.00  0.00     0.059 A 
ATOM     86  F   UNL A   1      42.953  33.630  35.052  1.00  0.00    -0.206 F 
ATOM     87  C   UNL A   1      40.455  33.831  37.657  1.00  0.00     0.060 A 
BRANCH  87  88
ATOM     88  S   UNL A   1      39.975  34.901  39.030  1.00  0.00     0.124 S 
ATOM     89  O   UNL A   1      40.847  34.422  40.095  1.00  0.00    -0.237 OA
ATOM     90  O   UNL A   1      40.280  36.227  38.501  1.00  0.00    -0.237 OA
ATOM     91  O   UNL A   1      38.554  34.614  39.198  1.00  0.00    -0.744 OA
ENDBRANCH  87  88
ENDBRANCH  55  80
BRANCH  67  92
ATOM     92  C   UNL A   1      46.353  27.548  34.511  1.00  0.00     0.058 A 
ATOM     93  C   UNL A   1      47.567  28.250  34.492  1.00  0.00     0.135 A 
ATOM     94  C   UNL A   1      46.231  26.474  35.408  1.00  0.00     0.135 A 
ATOM     95  F   UNL A   1      47.741  29.279  33.648  1.00  0.00    -0.206 F 
ATOM     96  C   UNL A   1      48.625  27.894  35.324  1.00  0.00     0.059 A 
ATOM     97  C   UNL A   1      47.263  26.120  36.271  1.00  0.00     0.059 A 
ATOM     98  F   UNL A   1      45.086  25.776  35.474  1.00  0.00    -0.206 F 
ATOM     99  C   UNL A   1      48.459  26.832  36.217  1.00  0.00     0.060 A 
BRANCH  99 100
ATOM    100  S   UNL A   1      49.818  26.422  37.333  1.00  0.00     0.124 S 
ATOM    101  O   UNL A   1      49.934  24.981  37.136  1.00  0.00    -0.237 OA
ATOM    102  O   UNL A   1      50.913  27.225  36.799  1.00  0.00    -0.237 OA
ATOM    103  O   UNL A   1      49.323  26.838  38.641  1.00  0.00    -0.744 OA
ENDBRANCH  99 100
ENDBRANCH  67  92
ENDBRANCH  41  42
ENDBRANCH  34  36
ENDBRANCH  33  34
ENDBRANCH  32  33
ENDBRANCH  31  32
ENDBRANCH  30  31
ENDBRANCH  29  30
ENDBRANCH  28  29
ENDBRANCH   1  28
TORSDOF 27
ENDMDL
