MODEL 1
REMARK VINA RESULT:     -10.1      0.000      0.000
REMARK SMILES C[C@@H](C(=O)OCCOCCOCCOCCOC(=O)c1ccc(-c2c3nc(c(-c4c(F)cc(S(=O)(=O)[O-])cc4F)c4ccc([nH]4)c(-c4c(F)cc(S(=O)(=O)[O-])cc4F)c4nc(c(-c5c(F)cc(S(=O)(=O)[O-])cc5F)c5ccc2[nH]5)C=C4)C=C3)cc1)c1ccc(-c2ccccc2)cc1
REMARK SMILES IDX 12 1 11 2 10 3 9 4 8 5 7 6 6 7 5 8 3 9 4 10 2 11 1 12 86 13
REMARK SMILES IDX 87 14 97 15 88 16 96 17 89 18 90 19 91 20 95 21 92 22 94 23
REMARK SMILES IDX 93 24 13 25 14 26 15 27 16 28 17 29 18 30 19 31 20 32 21 33
REMARK SMILES IDX 85 34 22 35 84 36 23 37 24 38 25 39 78 40 26 41 83 42 77 43
REMARK SMILES IDX 79 44 27 45 82 46 76 47 75 48 28 50 62 51 41 52 61 53 42 54
REMARK SMILES IDX 45 55 60 56 80 57 43 58 44 59 59 61 81 62 46 63 29 64 30 65
REMARK SMILES IDX 39 66 31 67 32 68 38 69 40 70 33 71 34 72 35 73 36 74 37 75
REMARK SMILES IDX 63 76 64 77 73 78 65 79 66 80 72 81 74 82 67 83 68 84 69 85
REMARK SMILES IDX 70 86 71 87 47 88 48 89 57 90 49 91 50 92 56 93 58 94 51 95
REMARK SMILES IDX 52 96 53 97 54 98 55 99
REMARK H PARENT 79 49 45 60
REMARK Flexibility Score: inf
ROOT
ATOM      1  C   UNL A   1      39.693  21.841  26.523  1.00  0.00     0.188 C 
ENDROOT
BRANCH   1   2
ATOM      2  O   UNL A   1      38.349  21.649  26.114  1.00  0.00    -0.377 OA
BRANCH   2   3
ATOM      3  C   UNL A   1      37.895  22.441  25.036  1.00  0.00     0.188 C 
BRANCH   3   4
ATOM      4  C   UNL A   1      36.940  23.584  25.428  1.00  0.00     0.188 C 
BRANCH   4   5
ATOM      5  O   UNL A   1      35.776  23.315  26.195  1.00  0.00    -0.376 OA
BRANCH   5   6
ATOM      6  C   UNL A   1      34.532  23.901  25.837  1.00  0.00     0.202 C 
BRANCH   6   7
ATOM      7  C   UNL A   1      34.432  25.133  24.913  1.00  0.00     0.261 C 
BRANCH   7   8
ATOM      8  O   UNL A   1      33.142  25.419  24.342  1.00  0.00    -0.463 OA
BRANCH   8   9
ATOM      9  C   UNL A   1      32.868  24.858  23.140  1.00  0.00     0.313 C 
ATOM     10  O   UNL A   1      33.618  24.926  22.170  1.00  0.00    -0.252 OA
BRANCH   9  11
ATOM     11  C   UNL A   1      31.538  24.073  23.097  1.00  0.00     0.126 C 
ATOM     12  C   UNL A   1      30.290  24.717  23.721  1.00  0.00     0.025 C 
BRANCH  11  13
ATOM     13  C   UNL A   1      31.779  22.609  23.480  1.00  0.00    -0.034 A 
ATOM     14  C   UNL A   1      31.771  22.120  24.795  1.00  0.00     0.005 A 
ATOM     15  C   UNL A   1      32.148  21.721  22.460  1.00  0.00     0.005 A 
ATOM     16  C   UNL A   1      32.150  20.798  25.077  1.00  0.00     0.009 A 
ATOM     17  C   UNL A   1      32.509  20.402  22.741  1.00  0.00     0.009 A 
ATOM     18  C   UNL A   1      32.526  19.916  24.055  1.00  0.00    -0.018 A 
BRANCH  18  19
ATOM     19  C   UNL A   1      32.916  18.523  24.335  1.00  0.00    -0.018 A 
ATOM     20  C   UNL A   1      32.522  17.886  25.523  1.00  0.00     0.009 A 
ATOM     21  C   UNL A   1      33.660  17.776  23.405  1.00  0.00     0.009 A 
ATOM     22  C   UNL A   1      32.842  16.548  25.765  1.00  0.00     0.001 A 
ATOM     23  C   UNL A   1      33.980  16.437  23.644  1.00  0.00     0.001 A 
ATOM     24  C   UNL A   1      33.565  15.822  24.822  1.00  0.00     0.000 A 
ENDBRANCH  18  19
ENDBRANCH  11  13
ENDBRANCH   9  11
ENDBRANCH   8   9
ENDBRANCH   7   8
ENDBRANCH   6   7
ENDBRANCH   5   6
ENDBRANCH   4   5
ENDBRANCH   3   4
ENDBRANCH   2   3
ENDBRANCH   1   2
BRANCH   1  25
ATOM     25  C   UNL A   1      40.686  20.684  26.304  1.00  0.00     0.188 C 
BRANCH  25  26
ATOM     26  O   UNL A   1      41.916  21.078  25.704  1.00  0.00    -0.376 OA
BRANCH  26  27
ATOM     27  C   UNL A   1      42.748  21.997  26.397  1.00  0.00     0.202 C 
BRANCH  27  28
ATOM     28  C   UNL A   1      42.912  23.402  25.793  1.00  0.00     0.261 C 
BRANCH  28  29
ATOM     29  O   UNL A   1      41.960  24.394  26.208  1.00  0.00    -0.460 OA
BRANCH  29  30
ATOM     30  C   UNL A   1      42.200  25.678  25.870  1.00  0.00     0.338 C 
ATOM     31  O   UNL A   1      42.552  26.094  24.778  1.00  0.00    -0.246 OA
BRANCH  30  32
ATOM     32  C   UNL A   1      41.760  26.532  26.994  1.00  0.00     0.060 A 
ATOM     33  C   UNL A   1      42.324  27.807  27.134  1.00  0.00     0.016 A 
ATOM     34  C   UNL A   1      40.785  26.088  27.891  1.00  0.00     0.016 A 
ATOM     35  C   UNL A   1      41.942  28.628  28.196  1.00  0.00     0.010 A 
ATOM     36  C   UNL A   1      40.423  26.900  28.969  1.00  0.00     0.010 A 
ATOM     37  C   UNL A   1      41.026  28.159  29.146  1.00  0.00    -0.014 A 
BRANCH  37  38
ATOM     38  C   UNL A   1      40.866  28.885  30.430  1.00  0.00     0.031 A 
ATOM     39  C   UNL A   1      39.800  29.944  30.515  1.00  0.00     0.074 A 
ATOM     40  C   UNL A   1      41.627  28.600  31.502  1.00  0.00     0.049 A 
ATOM     41  N   UNL A   1      39.503  30.749  31.501  1.00  0.00    -0.248 NA
ATOM     42  C   UNL A   1      38.954  30.117  29.321  1.00  0.00     0.031 C 
ATOM     43  C   UNL A   1      42.658  27.566  31.557  1.00  0.00     0.029 A 
ATOM     44  N   UNL A   1      41.651  29.167  32.753  1.00  0.00    -0.354 N 
ATOM     45  C   UNL A   1      38.445  31.527  31.045  1.00  0.00     0.074 A 
ATOM     46  C   UNL A   1      38.174  31.123  29.684  1.00  0.00     0.031 C 
ATOM     47  C   UNL A   1      43.227  27.583  32.776  1.00  0.00     0.029 A 
ATOM     48  C   UNL A   1      42.626  28.652  33.574  1.00  0.00     0.049 A 
ATOM     49  H   UNL A   1      41.029  29.876  33.034  1.00  0.00     0.167 HD
ATOM     50  C   UNL A   1      37.754  32.486  31.707  1.00  0.00     0.037 A 
ATOM     51  C   UNL A   1      43.004  29.021  34.814  1.00  0.00     0.037 A 
ATOM     52  C   UNL A   1      38.035  32.888  33.060  1.00  0.00     0.049 A 
ATOM     53  C   UNL A   1      42.275  30.147  35.504  1.00  0.00     0.074 A 
ATOM     54  C   UNL A   1      37.391  33.845  33.824  1.00  0.00     0.029 A 
ATOM     55  N   UNL A   1      39.049  32.363  33.849  1.00  0.00    -0.354 N 
ATOM     56  N   UNL A   1      41.264  30.866  35.071  1.00  0.00    -0.248 NA
ATOM     57  C   UNL A   1      42.732  30.511  36.853  1.00  0.00     0.031 C 
ATOM     58  C   UNL A   1      38.052  33.940  35.052  1.00  0.00     0.029 A 
ATOM     59  C   UNL A   1      39.065  32.995  35.081  1.00  0.00     0.049 A 
ATOM     60  H   UNL A   1      39.666  31.647  33.573  1.00  0.00     0.167 HD
ATOM     61  C   UNL A   1      40.946  31.743  36.105  1.00  0.00     0.074 A 
ATOM     62  C   UNL A   1      41.864  31.457  37.188  1.00  0.00     0.031 C 
ATOM     63  C   UNL A   1      39.981  32.694  36.155  1.00  0.00     0.037 A 
BRANCH  50  64
ATOM     64  C   UNL A   1      36.651  33.188  30.963  1.00  0.00     0.058 A 
ATOM     65  C   UNL A   1      36.915  34.170  29.994  1.00  0.00     0.135 A 
ATOM     66  C   UNL A   1      35.307  32.853  31.204  1.00  0.00     0.135 A 
ATOM     67  F   UNL A   1      38.178  34.546  29.739  1.00  0.00    -0.206 F 
ATOM     68  C   UNL A   1      35.887  34.812  29.311  1.00  0.00     0.059 A 
ATOM     69  C   UNL A   1      34.266  33.460  30.510  1.00  0.00     0.059 A 
ATOM     70  F   UNL A   1      34.997  31.925  32.123  1.00  0.00    -0.206 F 
ATOM     71  C   UNL A   1      34.566  34.449  29.574  1.00  0.00     0.060 A 
BRANCH  71  72
ATOM     72  S   UNL A   1      33.246  35.287  28.673  1.00  0.00     0.124 S 
ATOM     73  O   UNL A   1      32.525  35.945  29.758  1.00  0.00    -0.237 OA
ATOM     74  O   UNL A   1      33.992  36.170  27.782  1.00  0.00    -0.237 OA
ATOM     75  O   UNL A   1      32.533  34.196  28.018  1.00  0.00    -0.744 OA
ENDBRANCH  71  72
ENDBRANCH  50  64
BRANCH  51  76
ATOM     76  C   UNL A   1      44.143  28.331  35.482  1.00  0.00     0.058 A 
ATOM     77  C   UNL A   1      45.458  28.808  35.359  1.00  0.00     0.135 A 
ATOM     78  C   UNL A   1      43.940  27.175  36.253  1.00  0.00     0.135 A 
ATOM     79  F   UNL A   1      45.708  29.900  34.621  1.00  0.00    -0.206 F 
ATOM     80  C   UNL A   1      46.529  28.159  35.965  1.00  0.00     0.059 A 
ATOM     81  C   UNL A   1      44.990  26.525  36.892  1.00  0.00     0.059 A 
ATOM     82  F   UNL A   1      42.702  26.680  36.407  1.00  0.00    -0.206 F 
ATOM     83  C   UNL A   1      46.284  27.020  36.735  1.00  0.00     0.060 A 
BRANCH  83  84
ATOM     84  S   UNL A   1      47.676  26.217  37.561  1.00  0.00     0.124 S 
ATOM     85  O   UNL A   1      47.929  25.084  36.678  1.00  0.00    -0.237 OA
ATOM     86  O   UNL A   1      48.684  27.273  37.551  1.00  0.00    -0.237 OA
ATOM     87  O   UNL A   1      47.139  25.886  38.877  1.00  0.00    -0.744 OA
ENDBRANCH  83  84
ENDBRANCH  51  76
BRANCH  63  88
ATOM     88  C   UNL A   1      39.829  33.472  37.436  1.00  0.00     0.058 A 
ATOM     89  C   UNL A   1      40.566  34.639  37.689  1.00  0.00     0.135 A 
ATOM     90  C   UNL A   1      38.885  33.074  38.398  1.00  0.00     0.135 A 
ATOM     91  F   UNL A   1      41.485  35.064  36.807  1.00  0.00    -0.206 F 
ATOM     92  C   UNL A   1      40.390  35.371  38.861  1.00  0.00     0.059 A 
ATOM     93  C   UNL A   1      38.669  33.808  39.561  1.00  0.00     0.059 A 
ATOM     94  F   UNL A   1      38.142  31.973  38.202  1.00  0.00    -0.206 F 
ATOM     95  C   UNL A   1      39.437  34.949  39.789  1.00  0.00     0.060 A 
BRANCH  95  96
ATOM     96  S   UNL A   1      39.196  35.927  41.287  1.00  0.00     0.124 S 
ATOM     97  O   UNL A   1      39.480  37.275  40.807  1.00  0.00    -0.237 OA
ATOM     98  O   UNL A   1      37.801  35.652  41.617  1.00  0.00    -0.237 OA
ATOM     99  O   UNL A   1      40.176  35.372  42.217  1.00  0.00    -0.744 OA
ENDBRANCH  95  96
ENDBRANCH  63  88
ENDBRANCH  37  38
ENDBRANCH  30  32
ENDBRANCH  29  30
ENDBRANCH  28  29
ENDBRANCH  27  28
ENDBRANCH  26  27
ENDBRANCH  25  26
ENDBRANCH   1  25
TORSDOF 25
ENDMDL
MODEL 2
REMARK VINA RESULT:     -10.1      1.514      8.915
REMARK SMILES C[C@@H](C(=O)OCCOCCOCCOCCOC(=O)c1ccc(-c2c3nc(c(-c4c(F)cc(S(=O)(=O)[O-])cc4F)c4ccc([nH]4)c(-c4c(F)cc(S(=O)(=O)[O-])cc4F)c4nc(c(-c5c(F)cc(S(=O)(=O)[O-])cc5F)c5ccc2[nH]5)C=C4)C=C3)cc1)c1ccc(-c2ccccc2)cc1
REMARK SMILES IDX 12 1 11 2 10 3 9 4 8 5 7 6 6 7 5 8 3 9 4 10 2 11 1 12 86 13
REMARK SMILES IDX 87 14 97 15 88 16 96 17 89 18 90 19 91 20 95 21 92 22 94 23
REMARK SMILES IDX 93 24 13 25 14 26 15 27 16 28 17 29 18 30 19 31 20 32 21 33
REMARK SMILES IDX 85 34 22 35 84 36 23 37 24 38 25 39 78 40 26 41 83 42 77 43
REMARK SMILES IDX 79 44 27 45 82 46 76 47 75 48 28 50 62 51 41 52 61 53 42 54
REMARK SMILES IDX 45 55 60 56 80 57 43 58 44 59 59 61 81 62 46 63 29 64 30 65
REMARK SMILES IDX 39 66 31 67 32 68 38 69 40 70 33 71 34 72 35 73 36 74 37 75
REMARK SMILES IDX 63 76 64 77 73 78 65 79 66 80 72 81 74 82 67 83 68 84 69 85
REMARK SMILES IDX 70 86 71 87 47 88 48 89 57 90 49 91 50 92 56 93 58 94 51 95
REMARK SMILES IDX 52 96 53 97 54 98 55 99
REMARK H PARENT 79 49 45 60
REMARK Flexibility Score: inf
ROOT
ATOM      1  C   UNL A   1      39.483  21.484  26.266  1.00  0.00     0.188 C 
ENDROOT
BRANCH   1   2
ATOM      2  O   UNL A   1      38.480  21.662  25.280  1.00  0.00    -0.377 OA
BRANCH   2   3
ATOM      3  C   UNL A   1      37.323  22.370  25.673  1.00  0.00     0.188 C 
BRANCH   3   4
ATOM      4  C   UNL A   1      36.103  21.488  26.002  1.00  0.00     0.188 C 
BRANCH   4   5
ATOM      5  O   UNL A   1      35.533  20.654  25.005  1.00  0.00    -0.376 OA
BRANCH   5   6
ATOM      6  C   UNL A   1      34.127  20.454  24.958  1.00  0.00     0.202 C 
BRANCH   6   7
ATOM      7  C   UNL A   1      33.141  21.298  25.793  1.00  0.00     0.261 C 
BRANCH   7   8
ATOM      8  O   UNL A   1      32.679  22.530  25.210  1.00  0.00    -0.463 OA
BRANCH   8   9
ATOM      9  C   UNL A   1      31.413  22.910  25.508  1.00  0.00     0.313 C 
ATOM     10  O   UNL A   1      30.746  22.407  26.408  1.00  0.00    -0.252 OA
BRANCH   9  11
ATOM     11  C   UNL A   1      30.882  24.075  24.644  1.00  0.00     0.126 C 
ATOM     12  C   UNL A   1      30.752  23.858  23.128  1.00  0.00     0.025 C 
BRANCH  11  13
ATOM     13  C   UNL A   1      31.554  25.387  25.062  1.00  0.00    -0.034 A 
ATOM     14  C   UNL A   1      32.735  25.891  24.496  1.00  0.00     0.005 A 
ATOM     15  C   UNL A   1      31.018  26.072  26.161  1.00  0.00     0.005 A 
ATOM     16  C   UNL A   1      33.370  27.021  25.035  1.00  0.00     0.009 A 
ATOM     17  C   UNL A   1      31.642  27.205  26.685  1.00  0.00     0.009 A 
ATOM     18  C   UNL A   1      32.835  27.698  26.139  1.00  0.00    -0.018 A 
BRANCH  18  19
ATOM     19  C   UNL A   1      33.485  28.891  26.709  1.00  0.00    -0.018 A 
ATOM     20  C   UNL A   1      32.740  30.039  27.026  1.00  0.00     0.009 A 
ATOM     21  C   UNL A   1      34.862  28.904  26.989  1.00  0.00     0.009 A 
ATOM     22  C   UNL A   1      33.344  31.150  27.620  1.00  0.00     0.001 A 
ATOM     23  C   UNL A   1      35.469  30.014  27.584  1.00  0.00     0.001 A 
ATOM     24  C   UNL A   1      34.707  31.134  27.904  1.00  0.00     0.000 A 
ENDBRANCH  18  19
ENDBRANCH  11  13
ENDBRANCH   9  11
ENDBRANCH   8   9
ENDBRANCH   7   8
ENDBRANCH   6   7
ENDBRANCH   5   6
ENDBRANCH   4   5
ENDBRANCH   3   4
ENDBRANCH   2   3
ENDBRANCH   1   2
BRANCH   1  25
ATOM     25  C   UNL A   1      40.387  20.240  26.160  1.00  0.00     0.188 C 
BRANCH  25  26
ATOM     26  O   UNL A   1      41.780  20.532  26.145  1.00  0.00    -0.376 OA
BRANCH  26  27
ATOM     27  C   UNL A   1      42.239  21.702  26.807  1.00  0.00     0.202 C 
BRANCH  27  28
ATOM     28  C   UNL A   1      42.673  22.890  25.931  1.00  0.00     0.261 C 
BRANCH  28  29
ATOM     29  O   UNL A   1      41.889  24.087  26.038  1.00  0.00    -0.460 OA
BRANCH  29  30
ATOM     30  C   UNL A   1      42.519  25.271  25.883  1.00  0.00     0.338 C 
ATOM     31  O   UNL A   1      43.266  25.587  24.972  1.00  0.00    -0.246 OA
BRANCH  30  32
ATOM     32  C   UNL A   1      41.987  26.204  26.899  1.00  0.00     0.060 A 
ATOM     33  C   UNL A   1      42.411  27.539  26.878  1.00  0.00     0.016 A 
ATOM     34  C   UNL A   1      41.061  25.771  27.852  1.00  0.00     0.016 A 
ATOM     35  C   UNL A   1      41.940  28.438  27.835  1.00  0.00     0.010 A 
ATOM     36  C   UNL A   1      40.610  26.667  28.827  1.00  0.00     0.010 A 
ATOM     37  C   UNL A   1      41.076  27.994  28.843  1.00  0.00    -0.014 A 
BRANCH  37  38
ATOM     38  C   UNL A   1      40.834  28.851  30.031  1.00  0.00     0.031 A 
ATOM     39  C   UNL A   1      41.694  28.633  31.247  1.00  0.00     0.074 A 
ATOM     40  C   UNL A   1      39.895  29.814  30.027  1.00  0.00     0.049 A 
ATOM     41  N   UNL A   1      41.642  29.210  32.418  1.00  0.00    -0.248 NA
ATOM     42  C   UNL A   1      42.759  27.621  31.121  1.00  0.00     0.031 C 
ATOM     43  C   UNL A   1      39.033  30.151  28.897  1.00  0.00     0.029 A 
ATOM     44  N   UNL A   1      39.506  30.681  31.019  1.00  0.00    -0.354 N 
ATOM     45  C   UNL A   1      42.657  28.629  33.169  1.00  0.00     0.074 A 
ATOM     46  C   UNL A   1      43.287  27.631  32.334  1.00  0.00     0.031 C 
ATOM     47  C   UNL A   1      38.202  31.144  29.264  1.00  0.00     0.029 A 
ATOM     48  C   UNL A   1      38.450  31.487  30.664  1.00  0.00     0.049 A 
ATOM     49  H   UNL A   1      39.942  30.721  31.900  1.00  0.00     0.167 HD
ATOM     50  C   UNL A   1      43.037  28.911  34.438  1.00  0.00     0.037 A 
ATOM     51  C   UNL A   1      37.750  32.377  31.396  1.00  0.00     0.037 A 
ATOM     52  C   UNL A   1      42.401  29.901  35.265  1.00  0.00     0.049 A 
ATOM     53  C   UNL A   1      38.137  32.618  32.834  1.00  0.00     0.074 A 
ATOM     54  C   UNL A   1      42.713  30.268  36.562  1.00  0.00     0.029 A 
ATOM     55  N   UNL A   1      41.316  30.677  34.881  1.00  0.00    -0.354 N 
ATOM     56  N   UNL A   1      39.110  32.075  33.530  1.00  0.00    -0.248 NA
ATOM     57  C   UNL A   1      37.337  33.594  33.587  1.00  0.00     0.031 C 
ATOM     58  C   UNL A   1      41.781  31.222  36.982  1.00  0.00     0.029 A 
ATOM     59  C   UNL A   1      40.930  31.501  35.925  1.00  0.00     0.049 A 
ATOM     60  H   UNL A   1      40.885  30.646  33.996  1.00  0.00     0.167 HD
ATOM     61  C   UNL A   1      39.057  32.668  34.790  1.00  0.00     0.074 A 
ATOM     62  C   UNL A   1      37.964  33.617  34.755  1.00  0.00     0.031 C 
ATOM     63  C   UNL A   1      39.843  32.449  35.873  1.00  0.00     0.037 A 
BRANCH  50  64
ATOM     64  C   UNL A   1      44.174  28.113  35.018  1.00  0.00     0.058 A 
ATOM     65  C   UNL A   1      45.500  28.574  34.979  1.00  0.00     0.135 A 
ATOM     66  C   UNL A   1      43.929  26.880  35.645  1.00  0.00     0.135 A 
ATOM     67  F   UNL A   1      45.797  29.734  34.372  1.00  0.00    -0.206 F 
ATOM     68  C   UNL A   1      46.544  27.829  35.518  1.00  0.00     0.059 A 
ATOM     69  C   UNL A   1      44.954  26.135  36.219  1.00  0.00     0.059 A 
ATOM     70  F   UNL A   1      42.681  26.389  35.706  1.00  0.00    -0.206 F 
ATOM     71  C   UNL A   1      46.260  26.612  36.138  1.00  0.00     0.060 A 
BRANCH  71  72
ATOM     72  S   UNL A   1      47.627  25.663  36.839  1.00  0.00     0.124 S 
ATOM     73  O   UNL A   1      47.119  24.299  36.732  1.00  0.00    -0.237 OA
ATOM     74  O   UNL A   1      48.729  26.000  35.944  1.00  0.00    -0.237 OA
ATOM     75  O   UNL A   1      47.743  26.184  38.198  1.00  0.00    -0.744 OA
ENDBRANCH  71  72
ENDBRANCH  50  64
BRANCH  51  76
ATOM     76  C   UNL A   1      36.595  33.096  30.790  1.00  0.00     0.058 A 
ATOM     77  C   UNL A   1      35.279  32.850  31.210  1.00  0.00     0.135 A 
ATOM     78  C   UNL A   1      36.786  34.042  29.769  1.00  0.00     0.135 A 
ATOM     79  F   UNL A   1      35.041  31.944  32.171  1.00  0.00    -0.206 F 
ATOM     80  C   UNL A   1      34.194  33.505  30.636  1.00  0.00     0.059 A 
ATOM     81  C   UNL A   1      35.720  34.731  29.200  1.00  0.00     0.059 A 
ATOM     82  F   UNL A   1      38.024  34.320  29.333  1.00  0.00    -0.206 F 
ATOM     83  C   UNL A   1      34.425  34.449  29.634  1.00  0.00     0.060 A 
BRANCH  83  84
ATOM     84  S   UNL A   1      33.014  35.332  28.932  1.00  0.00     0.124 S 
ATOM     85  O   UNL A   1      33.656  36.511  28.364  1.00  0.00    -0.237 OA
ATOM     86  O   UNL A   1      32.496  34.360  27.973  1.00  0.00    -0.237 OA
ATOM     87  O   UNL A   1      32.159  35.573  30.091  1.00  0.00    -0.744 OA
ENDBRANCH  83  84
ENDBRANCH  51  76
BRANCH  63  88
ATOM     88  C   UNL A   1      39.587  33.280  37.104  1.00  0.00     0.058 A 
ATOM     89  C   UNL A   1      38.609  32.929  38.047  1.00  0.00     0.135 A 
ATOM     90  C   UNL A   1      40.378  34.410  37.371  1.00  0.00     0.135 A 
ATOM     91  F   UNL A   1      37.823  31.861  37.841  1.00  0.00    -0.206 F 
ATOM     92  C   UNL A   1      38.407  33.684  39.200  1.00  0.00     0.059 A 
ATOM     93  C   UNL A   1      40.215  35.160  38.533  1.00  0.00     0.059 A 
ATOM     94  F   UNL A   1      41.337  34.785  36.511  1.00  0.00    -0.206 F 
ATOM     95  C   UNL A   1      39.217  34.795  39.435  1.00  0.00     0.060 A 
BRANCH  95  96
ATOM     96  S   UNL A   1      38.966  35.744  40.951  1.00  0.00     0.124 S 
ATOM     97  O   UNL A   1      37.946  34.950  41.629  1.00  0.00    -0.237 OA
ATOM     98  O   UNL A   1      40.294  35.721  41.556  1.00  0.00    -0.237 OA
ATOM     99  O   UNL A   1      38.525  37.050  40.467  1.00  0.00    -0.744 OA
ENDBRANCH  95  96
ENDBRANCH  63  88
ENDBRANCH  37  38
ENDBRANCH  30  32
ENDBRANCH  29  30
ENDBRANCH  28  29
ENDBRANCH  27  28
ENDBRANCH  26  27
ENDBRANCH  25  26
ENDBRANCH   1  25
TORSDOF 25
ENDMDL
MODEL 3
REMARK VINA RESULT:      -9.9      2.184      9.064
REMARK SMILES C[C@@H](C(=O)OCCOCCOCCOCCOC(=O)c1ccc(-c2c3nc(c(-c4c(F)cc(S(=O)(=O)[O-])cc4F)c4ccc([nH]4)c(-c4c(F)cc(S(=O)(=O)[O-])cc4F)c4nc(c(-c5c(F)cc(S(=O)(=O)[O-])cc5F)c5ccc2[nH]5)C=C4)C=C3)cc1)c1ccc(-c2ccccc2)cc1
REMARK SMILES IDX 12 1 11 2 10 3 9 4 8 5 7 6 6 7 5 8 3 9 4 10 2 11 1 12 86 13
REMARK SMILES IDX 87 14 97 15 88 16 96 17 89 18 90 19 91 20 95 21 92 22 94 23
REMARK SMILES IDX 93 24 13 25 14 26 15 27 16 28 17 29 18 30 19 31 20 32 21 33
REMARK SMILES IDX 85 34 22 35 84 36 23 37 24 38 25 39 78 40 26 41 83 42 77 43
REMARK SMILES IDX 79 44 27 45 82 46 76 47 75 48 28 50 62 51 41 52 61 53 42 54
REMARK SMILES IDX 45 55 60 56 80 57 43 58 44 59 59 61 81 62 46 63 29 64 30 65
REMARK SMILES IDX 39 66 31 67 32 68 38 69 40 70 33 71 34 72 35 73 36 74 37 75
REMARK SMILES IDX 63 76 64 77 73 78 65 79 66 80 72 81 74 82 67 83 68 84 69 85
REMARK SMILES IDX 70 86 71 87 47 88 48 89 57 90 49 91 50 92 56 93 58 94 51 95
REMARK SMILES IDX 52 96 53 97 54 98 55 99
REMARK H PARENT 79 49 45 60
REMARK Flexibility Score: inf
ROOT
ATOM      1  C   UNL A   1      39.604  21.242  26.118  1.00  0.00     0.188 C 
ENDROOT
BRANCH   1   2
ATOM      2  O   UNL A   1      38.354  21.148  25.455  1.00  0.00    -0.377 OA
BRANCH   2   3
ATOM      3  C   UNL A   1      37.625  22.347  25.305  1.00  0.00     0.188 C 
BRANCH   3   4
ATOM      4  C   UNL A   1      36.123  22.238  25.629  1.00  0.00     0.188 C 
BRANCH   4   5
ATOM      5  O   UNL A   1      35.238  21.600  24.721  1.00  0.00    -0.376 OA
BRANCH   5   6
ATOM      6  C   UNL A   1      34.449  22.374  23.827  1.00  0.00     0.202 C 
BRANCH   6   7
ATOM      7  C   UNL A   1      33.113  23.021  24.250  1.00  0.00     0.261 C 
BRANCH   7   8
ATOM      8  O   UNL A   1      33.035  24.457  24.193  1.00  0.00    -0.463 OA
BRANCH   8   9
ATOM      9  C   UNL A   1      33.014  25.115  25.377  1.00  0.00     0.313 C 
ATOM     10  O   UNL A   1      34.023  25.390  26.021  1.00  0.00    -0.252 OA
BRANCH   9  11
ATOM     11  C   UNL A   1      31.603  25.540  25.839  1.00  0.00     0.126 C 
ATOM     12  C   UNL A   1      30.546  24.445  26.053  1.00  0.00     0.025 C 
BRANCH  11  13
ATOM     13  C   UNL A   1      31.131  26.757  25.036  1.00  0.00    -0.034 A 
ATOM     14  C   UNL A   1      31.750  28.015  25.064  1.00  0.00     0.005 A 
ATOM     15  C   UNL A   1      29.933  26.639  24.318  1.00  0.00     0.005 A 
ATOM     16  C   UNL A   1      31.171  29.120  24.420  1.00  0.00     0.009 A 
ATOM     17  C   UNL A   1      29.367  27.736  23.665  1.00  0.00     0.009 A 
ATOM     18  C   UNL A   1      29.969  29.000  23.710  1.00  0.00    -0.018 A 
BRANCH  18  19
ATOM     19  C   UNL A   1      29.354  30.149  23.021  1.00  0.00    -0.018 A 
ATOM     20  C   UNL A   1      29.256  30.184  21.621  1.00  0.00     0.009 A 
ATOM     21  C   UNL A   1      28.813  31.225  23.746  1.00  0.00     0.009 A 
ATOM     22  C   UNL A   1      28.622  31.245  20.969  1.00  0.00     0.001 A 
ATOM     23  C   UNL A   1      28.178  32.287  23.096  1.00  0.00     0.001 A 
ATOM     24  C   UNL A   1      28.077  32.293  21.707  1.00  0.00     0.000 A 
ENDBRANCH  18  19
ENDBRANCH  11  13
ENDBRANCH   9  11
ENDBRANCH   8   9
ENDBRANCH   7   8
ENDBRANCH   6   7
ENDBRANCH   5   6
ENDBRANCH   4   5
ENDBRANCH   3   4
ENDBRANCH   2   3
ENDBRANCH   1   2
BRANCH   1  25
ATOM     25  C   UNL A   1      40.546  20.024  26.058  1.00  0.00     0.188 C 
BRANCH  25  26
ATOM     26  O   UNL A   1      41.905  20.351  25.789  1.00  0.00    -0.376 OA
BRANCH  26  27
ATOM     27  C   UNL A   1      42.436  21.554  26.328  1.00  0.00     0.202 C 
BRANCH  27  28
ATOM     28  C   UNL A   1      42.793  22.678  25.340  1.00  0.00     0.261 C 
BRANCH  28  29
ATOM     29  O   UNL A   1      42.287  23.986  25.646  1.00  0.00    -0.460 OA
BRANCH  29  30
ATOM     30  C   UNL A   1      43.180  24.984  25.817  1.00  0.00     0.338 C 
ATOM     31  O   UNL A   1      44.184  25.188  25.154  1.00  0.00    -0.246 OA
BRANCH  30  32
ATOM     32  C   UNL A   1      42.627  25.920  26.819  1.00  0.00     0.060 A 
ATOM     33  C   UNL A   1      43.023  27.264  26.777  1.00  0.00     0.016 A 
ATOM     34  C   UNL A   1      41.710  25.482  27.777  1.00  0.00     0.016 A 
ATOM     35  C   UNL A   1      42.531  28.166  27.721  1.00  0.00     0.010 A 
ATOM     36  C   UNL A   1      41.239  26.382  28.738  1.00  0.00     0.010 A 
ATOM     37  C   UNL A   1      41.675  27.719  28.735  1.00  0.00    -0.014 A 
BRANCH  37  38
ATOM     38  C   UNL A   1      41.414  28.588  29.910  1.00  0.00     0.031 A 
ATOM     39  C   UNL A   1      42.296  28.426  31.119  1.00  0.00     0.074 A 
ATOM     40  C   UNL A   1      40.438  29.514  29.900  1.00  0.00     0.049 A 
ATOM     41  N   UNL A   1      42.234  29.022  32.280  1.00  0.00    -0.248 NA
ATOM     42  C   UNL A   1      43.397  27.454  30.999  1.00  0.00     0.031 C 
ATOM     43  C   UNL A   1      39.551  29.797  28.774  1.00  0.00     0.029 A 
ATOM     44  N   UNL A   1      40.027  30.384  30.880  1.00  0.00    -0.354 N 
ATOM     45  C   UNL A   1      43.280  28.495  33.029  1.00  0.00     0.074 A 
ATOM     46  C   UNL A   1      43.938  27.507  32.206  1.00  0.00     0.031 C 
ATOM     47  C   UNL A   1      38.687  30.763  29.132  1.00  0.00     0.029 A 
ATOM     48  C   UNL A   1      38.937  31.141  30.523  1.00  0.00     0.049 A 
ATOM     49  H   UNL A   1      40.471  30.457  31.755  1.00  0.00     0.167 HD
ATOM     50  C   UNL A   1      43.662  28.815  34.288  1.00  0.00     0.037 A 
ATOM     51  C   UNL A   1      38.211  32.017  31.247  1.00  0.00     0.037 A 
ATOM     52  C   UNL A   1      42.997  29.796  35.104  1.00  0.00     0.049 A 
ATOM     53  C   UNL A   1      38.605  32.300  32.675  1.00  0.00     0.074 A 
ATOM     54  C   UNL A   1      43.309  30.199  36.391  1.00  0.00     0.029 A 
ATOM     55  N   UNL A   1      41.879  30.522  34.719  1.00  0.00    -0.354 N 
ATOM     56  N   UNL A   1      39.606  31.809  33.370  1.00  0.00    -0.248 NA
ATOM     57  C   UNL A   1      37.776  33.259  33.420  1.00  0.00     0.031 C 
ATOM     58  C   UNL A   1      42.346  31.123  36.804  1.00  0.00     0.029 A 
ATOM     59  C   UNL A   1      41.473  31.350  35.752  1.00  0.00     0.049 A 
ATOM     60  H   UNL A   1      41.439  30.458  33.840  1.00  0.00     0.167 HD
ATOM     61  C   UNL A   1      39.544  32.422  34.619  1.00  0.00     0.074 A 
ATOM     62  C   UNL A   1      38.415  33.328  34.580  1.00  0.00     0.031 C 
ATOM     63  C   UNL A   1      40.350  32.254  35.697  1.00  0.00     0.037 A 
BRANCH  50  64
ATOM     64  C   UNL A   1      44.835  28.073  34.869  1.00  0.00     0.058 A 
ATOM     65  C   UNL A   1      46.147  28.567  34.776  1.00  0.00     0.135 A 
ATOM     66  C   UNL A   1      44.641  26.861  35.552  1.00  0.00     0.135 A 
ATOM     67  F   UNL A   1      46.395  29.709  34.114  1.00  0.00    -0.206 F 
ATOM     68  C   UNL A   1      47.225  27.873  35.317  1.00  0.00     0.059 A 
ATOM     69  C   UNL A   1      45.701  26.167  36.128  1.00  0.00     0.059 A 
ATOM     70  F   UNL A   1      43.410  26.339  35.667  1.00  0.00    -0.206 F 
ATOM     71  C   UNL A   1      46.992  26.676  35.993  1.00  0.00     0.060 A 
BRANCH  71  72
ATOM     72  S   UNL A   1      48.401  25.794  36.694  1.00  0.00     0.124 S 
ATOM     73  O   UNL A   1      48.206  26.020  38.122  1.00  0.00    -0.237 OA
ATOM     74  O   UNL A   1      48.174  24.428  36.232  1.00  0.00    -0.237 OA
ATOM     75  O   UNL A   1      49.554  26.468  36.105  1.00  0.00    -0.744 OA
ENDBRANCH  71  72
ENDBRANCH  50  64
BRANCH  51  76
ATOM     76  C   UNL A   1      37.022  32.680  30.641  1.00  0.00     0.058 A 
ATOM     77  C   UNL A   1      37.161  33.771  29.769  1.00  0.00     0.135 A 
ATOM     78  C   UNL A   1      35.720  32.238  30.927  1.00  0.00     0.135 A 
ATOM     79  F   UNL A   1      38.382  34.242  29.475  1.00  0.00    -0.206 F 
ATOM     80  C   UNL A   1      36.055  34.407  29.213  1.00  0.00     0.059 A 
ATOM     81  C   UNL A   1      34.601  32.838  30.361  1.00  0.00     0.059 A 
ATOM     82  F   UNL A   1      35.531  31.195  31.751  1.00  0.00    -0.206 F 
ATOM     83  C   UNL A   1      34.778  33.929  29.511  1.00  0.00     0.060 A 
BRANCH  83  84
ATOM     84  S   UNL A   1      33.352  34.728  28.741  1.00  0.00     0.124 S 
ATOM     85  O   UNL A   1      32.444  34.866  29.874  1.00  0.00    -0.237 OA
ATOM     86  O   UNL A   1      33.937  35.967  28.235  1.00  0.00    -0.237 OA
ATOM     87  O   UNL A   1      32.945  33.772  27.716  1.00  0.00    -0.744 OA
ENDBRANCH  83  84
ENDBRANCH  51  76
BRANCH  63  88
ATOM     88  C   UNL A   1      40.076  33.097  36.915  1.00  0.00     0.058 A 
ATOM     89  C   UNL A   1      40.784  34.281  37.174  1.00  0.00     0.135 A 
ATOM     90  C   UNL A   1      39.045  32.744  37.803  1.00  0.00     0.135 A 
ATOM     91  F   UNL A   1      41.780  34.665  36.361  1.00  0.00    -0.206 F 
ATOM     92  C   UNL A   1      40.496  35.072  38.283  1.00  0.00     0.059 A 
ATOM     93  C   UNL A   1      38.719  33.537  38.899  1.00  0.00     0.059 A 
ATOM     94  F   UNL A   1      38.327  31.629  37.597  1.00  0.00    -0.206 F 
ATOM     95  C   UNL A   1      39.460  34.693  39.138  1.00  0.00     0.060 A 
BRANCH  95  96
ATOM     96  S   UNL A   1      39.076  35.747  40.553  1.00  0.00     0.124 S 
ATOM     97  O   UNL A   1      37.989  35.005  41.185  1.00  0.00    -0.237 OA
ATOM     98  O   UNL A   1      40.340  35.763  41.280  1.00  0.00    -0.237 OA
ATOM     99  O   UNL A   1      38.695  37.016  39.939  1.00  0.00    -0.744 OA
ENDBRANCH  95  96
ENDBRANCH  63  88
ENDBRANCH  37  38
ENDBRANCH  30  32
ENDBRANCH  29  30
ENDBRANCH  28  29
ENDBRANCH  27  28
ENDBRANCH  26  27
ENDBRANCH  25  26
ENDBRANCH   1  25
TORSDOF 25
ENDMDL
