MODEL 1
REMARK VINA RESULT:      -9.9      0.000      0.000
REMARK SMILES COc1cc(NS(=O)(=O)c2cc(C)c(C(=O)OCCOCCOCCOCCOC(=O)c3ccc(-c4c5nc(c(-c6c(F)cc(S(=O)(=O)[O-])cc6F)c6ccc([nH]6)c(-c6c(F)cc(S(=O)(=O)[O-])cc6F)c6nc(c(-c7c(F)cc(S(=O)(=O)[O-])cc7F)c7ccc4[nH]7)C=C6)C=C5)cc3)s2)cc(OC)c1
REMARK SMILES IDX 22 1 21 2 20 3 19 4 18 5 17 6 15 7 16 8 14 9 10 10 11 11
REMARK SMILES IDX 98 12 12 13 13 14 7 15 8 16 9 17 6 18 5 20 3 21 4 22 103 23
REMARK SMILES IDX 100 24 99 25 2 26 1 27 101 28 102 29 23 30 24 31 25 32 26 33
REMARK SMILES IDX 27 34 28 35 29 36 30 37 31 38 32 39 33 40 97 41 34 42 96 43
REMARK SMILES IDX 35 44 36 45 37 46 90 47 38 48 95 49 89 50 91 51 39 52 94 53
REMARK SMILES IDX 88 54 87 55 40 57 74 58 53 59 73 60 54 61 57 62 72 63 92 64
REMARK SMILES IDX 55 65 56 66 71 68 93 69 58 70 41 71 42 72 51 73 43 74 44 75
REMARK SMILES IDX 50 76 52 77 45 78 46 79 47 80 48 81 49 82 75 83 76 84 85 85
REMARK SMILES IDX 77 86 78 87 84 88 86 89 79 90 80 91 81 92 82 93 83 94 59 95
REMARK SMILES IDX 60 96 69 97 61 98 62 99 68 100 70 101 63 102 64 103 65 104
REMARK SMILES IDX 66 105 67 106
REMARK H PARENT 6 19 91 56 57 67
REMARK Flexibility Score: inf
ROOT
ATOM      1  C   UNL A   1      32.789  30.270  27.126  1.00  0.00     0.188 C 
ENDROOT
BRANCH   1   2
ATOM      2  C   UNL A   1      32.173  29.972  25.749  1.00  0.00     0.188 C 
BRANCH   2   3
ATOM      3  O   UNL A   1      33.152  29.588  24.785  1.00  0.00    -0.376 OA
BRANCH   3   4
ATOM      4  C   UNL A   1      32.690  28.940  23.607  1.00  0.00     0.202 C 
BRANCH   4   5
ATOM      5  C   UNL A   1      31.172  28.846  23.369  1.00  0.00     0.261 C 
BRANCH   5   6
ATOM      6  O   UNL A   1      30.753  27.975  22.314  1.00  0.00    -0.459 OA
BRANCH   6   7
ATOM      7  C   UNL A   1      31.096  26.670  22.384  1.00  0.00     0.348 C 
ATOM      8  O   UNL A   1      31.774  26.098  21.533  1.00  0.00    -0.245 OA
BRANCH   7   9
ATOM      9  C   UNL A   1      30.653  26.115  23.655  1.00  0.00     0.116 A 
ATOM     10  C   UNL A   1      30.605  24.641  25.628  1.00  0.00     0.141 A 
ATOM     11  C   UNL A   1      29.473  25.428  25.554  1.00  0.00     0.038 A 
ATOM     12  S   UNL A   1      31.797  25.181  24.536  1.00  0.00    -0.115 S 
ATOM     13  C   UNL A   1      29.443  26.216  24.347  1.00  0.00    -0.024 A 
ATOM     14  C   UNL A   1      28.199  26.914  23.882  1.00  0.00     0.046 C 
BRANCH  10  15
ATOM     15  S   UNL A   1      30.932  23.113  26.476  1.00  0.00     0.271 S 
ATOM     16  O   UNL A   1      30.993  22.109  25.435  1.00  0.00    -0.200 OA
ATOM     17  O   UNL A   1      29.981  22.992  27.560  1.00  0.00    -0.200 OA
BRANCH  15  18
ATOM     18  N   UNL A   1      32.501  23.189  27.171  1.00  0.00    -0.279 N 
ATOM     19  H   UNL A   1      32.673  23.735  27.973  1.00  0.00     0.180 HD
BRANCH  18  20
ATOM     20  C   UNL A   1      33.560  22.435  26.551  1.00  0.00     0.056 A 
ATOM     21  C   UNL A   1      34.259  20.474  25.282  1.00  0.00     0.124 A 
ATOM     22  C   UNL A   1      33.301  21.175  26.015  1.00  0.00     0.073 A 
ATOM     23  C   UNL A   1      35.561  20.951  25.258  1.00  0.00     0.093 A 
ATOM     24  C   UNL A   1      35.879  22.132  25.942  1.00  0.00     0.124 A 
ATOM     25  C   UNL A   1      34.868  22.904  26.535  1.00  0.00     0.073 A 
BRANCH  21  26
ATOM     26  O   UNL A   1      33.780  19.359  24.657  1.00  0.00    -0.497 OA
ATOM     27  C   UNL A   1      32.476  19.404  24.090  1.00  0.00     0.278 C 
ENDBRANCH  21  26
BRANCH  24  28
ATOM     28  O   UNL A   1      37.153  22.619  26.088  1.00  0.00    -0.497 OA
ATOM     29  C   UNL A   1      37.434  23.814  25.358  1.00  0.00     0.278 C 
ENDBRANCH  24  28
ENDBRANCH  18  20
ENDBRANCH  15  18
ENDBRANCH  10  15
ENDBRANCH   7   9
ENDBRANCH   6   7
ENDBRANCH   5   6
ENDBRANCH   4   5
ENDBRANCH   3   4
ENDBRANCH   2   3
ENDBRANCH   1   2
BRANCH   1  30
ATOM     30  O   UNL A   1      33.893  31.156  27.052  1.00  0.00    -0.377 OA
BRANCH  30  31
ATOM     31  C   UNL A   1      34.175  31.961  28.195  1.00  0.00     0.188 C 
BRANCH  31  32
ATOM     32  C   UNL A   1      35.338  32.981  28.203  1.00  0.00     0.188 C 
BRANCH  32  33
ATOM     33  O   UNL A   1      35.830  33.320  29.499  1.00  0.00    -0.376 OA
BRANCH  33  34
ATOM     34  C   UNL A   1      35.069  32.871  30.614  1.00  0.00     0.202 C 
BRANCH  34  35
ATOM     35  C   UNL A   1      35.727  31.742  31.419  1.00  0.00     0.261 C 
BRANCH  35  36
ATOM     36  O   UNL A   1      36.343  30.713  30.632  1.00  0.00    -0.460 OA
BRANCH  36  37
ATOM     37  C   UNL A   1      37.080  29.791  31.289  1.00  0.00     0.338 C 
ATOM     38  O   UNL A   1      36.682  28.950  32.073  1.00  0.00    -0.246 OA
BRANCH  37  39
ATOM     39  C   UNL A   1      38.451  29.845  30.749  1.00  0.00     0.060 A 
ATOM     40  C   UNL A   1      38.630  30.126  29.388  1.00  0.00     0.016 A 
ATOM     41  C   UNL A   1      39.549  29.611  31.580  1.00  0.00     0.016 A 
ATOM     42  C   UNL A   1      39.913  30.125  28.843  1.00  0.00     0.010 A 
ATOM     43  C   UNL A   1      40.831  29.592  31.030  1.00  0.00     0.010 A 
ATOM     44  C   UNL A   1      41.012  29.811  29.653  1.00  0.00    -0.014 A 
BRANCH  44  45
ATOM     45  C   UNL A   1      42.319  29.495  29.035  1.00  0.00     0.031 A 
ATOM     46  C   UNL A   1      42.550  28.089  28.556  1.00  0.00     0.074 A 
ATOM     47  C   UNL A   1      43.278  30.428  28.910  1.00  0.00     0.049 A 
ATOM     48  N   UNL A   1      43.626  27.554  28.044  1.00  0.00    -0.248 NA
ATOM     49  C   UNL A   1      41.413  27.160  28.678  1.00  0.00     0.031 C 
ATOM     50  C   UNL A   1      43.156  31.829  29.311  1.00  0.00     0.029 A 
ATOM     51  N   UNL A   1      44.556  30.326  28.421  1.00  0.00    -0.354 N 
ATOM     52  C   UNL A   1      43.298  26.228  27.784  1.00  0.00     0.074 A 
ATOM     53  C   UNL A   1      41.932  26.032  28.220  1.00  0.00     0.031 C 
ATOM     54  C   UNL A   1      44.322  32.454  29.068  1.00  0.00     0.029 A 
ATOM     55  C   UNL A   1      45.278  31.491  28.521  1.00  0.00     0.049 A 
ATOM     56  H   UNL A   1      44.921  29.498  28.035  1.00  0.00     0.167 HD
ATOM     57  C   UNL A   1      44.064  25.262  27.228  1.00  0.00     0.037 A 
ATOM     58  C   UNL A   1      46.570  31.740  28.225  1.00  0.00     0.037 A 
ATOM     59  C   UNL A   1      45.425  25.458  26.808  1.00  0.00     0.049 A 
ATOM     60  C   UNL A   1      47.426  30.631  27.668  1.00  0.00     0.074 A 
ATOM     61  C   UNL A   1      46.286  24.547  26.222  1.00  0.00     0.029 A 
ATOM     62  N   UNL A   1      46.127  26.647  26.939  1.00  0.00    -0.354 N 
ATOM     63  N   UNL A   1      47.096  29.389  27.400  1.00  0.00    -0.248 NA
ATOM     64  C   UNL A   1      48.829  30.955  27.372  1.00  0.00     0.031 C 
ATOM     65  C   UNL A   1      47.522  25.174  26.038  1.00  0.00     0.029 A 
ATOM     66  C   UNL A   1      47.418  26.489  26.467  1.00  0.00     0.049 A 
ATOM     67  H   UNL A   1      45.762  27.480  27.314  1.00  0.00     0.167 HD
ATOM     68  C   UNL A   1      48.241  28.793  26.881  1.00  0.00     0.074 A 
ATOM     69  C   UNL A   1      49.271  29.811  26.866  1.00  0.00     0.031 C 
ATOM     70  C   UNL A   1      48.425  27.519  26.451  1.00  0.00     0.037 A 
BRANCH  57  71
ATOM     71  C   UNL A   1      43.449  23.902  27.066  1.00  0.00     0.058 A 
ATOM     72  C   UNL A   1      43.357  23.004  28.140  1.00  0.00     0.135 A 
ATOM     73  C   UNL A   1      42.935  23.496  25.824  1.00  0.00     0.135 A 
ATOM     74  F   UNL A   1      43.856  23.334  29.343  1.00  0.00    -0.206 F 
ATOM     75  C   UNL A   1      42.799  21.739  27.984  1.00  0.00     0.059 A 
ATOM     76  C   UNL A   1      42.351  22.246  25.651  1.00  0.00     0.059 A 
ATOM     77  F   UNL A   1      43.006  24.315  24.763  1.00  0.00    -0.206 F 
ATOM     78  C   UNL A   1      42.301  21.369  26.734  1.00  0.00     0.060 A 
BRANCH  78  79
ATOM     79  S   UNL A   1      41.580  19.724  26.545  1.00  0.00     0.124 S 
ATOM     80  O   UNL A   1      42.076  19.051  27.741  1.00  0.00    -0.237 OA
ATOM     81  O   UNL A   1      40.150  20.010  26.525  1.00  0.00    -0.237 OA
ATOM     82  O   UNL A   1      42.139  19.252  25.282  1.00  0.00    -0.744 OA
ENDBRANCH  78  79
ENDBRANCH  57  71
BRANCH  58  83
ATOM     83  C   UNL A   1      47.139  33.092  28.461  1.00  0.00     0.058 A 
ATOM     84  C   UNL A   1      47.690  33.440  29.703  1.00  0.00     0.135 A 
ATOM     85  C   UNL A   1      47.142  34.065  27.449  1.00  0.00     0.135 A 
ATOM     86  F   UNL A   1      47.698  32.548  30.705  1.00  0.00    -0.206 F 
ATOM     87  C   UNL A   1      48.215  34.707  29.938  1.00  0.00     0.059 A 
ATOM     88  C   UNL A   1      47.682  35.331  27.653  1.00  0.00     0.059 A 
ATOM     89  F   UNL A   1      46.634  33.780  26.240  1.00  0.00    -0.206 F 
ATOM     90  C   UNL A   1      48.210  35.645  28.904  1.00  0.00     0.060 A 
BRANCH  90  91
ATOM     91  S   UNL A   1      48.946  37.268  29.200  1.00  0.00     0.124 S 
ATOM     92  O   UNL A   1      50.354  37.009  28.922  1.00  0.00    -0.237 OA
ATOM     93  O   UNL A   1      48.246  38.104  28.229  1.00  0.00    -0.237 OA
ATOM     94  O   UNL A   1      48.616  37.536  30.597  1.00  0.00    -0.744 OA
ENDBRANCH  90  91
ENDBRANCH  58  83
BRANCH  70  95
ATOM     95  C   UNL A   1      49.774  27.158  25.897  1.00  0.00     0.058 A 
ATOM     96  C   UNL A   1      50.060  27.258  24.527  1.00  0.00     0.135 A 
ATOM     97  C   UNL A   1      50.816  26.778  26.760  1.00  0.00     0.135 A 
ATOM     98  F   UNL A   1      49.097  27.614  23.661  1.00  0.00    -0.206 F 
ATOM     99  C   UNL A   1      51.328  26.981  24.028  1.00  0.00     0.059 A 
ATOM    100  C   UNL A   1      52.097  26.519  26.286  1.00  0.00     0.059 A 
ATOM    101  F   UNL A   1      50.598  26.678  28.081  1.00  0.00    -0.206 F 
ATOM    102  C   UNL A   1      52.342  26.614  24.917  1.00  0.00     0.060 A 
BRANCH 102 103
ATOM    103  S   UNL A   1      53.996  26.302  24.263  1.00  0.00     0.124 S 
ATOM    104  O   UNL A   1      53.810  26.586  22.845  1.00  0.00    -0.237 OA
ATOM    105  O   UNL A   1      54.812  27.262  25.001  1.00  0.00    -0.237 OA
ATOM    106  O   UNL A   1      54.233  24.901  24.598  1.00  0.00    -0.744 OA
ENDBRANCH 102 103
ENDBRANCH  70  95
ENDBRANCH  44  45
ENDBRANCH  37  39
ENDBRANCH  36  37
ENDBRANCH  35  36
ENDBRANCH  34  35
ENDBRANCH  33  34
ENDBRANCH  32  33
ENDBRANCH  31  32
ENDBRANCH  30  31
ENDBRANCH   1  30
TORSDOF 28
ENDMDL
MODEL 2
REMARK VINA RESULT:      -9.1      6.502     10.562
REMARK SMILES COc1cc(NS(=O)(=O)c2cc(C)c(C(=O)OCCOCCOCCOCCOC(=O)c3ccc(-c4c5nc(c(-c6c(F)cc(S(=O)(=O)[O-])cc6F)c6ccc([nH]6)c(-c6c(F)cc(S(=O)(=O)[O-])cc6F)c6nc(c(-c7c(F)cc(S(=O)(=O)[O-])cc7F)c7ccc4[nH]7)C=C6)C=C5)cc3)s2)cc(OC)c1
REMARK SMILES IDX 22 1 21 2 20 3 19 4 18 5 17 6 15 7 16 8 14 9 10 10 11 11
REMARK SMILES IDX 98 12 12 13 13 14 7 15 8 16 9 17 6 18 5 20 3 21 4 22 103 23
REMARK SMILES IDX 100 24 99 25 2 26 1 27 101 28 102 29 23 30 24 31 25 32 26 33
REMARK SMILES IDX 27 34 28 35 29 36 30 37 31 38 32 39 33 40 97 41 34 42 96 43
REMARK SMILES IDX 35 44 36 45 37 46 90 47 38 48 95 49 89 50 91 51 39 52 94 53
REMARK SMILES IDX 88 54 87 55 40 57 74 58 53 59 73 60 54 61 57 62 72 63 92 64
REMARK SMILES IDX 55 65 56 66 71 68 93 69 58 70 41 71 42 72 51 73 43 74 44 75
REMARK SMILES IDX 50 76 52 77 45 78 46 79 47 80 48 81 49 82 75 83 76 84 85 85
REMARK SMILES IDX 77 86 78 87 84 88 86 89 79 90 80 91 81 92 82 93 83 94 59 95
REMARK SMILES IDX 60 96 69 97 61 98 62 99 68 100 70 101 63 102 64 103 65 104
REMARK SMILES IDX 66 105 67 106
REMARK H PARENT 6 19 91 56 57 67
REMARK Flexibility Score: inf
ROOT
ATOM      1  C   UNL A   1      32.190  30.283  27.223  1.00  0.00     0.188 C 
ENDROOT
BRANCH   1   2
ATOM      2  C   UNL A   1      31.811  29.970  25.767  1.00  0.00     0.188 C 
BRANCH   2   3
ATOM      3  O   UNL A   1      32.945  29.643  24.966  1.00  0.00    -0.376 OA
BRANCH   3   4
ATOM      4  C   UNL A   1      32.711  28.915  23.768  1.00  0.00     0.202 C 
BRANCH   4   5
ATOM      5  C   UNL A   1      31.257  28.597  23.375  1.00  0.00     0.261 C 
BRANCH   5   6
ATOM      6  O   UNL A   1      31.081  27.832  22.178  1.00  0.00    -0.459 OA
BRANCH   6   7
ATOM      7  C   UNL A   1      31.299  26.499  22.230  1.00  0.00     0.348 C 
ATOM      8  O   UNL A   1      31.867  25.867  21.343  1.00  0.00    -0.245 OA
BRANCH   7   9
ATOM      9  C   UNL A   1      30.880  25.985  23.527  1.00  0.00     0.116 A 
ATOM     10  C   UNL A   1      30.878  24.584  25.553  1.00  0.00     0.141 A 
ATOM     11  C   UNL A   1      29.734  25.352  25.465  1.00  0.00     0.038 A 
ATOM     12  S   UNL A   1      32.048  25.100  24.427  1.00  0.00    -0.115 S 
ATOM     13  C   UNL A   1      29.677  26.095  24.230  1.00  0.00    -0.024 A 
ATOM     14  C   UNL A   1      28.417  26.757  23.756  1.00  0.00     0.046 C 
BRANCH  10  15
ATOM     15  S   UNL A   1      31.239  23.094  26.453  1.00  0.00     0.271 S 
ATOM     16  O   UNL A   1      31.162  22.032  25.471  1.00  0.00    -0.200 OA
ATOM     17  O   UNL A   1      30.397  23.069  27.630  1.00  0.00    -0.200 OA
BRANCH  15  18
ATOM     18  N   UNL A   1      32.871  23.148  26.985  1.00  0.00    -0.279 N 
ATOM     19  H   UNL A   1      33.134  23.706  27.753  1.00  0.00     0.180 HD
BRANCH  18  20
ATOM     20  C   UNL A   1      33.846  22.356  26.280  1.00  0.00     0.056 A 
ATOM     21  C   UNL A   1      36.103  22.136  25.384  1.00  0.00     0.124 A 
ATOM     22  C   UNL A   1      35.079  22.906  25.937  1.00  0.00     0.073 A 
ATOM     23  C   UNL A   1      35.818  20.841  24.979  1.00  0.00     0.093 A 
ATOM     24  C   UNL A   1      34.526  20.328  25.156  1.00  0.00     0.124 A 
ATOM     25  C   UNL A   1      33.560  21.062  25.861  1.00  0.00     0.073 A 
BRANCH  21  26
ATOM     26  O   UNL A   1      37.305  22.777  25.303  1.00  0.00    -0.497 OA
ATOM     27  C   UNL A   1      37.515  23.934  26.105  1.00  0.00     0.278 C 
ENDBRANCH  21  26
BRANCH  24  28
ATOM     28  O   UNL A   1      34.106  19.113  24.677  1.00  0.00    -0.497 OA
ATOM     29  C   UNL A   1      32.752  18.775  24.979  1.00  0.00     0.278 C 
ENDBRANCH  24  28
ENDBRANCH  18  20
ENDBRANCH  15  18
ENDBRANCH  10  15
ENDBRANCH   7   9
ENDBRANCH   6   7
ENDBRANCH   5   6
ENDBRANCH   4   5
ENDBRANCH   3   4
ENDBRANCH   2   3
ENDBRANCH   1   2
BRANCH   1  30
ATOM     30  O   UNL A   1      33.561  30.609  27.374  1.00  0.00    -0.377 OA
BRANCH  30  31
ATOM     31  C   UNL A   1      33.884  31.896  27.897  1.00  0.00     0.188 C 
BRANCH  31  32
ATOM     32  C   UNL A   1      35.345  32.401  27.967  1.00  0.00     0.188 C 
BRANCH  32  33
ATOM     33  O   UNL A   1      35.506  33.690  28.557  1.00  0.00    -0.376 OA
BRANCH  33  34
ATOM     34  C   UNL A   1      34.815  34.771  27.941  1.00  0.00     0.202 C 
BRANCH  34  35
ATOM     35  C   UNL A   1      33.727  35.410  28.814  1.00  0.00     0.261 C 
BRANCH  35  36
ATOM     36  O   UNL A   1      33.205  34.565  29.850  1.00  0.00    -0.460 OA
BRANCH  36  37
ATOM     37  C   UNL A   1      33.065  35.109  31.079  1.00  0.00     0.338 C 
ATOM     38  O   UNL A   1      32.131  35.772  31.491  1.00  0.00    -0.246 OA
BRANCH  37  39
ATOM     39  C   UNL A   1      34.164  34.603  31.921  1.00  0.00     0.060 A 
ATOM     40  C   UNL A   1      34.872  35.508  32.722  1.00  0.00     0.016 A 
ATOM     41  C   UNL A   1      34.497  33.246  31.911  1.00  0.00     0.016 A 
ATOM     42  C   UNL A   1      35.951  35.061  33.483  1.00  0.00     0.010 A 
ATOM     43  C   UNL A   1      35.589  32.805  32.657  1.00  0.00     0.010 A 
ATOM     44  C   UNL A   1      36.343  33.718  33.415  1.00  0.00    -0.014 A 
BRANCH  44  45
ATOM     45  C   UNL A   1      37.657  33.302  33.953  1.00  0.00     0.031 A 
ATOM     46  C   UNL A   1      37.851  33.339  35.443  1.00  0.00     0.074 A 
ATOM     47  C   UNL A   1      38.655  32.913  33.141  1.00  0.00     0.049 A 
ATOM     48  N   UNL A   1      38.923  33.088  36.147  1.00  0.00    -0.248 NA
ATOM     49  C   UNL A   1      36.676  33.717  36.248  1.00  0.00     0.031 C 
ATOM     50  C   UNL A   1      38.572  32.810  31.686  1.00  0.00     0.029 A 
ATOM     51  N   UNL A   1      39.944  32.546  33.434  1.00  0.00    -0.354 N 
ATOM     52  C   UNL A   1      38.554  33.278  37.473  1.00  0.00     0.074 A 
ATOM     53  C   UNL A   1      37.168  33.692  37.477  1.00  0.00     0.031 C 
ATOM     54  C   UNL A   1      39.768  32.423  31.208  1.00  0.00     0.029 A 
ATOM     55  C   UNL A   1      40.706  32.277  32.322  1.00  0.00     0.049 A 
ATOM     56  H   UNL A   1      40.290  32.480  34.352  1.00  0.00     0.167 HD
ATOM     57  C   UNL A   1      39.302  33.116  38.589  1.00  0.00     0.037 A 
ATOM     58  C   UNL A   1      42.015  31.974  32.219  1.00  0.00     0.037 A 
ATOM     59  C   UNL A   1      40.683  32.717  38.580  1.00  0.00     0.049 A 
ATOM     60  C   UNL A   1      42.847  31.864  33.472  1.00  0.00     0.074 A 
ATOM     61  C   UNL A   1      41.529  32.514  39.656  1.00  0.00     0.029 A 
ATOM     62  N   UNL A   1      41.425  32.469  37.434  1.00  0.00    -0.354 N 
ATOM     63  N   UNL A   1      42.480  32.019  34.723  1.00  0.00    -0.248 NA
ATOM     64  C   UNL A   1      44.271  31.539  33.301  1.00  0.00     0.031 C 
ATOM     65  C   UNL A   1      42.794  32.184  39.158  1.00  0.00     0.029 A 
ATOM     66  C   UNL A   1      42.724  32.138  37.774  1.00  0.00     0.049 A 
ATOM     67  H   UNL A   1      41.078  32.523  36.514  1.00  0.00     0.167 HD
ATOM     68  C   UNL A   1      43.619  31.784  35.487  1.00  0.00     0.074 A 
ATOM     69  C   UNL A   1      44.686  31.471  34.559  1.00  0.00     0.031 C 
ATOM     70  C   UNL A   1      43.769  31.819  36.835  1.00  0.00     0.037 A 
BRANCH  57  71
ATOM     71  C   UNL A   1      38.642  33.397  39.908  1.00  0.00     0.058 A 
ATOM     72  C   UNL A   1      37.834  32.443  40.544  1.00  0.00     0.135 A 
ATOM     73  C   UNL A   1      38.829  34.633  40.549  1.00  0.00     0.135 A 
ATOM     74  F   UNL A   1      37.604  31.254  39.962  1.00  0.00    -0.206 F 
ATOM     75  C   UNL A   1      37.213  32.710  41.760  1.00  0.00     0.059 A 
ATOM     76  C   UNL A   1      38.237  34.913  41.775  1.00  0.00     0.059 A 
ATOM     77  F   UNL A   1      39.585  35.583  39.978  1.00  0.00    -0.206 F 
ATOM     78  C   UNL A   1      37.419  33.951  42.366  1.00  0.00     0.060 A 
BRANCH  78  79
ATOM     79  S   UNL A   1      36.606  34.286  43.943  1.00  0.00     0.124 S 
ATOM     80  O   UNL A   1      37.051  35.649  44.215  1.00  0.00    -0.237 OA
ATOM     81  O   UNL A   1      35.195  34.137  43.605  1.00  0.00    -0.237 OA
ATOM     82  O   UNL A   1      37.147  33.260  44.828  1.00  0.00    -0.744 OA
ENDBRANCH  78  79
ENDBRANCH  57  71
BRANCH  58  83
ATOM     83  C   UNL A   1      42.627  31.763  30.881  1.00  0.00     0.058 A 
ATOM     84  C   UNL A   1      43.122  32.841  30.133  1.00  0.00     0.135 A 
ATOM     85  C   UNL A   1      42.727  30.480  30.323  1.00  0.00     0.135 A 
ATOM     86  F   UNL A   1      43.037  34.089  30.619  1.00  0.00    -0.206 F 
ATOM     87  C   UNL A   1      43.686  32.657  28.874  1.00  0.00     0.059 A 
ATOM     88  C   UNL A   1      43.307  30.267  29.076  1.00  0.00     0.059 A 
ATOM     89  F   UNL A   1      42.275  29.414  31.002  1.00  0.00    -0.206 F 
ATOM     90  C   UNL A   1      43.777  31.364  28.356  1.00  0.00     0.060 A 
BRANCH  90  91
ATOM     91  S   UNL A   1      44.563  31.127  26.747  1.00  0.00     0.124 S 
ATOM     92  O   UNL A   1      44.148  29.770  26.413  1.00  0.00    -0.237 OA
ATOM     93  O   UNL A   1      43.963  32.194  25.952  1.00  0.00    -0.237 OA
ATOM     94  O   UNL A   1      45.983  31.300  27.040  1.00  0.00    -0.744 OA
ENDBRANCH  90  91
ENDBRANCH  58  83
BRANCH  70  95
ATOM     95  C   UNL A   1      45.122  31.481  37.395  1.00  0.00     0.058 A 
ATOM     96  C   UNL A   1      45.483  30.163  37.708  1.00  0.00     0.135 A 
ATOM     97  C   UNL A   1      46.095  32.484  37.549  1.00  0.00     0.135 A 
ATOM     98  F   UNL A   1      44.587  29.170  37.582  1.00  0.00    -0.206 F 
ATOM     99  C   UNL A   1      46.757  29.848  38.168  1.00  0.00     0.059 A 
ATOM    100  C   UNL A   1      47.382  32.188  37.986  1.00  0.00     0.059 A 
ATOM    101  F   UNL A   1      45.805  33.760  37.252  1.00  0.00    -0.206 F 
ATOM    102  C   UNL A   1      47.701  30.869  38.302  1.00  0.00     0.060 A 
BRANCH 102 103
ATOM    103  S   UNL A   1      49.366  30.443  38.856  1.00  0.00     0.124 S 
ATOM    104  O   UNL A   1      49.424  29.019  38.545  1.00  0.00    -0.237 OA
ATOM    105  O   UNL A   1      50.204  31.307  38.031  1.00  0.00    -0.237 OA
ATOM    106  O   UNL A   1      49.345  30.774  40.278  1.00  0.00    -0.744 OA
ENDBRANCH 102 103
ENDBRANCH  70  95
ENDBRANCH  44  45
ENDBRANCH  37  39
ENDBRANCH  36  37
ENDBRANCH  35  36
ENDBRANCH  34  35
ENDBRANCH  33  34
ENDBRANCH  32  33
ENDBRANCH  31  32
ENDBRANCH  30  31
ENDBRANCH   1  30
TORSDOF 28
ENDMDL
MODEL 3
REMARK VINA RESULT:      -8.6      6.830     10.003
REMARK SMILES COc1cc(NS(=O)(=O)c2cc(C)c(C(=O)OCCOCCOCCOCCOC(=O)c3ccc(-c4c5nc(c(-c6c(F)cc(S(=O)(=O)[O-])cc6F)c6ccc([nH]6)c(-c6c(F)cc(S(=O)(=O)[O-])cc6F)c6nc(c(-c7c(F)cc(S(=O)(=O)[O-])cc7F)c7ccc4[nH]7)C=C6)C=C5)cc3)s2)cc(OC)c1
REMARK SMILES IDX 22 1 21 2 20 3 19 4 18 5 17 6 15 7 16 8 14 9 10 10 11 11
REMARK SMILES IDX 98 12 12 13 13 14 7 15 8 16 9 17 6 18 5 20 3 21 4 22 103 23
REMARK SMILES IDX 100 24 99 25 2 26 1 27 101 28 102 29 23 30 24 31 25 32 26 33
REMARK SMILES IDX 27 34 28 35 29 36 30 37 31 38 32 39 33 40 97 41 34 42 96 43
REMARK SMILES IDX 35 44 36 45 37 46 90 47 38 48 95 49 89 50 91 51 39 52 94 53
REMARK SMILES IDX 88 54 87 55 40 57 74 58 53 59 73 60 54 61 57 62 72 63 92 64
REMARK SMILES IDX 55 65 56 66 71 68 93 69 58 70 41 71 42 72 51 73 43 74 44 75
REMARK SMILES IDX 50 76 52 77 45 78 46 79 47 80 48 81 49 82 75 83 76 84 85 85
REMARK SMILES IDX 77 86 78 87 84 88 86 89 79 90 80 91 81 92 82 93 83 94 59 95
REMARK SMILES IDX 60 96 69 97 61 98 62 99 68 100 70 101 63 102 64 103 65 104
REMARK SMILES IDX 66 105 67 106
REMARK H PARENT 6 19 91 56 57 67
REMARK Flexibility Score: inf
ROOT
ATOM      1  C   UNL A   1      32.100  30.232  26.290  1.00  0.00     0.188 C 
ENDROOT
BRANCH   1   2
ATOM      2  C   UNL A   1      31.753  29.447  25.016  1.00  0.00     0.188 C 
BRANCH   2   3
ATOM      3  O   UNL A   1      32.894  29.208  24.194  1.00  0.00    -0.376 OA
BRANCH   3   4
ATOM      4  C   UNL A   1      33.159  27.864  23.817  1.00  0.00     0.202 C 
BRANCH   4   5
ATOM      5  C   UNL A   1      32.063  26.808  24.047  1.00  0.00     0.261 C 
BRANCH   5   6
ATOM      6  O   UNL A   1      31.853  25.875  22.982  1.00  0.00    -0.459 OA
BRANCH   6   7
ATOM      7  C   UNL A   1      32.933  25.298  22.412  1.00  0.00     0.348 C 
ATOM      8  O   UNL A   1      33.507  25.752  21.425  1.00  0.00    -0.245 OA
BRANCH   7   9
ATOM      9  C   UNL A   1      33.362  24.162  23.217  1.00  0.00     0.116 A 
ATOM     10  C   UNL A   1      34.863  22.695  24.506  1.00  0.00     0.141 A 
ATOM     11  C   UNL A   1      33.639  22.097  24.278  1.00  0.00     0.038 A 
ATOM     12  S   UNL A   1      34.813  24.354  24.120  1.00  0.00    -0.115 S 
ATOM     13  C   UNL A   1      32.794  22.904  23.434  1.00  0.00    -0.024 A 
ATOM     14  C   UNL A   1      31.553  22.357  22.793  1.00  0.00     0.046 C 
BRANCH  10  15
ATOM     15  S   UNL A   1      36.455  22.018  24.915  1.00  0.00     0.271 S 
ATOM     16  O   UNL A   1      37.261  22.203  23.727  1.00  0.00    -0.200 OA
ATOM     17  O   UNL A   1      36.250  20.695  25.465  1.00  0.00    -0.200 OA
BRANCH  15  18
ATOM     18  N   UNL A   1      37.170  22.983  26.142  1.00  0.00    -0.279 N 
ATOM     19  H   UNL A   1      36.639  23.651  26.634  1.00  0.00     0.180 HD
BRANCH  18  20
ATOM     20  C   UNL A   1      38.568  22.791  26.435  1.00  0.00     0.056 A 
ATOM     21  C   UNL A   1      40.627  23.637  27.429  1.00  0.00     0.124 A 
ATOM     22  C   UNL A   1      39.313  23.825  27.000  1.00  0.00     0.073 A 
ATOM     23  C   UNL A   1      41.272  22.454  27.104  1.00  0.00     0.093 A 
ATOM     24  C   UNL A   1      40.589  21.468  26.379  1.00  0.00     0.124 A 
ATOM     25  C   UNL A   1      39.221  21.612  26.100  1.00  0.00     0.073 A 
BRANCH  21  26
ATOM     26  O   UNL A   1      41.137  24.683  28.143  1.00  0.00    -0.497 OA
ATOM     27  C   UNL A   1      40.706  26.001  27.823  1.00  0.00     0.278 C 
ENDBRANCH  21  26
BRANCH  24  28
ATOM     28  O   UNL A   1      41.170  20.323  25.898  1.00  0.00    -0.497 OA
ATOM     29  C   UNL A   1      42.071  19.675  26.796  1.00  0.00     0.278 C 
ENDBRANCH  24  28
ENDBRANCH  18  20
ENDBRANCH  15  18
ENDBRANCH  10  15
ENDBRANCH   7   9
ENDBRANCH   6   7
ENDBRANCH   5   6
ENDBRANCH   4   5
ENDBRANCH   3   4
ENDBRANCH   2   3
ENDBRANCH   1   2
BRANCH   1  30
ATOM     30  O   UNL A   1      33.417  29.980  26.747  1.00  0.00    -0.377 OA
BRANCH  30  31
ATOM     31  C   UNL A   1      34.032  30.964  27.577  1.00  0.00     0.188 C 
BRANCH  31  32
ATOM     32  C   UNL A   1      35.569  31.084  27.692  1.00  0.00     0.188 C 
BRANCH  32  33
ATOM     33  O   UNL A   1      36.027  32.061  28.627  1.00  0.00    -0.376 OA
BRANCH  33  34
ATOM     34  C   UNL A   1      36.019  33.417  28.196  1.00  0.00     0.202 C 
BRANCH  34  35
ATOM     35  C   UNL A   1      34.819  34.235  28.689  1.00  0.00     0.261 C 
BRANCH  35  36
ATOM     36  O   UNL A   1      34.025  33.599  29.701  1.00  0.00    -0.460 OA
BRANCH  36  37
ATOM     37  C   UNL A   1      33.767  34.310  30.821  1.00  0.00     0.338 C 
ATOM     38  O   UNL A   1      32.762  34.948  31.075  1.00  0.00    -0.246 OA
BRANCH  37  39
ATOM     39  C   UNL A   1      34.844  34.030  31.789  1.00  0.00     0.060 A 
ATOM     40  C   UNL A   1      35.730  35.060  32.129  1.00  0.00     0.016 A 
ATOM     41  C   UNL A   1      34.980  32.756  32.346  1.00  0.00     0.016 A 
ATOM     42  C   UNL A   1      36.789  34.803  32.997  1.00  0.00     0.010 A 
ATOM     43  C   UNL A   1      36.052  32.496  33.200  1.00  0.00     0.010 A 
ATOM     44  C   UNL A   1      36.981  33.508  33.497  1.00  0.00    -0.014 A 
BRANCH  44  45
ATOM     45  C   UNL A   1      38.261  33.149  34.148  1.00  0.00     0.031 A 
ATOM     46  C   UNL A   1      39.307  32.463  33.315  1.00  0.00     0.074 A 
ATOM     47  C   UNL A   1      38.484  33.416  35.446  1.00  0.00     0.049 A 
ATOM     48  N   UNL A   1      40.474  31.994  33.670  1.00  0.00    -0.248 NA
ATOM     49  C   UNL A   1      38.990  32.276  31.889  1.00  0.00     0.031 C 
ATOM     50  C   UNL A   1      37.556  34.102  36.343  1.00  0.00     0.029 A 
ATOM     51  N   UNL A   1      39.565  33.122  36.238  1.00  0.00    -0.354 N 
ATOM     52  C   UNL A   1      41.029  31.456  32.515  1.00  0.00     0.074 A 
ATOM     53  C   UNL A   1      40.061  31.632  31.453  1.00  0.00     0.031 C 
ATOM     54  C   UNL A   1      38.101  34.161  37.571  1.00  0.00     0.029 A 
ATOM     55  C   UNL A   1      39.403  33.494  37.552  1.00  0.00     0.049 A 
ATOM     56  H   UNL A   1      40.380  32.688  35.898  1.00  0.00     0.167 HD
ATOM     57  C   UNL A   1      42.238  30.874  32.352  1.00  0.00     0.037 A 
ATOM     58  C   UNL A   1      40.205  33.294  38.616  1.00  0.00     0.037 A 
ATOM     59  C   UNL A   1      43.192  30.690  33.411  1.00  0.00     0.049 A 
ATOM     60  C   UNL A   1      41.521  32.582  38.424  1.00  0.00     0.074 A 
ATOM     61  C   UNL A   1      44.451  30.121  33.350  1.00  0.00     0.029 A 
ATOM     62  N   UNL A   1      42.985  31.065  34.731  1.00  0.00    -0.354 N 
ATOM     63  N   UNL A   1      42.047  32.103  37.322  1.00  0.00    -0.248 NA
ATOM     64  C   UNL A   1      42.352  32.383  39.621  1.00  0.00     0.031 C 
ATOM     65  C   UNL A   1      44.989  30.113  34.641  1.00  0.00     0.029 A 
ATOM     66  C   UNL A   1      44.083  30.719  35.498  1.00  0.00     0.049 A 
ATOM     67  H   UNL A   1      42.176  31.510  35.072  1.00  0.00     0.167 HD
ATOM     68  C   UNL A   1      43.280  31.571  37.687  1.00  0.00     0.074 A 
ATOM     69  C   UNL A   1      43.424  31.792  39.110  1.00  0.00     0.031 C 
ATOM     70  C   UNL A   1      44.211  30.958  36.914  1.00  0.00     0.037 A 
BRANCH  57  71
ATOM     71  C   UNL A   1      42.583  30.372  30.979  1.00  0.00     0.058 A 
ATOM     72  C   UNL A   1      42.454  29.018  30.636  1.00  0.00     0.135 A 
ATOM     73  C   UNL A   1      43.037  31.260  29.990  1.00  0.00     0.135 A 
ATOM     74  F   UNL A   1      42.046  28.124  31.553  1.00  0.00    -0.206 F 
ATOM     75  C   UNL A   1      42.786  28.554  29.367  1.00  0.00     0.059 A 
ATOM     76  C   UNL A   1      43.352  30.822  28.708  1.00  0.00     0.059 A 
ATOM     77  F   UNL A   1      43.186  32.564  30.269  1.00  0.00    -0.206 F 
ATOM     78  C   UNL A   1      43.238  29.465  28.411  1.00  0.00     0.060 A 
BRANCH  78  79
ATOM     79  S   UNL A   1      43.667  28.850  26.768  1.00  0.00     0.124 S 
ATOM     80  O   UNL A   1      43.837  27.424  27.028  1.00  0.00    -0.237 OA
ATOM     81  O   UNL A   1      42.494  29.215  25.981  1.00  0.00    -0.237 OA
ATOM     82  O   UNL A   1      44.888  29.579  26.442  1.00  0.00    -0.744 OA
ENDBRANCH  78  79
ENDBRANCH  57  71
BRANCH  58  83
ATOM     83  C   UNL A   1      39.785  33.761  39.962  1.00  0.00     0.058 A 
ATOM     84  C   UNL A   1      40.278  34.959  40.500  1.00  0.00     0.135 A 
ATOM     85  C   UNL A   1      38.881  33.020  40.739  1.00  0.00     0.135 A 
ATOM     86  F   UNL A   1      41.155  35.696  39.802  1.00  0.00    -0.206 F 
ATOM     87  C   UNL A   1      39.899  35.400  41.765  1.00  0.00     0.059 A 
ATOM     88  C   UNL A   1      38.469  33.452  41.996  1.00  0.00     0.059 A 
ATOM     89  F   UNL A   1      38.373  31.871  40.266  1.00  0.00    -0.206 F 
ATOM     90  C   UNL A   1      38.991  34.641  42.503  1.00  0.00     0.060 A 
BRANCH  90  91
ATOM     91  S   UNL A   1      38.460  35.251  44.119  1.00  0.00     0.124 S 
ATOM     92  O   UNL A   1      39.077  36.571  44.153  1.00  0.00    -0.237 OA
ATOM     93  O   UNL A   1      37.005  35.228  43.992  1.00  0.00    -0.237 OA
ATOM     94  O   UNL A   1      39.014  34.268  45.045  1.00  0.00    -0.744 OA
ENDBRANCH  90  91
ENDBRANCH  58  83
BRANCH  70  95
ATOM     95  C   UNL A   1      45.484  30.511  37.577  1.00  0.00     0.058 A 
ATOM     96  C   UNL A   1      46.563  31.386  37.767  1.00  0.00     0.135 A 
ATOM     97  C   UNL A   1      45.593  29.210  38.095  1.00  0.00     0.135 A 
ATOM     98  F   UNL A   1      46.509  32.639  37.287  1.00  0.00    -0.206 F 
ATOM     99  C   UNL A   1      47.714  30.985  38.436  1.00  0.00     0.059 A 
ATOM    100  C   UNL A   1      46.725  28.794  38.788  1.00  0.00     0.059 A 
ATOM    101  F   UNL A   1      44.583  28.337  37.951  1.00  0.00    -0.206 F 
ATOM    102  C   UNL A   1      47.785  29.686  38.946  1.00  0.00     0.060 A 
BRANCH 102 103
ATOM    103  S   UNL A   1      49.265  29.189  39.853  1.00  0.00     0.124 S 
ATOM    104  O   UNL A   1      50.091  28.635  38.786  1.00  0.00    -0.237 OA
ATOM    105  O   UNL A   1      49.725  30.453  40.420  1.00  0.00    -0.237 OA
ATOM    106  O   UNL A   1      48.759  28.222  40.822  1.00  0.00    -0.744 OA
ENDBRANCH 102 103
ENDBRANCH  70  95
ENDBRANCH  44  45
ENDBRANCH  37  39
ENDBRANCH  36  37
ENDBRANCH  35  36
ENDBRANCH  34  35
ENDBRANCH  33  34
ENDBRANCH  32  33
ENDBRANCH  31  32
ENDBRANCH  30  31
ENDBRANCH   1  30
TORSDOF 28
ENDMDL
