MODEL 1
REMARK VINA RESULT:      -7.6      0.000      0.000
REMARK SMILES O=C(OCCOCCOCCOCCOC(=O)[C@H]1C[C@](F)(c2cccc(F)c2)C1)c1ccc(-c2c3nc(c(-c4c(F)cc(S(=O)(=O)[O-])cc4F)c4ccc([nH]4)c(-c4c(F)cc(S(=O)(=O)[O-])cc4F)c4nc(c(-c5c(F)cc(S(=O)(=O)[O-])cc5F)c5ccc2[nH]5)C=C4)C=C3)cc1
REMARK SMILES IDX 8 1 7 2 6 3 5 4 4 5 3 6 2 7 1 8 30 9 31 10 95 11 32 12 94 13
REMARK SMILES IDX 33 14 34 15 35 16 88 17 36 18 93 19 87 20 89 21 37 22 92 23
REMARK SMILES IDX 86 24 85 25 38 27 72 28 51 29 71 30 52 31 55 32 70 33 90 34
REMARK SMILES IDX 53 35 54 36 69 38 91 39 56 40 39 41 40 42 49 43 41 44 42 45
REMARK SMILES IDX 48 46 50 47 43 48 44 49 45 50 46 51 47 52 73 53 74 54 83 55
REMARK SMILES IDX 75 56 76 57 82 58 84 59 77 60 78 61 79 62 80 63 81 64 57 65
REMARK SMILES IDX 58 66 67 67 59 68 60 69 66 70 68 71 61 72 62 73 63 74 64 75
REMARK SMILES IDX 65 76 9 77 10 78 11 79 12 80 13 81 14 82 15 83 16 84 17 85
REMARK SMILES IDX 18 86 19 87 29 88 20 89 21 90 22 91 23 92 28 93 24 94 26 95
REMARK SMILES IDX 25 96 27 97
REMARK H PARENT 89 26 55 37
REMARK Flexibility Score: inf
ROOT
ATOM      1  C   UNL A   1      36.214  33.770  32.472  1.00  0.00     0.188 C 
ENDROOT
BRANCH   1   2
ATOM      2  C   UNL A   1      34.690  33.744  32.486  1.00  0.00     0.188 C 
BRANCH   2   3
ATOM      3  O   UNL A   1      34.166  33.063  31.350  1.00  0.00    -0.376 OA
BRANCH   3   4
ATOM      4  C   UNL A   1      35.114  32.512  30.438  1.00  0.00     0.202 C 
BRANCH   4   5
ATOM      5  C   UNL A   1      34.722  32.584  28.964  1.00  0.00     0.261 C 
BRANCH   5   6
ATOM      6  O   UNL A   1      34.153  31.368  28.456  1.00  0.00    -0.460 OA
BRANCH   6   7
ATOM      7  C   UNL A   1      34.784  30.285  27.944  1.00  0.00     0.338 C 
ATOM      8  O   UNL A   1      34.172  29.590  27.133  1.00  0.00    -0.246 OA
BRANCH   7   9
ATOM      9  C   UNL A   1      36.176  29.870  28.297  1.00  0.00     0.060 A 
ATOM     10  C   UNL A   1      36.574  29.327  29.517  1.00  0.00     0.016 A 
ATOM     11  C   UNL A   1      37.139  29.954  27.278  1.00  0.00     0.016 A 
ATOM     12  C   UNL A   1      37.875  28.928  29.758  1.00  0.00     0.010 A 
ATOM     13  C   UNL A   1      38.457  29.545  27.502  1.00  0.00     0.010 A 
ATOM     14  C   UNL A   1      38.827  29.058  28.759  1.00  0.00    -0.014 A 
BRANCH  14  15
ATOM     15  C   UNL A   1      40.227  28.888  29.162  1.00  0.00     0.031 A 
ATOM     16  C   UNL A   1      40.902  27.619  28.744  1.00  0.00     0.074 A 
ATOM     17  C   UNL A   1      40.901  29.922  29.697  1.00  0.00     0.049 A 
ATOM     18  N   UNL A   1      42.100  27.192  29.020  1.00  0.00    -0.248 NA
ATOM     19  C   UNL A   1      40.124  26.712  27.877  1.00  0.00     0.031 C 
ATOM     20  C   UNL A   1      40.342  31.255  29.945  1.00  0.00     0.029 A 
ATOM     21  N   UNL A   1      42.206  30.030  30.088  1.00  0.00    -0.354 N 
ATOM     22  C   UNL A   1      42.204  25.954  28.399  1.00  0.00     0.074 A 
ATOM     23  C   UNL A   1      40.953  25.692  27.730  1.00  0.00     0.031 C 
ATOM     24  C   UNL A   1      41.306  32.051  30.434  1.00  0.00     0.029 A 
ATOM     25  C   UNL A   1      42.519  31.263  30.610  1.00  0.00     0.049 A 
ATOM     26  H   UNL A   1      42.857  29.297  30.004  1.00  0.00     0.167 HD
ATOM     27  C   UNL A   1      43.263  25.117  28.402  1.00  0.00     0.037 A 
ATOM     28  C   UNL A   1      43.654  31.676  31.207  1.00  0.00     0.037 A 
ATOM     29  C   UNL A   1      44.491  25.436  29.075  1.00  0.00     0.049 A 
ATOM     30  C   UNL A   1      44.774  30.676  31.318  1.00  0.00     0.074 A 
ATOM     31  C   UNL A   1      45.616  24.654  29.237  1.00  0.00     0.029 A 
ATOM     32  N   UNL A   1      44.746  26.654  29.695  1.00  0.00    -0.354 N 
ATOM     33  N   UNL A   1      44.835  29.456  30.834  1.00  0.00    -0.248 NA
ATOM     34  C   UNL A   1      45.963  31.086  32.071  1.00  0.00     0.031 C 
ATOM     35  C   UNL A   1      46.533  25.382  30.001  1.00  0.00     0.029 A 
ATOM     36  C   UNL A   1      46.005  26.641  30.261  1.00  0.00     0.049 A 
ATOM     37  H   UNL A   1      44.122  27.414  29.727  1.00  0.00     0.167 HD
ATOM     38  C   UNL A   1      46.074  28.955  31.210  1.00  0.00     0.074 A 
ATOM     39  C   UNL A   1      46.736  30.015  31.949  1.00  0.00     0.031 C 
ATOM     40  C   UNL A   1      46.618  27.735  30.977  1.00  0.00     0.037 A 
BRANCH  27  41
ATOM     41  C   UNL A   1      43.099  23.782  27.736  1.00  0.00     0.058 A 
ATOM     42  C   UNL A   1      42.449  22.737  28.410  1.00  0.00     0.135 A 
ATOM     43  C   UNL A   1      43.570  23.531  26.438  1.00  0.00     0.135 A 
ATOM     44  F   UNL A   1      41.951  22.932  29.641  1.00  0.00    -0.206 F 
ATOM     45  C   UNL A   1      42.291  21.484  27.832  1.00  0.00     0.059 A 
ATOM     46  C   UNL A   1      43.401  22.289  25.829  1.00  0.00     0.059 A 
ATOM     47  F   UNL A   1      44.157  24.509  25.729  1.00  0.00    -0.206 F 
ATOM     48  C   UNL A   1      42.773  21.267  26.540  1.00  0.00     0.060 A 
BRANCH  48  49
ATOM     49  S   UNL A   1      42.538  19.638  25.798  1.00  0.00     0.124 S 
ATOM     50  O   UNL A   1      43.039  18.757  26.847  1.00  0.00    -0.237 OA
ATOM     51  O   UNL A   1      41.096  19.609  25.576  1.00  0.00    -0.237 OA
ATOM     52  O   UNL A   1      43.349  19.698  24.586  1.00  0.00    -0.744 OA
ENDBRANCH  48  49
ENDBRANCH  27  41
BRANCH  28  53
ATOM     53  C   UNL A   1      43.748  33.046  31.781  1.00  0.00     0.058 A 
ATOM     54  C   UNL A   1      43.263  33.329  33.070  1.00  0.00     0.135 A 
ATOM     55  C   UNL A   1      44.300  34.110  31.052  1.00  0.00     0.135 A 
ATOM     56  F   UNL A   1      42.722  32.354  33.817  1.00  0.00    -0.206 F 
ATOM     57  C   UNL A   1      43.294  34.614  33.601  1.00  0.00     0.059 A 
ATOM     58  C   UNL A   1      44.369  35.401  31.574  1.00  0.00     0.059 A 
ATOM     59  F   UNL A   1      44.789  33.895  29.821  1.00  0.00    -0.206 F 
ATOM     60  C   UNL A   1      43.849  35.645  32.844  1.00  0.00     0.060 A 
BRANCH  60  61
ATOM     61  S   UNL A   1      43.881  37.302  33.561  1.00  0.00     0.124 S 
ATOM     62  O   UNL A   1      43.683  38.137  32.382  1.00  0.00    -0.237 OA
ATOM     63  O   UNL A   1      42.770  37.250  34.501  1.00  0.00    -0.237 OA
ATOM     64  O   UNL A   1      45.212  37.381  34.168  1.00  0.00    -0.744 OA
ENDBRANCH  60  61
ENDBRANCH  28  53
BRANCH  40  65
ATOM     65  C   UNL A   1      48.002  27.491  31.500  1.00  0.00     0.058 A 
ATOM     66  C   UNL A   1      49.113  27.693  30.666  1.00  0.00     0.135 A 
ATOM     67  C   UNL A   1      48.216  26.952  32.776  1.00  0.00     0.135 A 
ATOM     68  F   UNL A   1      48.952  28.198  29.433  1.00  0.00    -0.206 F 
ATOM     69  C   UNL A   1      50.391  27.337  31.071  1.00  0.00     0.059 A 
ATOM     70  C   UNL A   1      49.492  26.619  33.214  1.00  0.00     0.059 A 
ATOM     71  F   UNL A   1      47.182  26.753  33.609  1.00  0.00    -0.206 F 
ATOM     72  C   UNL A   1      50.570  26.795  32.345  1.00  0.00     0.060 A 
BRANCH  72  73
ATOM     73  S   UNL A   1      52.237  26.331  32.847  1.00  0.00     0.124 S 
ATOM     74  O   UNL A   1      53.038  26.862  31.749  1.00  0.00    -0.237 OA
ATOM     75  O   UNL A   1      52.374  27.019  34.127  1.00  0.00    -0.237 OA
ATOM     76  O   UNL A   1      52.173  24.874  32.930  1.00  0.00    -0.744 OA
ENDBRANCH  72  73
ENDBRANCH  40  65
ENDBRANCH  14  15
ENDBRANCH   7   9
ENDBRANCH   6   7
ENDBRANCH   5   6
ENDBRANCH   4   5
ENDBRANCH   3   4
ENDBRANCH   2   3
ENDBRANCH   1   2
BRANCH   1  77
ATOM     77  O   UNL A   1      36.843  32.930  33.438  1.00  0.00    -0.377 OA
BRANCH  77  78
ATOM     78  C   UNL A   1      36.631  33.266  34.805  1.00  0.00     0.188 C 
BRANCH  78  79
ATOM     79  C   UNL A   1      37.817  33.481  35.765  1.00  0.00     0.188 C 
BRANCH  79  80
ATOM     80  O   UNL A   1      38.462  32.299  36.213  1.00  0.00    -0.376 OA
BRANCH  80  81
ATOM     81  C   UNL A   1      39.681  31.995  35.533  1.00  0.00     0.202 C 
BRANCH  81  82
ATOM     82  C   UNL A   1      39.762  30.572  34.954  1.00  0.00     0.261 C 
BRANCH  82  83
ATOM     83  O   UNL A   1      40.196  29.576  35.906  1.00  0.00    -0.463 OA
BRANCH  83  84
ATOM     84  C   UNL A   1      41.527  29.455  36.144  1.00  0.00     0.309 C 
ATOM     85  O   UNL A   1      42.117  30.145  36.973  1.00  0.00    -0.252 OA
BRANCH  84  86
ATOM     86  C   UNL A   1      42.188  28.291  35.358  1.00  0.00     0.106 C 
ATOM     87  C   UNL A   1      43.236  28.701  34.297  1.00  0.00     0.061 C 
ATOM     88  C   UNL A   1      41.499  27.509  34.198  1.00  0.00     0.061 C 
ATOM     89  C   UNL A   1      42.906  27.373  33.538  1.00  0.00     0.137 C 
ATOM     90  F   UNL A   1      42.886  27.486  32.186  1.00  0.00    -0.239 F 
BRANCH  89  91
ATOM     91  C   UNL A   1      43.873  26.126  33.885  1.00  0.00    -0.008 A 
ATOM     92  C   UNL A   1      44.175  25.182  32.875  1.00  0.00     0.007 A 
ATOM     93  C   UNL A   1      44.450  25.871  35.146  1.00  0.00     0.046 A 
ATOM     94  C   UNL A   1      45.005  24.076  33.084  1.00  0.00     0.003 A 
ATOM     95  C   UNL A   1      45.275  24.760  35.359  1.00  0.00     0.123 A 
ATOM     96  C   UNL A   1      45.559  23.864  34.338  1.00  0.00     0.039 A 
ATOM     97  F   UNL A   1      45.799  24.550  36.574  1.00  0.00    -0.207 F 
ENDBRANCH  89  91
ENDBRANCH  84  86
ENDBRANCH  83  84
ENDBRANCH  82  83
ENDBRANCH  81  82
ENDBRANCH  80  81
ENDBRANCH  79  80
ENDBRANCH  78  79
ENDBRANCH  77  78
ENDBRANCH   1  77
TORSDOF 24
ENDMDL
MODEL 2
REMARK VINA RESULT:      -7.2      4.780      8.563
REMARK SMILES O=C(OCCOCCOCCOCCOC(=O)[C@H]1C[C@](F)(c2cccc(F)c2)C1)c1ccc(-c2c3nc(c(-c4c(F)cc(S(=O)(=O)[O-])cc4F)c4ccc([nH]4)c(-c4c(F)cc(S(=O)(=O)[O-])cc4F)c4nc(c(-c5c(F)cc(S(=O)(=O)[O-])cc5F)c5ccc2[nH]5)C=C4)C=C3)cc1
REMARK SMILES IDX 8 1 7 2 6 3 5 4 4 5 3 6 2 7 1 8 30 9 31 10 95 11 32 12 94 13
REMARK SMILES IDX 33 14 34 15 35 16 88 17 36 18 93 19 87 20 89 21 37 22 92 23
REMARK SMILES IDX 86 24 85 25 38 27 72 28 51 29 71 30 52 31 55 32 70 33 90 34
REMARK SMILES IDX 53 35 54 36 69 38 91 39 56 40 39 41 40 42 49 43 41 44 42 45
REMARK SMILES IDX 48 46 50 47 43 48 44 49 45 50 46 51 47 52 73 53 74 54 83 55
REMARK SMILES IDX 75 56 76 57 82 58 84 59 77 60 78 61 79 62 80 63 81 64 57 65
REMARK SMILES IDX 58 66 67 67 59 68 60 69 66 70 68 71 61 72 62 73 63 74 64 75
REMARK SMILES IDX 65 76 9 77 10 78 11 79 12 80 13 81 14 82 15 83 16 84 17 85
REMARK SMILES IDX 18 86 19 87 29 88 20 89 21 90 22 91 23 92 28 93 24 94 26 95
REMARK SMILES IDX 25 96 27 97
REMARK H PARENT 89 26 55 37
REMARK Flexibility Score: inf
ROOT
ATOM      1  C   UNL A   1      30.556  26.260  26.302  1.00  0.00     0.188 C 
ENDROOT
BRANCH   1   2
ATOM      2  C   UNL A   1      31.618  27.354  26.282  1.00  0.00     0.188 C 
BRANCH   2   3
ATOM      3  O   UNL A   1      31.103  28.575  25.762  1.00  0.00    -0.376 OA
BRANCH   3   4
ATOM      4  C   UNL A   1      31.954  29.717  25.844  1.00  0.00     0.202 C 
BRANCH   4   5
ATOM      5  C   UNL A   1      32.813  29.804  27.104  1.00  0.00     0.261 C 
BRANCH   5   6
ATOM      6  O   UNL A   1      33.854  30.788  27.028  1.00  0.00    -0.460 OA
BRANCH   6   7
ATOM      7  C   UNL A   1      34.495  31.425  28.038  1.00  0.00     0.338 C 
ATOM      8  O   UNL A   1      34.008  32.474  28.460  1.00  0.00    -0.246 OA
BRANCH   7   9
ATOM      9  C   UNL A   1      35.758  30.944  28.676  1.00  0.00     0.060 A 
ATOM     10  C   UNL A   1      35.880  29.814  29.482  1.00  0.00     0.016 A 
ATOM     11  C   UNL A   1      36.933  31.645  28.359  1.00  0.00     0.016 A 
ATOM     12  C   UNL A   1      37.092  29.408  30.006  1.00  0.00     0.010 A 
ATOM     13  C   UNL A   1      38.170  31.242  28.872  1.00  0.00     0.010 A 
ATOM     14  C   UNL A   1      38.237  30.133  29.722  1.00  0.00    -0.014 A 
BRANCH  14  15
ATOM     15  C   UNL A   1      39.425  29.824  30.527  1.00  0.00     0.031 A 
ATOM     16  C   UNL A   1      40.387  28.828  29.958  1.00  0.00     0.074 A 
ATOM     17  C   UNL A   1      39.710  30.564  31.613  1.00  0.00     0.049 A 
ATOM     18  N   UNL A   1      41.468  28.332  30.484  1.00  0.00    -0.248 NA
ATOM     19  C   UNL A   1      40.099  28.336  28.596  1.00  0.00     0.031 C 
ATOM     20  C   UNL A   1      38.904  31.688  32.104  1.00  0.00     0.029 A 
ATOM     21  N   UNL A   1      40.771  30.515  32.473  1.00  0.00    -0.354 N 
ATOM     22  C   UNL A   1      41.965  27.443  29.540  1.00  0.00     0.074 A 
ATOM     23  C   UNL A   1      41.074  27.462  28.407  1.00  0.00     0.031 C 
ATOM     24  C   UNL A   1      39.511  32.229  33.172  1.00  0.00     0.029 A 
ATOM     25  C   UNL A   1      40.696  31.441  33.487  1.00  0.00     0.049 A 
ATOM     26  H   UNL A   1      41.515  29.879  32.377  1.00  0.00     0.167 HD
ATOM     27  C   UNL A   1      43.074  26.679  29.632  1.00  0.00     0.037 A 
ATOM     28  C   UNL A   1      41.482  31.589  34.570  1.00  0.00     0.037 A 
ATOM     29  C   UNL A   1      43.935  26.710  30.781  1.00  0.00     0.049 A 
ATOM     30  C   UNL A   1      42.635  30.632  34.718  1.00  0.00     0.074 A 
ATOM     31  C   UNL A   1      45.042  25.934  31.053  1.00  0.00     0.029 A 
ATOM     32  N   UNL A   1      43.775  27.583  31.851  1.00  0.00    -0.354 N 
ATOM     33  N   UNL A   1      43.043  29.705  33.881  1.00  0.00    -0.248 NA
ATOM     34  C   UNL A   1      43.418  30.716  35.954  1.00  0.00     0.031 C 
ATOM     35  C   UNL A   1      45.522  26.304  32.313  1.00  0.00     0.029 A 
ATOM     36  C   UNL A   1      44.752  27.353  32.798  1.00  0.00     0.049 A 
ATOM     37  H   UNL A   1      43.069  28.266  31.923  1.00  0.00     0.167 HD
ATOM     38  C   UNL A   1      44.140  29.102  34.480  1.00  0.00     0.074 A 
ATOM     39  C   UNL A   1      44.340  29.785  35.746  1.00  0.00     0.031 C 
ATOM     40  C   UNL A   1      44.909  28.076  34.038  1.00  0.00     0.037 A 
BRANCH  27  41
ATOM     41  C   UNL A   1      43.353  25.717  28.514  1.00  0.00     0.058 A 
ATOM     42  C   UNL A   1      44.196  26.093  27.458  1.00  0.00     0.135 A 
ATOM     43  C   UNL A   1      42.803  24.425  28.483  1.00  0.00     0.135 A 
ATOM     44  F   UNL A   1      44.775  27.305  27.453  1.00  0.00    -0.206 F 
ATOM     45  C   UNL A   1      44.467  25.235  26.399  1.00  0.00     0.059 A 
ATOM     46  C   UNL A   1      43.080  23.539  27.444  1.00  0.00     0.059 A 
ATOM     47  F   UNL A   1      42.028  23.996  29.492  1.00  0.00    -0.206 F 
ATOM     48  C   UNL A   1      43.901  23.960  26.399  1.00  0.00     0.060 A 
BRANCH  48  49
ATOM     49  S   UNL A   1      44.283  22.852  25.026  1.00  0.00     0.124 S 
ATOM     50  O   UNL A   1      45.131  21.856  25.671  1.00  0.00    -0.237 OA
ATOM     51  O   UNL A   1      42.957  22.396  24.624  1.00  0.00    -0.237 OA
ATOM     52  O   UNL A   1      44.954  23.723  24.065  1.00  0.00    -0.744 OA
ENDBRANCH  48  49
ENDBRANCH  27  41
BRANCH  28  53
ATOM     53  C   UNL A   1      41.165  32.619  35.596  1.00  0.00     0.058 A 
ATOM     54  C   UNL A   1      41.824  33.861  35.607  1.00  0.00     0.135 A 
ATOM     55  C   UNL A   1      40.217  32.383  36.604  1.00  0.00     0.135 A 
ATOM     56  F   UNL A   1      42.743  34.146  34.671  1.00  0.00    -0.206 F 
ATOM     57  C   UNL A   1      41.579  34.815  36.590  1.00  0.00     0.059 A 
ATOM     58  C   UNL A   1      39.933  33.335  37.583  1.00  0.00     0.059 A 
ATOM     59  F   UNL A   1      39.550  31.221  36.635  1.00  0.00    -0.206 F 
ATOM     60  C   UNL A   1      40.631  34.542  37.575  1.00  0.00     0.060 A 
BRANCH  60  61
ATOM     61  S   UNL A   1      40.330  35.800  38.836  1.00  0.00     0.124 S 
ATOM     62  O   UNL A   1      39.302  35.161  39.649  1.00  0.00    -0.237 OA
ATOM     63  O   UNL A   1      41.642  35.934  39.453  1.00  0.00    -0.237 OA
ATOM     64  O   UNL A   1      39.884  36.957  38.056  1.00  0.00    -0.744 OA
ENDBRANCH  60  61
ENDBRANCH  28  53
BRANCH  40  65
ATOM     65  C   UNL A   1      46.052  27.652  34.911  1.00  0.00     0.058 A 
ATOM     66  C   UNL A   1      45.851  26.692  35.915  1.00  0.00     0.135 A 
ATOM     67  C   UNL A   1      47.305  28.278  34.830  1.00  0.00     0.135 A 
ATOM     68  F   UNL A   1      44.664  26.075  36.034  1.00  0.00    -0.206 F 
ATOM     69  C   UNL A   1      46.846  26.387  36.831  1.00  0.00     0.059 A 
ATOM     70  C   UNL A   1      48.327  27.964  35.718  1.00  0.00     0.059 A 
ATOM     71  F   UNL A   1      47.543  29.194  33.879  1.00  0.00    -0.206 F 
ATOM     72  C   UNL A   1      48.079  27.034  36.728  1.00  0.00     0.060 A 
BRANCH  72  73
ATOM     73  S   UNL A   1      49.355  26.631  37.935  1.00  0.00     0.124 S 
ATOM     74  O   UNL A   1      50.249  27.778  37.817  1.00  0.00    -0.237 OA
ATOM     75  O   UNL A   1      48.590  26.544  39.174  1.00  0.00    -0.237 OA
ATOM     76  O   UNL A   1      49.894  25.363  37.448  1.00  0.00    -0.744 OA
ENDBRANCH  72  73
ENDBRANCH  40  65
ENDBRANCH  14  15
ENDBRANCH   7   9
ENDBRANCH   6   7
ENDBRANCH   5   6
ENDBRANCH   4   5
ENDBRANCH   3   4
ENDBRANCH   2   3
ENDBRANCH   1   2
BRANCH   1  77
ATOM     77  O   UNL A   1      30.962  25.033  26.905  1.00  0.00    -0.377 OA
BRANCH  77  78
ATOM     78  C   UNL A   1      31.994  24.311  26.241  1.00  0.00     0.188 C 
BRANCH  78  79
ATOM     79  C   UNL A   1      33.435  24.854  26.183  1.00  0.00     0.188 C 
BRANCH  79  80
ATOM     80  O   UNL A   1      34.460  23.880  26.298  1.00  0.00    -0.376 OA
BRANCH  80  81
ATOM     81  C   UNL A   1      34.135  22.774  27.140  1.00  0.00     0.202 C 
BRANCH  81  82
ATOM     82  C   UNL A   1      34.195  21.397  26.454  1.00  0.00     0.261 C 
BRANCH  82  83
ATOM     83  O   UNL A   1      32.898  20.838  26.149  1.00  0.00    -0.463 OA
BRANCH  83  84
ATOM     84  C   UNL A   1      32.553  20.698  24.844  1.00  0.00     0.309 C 
ATOM     85  O   UNL A   1      32.073  19.660  24.393  1.00  0.00    -0.252 OA
BRANCH  84  86
ATOM     86  C   UNL A   1      32.713  22.007  24.023  1.00  0.00     0.106 C 
ATOM     87  C   UNL A   1      31.921  22.074  22.697  1.00  0.00     0.061 C 
ATOM     88  C   UNL A   1      33.960  22.354  23.154  1.00  0.00     0.061 C 
ATOM     89  C   UNL A   1      32.994  23.084  22.171  1.00  0.00     0.137 C 
ATOM     90  F   UNL A   1      33.324  22.926  20.865  1.00  0.00    -0.239 F 
BRANCH  89  91
ATOM     91  C   UNL A   1      32.622  24.644  22.371  1.00  0.00    -0.008 A 
ATOM     92  C   UNL A   1      33.657  25.610  22.341  1.00  0.00     0.007 A 
ATOM     93  C   UNL A   1      31.326  25.149  22.597  1.00  0.00     0.046 A 
ATOM     94  C   UNL A   1      33.428  26.981  22.500  1.00  0.00     0.003 A 
ATOM     95  C   UNL A   1      31.097  26.519  22.765  1.00  0.00     0.123 A 
ATOM     96  C   UNL A   1      32.136  27.438  22.714  1.00  0.00     0.039 A 
ATOM     97  F   UNL A   1      29.850  26.958  22.984  1.00  0.00    -0.207 F 
ENDBRANCH  89  91
ENDBRANCH  84  86
ENDBRANCH  83  84
ENDBRANCH  82  83
ENDBRANCH  81  82
ENDBRANCH  80  81
ENDBRANCH  79  80
ENDBRANCH  78  79
ENDBRANCH  77  78
ENDBRANCH   1  77
TORSDOF 24
ENDMDL
MODEL 3
REMARK VINA RESULT:      -7.0      1.199      8.277
REMARK SMILES O=C(OCCOCCOCCOCCOC(=O)[C@H]1C[C@](F)(c2cccc(F)c2)C1)c1ccc(-c2c3nc(c(-c4c(F)cc(S(=O)(=O)[O-])cc4F)c4ccc([nH]4)c(-c4c(F)cc(S(=O)(=O)[O-])cc4F)c4nc(c(-c5c(F)cc(S(=O)(=O)[O-])cc5F)c5ccc2[nH]5)C=C4)C=C3)cc1
REMARK SMILES IDX 8 1 7 2 6 3 5 4 4 5 3 6 2 7 1 8 30 9 31 10 95 11 32 12 94 13
REMARK SMILES IDX 33 14 34 15 35 16 88 17 36 18 93 19 87 20 89 21 37 22 92 23
REMARK SMILES IDX 86 24 85 25 38 27 72 28 51 29 71 30 52 31 55 32 70 33 90 34
REMARK SMILES IDX 53 35 54 36 69 38 91 39 56 40 39 41 40 42 49 43 41 44 42 45
REMARK SMILES IDX 48 46 50 47 43 48 44 49 45 50 46 51 47 52 73 53 74 54 83 55
REMARK SMILES IDX 75 56 76 57 82 58 84 59 77 60 78 61 79 62 80 63 81 64 57 65
REMARK SMILES IDX 58 66 67 67 59 68 60 69 66 70 68 71 61 72 62 73 63 74 64 75
REMARK SMILES IDX 65 76 9 77 10 78 11 79 12 80 13 81 14 82 15 83 16 84 17 85
REMARK SMILES IDX 18 86 19 87 29 88 20 89 21 90 22 91 23 92 28 93 24 94 26 95
REMARK SMILES IDX 25 96 27 97
REMARK H PARENT 89 26 55 37
REMARK Flexibility Score: inf
ROOT
ATOM      1  C   UNL A   1      36.131  33.698  31.325  1.00  0.00     0.188 C 
ENDROOT
BRANCH   1   2
ATOM      2  C   UNL A   1      36.545  33.229  29.935  1.00  0.00     0.188 C 
BRANCH   2   3
ATOM      3  O   UNL A   1      35.700  33.770  28.924  1.00  0.00    -0.376 OA
BRANCH   3   4
ATOM      4  C   UNL A   1      35.271  32.876  27.899  1.00  0.00     0.202 C 
BRANCH   4   5
ATOM      5  C   UNL A   1      33.877  32.282  28.091  1.00  0.00     0.261 C 
BRANCH   5   6
ATOM      6  O   UNL A   1      33.871  30.855  28.240  1.00  0.00    -0.460 OA
BRANCH   6   7
ATOM      7  C   UNL A   1      34.705  29.941  27.689  1.00  0.00     0.338 C 
ATOM      8  O   UNL A   1      34.250  29.186  26.830  1.00  0.00    -0.246 OA
BRANCH   7   9
ATOM      9  C   UNL A   1      36.146  29.780  28.056  1.00  0.00     0.060 A 
ATOM     10  C   UNL A   1      37.226  29.966  27.196  1.00  0.00     0.016 A 
ATOM     11  C   UNL A   1      36.428  29.506  29.404  1.00  0.00     0.016 A 
ATOM     12  C   UNL A   1      38.536  29.838  27.617  1.00  0.00     0.010 A 
ATOM     13  C   UNL A   1      37.748  29.383  29.850  1.00  0.00     0.010 A 
ATOM     14  C   UNL A   1      38.801  29.523  28.940  1.00  0.00    -0.014 A 
BRANCH  14  15
ATOM     15  C   UNL A   1      40.178  29.125  29.257  1.00  0.00     0.031 A 
ATOM     16  C   UNL A   1      40.964  30.048  30.134  1.00  0.00     0.074 A 
ATOM     17  C   UNL A   1      40.611  27.894  28.931  1.00  0.00     0.049 A 
ATOM     18  N   UNL A   1      42.207  29.970  30.509  1.00  0.00    -0.248 NA
ATOM     19  C   UNL A   1      40.241  31.214  30.682  1.00  0.00     0.031 C 
ATOM     20  C   UNL A   1      39.812  26.872  28.245  1.00  0.00     0.029 A 
ATOM     21  N   UNL A   1      41.806  27.277  29.170  1.00  0.00    -0.354 N 
ATOM     22  C   UNL A   1      42.427  31.091  31.299  1.00  0.00     0.074 A 
ATOM     23  C   UNL A   1      41.194  31.838  31.353  1.00  0.00     0.031 C 
ATOM     24  C   UNL A   1      40.540  25.750  28.132  1.00  0.00     0.029 A 
ATOM     25  C   UNL A   1      41.875  26.002  28.659  1.00  0.00     0.049 A 
ATOM     26  H   UNL A   1      42.546  27.704  29.658  1.00  0.00     0.167 HD
ATOM     27  C   UNL A   1      43.572  31.454  31.915  1.00  0.00     0.037 A 
ATOM     28  C   UNL A   1      42.926  25.163  28.590  1.00  0.00     0.037 A 
ATOM     29  C   UNL A   1      44.768  30.663  31.837  1.00  0.00     0.049 A 
ATOM     30  C   UNL A   1      44.230  25.648  29.166  1.00  0.00     0.074 A 
ATOM     31  C   UNL A   1      46.024  30.943  32.336  1.00  0.00     0.029 A 
ATOM     32  N   UNL A   1      44.843  29.421  31.217  1.00  0.00    -0.354 N 
ATOM     33  N   UNL A   1      44.476  26.766  29.813  1.00  0.00    -0.248 NA
ATOM     34  C   UNL A   1      45.402  24.786  28.985  1.00  0.00     0.031 C 
ATOM     35  C   UNL A   1      46.871  29.892  31.971  1.00  0.00     0.029 A 
ATOM     36  C   UNL A   1      46.130  28.928  31.300  1.00  0.00     0.049 A 
ATOM     37  H   UNL A   1      44.089  28.960  30.781  1.00  0.00     0.167 HD
ATOM     38  C   UNL A   1      45.826  26.736  30.131  1.00  0.00     0.074 A 
ATOM     39  C   UNL A   1      46.340  25.479  29.618  1.00  0.00     0.031 C 
ATOM     40  C   UNL A   1      46.580  27.659  30.779  1.00  0.00     0.037 A 
BRANCH  27  41
ATOM     41  C   UNL A   1      43.590  32.769  32.636  1.00  0.00     0.058 A 
ATOM     42  C   UNL A   1      43.269  32.826  34.001  1.00  0.00     0.135 A 
ATOM     43  C   UNL A   1      43.931  33.970  31.994  1.00  0.00     0.135 A 
ATOM     44  F   UNL A   1      42.966  31.703  34.672  1.00  0.00    -0.206 F 
ATOM     45  C   UNL A   1      43.262  34.027  34.700  1.00  0.00     0.059 A 
ATOM     46  C   UNL A   1      43.955  35.183  32.681  1.00  0.00     0.059 A 
ATOM     47  F   UNL A   1      44.295  33.967  30.702  1.00  0.00    -0.206 F 
ATOM     48  C   UNL A   1      43.603  35.202  34.030  1.00  0.00     0.060 A 
BRANCH  48  49
ATOM     49  S   UNL A   1      43.610  36.749  34.960  1.00  0.00     0.124 S 
ATOM     50  O   UNL A   1      45.029  37.083  34.976  1.00  0.00    -0.237 OA
ATOM     51  O   UNL A   1      42.763  37.605  34.135  1.00  0.00    -0.237 OA
ATOM     52  O   UNL A   1      43.037  36.371  36.249  1.00  0.00    -0.744 OA
ENDBRANCH  48  49
ENDBRANCH  27  41
BRANCH  28  53
ATOM     53  C   UNL A   1      42.795  23.845  27.912  1.00  0.00     0.058 A 
ATOM     54  C   UNL A   1      42.548  22.672  28.646  1.00  0.00     0.135 A 
ATOM     55  C   UNL A   1      42.938  23.719  26.522  1.00  0.00     0.135 A 
ATOM     56  F   UNL A   1      42.404  22.726  29.979  1.00  0.00    -0.206 F 
ATOM     57  C   UNL A   1      42.477  21.423  28.034  1.00  0.00     0.059 A 
ATOM     58  C   UNL A   1      42.841  22.483  25.883  1.00  0.00     0.059 A 
ATOM     59  F   UNL A   1      43.163  24.807  25.771  1.00  0.00    -0.206 F 
ATOM     60  C   UNL A   1      42.625  21.340  26.650  1.00  0.00     0.060 A 
BRANCH  60  61
ATOM     61  S   UNL A   1      42.522  19.708  25.883  1.00  0.00     0.124 S 
ATOM     62  O   UNL A   1      43.519  19.817  24.825  1.00  0.00    -0.237 OA
ATOM     63  O   UNL A   1      42.861  18.827  26.992  1.00  0.00    -0.237 OA
ATOM     64  O   UNL A   1      41.132  19.637  25.429  1.00  0.00    -0.744 OA
ENDBRANCH  60  61
ENDBRANCH  28  53
BRANCH  40  65
ATOM     65  C   UNL A   1      48.027  27.331  30.995  1.00  0.00     0.058 A 
ATOM     66  C   UNL A   1      48.982  27.702  30.035  1.00  0.00     0.135 A 
ATOM     67  C   UNL A   1      48.446  26.555  32.085  1.00  0.00     0.135 A 
ATOM     68  F   UNL A   1      48.623  28.436  28.970  1.00  0.00    -0.206 F 
ATOM     69  C   UNL A   1      50.302  27.286  30.133  1.00  0.00     0.059 A 
ATOM     70  C   UNL A   1      49.770  26.154  32.220  1.00  0.00     0.059 A 
ATOM     71  F   UNL A   1      47.567  26.187  33.031  1.00  0.00    -0.206 F 
ATOM     72  C   UNL A   1      50.684  26.507  31.226  1.00  0.00     0.060 A 
BRANCH  72  73
ATOM     73  S   UNL A   1      52.401  25.969  31.330  1.00  0.00     0.124 S 
ATOM     74  O   UNL A   1      52.261  24.637  31.910  1.00  0.00    -0.237 OA
ATOM     75  O   UNL A   1      52.821  26.014  29.933  1.00  0.00    -0.237 OA
ATOM     76  O   UNL A   1      53.018  26.970  32.196  1.00  0.00    -0.744 OA
ENDBRANCH  72  73
ENDBRANCH  40  65
ENDBRANCH  14  15
ENDBRANCH   7   9
ENDBRANCH   6   7
ENDBRANCH   5   6
ENDBRANCH   4   5
ENDBRANCH   3   4
ENDBRANCH   2   3
ENDBRANCH   1   2
BRANCH   1  77
ATOM     77  O   UNL A   1      36.760  33.015  32.407  1.00  0.00    -0.377 OA
BRANCH  77  78
ATOM     78  C   UNL A   1      36.545  33.553  33.708  1.00  0.00     0.188 C 
BRANCH  78  79
ATOM     79  C   UNL A   1      37.262  32.968  34.940  1.00  0.00     0.188 C 
BRANCH  79  80
ATOM     80  O   UNL A   1      38.480  33.602  35.296  1.00  0.00    -0.376 OA
BRANCH  80  81
ATOM     81  C   UNL A   1      39.653  32.854  34.975  1.00  0.00     0.202 C 
BRANCH  81  82
ATOM     82  C   UNL A   1      39.391  31.496  34.299  1.00  0.00     0.261 C 
BRANCH  82  83
ATOM     83  O   UNL A   1      40.046  30.383  34.946  1.00  0.00    -0.463 OA
BRANCH  83  84
ATOM     84  C   UNL A   1      40.278  29.264  34.214  1.00  0.00     0.309 C 
ATOM     85  O   UNL A   1      39.526  28.893  33.315  1.00  0.00    -0.252 OA
BRANCH  84  86
ATOM     86  C   UNL A   1      41.634  28.583  34.545  1.00  0.00     0.106 C 
ATOM     87  C   UNL A   1      42.454  28.086  33.332  1.00  0.00     0.061 C 
ATOM     88  C   UNL A   1      41.780  27.128  35.085  1.00  0.00     0.061 C 
ATOM     89  C   UNL A   1      43.112  27.029  34.280  1.00  0.00     0.137 C 
ATOM     90  F   UNL A   1      43.317  25.813  33.714  1.00  0.00    -0.239 F 
BRANCH  89  91
ATOM     91  C   UNL A   1      44.519  27.479  34.937  1.00  0.00    -0.008 A 
ATOM     92  C   UNL A   1      45.359  26.495  35.512  1.00  0.00     0.007 A 
ATOM     93  C   UNL A   1      44.995  28.803  35.009  1.00  0.00     0.046 A 
ATOM     94  C   UNL A   1      46.594  26.793  36.098  1.00  0.00     0.003 A 
ATOM     95  C   UNL A   1      46.227  29.103  35.603  1.00  0.00     0.123 A 
ATOM     96  C   UNL A   1      47.031  28.108  36.143  1.00  0.00     0.039 A 
ATOM     97  F   UNL A   1      46.642  30.375  35.657  1.00  0.00    -0.207 F 
ENDBRANCH  89  91
ENDBRANCH  84  86
ENDBRANCH  83  84
ENDBRANCH  82  83
ENDBRANCH  81  82
ENDBRANCH  80  81
ENDBRANCH  79  80
ENDBRANCH  78  79
ENDBRANCH  77  78
ENDBRANCH   1  77
TORSDOF 24
ENDMDL
