MODEL 1
REMARK VINA RESULT:      -9.5      0.000      0.000
REMARK SMILES Nc1c(CC(=O)OCCOCCOCCOCCOC(=O)c2ccc(-c3c4nc(c(-c5c(F)cc(S(=O)(=O)[O-])cc5F)c5ccc([nH]5)c(-c5c(F)cc(S(=O)(=O)[O-])cc5F)c5nc(c(-c6c(F)cc(S(=O)(=O)[O-])cc6F)c6ccc3[nH]6)C=C5)C=C4)cc2)cccc1C(=O)c1ccc(Br)cc1
REMARK SMILES IDX 13 1 12 2 11 3 10 4 9 5 8 6 7 7 5 8 6 9 4 10 3 11 2 12 91 13
REMARK SMILES IDX 88 14 90 15 89 16 1 17 92 20 93 21 94 22 95 23 100 24 96 25
REMARK SMILES IDX 99 26 97 27 98 28 14 29 15 30 16 31 17 32 18 33 19 34 20 35
REMARK SMILES IDX 21 36 22 37 23 38 87 39 24 40 86 41 25 42 26 43 27 44 80 45
REMARK SMILES IDX 28 46 85 47 79 48 81 49 29 50 84 51 78 52 77 53 30 55 64 56
REMARK SMILES IDX 43 57 63 58 44 59 47 60 62 61 82 62 45 63 46 64 61 66 83 67
REMARK SMILES IDX 48 68 31 69 32 70 41 71 33 72 34 73 40 74 42 75 35 76 36 77
REMARK SMILES IDX 37 78 38 79 39 80 65 81 66 82 75 83 67 84 68 85 74 86 76 87
REMARK SMILES IDX 69 88 70 89 71 90 72 91 73 92 49 93 50 94 59 95 51 96 52 97
REMARK SMILES IDX 58 98 60 99 53 100 54 101 55 102 56 103 57 104
REMARK H PARENT 1 18 1 19 81 54 47 65
REMARK Flexibility Score: inf
ROOT
ATOM      1  O   UNL A   1      46.651  20.901  24.689  1.00  0.00    -0.377 OA
ENDROOT
BRANCH   1   2
ATOM      2  C   UNL A   1      45.790  19.891  24.195  1.00  0.00     0.188 C 
BRANCH   2   3
ATOM      3  C   UNL A   1      45.370  18.831  25.242  1.00  0.00     0.188 C 
BRANCH   3   4
ATOM      4  O   UNL A   1      44.029  18.351  25.338  1.00  0.00    -0.376 OA
BRANCH   4   5
ATOM      5  C   UNL A   1      43.544  17.895  26.589  1.00  0.00     0.202 C 
BRANCH   5   6
ATOM      6  C   UNL A   1      42.415  18.723  27.232  1.00  0.00     0.261 C 
BRANCH   6   7
ATOM      7  O   UNL A   1      41.825  19.732  26.380  1.00  0.00    -0.463 OA
BRANCH   7   8
ATOM      8  C   UNL A   1      40.757  20.406  26.863  1.00  0.00     0.310 C 
ATOM      9  O   UNL A   1      40.657  20.775  28.031  1.00  0.00    -0.252 OA
BRANCH   8  10
ATOM     10  C   UNL A   1      39.674  20.749  25.852  1.00  0.00     0.160 C 
BRANCH  10  11
ATOM     11  C   UNL A   1      38.817  22.008  25.958  1.00  0.00    -0.013 A 
ATOM     12  C   UNL A   1      37.490  22.072  25.473  1.00  0.00     0.047 A 
ATOM     13  C   UNL A   1      36.703  23.213  25.805  1.00  0.00     0.046 A 
ATOM     14  C   UNL A   1      39.354  23.129  26.637  1.00  0.00     0.006 A 
ATOM     15  C   UNL A   1      37.289  24.335  26.413  1.00  0.00     0.014 A 
ATOM     16  C   UNL A   1      38.616  24.298  26.816  1.00  0.00     0.001 A 
BRANCH  12  17
ATOM     17  N   UNL A   1      36.960  20.964  24.809  1.00  0.00    -0.398 N 
ATOM     18  H   UNL A   1      37.549  20.225  24.536  1.00  0.00     0.156 HD
ATOM     19  H   UNL A   1      35.996  20.924  24.611  1.00  0.00     0.156 HD
ENDBRANCH  12  17
BRANCH  13  20
ATOM     20  C   UNL A   1      35.224  23.319  25.593  1.00  0.00     0.195 C 
ATOM     21  O   UNL A   1      34.473  22.409  25.935  1.00  0.00    -0.289 OA
BRANCH  20  22
ATOM     22  C   UNL A   1      34.633  24.498  24.926  1.00  0.00     0.023 A 
ATOM     23  C   UNL A   1      34.423  24.441  23.544  1.00  0.00     0.013 A 
ATOM     24  C   UNL A   1      34.197  25.604  25.668  1.00  0.00     0.013 A 
ATOM     25  C   UNL A   1      33.688  25.447  22.919  1.00  0.00     0.016 A 
ATOM     26  C   UNL A   1      33.461  26.607  25.038  1.00  0.00     0.016 A 
ATOM     27  C   UNL A   1      33.191  26.513  23.672  1.00  0.00     0.018 A 
ATOM     28  Br  UNL A   1      32.110  27.823  22.845  1.00  0.00    -0.051 Br
ENDBRANCH  20  22
ENDBRANCH  13  20
ENDBRANCH  10  11
ENDBRANCH   8  10
ENDBRANCH   7   8
ENDBRANCH   6   7
ENDBRANCH   5   6
ENDBRANCH   4   5
ENDBRANCH   3   4
ENDBRANCH   2   3
ENDBRANCH   1   2
BRANCH   1  29
ATOM     29  C   UNL A   1      46.182  22.222  24.504  1.00  0.00     0.188 C 
BRANCH  29  30
ATOM     30  C   UNL A   1      44.868  22.297  23.715  1.00  0.00     0.188 C 
BRANCH  30  31
ATOM     31  O   UNL A   1      43.738  21.961  24.515  1.00  0.00    -0.376 OA
BRANCH  31  32
ATOM     32  C   UNL A   1      43.507  22.655  25.726  1.00  0.00     0.202 C 
BRANCH  32  33
ATOM     33  C   UNL A   1      42.645  23.931  25.704  1.00  0.00     0.261 C 
BRANCH  33  34
ATOM     34  O   UNL A   1      43.123  25.059  26.445  1.00  0.00    -0.460 OA
BRANCH  34  35
ATOM     35  C   UNL A   1      42.603  26.264  26.139  1.00  0.00     0.338 C 
ATOM     36  O   UNL A   1      41.933  26.534  25.152  1.00  0.00    -0.246 OA
BRANCH  35  37
ATOM     37  C   UNL A   1      42.775  27.156  27.307  1.00  0.00     0.060 A 
ATOM     38  C   UNL A   1      42.495  26.640  28.579  1.00  0.00     0.016 A 
ATOM     39  C   UNL A   1      43.221  28.475  27.166  1.00  0.00     0.016 A 
ATOM     40  C   UNL A   1      42.602  27.453  29.704  1.00  0.00     0.010 A 
ATOM     41  C   UNL A   1      43.298  29.301  28.294  1.00  0.00     0.010 A 
ATOM     42  C   UNL A   1      42.939  28.805  29.559  1.00  0.00    -0.014 A 
BRANCH  42  43
ATOM     43  C   UNL A   1      42.649  29.722  30.690  1.00  0.00     0.031 A 
ATOM     44  C   UNL A   1      41.352  30.489  30.655  1.00  0.00     0.074 A 
ATOM     45  C   UNL A   1      43.455  29.797  31.763  1.00  0.00     0.049 A 
ATOM     46  N   UNL A   1      40.841  31.301  31.542  1.00  0.00    -0.248 NA
ATOM     47  C   UNL A   1      40.515  30.306  29.457  1.00  0.00     0.031 C 
ATOM     48  C   UNL A   1      44.709  29.065  31.933  1.00  0.00     0.029 A 
ATOM     49  N   UNL A   1      43.329  30.522  32.922  1.00  0.00    -0.354 N 
ATOM     50  C   UNL A   1      39.628  31.727  31.010  1.00  0.00     0.074 A 
ATOM     51  C   UNL A   1      39.496  31.114  29.707  1.00  0.00     0.031 C 
ATOM     52  C   UNL A   1      45.239  29.380  33.129  1.00  0.00     0.029 A 
ATOM     53  C   UNL A   1      44.376  30.355  33.796  1.00  0.00     0.049 A 
ATOM     54  H   UNL A   1      42.559  31.108  33.109  1.00  0.00     0.167 HD
ATOM     55  C   UNL A   1      38.699  32.541  31.563  1.00  0.00     0.037 A 
ATOM     56  C   UNL A   1      44.613  30.933  34.991  1.00  0.00     0.037 A 
ATOM     57  C   UNL A   1      38.837  33.150  32.859  1.00  0.00     0.049 A 
ATOM     58  C   UNL A   1      43.597  31.895  35.556  1.00  0.00     0.074 A 
ATOM     59  C   UNL A   1      37.952  33.985  33.517  1.00  0.00     0.029 A 
ATOM     60  N   UNL A   1      39.936  32.995  33.693  1.00  0.00    -0.354 N 
ATOM     61  N   UNL A   1      42.444  32.271  35.053  1.00  0.00    -0.248 NA
ATOM     62  C   UNL A   1      43.910  32.504  36.856  1.00  0.00     0.031 C 
ATOM     63  C   UNL A   1      38.541  34.385  34.719  1.00  0.00     0.029 A 
ATOM     64  C   UNL A   1      39.764  33.744  34.846  1.00  0.00     0.049 A 
ATOM     65  H   UNL A   1      40.722  32.436  33.494  1.00  0.00     0.167 HD
ATOM     66  C   UNL A   1      41.884  33.137  35.987  1.00  0.00     0.074 A 
ATOM     67  C   UNL A   1      42.815  33.213  37.094  1.00  0.00     0.031 C 
ATOM     68  C   UNL A   1      40.705  33.810  35.937  1.00  0.00     0.037 A 
BRANCH  55  69
ATOM     69  C   UNL A   1      37.471  32.849  30.749  1.00  0.00     0.058 A 
ATOM     70  C   UNL A   1      37.484  33.791  29.708  1.00  0.00     0.135 A 
ATOM     71  C   UNL A   1      36.266  32.172  31.002  1.00  0.00     0.135 A 
ATOM     72  F   UNL A   1      38.601  34.486  29.437  1.00  0.00    -0.206 F 
ATOM     73  C   UNL A   1      36.341  34.070  28.964  1.00  0.00     0.059 A 
ATOM     74  C   UNL A   1      35.120  32.412  30.250  1.00  0.00     0.059 A 
ATOM     75  F   UNL A   1      36.194  31.266  31.990  1.00  0.00    -0.206 F 
ATOM     76  C   UNL A   1      35.164  33.373  29.241  1.00  0.00     0.060 A 
BRANCH  76  77
ATOM     77  S   UNL A   1      33.694  33.738  28.260  1.00  0.00     0.124 S 
ATOM     78  O   UNL A   1      32.823  34.353  29.258  1.00  0.00    -0.237 OA
ATOM     79  O   UNL A   1      34.219  34.637  27.237  1.00  0.00    -0.237 OA
ATOM     80  O   UNL A   1      33.268  32.427  27.781  1.00  0.00    -0.744 OA
ENDBRANCH  76  77
ENDBRANCH  55  69
BRANCH  56  81
ATOM     81  C   UNL A   1      45.869  30.631  35.732  1.00  0.00     0.058 A 
ATOM     82  C   UNL A   1      46.004  29.466  36.502  1.00  0.00     0.135 A 
ATOM     83  C   UNL A   1      46.960  31.514  35.693  1.00  0.00     0.135 A 
ATOM     84  F   UNL A   1      44.986  28.596  36.584  1.00  0.00    -0.206 F 
ATOM     85  C   UNL A   1      47.167  29.193  37.217  1.00  0.00     0.059 A 
ATOM     86  C   UNL A   1      48.144  31.250  36.375  1.00  0.00     0.059 A 
ATOM     87  F   UNL A   1      46.889  32.642  34.968  1.00  0.00    -0.206 F 
ATOM     88  C   UNL A   1      48.234  30.090  37.143  1.00  0.00     0.060 A 
BRANCH  88  89
ATOM     89  S   UNL A   1      49.756  29.703  38.035  1.00  0.00     0.124 S 
ATOM     90  O   UNL A   1      50.240  28.539  37.302  1.00  0.00    -0.237 OA
ATOM     91  O   UNL A   1      50.528  30.931  37.868  1.00  0.00    -0.237 OA
ATOM     92  O   UNL A   1      49.291  29.445  39.395  1.00  0.00    -0.744 OA
ENDBRANCH  88  89
ENDBRANCH  56  81
BRANCH  68  93
ATOM     93  C   UNL A   1      40.340  34.658  37.128  1.00  0.00     0.058 A 
ATOM     94  C   UNL A   1      40.903  35.928  37.336  1.00  0.00     0.135 A 
ATOM     95  C   UNL A   1      39.389  34.206  38.058  1.00  0.00     0.135 A 
ATOM     96  F   UNL A   1      41.817  36.410  36.479  1.00  0.00    -0.206 F 
ATOM     97  C   UNL A   1      40.570  36.699  38.445  1.00  0.00     0.059 A 
ATOM     98  C   UNL A   1      39.014  34.976  39.155  1.00  0.00     0.059 A 
ATOM     99  F   UNL A   1      38.804  33.008  37.900  1.00  0.00    -0.206 F 
ATOM    100  C   UNL A   1      39.624  36.213  39.351  1.00  0.00     0.060 A 
BRANCH 100 101
ATOM    101  S   UNL A   1      39.201  37.224  40.785  1.00  0.00     0.124 S 
ATOM    102  O   UNL A   1      38.435  38.302  40.169  1.00  0.00    -0.237 OA
ATOM    103  O   UNL A   1      38.437  36.292  41.608  1.00  0.00    -0.237 OA
ATOM    104  O   UNL A   1      40.502  37.608  41.326  1.00  0.00    -0.744 OA
ENDBRANCH 100 101
ENDBRANCH  68  93
ENDBRANCH  42  43
ENDBRANCH  35  37
ENDBRANCH  34  35
ENDBRANCH  33  34
ENDBRANCH  32  33
ENDBRANCH  31  32
ENDBRANCH  30  31
ENDBRANCH  29  30
ENDBRANCH   1  29
TORSDOF 27
ENDMDL
MODEL 2
REMARK VINA RESULT:      -8.6      5.884      8.217
REMARK SMILES Nc1c(CC(=O)OCCOCCOCCOCCOC(=O)c2ccc(-c3c4nc(c(-c5c(F)cc(S(=O)(=O)[O-])cc5F)c5ccc([nH]5)c(-c5c(F)cc(S(=O)(=O)[O-])cc5F)c5nc(c(-c6c(F)cc(S(=O)(=O)[O-])cc6F)c6ccc3[nH]6)C=C5)C=C4)cc2)cccc1C(=O)c1ccc(Br)cc1
REMARK SMILES IDX 13 1 12 2 11 3 10 4 9 5 8 6 7 7 5 8 6 9 4 10 3 11 2 12 91 13
REMARK SMILES IDX 88 14 90 15 89 16 1 17 92 20 93 21 94 22 95 23 100 24 96 25
REMARK SMILES IDX 99 26 97 27 98 28 14 29 15 30 16 31 17 32 18 33 19 34 20 35
REMARK SMILES IDX 21 36 22 37 23 38 87 39 24 40 86 41 25 42 26 43 27 44 80 45
REMARK SMILES IDX 28 46 85 47 79 48 81 49 29 50 84 51 78 52 77 53 30 55 64 56
REMARK SMILES IDX 43 57 63 58 44 59 47 60 62 61 82 62 45 63 46 64 61 66 83 67
REMARK SMILES IDX 48 68 31 69 32 70 41 71 33 72 34 73 40 74 42 75 35 76 36 77
REMARK SMILES IDX 37 78 38 79 39 80 65 81 66 82 75 83 67 84 68 85 74 86 76 87
REMARK SMILES IDX 69 88 70 89 71 90 72 91 73 92 49 93 50 94 59 95 51 96 52 97
REMARK SMILES IDX 58 98 60 99 53 100 54 101 55 102 56 103 57 104
REMARK H PARENT 1 18 1 19 81 54 47 65
REMARK Flexibility Score: inf
ROOT
ATOM      1  O   UNL A   1      46.359  20.890  24.731  1.00  0.00    -0.377 OA
ENDROOT
BRANCH   1   2
ATOM      2  C   UNL A   1      45.301  20.062  24.284  1.00  0.00     0.188 C 
BRANCH   2   3
ATOM      3  C   UNL A   1      44.965  18.878  25.224  1.00  0.00     0.188 C 
BRANCH   3   4
ATOM      4  O   UNL A   1      43.638  18.369  25.355  1.00  0.00    -0.376 OA
BRANCH   4   5
ATOM      5  C   UNL A   1      43.186  17.933  26.625  1.00  0.00     0.202 C 
BRANCH   5   6
ATOM      6  C   UNL A   1      42.319  18.924  27.425  1.00  0.00     0.261 C 
BRANCH   6   7
ATOM      7  O   UNL A   1      41.991  20.153  26.737  1.00  0.00    -0.463 OA
BRANCH   7   8
ATOM      8  C   UNL A   1      40.809  20.737  27.036  1.00  0.00     0.310 C 
ATOM      9  O   UNL A   1      40.625  21.425  28.038  1.00  0.00    -0.252 OA
BRANCH   8  10
ATOM     10  C   UNL A   1      39.695  20.545  26.019  1.00  0.00     0.160 C 
BRANCH  10  11
ATOM     11  C   UNL A   1      38.563  21.553  25.838  1.00  0.00    -0.013 A 
ATOM     12  C   UNL A   1      37.275  21.182  25.387  1.00  0.00     0.047 A 
ATOM     13  C   UNL A   1      36.231  22.150  25.451  1.00  0.00     0.046 A 
ATOM     14  C   UNL A   1      38.799  22.899  26.207  1.00  0.00     0.006 A 
ATOM     15  C   UNL A   1      36.517  23.492  25.751  1.00  0.00     0.014 A 
ATOM     16  C   UNL A   1      37.801  23.869  26.115  1.00  0.00     0.001 A 
BRANCH  12  17
ATOM     17  N   UNL A   1      37.043  19.853  25.027  1.00  0.00    -0.398 N 
ATOM     18  H   UNL A   1      37.649  19.144  25.340  1.00  0.00     0.156 HD
ATOM     19  H   UNL A   1      36.272  19.626  24.458  1.00  0.00     0.156 HD
ENDBRANCH  12  17
BRANCH  13  20
ATOM     20  C   UNL A   1      34.776  21.849  25.259  1.00  0.00     0.195 C 
ATOM     21  O   UNL A   1      34.270  20.847  25.756  1.00  0.00    -0.289 OA
BRANCH  20  22
ATOM     22  C   UNL A   1      33.921  22.723  24.427  1.00  0.00     0.023 A 
ATOM     23  C   UNL A   1      32.773  23.271  25.008  1.00  0.00     0.013 A 
ATOM     24  C   UNL A   1      34.303  23.080  23.128  1.00  0.00     0.013 A 
ATOM     25  C   UNL A   1      32.058  24.253  24.322  1.00  0.00     0.016 A 
ATOM     26  C   UNL A   1      33.587  24.064  22.447  1.00  0.00     0.016 A 
ATOM     27  C   UNL A   1      32.481  24.660  23.056  1.00  0.00     0.018 A 
ATOM     28  Br  UNL A   1      31.575  26.062  22.170  1.00  0.00    -0.051 Br
ENDBRANCH  20  22
ENDBRANCH  13  20
ENDBRANCH  10  11
ENDBRANCH   8  10
ENDBRANCH   7   8
ENDBRANCH   6   7
ENDBRANCH   5   6
ENDBRANCH   4   5
ENDBRANCH   3   4
ENDBRANCH   2   3
ENDBRANCH   1   2
BRANCH   1  29
ATOM     29  C   UNL A   1      46.037  22.264  24.825  1.00  0.00     0.188 C 
BRANCH  29  30
ATOM     30  C   UNL A   1      44.534  22.527  24.992  1.00  0.00     0.188 C 
BRANCH  30  31
ATOM     31  O   UNL A   1      44.118  22.435  26.351  1.00  0.00    -0.376 OA
BRANCH  31  32
ATOM     32  C   UNL A   1      44.487  23.450  27.265  1.00  0.00     0.202 C 
BRANCH  32  33
ATOM     33  C   UNL A   1      43.527  24.632  27.498  1.00  0.00     0.261 C 
BRANCH  33  34
ATOM     34  O   UNL A   1      44.021  25.945  27.210  1.00  0.00    -0.460 OA
BRANCH  34  35
ATOM     35  C   UNL A   1      43.140  26.844  26.728  1.00  0.00     0.338 C 
ATOM     36  O   UNL A   1      42.069  26.593  26.193  1.00  0.00    -0.246 OA
BRANCH  35  37
ATOM     37  C   UNL A   1      43.568  28.193  27.161  1.00  0.00     0.060 A 
ATOM     38  C   UNL A   1      44.574  28.288  28.131  1.00  0.00     0.016 A 
ATOM     39  C   UNL A   1      43.006  29.353  26.615  1.00  0.00     0.016 A 
ATOM     40  C   UNL A   1      44.981  29.534  28.600  1.00  0.00     0.010 A 
ATOM     41  C   UNL A   1      43.393  30.604  27.109  1.00  0.00     0.010 A 
ATOM     42  C   UNL A   1      44.345  30.694  28.140  1.00  0.00    -0.014 A 
BRANCH  42  43
ATOM     43  C   UNL A   1      44.502  31.938  28.934  1.00  0.00     0.031 A 
ATOM     44  C   UNL A   1      45.604  32.887  28.541  1.00  0.00     0.074 A 
ATOM     45  C   UNL A   1      43.634  32.269  29.907  1.00  0.00     0.049 A 
ATOM     46  N   UNL A   1      45.909  34.059  29.032  1.00  0.00    -0.248 NA
ATOM     47  C   UNL A   1      46.475  32.457  27.434  1.00  0.00     0.031 C 
ATOM     48  C   UNL A   1      42.499  31.455  30.342  1.00  0.00     0.029 A 
ATOM     49  N   UNL A   1      43.569  33.388  30.699  1.00  0.00    -0.354 N 
ATOM     50  C   UNL A   1      47.004  34.503  28.299  1.00  0.00     0.074 A 
ATOM     51  C   UNL A   1      47.336  33.459  27.355  1.00  0.00     0.031 C 
ATOM     52  C   UNL A   1      41.850  32.103  31.325  1.00  0.00     0.029 A 
ATOM     53  C   UNL A   1      42.538  33.364  31.607  1.00  0.00     0.049 A 
ATOM     54  H   UNL A   1      44.202  34.138  30.622  1.00  0.00     0.167 HD
ATOM     55  C   UNL A   1      47.666  35.680  28.392  1.00  0.00     0.037 A 
ATOM     56  C   UNL A   1      42.198  34.253  32.562  1.00  0.00     0.037 A 
ATOM     57  C   UNL A   1      47.332  36.714  29.336  1.00  0.00     0.049 A 
ATOM     58  C   UNL A   1      42.995  35.527  32.695  1.00  0.00     0.074 A 
ATOM     59  C   UNL A   1      47.933  37.948  29.509  1.00  0.00     0.029 A 
ATOM     60  N   UNL A   1      46.311  36.631  30.273  1.00  0.00    -0.354 N 
ATOM     61  N   UNL A   1      44.015  35.945  31.981  1.00  0.00    -0.248 NA
ATOM     62  C   UNL A   1      42.589  36.456  33.759  1.00  0.00     0.031 C 
ATOM     63  C   UNL A   1      47.316  38.585  30.590  1.00  0.00     0.029 A 
ATOM     64  C   UNL A   1      46.285  37.779  31.047  1.00  0.00     0.049 A 
ATOM     65  H   UNL A   1      45.697  35.868  30.373  1.00  0.00     0.167 HD
ATOM     66  C   UNL A   1      44.352  37.195  32.491  1.00  0.00     0.074 A 
ATOM     67  C   UNL A   1      43.415  37.473  33.560  1.00  0.00     0.031 C 
ATOM     68  C   UNL A   1      45.346  38.039  32.111  1.00  0.00     0.037 A 
BRANCH  55  69
ATOM     69  C   UNL A   1      48.838  35.894  27.474  1.00  0.00     0.058 A 
ATOM     70  C   UNL A   1      48.688  36.433  26.186  1.00  0.00     0.135 A 
ATOM     71  C   UNL A   1      50.138  35.574  27.899  1.00  0.00     0.135 A 
ATOM     72  F   UNL A   1      47.466  36.735  25.717  1.00  0.00    -0.206 F 
ATOM     73  C   UNL A   1      49.779  36.623  25.343  1.00  0.00     0.059 A 
ATOM     74  C   UNL A   1      51.247  35.786  27.086  1.00  0.00     0.059 A 
ATOM     75  F   UNL A   1      50.341  35.049  29.118  1.00  0.00    -0.206 F 
ATOM     76  C   UNL A   1      51.056  36.299  25.804  1.00  0.00     0.060 A 
BRANCH  76  77
ATOM     77  S   UNL A   1      52.462  36.562  24.703  1.00  0.00     0.124 S 
ATOM     78  O   UNL A   1      52.770  37.967  24.954  1.00  0.00    -0.237 OA
ATOM     79  O   UNL A   1      53.435  35.600  25.208  1.00  0.00    -0.237 OA
ATOM     80  O   UNL A   1      51.920  36.267  23.380  1.00  0.00    -0.744 OA
ENDBRANCH  76  77
ENDBRANCH  55  69
BRANCH  56  81
ATOM     81  C   UNL A   1      41.058  33.969  33.477  1.00  0.00     0.058 A 
ATOM     82  C   UNL A   1      41.256  33.365  34.729  1.00  0.00     0.135 A 
ATOM     83  C   UNL A   1      39.741  34.287  33.109  1.00  0.00     0.135 A 
ATOM     84  F   UNL A   1      42.493  33.028  35.122  1.00  0.00    -0.206 F 
ATOM     85  C   UNL A   1      40.190  33.073  35.576  1.00  0.00     0.059 A 
ATOM     86  C   UNL A   1      38.662  34.032  33.951  1.00  0.00     0.059 A 
ATOM     87  F   UNL A   1      39.494  34.871  31.927  1.00  0.00    -0.206 F 
ATOM     88  C   UNL A   1      38.896  33.416  35.178  1.00  0.00     0.060 A 
BRANCH  88  89
ATOM     89  S   UNL A   1      37.526  33.078  36.306  1.00  0.00     0.124 S 
ATOM     90  O   UNL A   1      37.870  33.915  37.449  1.00  0.00    -0.237 OA
ATOM     91  O   UNL A   1      36.373  33.509  35.521  1.00  0.00    -0.237 OA
ATOM     92  O   UNL A   1      37.620  31.638  36.526  1.00  0.00    -0.744 OA
ENDBRANCH  88  89
ENDBRANCH  56  81
BRANCH  68  93
ATOM     93  C   UNL A   1      45.449  39.358  32.832  1.00  0.00     0.058 A 
ATOM     94  C   UNL A   1      46.326  39.547  33.912  1.00  0.00     0.135 A 
ATOM     95  C   UNL A   1      44.681  40.458  32.415  1.00  0.00     0.135 A 
ATOM     96  F   UNL A   1      47.084  38.530  34.354  1.00  0.00    -0.206 F 
ATOM     97  C   UNL A   1      46.406  40.765  34.581  1.00  0.00     0.059 A 
ATOM     98  C   UNL A   1      44.771  41.695  33.045  1.00  0.00     0.059 A 
ATOM     99  F   UNL A   1      43.839  40.341  31.376  1.00  0.00    -0.206 F 
ATOM    100  C   UNL A   1      45.622  41.834  34.140  1.00  0.00     0.060 A 
BRANCH 100 101
ATOM    101  S   UNL A   1      45.735  43.408  35.015  1.00  0.00     0.124 S 
ATOM    102  O   UNL A   1      44.543  43.365  35.855  1.00  0.00    -0.237 OA
ATOM    103  O   UNL A   1      47.010  43.284  35.716  1.00  0.00    -0.237 OA
ATOM    104  O   UNL A   1      45.711  44.397  33.941  1.00  0.00    -0.744 OA
ENDBRANCH 100 101
ENDBRANCH  68  93
ENDBRANCH  42  43
ENDBRANCH  35  37
ENDBRANCH  34  35
ENDBRANCH  33  34
ENDBRANCH  32  33
ENDBRANCH  31  32
ENDBRANCH  30  31
ENDBRANCH  29  30
ENDBRANCH   1  29
TORSDOF 27
ENDMDL
MODEL 3
REMARK VINA RESULT:      -8.2      8.530     13.024
REMARK SMILES Nc1c(CC(=O)OCCOCCOCCOCCOC(=O)c2ccc(-c3c4nc(c(-c5c(F)cc(S(=O)(=O)[O-])cc5F)c5ccc([nH]5)c(-c5c(F)cc(S(=O)(=O)[O-])cc5F)c5nc(c(-c6c(F)cc(S(=O)(=O)[O-])cc6F)c6ccc3[nH]6)C=C5)C=C4)cc2)cccc1C(=O)c1ccc(Br)cc1
REMARK SMILES IDX 13 1 12 2 11 3 10 4 9 5 8 6 7 7 5 8 6 9 4 10 3 11 2 12 91 13
REMARK SMILES IDX 88 14 90 15 89 16 1 17 92 20 93 21 94 22 95 23 100 24 96 25
REMARK SMILES IDX 99 26 97 27 98 28 14 29 15 30 16 31 17 32 18 33 19 34 20 35
REMARK SMILES IDX 21 36 22 37 23 38 87 39 24 40 86 41 25 42 26 43 27 44 80 45
REMARK SMILES IDX 28 46 85 47 79 48 81 49 29 50 84 51 78 52 77 53 30 55 64 56
REMARK SMILES IDX 43 57 63 58 44 59 47 60 62 61 82 62 45 63 46 64 61 66 83 67
REMARK SMILES IDX 48 68 31 69 32 70 41 71 33 72 34 73 40 74 42 75 35 76 36 77
REMARK SMILES IDX 37 78 38 79 39 80 65 81 66 82 75 83 67 84 68 85 74 86 76 87
REMARK SMILES IDX 69 88 70 89 71 90 72 91 73 92 49 93 50 94 59 95 51 96 52 97
REMARK SMILES IDX 58 98 60 99 53 100 54 101 55 102 56 103 57 104
REMARK H PARENT 1 18 1 19 81 54 47 65
REMARK Flexibility Score: inf
ROOT
ATOM      1  O   UNL A   1      38.569  28.207  29.683  1.00  0.00    -0.377 OA
ENDROOT
BRANCH   1   2
ATOM      2  C   UNL A   1      39.177  29.201  28.879  1.00  0.00     0.188 C 
BRANCH   2   3
ATOM      3  C   UNL A   1      39.604  28.724  27.470  1.00  0.00     0.188 C 
BRANCH   3   4
ATOM      4  O   UNL A   1      40.904  28.986  26.942  1.00  0.00    -0.376 OA
BRANCH   4   5
ATOM      5  C   UNL A   1      41.973  28.116  27.269  1.00  0.00     0.202 C 
BRANCH   5   6
ATOM      6  C   UNL A   1      41.632  26.617  27.380  1.00  0.00     0.261 C 
BRANCH   6   7
ATOM      7  O   UNL A   1      42.357  25.893  28.401  1.00  0.00    -0.463 OA
BRANCH   7   8
ATOM      8  C   UNL A   1      42.894  24.701  28.055  1.00  0.00     0.310 C 
ATOM      9  O   UNL A   1      42.854  23.703  28.771  1.00  0.00    -0.252 OA
BRANCH   8  10
ATOM     10  C   UNL A   1      43.521  24.631  26.671  1.00  0.00     0.160 C 
BRANCH  10  11
ATOM     11  C   UNL A   1      44.993  24.944  26.417  1.00  0.00    -0.013 A 
ATOM     12  C   UNL A   1      45.416  26.019  25.601  1.00  0.00     0.047 A 
ATOM     13  C   UNL A   1      46.800  26.359  25.595  1.00  0.00     0.046 A 
ATOM     14  C   UNL A   1      45.968  24.166  27.087  1.00  0.00     0.006 A 
ATOM     15  C   UNL A   1      47.745  25.522  26.209  1.00  0.00     0.014 A 
ATOM     16  C   UNL A   1      47.332  24.420  26.943  1.00  0.00     0.001 A 
BRANCH  12  17
ATOM     17  N   UNL A   1      44.453  26.788  24.945  1.00  0.00    -0.398 N 
ATOM     18  H   UNL A   1      43.498  26.572  25.044  1.00  0.00     0.156 HD
ATOM     19  H   UNL A   1      44.730  27.546  24.380  1.00  0.00     0.156 HD
ENDBRANCH  12  17
BRANCH  13  20
ATOM     20  C   UNL A   1      47.368  27.610  24.997  1.00  0.00     0.195 C 
ATOM     21  O   UNL A   1      46.974  28.715  25.360  1.00  0.00    -0.289 OA
BRANCH  20  22
ATOM     22  C   UNL A   1      48.382  27.549  23.923  1.00  0.00     0.023 A 
ATOM     23  C   UNL A   1      47.964  27.761  22.606  1.00  0.00     0.013 A 
ATOM     24  C   UNL A   1      49.741  27.388  24.223  1.00  0.00     0.013 A 
ATOM     25  C   UNL A   1      48.917  27.911  21.599  1.00  0.00     0.016 A 
ATOM     26  C   UNL A   1      50.690  27.540  23.213  1.00  0.00     0.016 A 
ATOM     27  C   UNL A   1      50.275  27.822  21.911  1.00  0.00     0.018 A 
ATOM     28  Br  UNL A   1      51.568  28.125  20.567  1.00  0.00    -0.051 Br
ENDBRANCH  20  22
ENDBRANCH  13  20
ENDBRANCH  10  11
ENDBRANCH   8  10
ENDBRANCH   7   8
ENDBRANCH   6   7
ENDBRANCH   5   6
ENDBRANCH   4   5
ENDBRANCH   3   4
ENDBRANCH   2   3
ENDBRANCH   1   2
BRANCH   1  29
ATOM     29  C   UNL A   1      39.218  27.962  30.915  1.00  0.00     0.188 C 
BRANCH  29  30
ATOM     30  C   UNL A   1      40.683  28.417  30.933  1.00  0.00     0.188 C 
BRANCH  30  31
ATOM     31  O   UNL A   1      41.049  29.008  32.176  1.00  0.00    -0.376 OA
BRANCH  31  32
ATOM     32  C   UNL A   1      41.261  28.184  33.307  1.00  0.00     0.202 C 
BRANCH  32  33
ATOM     33  C   UNL A   1      42.667  27.611  33.562  1.00  0.00     0.261 C 
BRANCH  33  34
ATOM     34  O   UNL A   1      43.234  26.782  32.541  1.00  0.00    -0.460 OA
BRANCH  34  35
ATOM     35  C   UNL A   1      44.364  26.114  32.844  1.00  0.00     0.338 C 
ATOM     36  O   UNL A   1      44.478  25.224  33.675  1.00  0.00    -0.246 OA
BRANCH  35  37
ATOM     37  C   UNL A   1      45.397  26.469  31.845  1.00  0.00     0.060 A 
ATOM     38  C   UNL A   1      46.597  27.027  32.305  1.00  0.00     0.016 A 
ATOM     39  C   UNL A   1      45.204  26.246  30.478  1.00  0.00     0.016 A 
ATOM     40  C   UNL A   1      47.582  27.415  31.400  1.00  0.00     0.010 A 
ATOM     41  C   UNL A   1      46.181  26.665  29.566  1.00  0.00     0.010 A 
ATOM     42  C   UNL A   1      47.350  27.297  30.024  1.00  0.00    -0.014 A 
BRANCH  42  43
ATOM     43  C   UNL A   1      48.213  28.078  29.102  1.00  0.00     0.031 A 
ATOM     44  C   UNL A   1      47.762  29.466  28.727  1.00  0.00     0.074 A 
ATOM     45  C   UNL A   1      49.407  27.617  28.692  1.00  0.00     0.049 A 
ATOM     46  N   UNL A   1      48.360  30.366  27.992  1.00  0.00    -0.248 NA
ATOM     47  C   UNL A   1      46.459  29.899  29.262  1.00  0.00     0.031 C 
ATOM     48  C   UNL A   1      49.973  26.311  29.031  1.00  0.00     0.029 A 
ATOM     49  N   UNL A   1      50.366  28.205  27.906  1.00  0.00    -0.354 N 
ATOM     50  C   UNL A   1      47.509  31.466  27.975  1.00  0.00     0.074 A 
ATOM     51  C   UNL A   1      46.336  31.109  28.740  1.00  0.00     0.031 C 
ATOM     52  C   UNL A   1      51.182  26.198  28.454  1.00  0.00     0.029 A 
ATOM     53  C   UNL A   1      51.464  27.409  27.684  1.00  0.00     0.049 A 
ATOM     54  H   UNL A   1      50.275  29.113  27.535  1.00  0.00     0.167 HD
ATOM     55  C   UNL A   1      47.695  32.672  27.388  1.00  0.00     0.037 A 
ATOM     56  C   UNL A   1      52.564  27.631  26.935  1.00  0.00     0.037 A 
ATOM     57  C   UNL A   1      48.864  33.021  26.626  1.00  0.00     0.049 A 
ATOM     58  C   UNL A   1      52.716  28.957  26.230  1.00  0.00     0.074 A 
ATOM     59  C   UNL A   1      49.157  34.217  25.996  1.00  0.00     0.029 A 
ATOM     60  N   UNL A   1      49.933  32.169  26.383  1.00  0.00    -0.354 N 
ATOM     61  N   UNL A   1      51.914  29.997  26.241  1.00  0.00    -0.248 NA
ATOM     62  C   UNL A   1      53.927  29.142  25.420  1.00  0.00     0.031 C 
ATOM     63  C   UNL A   1      50.372  34.069  25.321  1.00  0.00     0.029 A 
ATOM     64  C   UNL A   1      50.872  32.804  25.587  1.00  0.00     0.049 A 
ATOM     65  H   UNL A   1      50.012  31.249  26.725  1.00  0.00     0.167 HD
ATOM     66  C   UNL A   1      52.539  30.968  25.463  1.00  0.00     0.074 A 
ATOM     67  C   UNL A   1      53.792  30.398  25.015  1.00  0.00     0.031 C 
ATOM     68  C   UNL A   1      52.115  32.220  25.147  1.00  0.00     0.037 A 
BRANCH  55  69
ATOM     69  C   UNL A   1      46.591  33.686  27.519  1.00  0.00     0.058 A 
ATOM     70  C   UNL A   1      46.630  34.711  28.478  1.00  0.00     0.135 A 
ATOM     71  C   UNL A   1      45.485  33.644  26.653  1.00  0.00     0.135 A 
ATOM     72  F   UNL A   1      47.650  34.785  29.348  1.00  0.00    -0.206 F 
ATOM     73  C   UNL A   1      45.602  35.642  28.592  1.00  0.00     0.059 A 
ATOM     74  C   UNL A   1      44.461  34.584  26.728  1.00  0.00     0.059 A 
ATOM     75  F   UNL A   1      45.391  32.682  25.722  1.00  0.00    -0.206 F 
ATOM     76  C   UNL A   1      44.522  35.572  27.710  1.00  0.00     0.060 A 
BRANCH  76  77
ATOM     77  S   UNL A   1      43.202  36.793  27.863  1.00  0.00     0.124 S 
ATOM     78  O   UNL A   1      42.285  36.118  28.777  1.00  0.00    -0.237 OA
ATOM     79  O   UNL A   1      43.908  37.946  28.412  1.00  0.00    -0.237 OA
ATOM     80  O   UNL A   1      42.721  36.949  26.494  1.00  0.00    -0.744 OA
ENDBRANCH  76  77
ENDBRANCH  55  69
BRANCH  56  81
ATOM     81  C   UNL A   1      53.603  26.574  26.800  1.00  0.00     0.058 A 
ATOM     82  C   UNL A   1      53.486  25.548  25.850  1.00  0.00     0.135 A 
ATOM     83  C   UNL A   1      54.734  26.563  27.633  1.00  0.00     0.135 A 
ATOM     84  F   UNL A   1      52.418  25.504  25.040  1.00  0.00    -0.206 F 
ATOM     85  C   UNL A   1      54.442  24.542  25.739  1.00  0.00     0.059 A 
ATOM     86  C   UNL A   1      55.718  25.585  27.521  1.00  0.00     0.059 A 
ATOM     87  F   UNL A   1      54.901  27.523  28.555  1.00  0.00    -0.206 F 
ATOM     88  C   UNL A   1      55.558  24.573  26.577  1.00  0.00     0.060 A 
BRANCH  88  89
ATOM     89  S   UNL A   1      56.818  23.292  26.391  1.00  0.00     0.124 S 
ATOM     90  O   UNL A   1      57.139  23.397  24.972  1.00  0.00    -0.237 OA
ATOM     91  O   UNL A   1      57.852  23.745  27.316  1.00  0.00    -0.237 OA
ATOM     92  O   UNL A   1      56.119  22.074  26.792  1.00  0.00    -0.744 OA
ENDBRANCH  88  89
ENDBRANCH  56  81
BRANCH  68  93
ATOM     93  C   UNL A   1      53.031  33.069  24.304  1.00  0.00     0.058 A 
ATOM     94  C   UNL A   1      52.974  33.057  22.901  1.00  0.00     0.135 A 
ATOM     95  C   UNL A   1      53.960  33.931  24.911  1.00  0.00     0.135 A 
ATOM     96  F   UNL A   1      52.106  32.251  22.267  1.00  0.00    -0.206 F 
ATOM     97  C   UNL A   1      53.832  33.834  22.131  1.00  0.00     0.059 A 
ATOM     98  C   UNL A   1      54.802  34.745  24.161  1.00  0.00     0.059 A 
ATOM     99  F   UNL A   1      54.046  33.998  26.250  1.00  0.00    -0.206 F 
ATOM    100  C   UNL A   1      54.746  34.675  22.771  1.00  0.00     0.060 A 
BRANCH 100 101
ATOM    101  S   UNL A   1      55.852  35.680  21.760  1.00  0.00     0.124 S 
ATOM    102  O   UNL A   1      57.160  35.171  22.159  1.00  0.00    -0.237 OA
ATOM    103  O   UNL A   1      55.427  35.344  20.405  1.00  0.00    -0.237 OA
ATOM    104  O   UNL A   1      55.554  37.045  22.183  1.00  0.00    -0.744 OA
ENDBRANCH 100 101
ENDBRANCH  68  93
ENDBRANCH  42  43
ENDBRANCH  35  37
ENDBRANCH  34  35
ENDBRANCH  33  34
ENDBRANCH  32  33
ENDBRANCH  31  32
ENDBRANCH  30  31
ENDBRANCH  29  30
ENDBRANCH   1  29
TORSDOF 27
ENDMDL
