MODEL 1
REMARK VINA RESULT:      -6.4      0.000      0.000
REMARK SMILES [NH3+]CCOCC(=O)N1C[C@@H](C(=O)OCCOCCOCCOCCOC(=O)c2ccc(-c3c4nc(c(-c5c(F)cc(S(=O)(=O)[O-])cc5F)c5ccc([nH]5)c(-c5c(F)cc(S(=O)(=O)[O-])cc5F)c5nc(c(-c6c(F)cc(S(=O)(=O)[O-])cc6F)c6ccc3[nH]6)C=C5)C=C4)cc2)Oc2ccccc21
REMARK SMILES IDX 17 1 16 2 15 3 14 4 13 5 11 6 12 7 10 8 8 9 9 10 100 11
REMARK SMILES IDX 95 12 99 13 94 14 96 15 98 16 97 17 6 18 7 19 5 20 4 21 3 22
REMARK SMILES IDX 2 23 1 24 18 28 19 29 20 30 21 31 22 32 23 33 24 34 25 35
REMARK SMILES IDX 26 36 27 37 28 38 29 39 93 40 30 41 92 42 31 43 32 44 33 45
REMARK SMILES IDX 86 46 34 47 91 48 85 49 87 50 35 51 90 52 84 53 83 54 36 56
REMARK SMILES IDX 70 57 49 58 69 59 50 60 53 61 68 62 88 63 51 64 52 65 67 67
REMARK SMILES IDX 89 68 54 69 37 70 38 71 47 72 39 73 40 74 46 75 48 76 41 77
REMARK SMILES IDX 42 78 43 79 44 80 45 81 71 82 72 83 81 84 73 85 74 86 80 87
REMARK SMILES IDX 82 88 75 89 76 90 77 91 78 92 79 93 55 94 56 95 65 96 57 97
REMARK SMILES IDX 58 98 64 99 66 100 59 101 60 102 61 103 62 104 63 105
REMARK H PARENT 1 25 1 26 1 27 87 55 53 66
REMARK Flexibility Score: inf
ROOT
ATOM      1  C   UNL A   1      41.105  34.163  37.048  1.00  0.00     0.188 C 
ENDROOT
BRANCH   1   2
ATOM      2  O   UNL A   1      41.922  34.504  35.935  1.00  0.00    -0.376 OA
BRANCH   2   3
ATOM      3  C   UNL A   1      41.408  34.908  34.675  1.00  0.00     0.202 C 
BRANCH   3   4
ATOM      4  C   UNL A   1      42.055  36.020  33.838  1.00  0.00     0.261 C 
BRANCH   4   5
ATOM      5  O   UNL A   1      43.464  35.913  33.629  1.00  0.00    -0.460 OA
BRANCH   5   6
ATOM      6  C   UNL A   1      44.206  36.970  34.022  1.00  0.00     0.349 C 
ATOM      7  O   UNL A   1      43.938  37.695  34.977  1.00  0.00    -0.248 OA
BRANCH   6   8
ATOM      8  C   UNL A   1      45.455  37.192  33.155  1.00  0.00     0.302 C 
ATOM      9  N   UNL A   1      44.446  39.082  32.033  1.00  0.00    -0.303 N 
ATOM     10  C   UNL A   1      45.567  38.681  32.892  1.00  0.00     0.183 C 
ATOM     11  C   UNL A   1      44.260  38.215  30.904  1.00  0.00     0.086 A 
ATOM     12  C   UNL A   1      44.921  36.971  30.878  1.00  0.00     0.144 A 
ATOM     13  C   UNL A   1      43.501  38.581  29.790  1.00  0.00     0.030 A 
ATOM     14  O   UNL A   1      45.634  36.471  31.941  1.00  0.00    -0.475 OA
ATOM     15  C   UNL A   1      44.870  36.144  29.753  1.00  0.00     0.049 A 
ATOM     16  C   UNL A   1      43.446  37.751  28.663  1.00  0.00     0.002 A 
ATOM     17  C   UNL A   1      44.137  36.541  28.639  1.00  0.00     0.004 A 
BRANCH   9  18
ATOM     18  C   UNL A   1      43.531  40.064  32.398  1.00  0.00     0.253 C 
ATOM     19  O   UNL A   1      42.722  39.947  33.321  1.00  0.00    -0.272 OA
BRANCH  18  20
ATOM     20  C   UNL A   1      43.532  41.362  31.560  1.00  0.00     0.260 C 
BRANCH  20  21
ATOM     21  O   UNL A   1      43.542  42.644  32.151  1.00  0.00    -0.366 OA
BRANCH  21  22
ATOM     22  C   UNL A   1      44.776  43.053  32.738  1.00  0.00     0.222 C 
BRANCH  22  23
ATOM     23  C   UNL A   1      44.641  43.816  34.059  1.00  0.00     0.287 C 
BRANCH  23  24
ATOM     24  N   UNL A   1      44.043  43.031  35.137  1.00  0.00    -0.356 N 
ATOM     25  H   UNL A   1      44.603  42.194  35.300  1.00  0.00     0.344 HD
ATOM     26  H   UNL A   1      43.095  42.760  34.876  1.00  0.00     0.344 HD
ATOM     27  H   UNL A   1      44.013  43.591  35.990  1.00  0.00     0.344 HD
ENDBRANCH  23  24
ENDBRANCH  22  23
ENDBRANCH  21  22
ENDBRANCH  20  21
ENDBRANCH  18  20
ENDBRANCH   9  18
ENDBRANCH   6   8
ENDBRANCH   5   6
ENDBRANCH   4   5
ENDBRANCH   3   4
ENDBRANCH   2   3
ENDBRANCH   1   2
BRANCH   1  28
ATOM     28  C   UNL A   1      39.595  34.472  37.110  1.00  0.00     0.188 C 
BRANCH  28  29
ATOM     29  O   UNL A   1      38.777  33.355  37.374  1.00  0.00    -0.377 OA
BRANCH  29  30
ATOM     30  C   UNL A   1      37.788  33.034  36.404  1.00  0.00     0.188 C 
BRANCH  30  31
ATOM     31  C   UNL A   1      37.806  33.799  35.062  1.00  0.00     0.188 C 
BRANCH  31  32
ATOM     32  O   UNL A   1      38.052  32.984  33.924  1.00  0.00    -0.376 OA
BRANCH  32  33
ATOM     33  C   UNL A   1      37.630  31.629  33.939  1.00  0.00     0.202 C 
BRANCH  33  34
ATOM     34  C   UNL A   1      36.708  31.154  32.803  1.00  0.00     0.261 C 
BRANCH  34  35
ATOM     35  O   UNL A   1      36.785  29.763  32.463  1.00  0.00    -0.460 OA
BRANCH  35  36
ATOM     36  C   UNL A   1      36.958  29.461  31.160  1.00  0.00     0.338 C 
ATOM     37  O   UNL A   1      36.082  29.218  30.344  1.00  0.00    -0.246 OA
BRANCH  36  38
ATOM     38  C   UNL A   1      38.379  29.667  30.818  1.00  0.00     0.060 A 
ATOM     39  C   UNL A   1      38.695  30.203  29.562  1.00  0.00     0.016 A 
ATOM     40  C   UNL A   1      39.391  29.305  31.710  1.00  0.00     0.016 A 
ATOM     41  C   UNL A   1      40.026  30.299  29.161  1.00  0.00     0.010 A 
ATOM     42  C   UNL A   1      40.724  29.383  31.300  1.00  0.00     0.010 A 
ATOM     43  C   UNL A   1      41.039  29.821  30.001  1.00  0.00    -0.014 A 
BRANCH  43  44
ATOM     44  C   UNL A   1      42.365  29.509  29.415  1.00  0.00     0.031 A 
ATOM     45  C   UNL A   1      42.581  28.117  28.878  1.00  0.00     0.074 A 
ATOM     46  C   UNL A   1      43.328  30.440  29.302  1.00  0.00     0.049 A 
ATOM     47  N   UNL A   1      43.650  27.586  28.345  1.00  0.00    -0.248 NA
ATOM     48  C   UNL A   1      41.432  27.198  28.957  1.00  0.00     0.031 C 
ATOM     49  C   UNL A   1      43.215  31.833  29.733  1.00  0.00     0.029 A 
ATOM     50  N   UNL A   1      44.597  30.347  28.790  1.00  0.00    -0.354 N 
ATOM     51  C   UNL A   1      43.305  26.275  28.034  1.00  0.00     0.074 A 
ATOM     52  C   UNL A   1      41.943  26.077  28.476  1.00  0.00     0.031 C 
ATOM     53  C   UNL A   1      44.375  32.463  29.473  1.00  0.00     0.029 A 
ATOM     54  C   UNL A   1      45.320  31.512  28.889  1.00  0.00     0.049 A 
ATOM     55  H   UNL A   1      44.956  29.523  28.389  1.00  0.00     0.167 HD
ATOM     56  C   UNL A   1      44.050  25.325  27.423  1.00  0.00     0.037 A 
ATOM     57  C   UNL A   1      46.603  31.768  28.562  1.00  0.00     0.037 A 
ATOM     58  C   UNL A   1      45.403  25.532  26.984  1.00  0.00     0.049 A 
ATOM     59  C   UNL A   1      47.440  30.671  27.952  1.00  0.00     0.074 A 
ATOM     60  C   UNL A   1      46.250  24.636  26.355  1.00  0.00     0.029 A 
ATOM     61  N   UNL A   1      46.111  26.716  27.130  1.00  0.00    -0.354 N 
ATOM     62  N   UNL A   1      47.102  29.436  27.660  1.00  0.00    -0.248 NA
ATOM     63  C   UNL A   1      48.832  31.005  27.616  1.00  0.00     0.031 C 
ATOM     64  C   UNL A   1      47.486  25.261  26.171  1.00  0.00     0.029 A 
ATOM     65  C   UNL A   1      47.390  26.568  26.621  1.00  0.00     0.049 A 
ATOM     66  H   UNL A   1      45.756  27.539  27.536  1.00  0.00     0.167 HD
ATOM     67  C   UNL A   1      48.225  28.862  27.067  1.00  0.00     0.074 A 
ATOM     68  C   UNL A   1      49.248  29.886  27.039  1.00  0.00     0.031 C 
ATOM     69  C   UNL A   1      48.391  27.605  26.582  1.00  0.00     0.037 A 
BRANCH  56  70
ATOM     70  C   UNL A   1      43.426  23.971  27.222  1.00  0.00     0.058 A 
ATOM     71  C   UNL A   1      42.848  23.594  25.998  1.00  0.00     0.135 A 
ATOM     72  C   UNL A   1      43.429  23.026  28.260  1.00  0.00     0.135 A 
ATOM     73  F   UNL A   1      42.795  24.465  24.977  1.00  0.00    -0.206 F 
ATOM     74  C   UNL A   1      42.275  22.339  25.820  1.00  0.00     0.059 A 
ATOM     75  C   UNL A   1      42.891  21.754  28.094  1.00  0.00     0.059 A 
ATOM     76  F   UNL A   1      43.961  23.335  29.454  1.00  0.00    -0.206 F 
ATOM     77  C   UNL A   1      42.305  21.424  26.874  1.00  0.00     0.060 A 
BRANCH  77  78
ATOM     78  S   UNL A   1      41.570  19.795  26.622  1.00  0.00     0.124 S 
ATOM     79  O   UNL A   1      40.850  19.603  27.877  1.00  0.00    -0.237 OA
ATOM     80  O   UNL A   1      40.739  20.008  25.442  1.00  0.00    -0.237 OA
ATOM     81  O   UNL A   1      42.726  18.926  26.424  1.00  0.00    -0.744 OA
ENDBRANCH  77  78
ENDBRANCH  56  70
BRANCH  57  82
ATOM     82  C   UNL A   1      47.183  33.118  28.809  1.00  0.00     0.058 A 
ATOM     83  C   UNL A   1      47.235  34.085  27.794  1.00  0.00     0.135 A 
ATOM     84  C   UNL A   1      47.718  33.459  30.062  1.00  0.00     0.135 A 
ATOM     85  F   UNL A   1      46.749  33.805  26.576  1.00  0.00    -0.206 F 
ATOM     86  C   UNL A   1      47.817  35.332  28.003  1.00  0.00     0.059 A 
ATOM     87  C   UNL A   1      48.278  34.711  30.303  1.00  0.00     0.059 A 
ATOM     88  F   UNL A   1      47.688  32.575  31.071  1.00  0.00    -0.206 F 
ATOM     89  C   UNL A   1      48.334  35.636  29.263  1.00  0.00     0.060 A 
BRANCH  89  90
ATOM     90  S   UNL A   1      49.060  37.267  29.530  1.00  0.00     0.124 S 
ATOM     91  O   UNL A   1      49.259  37.267  30.974  1.00  0.00    -0.237 OA
ATOM     92  O   UNL A   1      50.271  37.199  28.717  1.00  0.00    -0.237 OA
ATOM     93  O   UNL A   1      48.032  38.177  29.034  1.00  0.00    -0.744 OA
ENDBRANCH  89  90
ENDBRANCH  57  82
BRANCH  69  94
ATOM     94  C   UNL A   1      49.701  27.280  25.916  1.00  0.00     0.058 A 
ATOM     95  C   UNL A   1      50.806  26.794  26.633  1.00  0.00     0.135 A 
ATOM     96  C   UNL A   1      49.831  27.406  24.521  1.00  0.00     0.135 A 
ATOM     97  F   UNL A   1      50.739  26.656  27.966  1.00  0.00    -0.206 F 
ATOM     98  C   UNL A   1      52.002  26.476  25.996  1.00  0.00     0.059 A 
ATOM     99  C   UNL A   1      51.005  27.060  23.861  1.00  0.00     0.059 A 
ATOM    100  F   UNL A   1      48.802  27.850  23.783  1.00  0.00    -0.206 F 
ATOM    101  C   UNL A   1      52.091  26.611  24.609  1.00  0.00     0.060 A 
BRANCH 101 102
ATOM    102  S   UNL A   1      53.641  26.170  23.794  1.00  0.00     0.124 S 
ATOM    103  O   UNL A   1      53.191  25.905  22.432  1.00  0.00    -0.237 OA
ATOM    104  O   UNL A   1      54.442  27.377  23.973  1.00  0.00    -0.237 OA
ATOM    105  O   UNL A   1      54.099  25.003  24.542  1.00  0.00    -0.744 OA
ENDBRANCH 101 102
ENDBRANCH  69  94
ENDBRANCH  43  44
ENDBRANCH  36  38
ENDBRANCH  35  36
ENDBRANCH  34  35
ENDBRANCH  33  34
ENDBRANCH  32  33
ENDBRANCH  31  32
ENDBRANCH  30  31
ENDBRANCH  29  30
ENDBRANCH  28  29
ENDBRANCH   1  28
TORSDOF 29
ENDMDL
MODEL 2
REMARK VINA RESULT:      -6.3      4.673     11.824
REMARK SMILES [NH3+]CCOCC(=O)N1C[C@@H](C(=O)OCCOCCOCCOCCOC(=O)c2ccc(-c3c4nc(c(-c5c(F)cc(S(=O)(=O)[O-])cc5F)c5ccc([nH]5)c(-c5c(F)cc(S(=O)(=O)[O-])cc5F)c5nc(c(-c6c(F)cc(S(=O)(=O)[O-])cc6F)c6ccc3[nH]6)C=C5)C=C4)cc2)Oc2ccccc21
REMARK SMILES IDX 17 1 16 2 15 3 14 4 13 5 11 6 12 7 10 8 8 9 9 10 100 11
REMARK SMILES IDX 95 12 99 13 94 14 96 15 98 16 97 17 6 18 7 19 5 20 4 21 3 22
REMARK SMILES IDX 2 23 1 24 18 28 19 29 20 30 21 31 22 32 23 33 24 34 25 35
REMARK SMILES IDX 26 36 27 37 28 38 29 39 93 40 30 41 92 42 31 43 32 44 33 45
REMARK SMILES IDX 86 46 34 47 91 48 85 49 87 50 35 51 90 52 84 53 83 54 36 56
REMARK SMILES IDX 70 57 49 58 69 59 50 60 53 61 68 62 88 63 51 64 52 65 67 67
REMARK SMILES IDX 89 68 54 69 37 70 38 71 47 72 39 73 40 74 46 75 48 76 41 77
REMARK SMILES IDX 42 78 43 79 44 80 45 81 71 82 72 83 81 84 73 85 74 86 80 87
REMARK SMILES IDX 82 88 75 89 76 90 77 91 78 92 79 93 55 94 56 95 65 96 57 97
REMARK SMILES IDX 58 98 64 99 66 100 59 101 60 102 61 103 62 104 63 105
REMARK H PARENT 1 25 1 26 1 27 87 55 53 66
REMARK Flexibility Score: inf
ROOT
ATOM      1  C   UNL A   1      41.854  25.966  28.278  1.00  0.00     0.188 C 
ENDROOT
BRANCH   1   2
ATOM      2  O   UNL A   1      42.874  26.214  29.238  1.00  0.00    -0.376 OA
BRANCH   2   3
ATOM      3  C   UNL A   1      43.751  27.330  29.184  1.00  0.00     0.202 C 
BRANCH   3   4
ATOM      4  C   UNL A   1      43.243  28.775  29.086  1.00  0.00     0.261 C 
BRANCH   4   5
ATOM      5  O   UNL A   1      42.178  29.129  29.969  1.00  0.00    -0.460 OA
BRANCH   5   6
ATOM      6  C   UNL A   1      41.910  30.448  30.081  1.00  0.00     0.349 C 
ATOM      7  O   UNL A   1      42.316  31.311  29.306  1.00  0.00    -0.248 OA
BRANCH   6   8
ATOM      8  C   UNL A   1      41.023  30.788  31.288  1.00  0.00     0.302 C 
ATOM      9  N   UNL A   1      39.008  30.642  29.957  1.00  0.00    -0.303 N 
ATOM     10  C   UNL A   1      39.708  30.054  31.105  1.00  0.00     0.183 C 
ATOM     11  C   UNL A   1      38.975  32.077  29.988  1.00  0.00     0.086 A 
ATOM     12  C   UNL A   1      39.815  32.763  30.888  1.00  0.00     0.144 A 
ATOM     13  C   UNL A   1      38.090  32.827  29.210  1.00  0.00     0.030 A 
ATOM     14  O   UNL A   1      40.775  32.142  31.649  1.00  0.00    -0.475 OA
ATOM     15  C   UNL A   1      39.735  34.149  31.043  1.00  0.00     0.049 A 
ATOM     16  C   UNL A   1      38.012  34.218  29.362  1.00  0.00     0.002 A 
ATOM     17  C   UNL A   1      38.824  34.877  30.284  1.00  0.00     0.004 A 
BRANCH   9  18
ATOM     18  C   UNL A   1      38.616  29.895  28.850  1.00  0.00     0.253 C 
ATOM     19  O   UNL A   1      39.317  29.718  27.852  1.00  0.00    -0.272 OA
BRANCH  18  20
ATOM     20  C   UNL A   1      37.198  29.283  28.891  1.00  0.00     0.260 C 
BRANCH  20  21
ATOM     21  O   UNL A   1      36.037  30.051  28.650  1.00  0.00    -0.366 OA
BRANCH  21  22
ATOM     22  C   UNL A   1      34.973  29.379  27.977  1.00  0.00     0.222 C 
BRANCH  22  23
ATOM     23  C   UNL A   1      34.123  30.270  27.066  1.00  0.00     0.287 C 
BRANCH  23  24
ATOM     24  N   UNL A   1      33.972  29.753  25.707  1.00  0.00    -0.356 N 
ATOM     25  H   UNL A   1      34.721  29.091  25.509  1.00  0.00     0.344 HD
ATOM     26  H   UNL A   1      34.016  30.526  25.043  1.00  0.00     0.344 HD
ATOM     27  H   UNL A   1      33.071  29.282  25.621  1.00  0.00     0.344 HD
ENDBRANCH  23  24
ENDBRANCH  22  23
ENDBRANCH  21  22
ENDBRANCH  20  21
ENDBRANCH  18  20
ENDBRANCH   9  18
ENDBRANCH   6   8
ENDBRANCH   5   6
ENDBRANCH   4   5
ENDBRANCH   3   4
ENDBRANCH   2   3
ENDBRANCH   1   2
BRANCH   1  28
ATOM     28  C   UNL A   1      42.069  25.086  27.031  1.00  0.00     0.188 C 
BRANCH  28  29
ATOM     29  O   UNL A   1      43.381  25.107  26.515  1.00  0.00    -0.377 OA
BRANCH  29  30
ATOM     30  C   UNL A   1      43.583  25.794  25.287  1.00  0.00     0.188 C 
BRANCH  30  31
ATOM     31  C   UNL A   1      43.559  27.339  25.302  1.00  0.00     0.188 C 
BRANCH  31  32
ATOM     32  O   UNL A   1      44.836  27.945  25.450  1.00  0.00    -0.376 OA
BRANCH  32  33
ATOM     33  C   UNL A   1      45.934  27.434  24.710  1.00  0.00     0.202 C 
BRANCH  33  34
ATOM     34  C   UNL A   1      47.231  27.122  25.475  1.00  0.00     0.261 C 
BRANCH  34  35
ATOM     35  O   UNL A   1      47.444  27.854  26.689  1.00  0.00    -0.460 OA
BRANCH  35  36
ATOM     36  C   UNL A   1      48.284  28.908  26.628  1.00  0.00     0.338 C 
ATOM     37  O   UNL A   1      49.270  29.015  25.914  1.00  0.00    -0.246 OA
BRANCH  36  38
ATOM     38  C   UNL A   1      47.709  30.009  27.425  1.00  0.00     0.060 A 
ATOM     39  C   UNL A   1      48.439  30.498  28.516  1.00  0.00     0.016 A 
ATOM     40  C   UNL A   1      46.451  30.532  27.120  1.00  0.00     0.016 A 
ATOM     41  C   UNL A   1      47.874  31.453  29.359  1.00  0.00     0.010 A 
ATOM     42  C   UNL A   1      45.877  31.475  27.977  1.00  0.00     0.010 A 
ATOM     43  C   UNL A   1      46.563  31.890  29.133  1.00  0.00    -0.014 A 
BRANCH  43  44
ATOM     44  C   UNL A   1      45.822  32.533  30.244  1.00  0.00     0.031 A 
ATOM     45  C   UNL A   1      45.273  31.639  31.327  1.00  0.00     0.074 A 
ATOM     46  C   UNL A   1      45.690  33.868  30.329  1.00  0.00     0.049 A 
ATOM     47  N   UNL A   1      44.570  31.947  32.385  1.00  0.00    -0.248 NA
ATOM     48  C   UNL A   1      45.556  30.199  31.195  1.00  0.00     0.031 C 
ATOM     49  C   UNL A   1      46.225  34.836  29.374  1.00  0.00     0.029 A 
ATOM     50  N   UNL A   1      45.056  34.638  31.271  1.00  0.00    -0.354 N 
ATOM     51  C   UNL A   1      44.322  30.744  33.036  1.00  0.00     0.074 A 
ATOM     52  C   UNL A   1      44.911  29.696  32.234  1.00  0.00     0.031 C 
ATOM     53  C   UNL A   1      45.889  36.075  29.776  1.00  0.00     0.029 A 
ATOM     54  C   UNL A   1      45.088  35.985  30.997  1.00  0.00     0.049 A 
ATOM     55  H   UNL A   1      44.618  34.262  32.069  1.00  0.00     0.167 HD
ATOM     56  C   UNL A   1      43.672  30.531  34.204  1.00  0.00     0.037 A 
ATOM     57  C   UNL A   1      44.519  37.018  31.649  1.00  0.00     0.037 A 
ATOM     58  C   UNL A   1      43.090  31.580  34.997  1.00  0.00     0.049 A 
ATOM     59  C   UNL A   1      43.734  36.750  32.910  1.00  0.00     0.074 A 
ATOM     60  C   UNL A   1      42.409  31.474  36.196  1.00  0.00     0.029 A 
ATOM     61  N   UNL A   1      43.118  32.928  34.669  1.00  0.00    -0.354 N 
ATOM     62  N   UNL A   1      43.508  35.608  33.517  1.00  0.00    -0.248 NA
ATOM     63  C   UNL A   1      43.133  37.912  33.580  1.00  0.00     0.031 C 
ATOM     64  C   UNL A   1      41.976  32.750  36.566  1.00  0.00     0.029 A 
ATOM     65  C   UNL A   1      42.449  33.662  35.634  1.00  0.00     0.049 A 
ATOM     66  H   UNL A   1      43.549  33.306  33.870  1.00  0.00     0.167 HD
ATOM     67  C   UNL A   1      42.779  35.921  34.662  1.00  0.00     0.074 A 
ATOM     68  C   UNL A   1      42.605  37.359  34.663  1.00  0.00     0.031 C 
ATOM     69  C   UNL A   1      42.303  35.097  35.630  1.00  0.00     0.037 A 
BRANCH  56  70
ATOM     70  C   UNL A   1      43.533  29.109  34.676  1.00  0.00     0.058 A 
ATOM     71  C   UNL A   1      44.542  28.470  35.416  1.00  0.00     0.135 A 
ATOM     72  C   UNL A   1      42.361  28.383  34.407  1.00  0.00     0.135 A 
ATOM     73  F   UNL A   1      45.694  29.107  35.682  1.00  0.00    -0.206 F 
ATOM     74  C   UNL A   1      44.404  27.156  35.850  1.00  0.00     0.059 A 
ATOM     75  C   UNL A   1      42.189  27.079  34.860  1.00  0.00     0.059 A 
ATOM     76  F   UNL A   1      41.368  28.941  33.698  1.00  0.00    -0.206 F 
ATOM     77  C   UNL A   1      43.221  26.469  35.570  1.00  0.00     0.060 A 
BRANCH  77  78
ATOM     78  S   UNL A   1      43.053  24.769  36.153  1.00  0.00     0.124 S 
ATOM     79  O   UNL A   1      44.340  24.199  35.765  1.00  0.00    -0.237 OA
ATOM     80  O   UNL A   1      42.848  24.951  37.586  1.00  0.00    -0.237 OA
ATOM     81  O   UNL A   1      41.898  24.268  35.415  1.00  0.00    -0.744 OA
ENDBRANCH  77  78
ENDBRANCH  56  70
BRANCH  57  82
ATOM     82  C   UNL A   1      44.661  38.405  31.125  1.00  0.00     0.058 A 
ATOM     83  C   UNL A   1      43.829  38.885  30.102  1.00  0.00     0.135 A 
ATOM     84  C   UNL A   1      45.648  39.272  31.622  1.00  0.00     0.135 A 
ATOM     85  F   UNL A   1      42.878  38.094  29.584  1.00  0.00    -0.206 F 
ATOM     86  C   UNL A   1      43.984  40.164  29.575  1.00  0.00     0.059 A 
ATOM     87  C   UNL A   1      45.803  40.565  31.131  1.00  0.00     0.059 A 
ATOM     88  F   UNL A   1      46.466  38.867  32.606  1.00  0.00    -0.206 F 
ATOM     89  C   UNL A   1      44.974  40.997  30.098  1.00  0.00     0.060 A 
BRANCH  89  90
ATOM     90  S   UNL A   1      45.147  42.664  29.425  1.00  0.00     0.124 S 
ATOM     91  O   UNL A   1      46.591  42.855  29.480  1.00  0.00    -0.237 OA
ATOM     92  O   UNL A   1      44.571  42.516  28.093  1.00  0.00    -0.237 OA
ATOM     93  O   UNL A   1      44.367  43.481  30.350  1.00  0.00    -0.744 OA
ENDBRANCH  89  90
ENDBRANCH  57  82
BRANCH  69  94
ATOM     94  C   UNL A   1      41.609  35.726  36.808  1.00  0.00     0.058 A 
ATOM     95  C   UNL A   1      42.317  36.273  37.890  1.00  0.00     0.135 A 
ATOM     96  C   UNL A   1      40.206  35.832  36.824  1.00  0.00     0.135 A 
ATOM     97  F   UNL A   1      43.656  36.199  37.928  1.00  0.00    -0.206 F 
ATOM     98  C   UNL A   1      41.658  36.872  38.960  1.00  0.00     0.059 A 
ATOM     99  C   UNL A   1      39.531  36.458  37.866  1.00  0.00     0.059 A 
ATOM    100  F   UNL A   1      39.479  35.341  35.808  1.00  0.00    -0.206 F 
ATOM    101  C   UNL A   1      40.265  36.962  38.938  1.00  0.00     0.060 A 
BRANCH 101 102
ATOM    102  S   UNL A   1      39.427  37.765  40.321  1.00  0.00     0.124 S 
ATOM    103  O   UNL A   1      38.590  38.740  39.630  1.00  0.00    -0.237 OA
ATOM    104  O   UNL A   1      38.719  36.652  40.945  1.00  0.00    -0.237 OA
ATOM    105  O   UNL A   1      40.524  38.322  41.106  1.00  0.00    -0.744 OA
ENDBRANCH 101 102
ENDBRANCH  69  94
ENDBRANCH  43  44
ENDBRANCH  36  38
ENDBRANCH  35  36
ENDBRANCH  34  35
ENDBRANCH  33  34
ENDBRANCH  32  33
ENDBRANCH  31  32
ENDBRANCH  30  31
ENDBRANCH  29  30
ENDBRANCH  28  29
ENDBRANCH   1  28
TORSDOF 29
ENDMDL
MODEL 3
REMARK VINA RESULT:      -6.1      5.315     11.471
REMARK SMILES [NH3+]CCOCC(=O)N1C[C@@H](C(=O)OCCOCCOCCOCCOC(=O)c2ccc(-c3c4nc(c(-c5c(F)cc(S(=O)(=O)[O-])cc5F)c5ccc([nH]5)c(-c5c(F)cc(S(=O)(=O)[O-])cc5F)c5nc(c(-c6c(F)cc(S(=O)(=O)[O-])cc6F)c6ccc3[nH]6)C=C5)C=C4)cc2)Oc2ccccc21
REMARK SMILES IDX 17 1 16 2 15 3 14 4 13 5 11 6 12 7 10 8 8 9 9 10 100 11
REMARK SMILES IDX 95 12 99 13 94 14 96 15 98 16 97 17 6 18 7 19 5 20 4 21 3 22
REMARK SMILES IDX 2 23 1 24 18 28 19 29 20 30 21 31 22 32 23 33 24 34 25 35
REMARK SMILES IDX 26 36 27 37 28 38 29 39 93 40 30 41 92 42 31 43 32 44 33 45
REMARK SMILES IDX 86 46 34 47 91 48 85 49 87 50 35 51 90 52 84 53 83 54 36 56
REMARK SMILES IDX 70 57 49 58 69 59 50 60 53 61 68 62 88 63 51 64 52 65 67 67
REMARK SMILES IDX 89 68 54 69 37 70 38 71 47 72 39 73 40 74 46 75 48 76 41 77
REMARK SMILES IDX 42 78 43 79 44 80 45 81 71 82 72 83 81 84 73 85 74 86 80 87
REMARK SMILES IDX 82 88 75 89 76 90 77 91 78 92 79 93 55 94 56 95 65 96 57 97
REMARK SMILES IDX 58 98 64 99 66 100 59 101 60 102 61 103 62 104 63 105
REMARK H PARENT 1 25 1 26 1 27 87 55 53 66
REMARK Flexibility Score: inf
ROOT
ATOM      1  C   UNL A   1      44.345  24.036  31.764  1.00  0.00     0.188 C 
ENDROOT
BRANCH   1   2
ATOM      2  O   UNL A   1      43.886  22.967  32.583  1.00  0.00    -0.376 OA
BRANCH   2   3
ATOM      3  C   UNL A   1      44.356  22.728  33.902  1.00  0.00     0.202 C 
BRANCH   3   4
ATOM      4  C   UNL A   1      43.615  23.236  35.146  1.00  0.00     0.261 C 
BRANCH   4   5
ATOM      5  O   UNL A   1      43.948  24.554  35.583  1.00  0.00    -0.460 OA
BRANCH   5   6
ATOM      6  C   UNL A   1      45.264  24.819  35.729  1.00  0.00     0.349 C 
ATOM      7  O   UNL A   1      45.875  25.684  35.107  1.00  0.00    -0.248 OA
BRANCH   6   8
ATOM      8  C   UNL A   1      45.951  23.926  36.773  1.00  0.00     0.302 C 
ATOM      9  N   UNL A   1      45.628  25.570  38.517  1.00  0.00    -0.303 N 
ATOM     10  C   UNL A   1      45.290  24.201  38.111  1.00  0.00     0.183 C 
ATOM     11  C   UNL A   1      47.025  25.871  38.387  1.00  0.00     0.086 A 
ATOM     12  C   UNL A   1      47.849  24.998  37.649  1.00  0.00     0.144 A 
ATOM     13  C   UNL A   1      47.623  26.962  39.022  1.00  0.00     0.030 A 
ATOM     14  O   UNL A   1      47.366  23.937  36.922  1.00  0.00    -0.475 OA
ATOM     15  C   UNL A   1      49.233  25.179  37.592  1.00  0.00     0.049 A 
ATOM     16  C   UNL A   1      49.011  27.147  38.963  1.00  0.00     0.002 A 
ATOM     17  C   UNL A   1      49.816  26.253  38.259  1.00  0.00     0.004 A 
BRANCH   9  18
ATOM     18  C   UNL A   1      44.662  26.535  38.788  1.00  0.00     0.253 C 
ATOM     19  O   UNL A   1      44.075  26.642  39.866  1.00  0.00    -0.272 OA
BRANCH  18  20
ATOM     20  C   UNL A   1      44.304  27.502  37.637  1.00  0.00     0.260 C 
BRANCH  20  21
ATOM     21  O   UNL A   1      43.098  27.397  36.909  1.00  0.00    -0.366 OA
BRANCH  21  22
ATOM     22  C   UNL A   1      42.908  28.358  35.872  1.00  0.00     0.222 C 
BRANCH  22  23
ATOM     23  C   UNL A   1      41.723  29.306  36.081  1.00  0.00     0.287 C 
BRANCH  23  24
ATOM     24  N   UNL A   1      40.688  29.194  35.056  1.00  0.00    -0.356 N 
ATOM     25  H   UNL A   1      40.676  28.244  34.686  1.00  0.00     0.344 HD
ATOM     26  H   UNL A   1      40.884  29.851  34.300  1.00  0.00     0.344 HD
ATOM     27  H   UNL A   1      39.779  29.410  35.466  1.00  0.00     0.344 HD
ENDBRANCH  23  24
ENDBRANCH  22  23
ENDBRANCH  21  22
ENDBRANCH  20  21
ENDBRANCH  18  20
ENDBRANCH   9  18
ENDBRANCH   6   8
ENDBRANCH   5   6
ENDBRANCH   4   5
ENDBRANCH   3   4
ENDBRANCH   2   3
ENDBRANCH   1   2
BRANCH   1  28
ATOM     28  C   UNL A   1      44.155  24.066  30.234  1.00  0.00     0.188 C 
BRANCH  28  29
ATOM     29  O   UNL A   1      42.953  23.485  29.780  1.00  0.00    -0.377 OA
BRANCH  29  30
ATOM     30  C   UNL A   1      43.048  22.558  28.706  1.00  0.00     0.188 C 
BRANCH  30  31
ATOM     31  C   UNL A   1      43.043  23.110  27.262  1.00  0.00     0.188 C 
BRANCH  31  32
ATOM     32  O   UNL A   1      42.145  22.447  26.383  1.00  0.00    -0.376 OA
BRANCH  32  33
ATOM     33  C   UNL A   1      41.267  21.462  26.904  1.00  0.00     0.202 C 
BRANCH  33  34
ATOM     34  C   UNL A   1      39.757  21.661  26.687  1.00  0.00     0.261 C 
BRANCH  34  35
ATOM     35  O   UNL A   1      39.378  22.710  25.787  1.00  0.00    -0.460 OA
BRANCH  35  36
ATOM     36  C   UNL A   1      38.691  23.746  26.309  1.00  0.00     0.338 C 
ATOM     37  O   UNL A   1      37.482  23.812  26.471  1.00  0.00    -0.246 OA
BRANCH  36  38
ATOM     38  C   UNL A   1      39.657  24.724  26.845  1.00  0.00     0.060 A 
ATOM     39  C   UNL A   1      39.810  24.821  28.235  1.00  0.00     0.016 A 
ATOM     40  C   UNL A   1      40.378  25.561  25.991  1.00  0.00     0.016 A 
ATOM     41  C   UNL A   1      40.623  25.814  28.778  1.00  0.00     0.010 A 
ATOM     42  C   UNL A   1      41.178  26.569  26.536  1.00  0.00     0.010 A 
ATOM     43  C   UNL A   1      41.251  26.736  27.931  1.00  0.00    -0.014 A 
BRANCH  43  44
ATOM     44  C   UNL A   1      41.726  28.021  28.500  1.00  0.00     0.031 A 
ATOM     45  C   UNL A   1      43.213  28.267  28.521  1.00  0.00     0.074 A 
ATOM     46  C   UNL A   1      40.871  28.966  28.927  1.00  0.00     0.049 A 
ATOM     47  N   UNL A   1      43.881  29.290  28.986  1.00  0.00    -0.248 NA
ATOM     48  C   UNL A   1      44.061  27.212  27.939  1.00  0.00     0.031 C 
ATOM     49  C   UNL A   1      39.413  28.865  28.904  1.00  0.00     0.029 A 
ATOM     50  N   UNL A   1      41.115  30.202  29.470  1.00  0.00    -0.354 N 
ATOM     51  C   UNL A   1      45.222  28.998  28.759  1.00  0.00     0.074 A 
ATOM     52  C   UNL A   1      45.277  27.686  28.156  1.00  0.00     0.031 C 
ATOM     53  C   UNL A   1      38.891  29.993  29.419  1.00  0.00     0.029 A 
ATOM     54  C   UNL A   1      39.977  30.879  29.836  1.00  0.00     0.049 A 
ATOM     55  H   UNL A   1      42.021  30.571  29.585  1.00  0.00     0.167 HD
ATOM     56  C   UNL A   1      46.310  29.759  29.019  1.00  0.00     0.037 A 
ATOM     57  C   UNL A   1      39.835  32.069  30.455  1.00  0.00     0.037 A 
ATOM     58  C   UNL A   1      46.247  31.065  29.618  1.00  0.00     0.049 A 
ATOM     59  C   UNL A   1      41.066  32.868  30.805  1.00  0.00     0.074 A 
ATOM     60  C   UNL A   1      47.289  31.922  29.926  1.00  0.00     0.029 A 
ATOM     61  N   UNL A   1      45.077  31.703  30.004  1.00  0.00    -0.354 N 
ATOM     62  N   UNL A   1      42.329  32.583  30.584  1.00  0.00    -0.248 NA
ATOM     63  C   UNL A   1      40.854  34.156  31.481  1.00  0.00     0.031 C 
ATOM     64  C   UNL A   1      46.754  33.053  30.548  1.00  0.00     0.029 A 
ATOM     65  C   UNL A   1      45.373  32.934  30.564  1.00  0.00     0.049 A 
ATOM     66  H   UNL A   1      44.171  31.334  29.895  1.00  0.00     0.167 HD
ATOM     67  C   UNL A   1      43.055  33.675  31.052  1.00  0.00     0.074 A 
ATOM     68  C   UNL A   1      42.091  34.626  31.565  1.00  0.00     0.031 C 
ATOM     69  C   UNL A   1      44.398  33.878  31.051  1.00  0.00     0.037 A 
BRANCH  56  70
ATOM     70  C   UNL A   1      47.660  29.185  28.683  1.00  0.00     0.058 A 
ATOM     71  C   UNL A   1      48.412  28.457  29.620  1.00  0.00     0.135 A 
ATOM     72  C   UNL A   1      48.199  29.345  27.396  1.00  0.00     0.135 A 
ATOM     73  F   UNL A   1      47.957  28.294  30.873  1.00  0.00    -0.206 F 
ATOM     74  C   UNL A   1      49.658  27.928  29.300  1.00  0.00     0.059 A 
ATOM     75  C   UNL A   1      49.429  28.797  27.045  1.00  0.00     0.059 A 
ATOM     76  F   UNL A   1      47.528  30.039  26.463  1.00  0.00    -0.206 F 
ATOM     77  C   UNL A   1      50.157  28.101  28.008  1.00  0.00     0.060 A 
BRANCH  77  78
ATOM     78  S   UNL A   1      51.769  27.397  27.605  1.00  0.00     0.124 S 
ATOM     79  O   UNL A   1      52.321  28.419  26.721  1.00  0.00    -0.237 OA
ATOM     80  O   UNL A   1      52.397  27.289  28.918  1.00  0.00    -0.237 OA
ATOM     81  O   UNL A   1      51.437  26.128  26.965  1.00  0.00    -0.744 OA
ENDBRANCH  77  78
ENDBRANCH  56  70
BRANCH  57  82
ATOM     82  C   UNL A   1      38.478  32.580  30.794  1.00  0.00     0.058 A 
ATOM     83  C   UNL A   1      37.881  32.299  32.032  1.00  0.00     0.135 A 
ATOM     84  C   UNL A   1      37.739  33.342  29.874  1.00  0.00     0.135 A 
ATOM     85  F   UNL A   1      38.539  31.564  32.942  1.00  0.00    -0.206 F 
ATOM     86  C   UNL A   1      36.596  32.734  32.340  1.00  0.00     0.059 A 
ATOM     87  C   UNL A   1      36.463  33.814  30.170  1.00  0.00     0.059 A 
ATOM     88  F   UNL A   1      38.263  33.647  28.677  1.00  0.00    -0.206 F 
ATOM     89  C   UNL A   1      35.895  33.493  31.401  1.00  0.00     0.060 A 
BRANCH  89  90
ATOM     90  S   UNL A   1      34.239  34.077  31.822  1.00  0.00     0.124 S 
ATOM     91  O   UNL A   1      33.661  34.299  30.502  1.00  0.00    -0.237 OA
ATOM     92  O   UNL A   1      33.701  32.948  32.574  1.00  0.00    -0.237 OA
ATOM     93  O   UNL A   1      34.497  35.279  32.609  1.00  0.00    -0.744 OA
ENDBRANCH  89  90
ENDBRANCH  57  82
BRANCH  69  94
ATOM     94  C   UNL A   1      44.906  35.202  31.555  1.00  0.00     0.058 A 
ATOM     95  C   UNL A   1      45.340  35.384  32.878  1.00  0.00     0.135 A 
ATOM     96  C   UNL A   1      45.013  36.295  30.676  1.00  0.00     0.135 A 
ATOM     97  F   UNL A   1      45.259  34.376  33.760  1.00  0.00    -0.206 F 
ATOM     98  C   UNL A   1      45.829  36.610  33.319  1.00  0.00     0.059 A 
ATOM     99  C   UNL A   1      45.532  37.518  31.088  1.00  0.00     0.059 A 
ATOM    100  F   UNL A   1      44.629  36.174  29.396  1.00  0.00    -0.206 F 
ATOM    101  C   UNL A   1      45.923  37.671  32.416  1.00  0.00     0.060 A 
BRANCH 101 102
ATOM    102  S   UNL A   1      46.584  39.247  32.997  1.00  0.00     0.124 S 
ATOM    103  O   UNL A   1      47.045  39.850  31.751  1.00  0.00    -0.237 OA
ATOM    104  O   UNL A   1      45.414  39.870  33.608  1.00  0.00    -0.237 OA
ATOM    105  O   UNL A   1      47.636  38.852  33.930  1.00  0.00    -0.744 OA
ENDBRANCH 101 102
ENDBRANCH  69  94
ENDBRANCH  43  44
ENDBRANCH  36  38
ENDBRANCH  35  36
ENDBRANCH  34  35
ENDBRANCH  33  34
ENDBRANCH  32  33
ENDBRANCH  31  32
ENDBRANCH  30  31
ENDBRANCH  29  30
ENDBRANCH  28  29
ENDBRANCH   1  28
TORSDOF 29
ENDMDL
