MODEL 1
REMARK VINA RESULT:      -9.0      0.000      0.000
REMARK SMILES CC(=O)N1CCc2cc(S(=O)(=O)N[C@@H](C(=O)OCCOCCOCCOCCOC(=O)c3ccc(-c4c5nc(c(-c6c(F)cc(S(=O)(=O)[O-])cc6F)c6ccc([nH]6)c(-c6c(F)cc(S(=O)(=O)[O-])cc6F)c6nc(c(-c7c(F)cc(S(=O)(=O)[O-])cc7F)c7ccc4[nH]7)C=C6)C=C5)cc3)C(C)C)ccc21
REMARK SMILES IDX 22 1 21 2 20 3 19 4 18 5 17 6 15 7 16 8 14 9 13 10 10 12
REMARK SMILES IDX 11 13 12 14 9 15 4 16 5 17 103 18 6 19 7 20 102 21 8 22
REMARK SMILES IDX 101 23 2 24 1 25 3 26 98 27 99 28 100 29 23 30 24 31 25 32
REMARK SMILES IDX 26 33 27 34 28 35 29 36 30 37 31 38 32 39 33 40 97 41 34 42
REMARK SMILES IDX 96 43 35 44 36 45 37 46 90 47 38 48 95 49 89 50 91 51 39 52
REMARK SMILES IDX 94 53 88 54 87 55 40 57 74 58 53 59 73 60 54 61 57 62 72 63
REMARK SMILES IDX 92 64 55 65 56 66 71 68 93 69 58 70 41 71 42 72 51 73 43 74
REMARK SMILES IDX 44 75 50 76 52 77 45 78 46 79 47 80 48 81 49 82 75 83 76 84
REMARK SMILES IDX 85 85 77 86 78 87 84 88 86 89 79 90 80 91 81 92 82 93 83 94
REMARK SMILES IDX 59 95 60 96 69 97 61 98 62 99 68 100 70 101 63 102 64 103
REMARK SMILES IDX 65 104 66 105 67 106
REMARK H PARENT 13 11 91 56 57 67
REMARK Flexibility Score: inf
ROOT
ATOM      1  C   UNL A   1      33.025  28.227  27.155  1.00  0.00     0.188 C 
ENDROOT
BRANCH   1   2
ATOM      2  C   UNL A   1      31.908  28.857  26.302  1.00  0.00     0.188 C 
BRANCH   2   3
ATOM      3  O   UNL A   1      31.906  28.486  24.928  1.00  0.00    -0.376 OA
BRANCH   3   4
ATOM      4  C   UNL A   1      32.503  29.436  24.045  1.00  0.00     0.202 C 
BRANCH   4   5
ATOM      5  C   UNL A   1      33.151  28.817  22.805  1.00  0.00     0.261 C 
BRANCH   5   6
ATOM      6  O   UNL A   1      33.912  27.654  23.160  1.00  0.00    -0.462 OA
BRANCH   6   7
ATOM      7  C   UNL A   1      33.619  26.478  22.579  1.00  0.00     0.324 C 
ATOM      8  O   UNL A   1      33.602  26.282  21.369  1.00  0.00    -0.250 OA
BRANCH   7   9
ATOM      9  C   UNL A   1      33.412  25.370  23.607  1.00  0.00     0.182 C 
BRANCH   9  10
ATOM     10  N   UNL A   1      32.587  25.660  24.801  1.00  0.00    -0.197 NA
ATOM     11  H   UNL A   1      33.190  25.453  25.598  1.00  0.00     0.142 HD
BRANCH  10  12
ATOM     12  S   UNL A   1      31.114  24.962  25.178  1.00  0.00     0.241 S 
ATOM     13  O   UNL A   1      30.113  25.374  24.226  1.00  0.00    -0.207 OA
ATOM     14  O   UNL A   1      30.952  25.163  26.603  1.00  0.00    -0.207 OA
BRANCH  12  15
ATOM     15  C   UNL A   1      31.361  23.227  24.942  1.00  0.00     0.082 A 
ATOM     16  N   UNL A   1      32.568  19.361  23.978  1.00  0.00    -0.312 N 
ATOM     17  C   UNL A   1      32.395  19.368  22.514  1.00  0.00     0.130 C 
ATOM     18  C   UNL A   1      32.143  20.601  24.488  1.00  0.00     0.047 A 
ATOM     19  C   UNL A   1      31.880  20.747  22.105  1.00  0.00     0.059 C 
ATOM     20  C   UNL A   1      31.769  21.434  23.428  1.00  0.00    -0.021 A 
ATOM     21  C   UNL A   1      32.073  21.070  25.791  1.00  0.00     0.028 A 
ATOM     22  C   UNL A   1      31.390  22.750  23.631  1.00  0.00     0.027 A 
ATOM     23  C   UNL A   1      31.656  22.385  26.021  1.00  0.00     0.024 A 
BRANCH  16  24
ATOM     24  C   UNL A   1      33.102  18.245  24.584  1.00  0.00     0.223 C 
ATOM     25  C   UNL A   1      34.547  17.900  24.362  1.00  0.00     0.115 C 
ATOM     26  O   UNL A   1      32.422  17.511  25.308  1.00  0.00    -0.275 OA
ENDBRANCH  16  24
ENDBRANCH  12  15
ENDBRANCH  10  12
ENDBRANCH   9  10
BRANCH   9  27
ATOM     27  C   UNL A   1      34.764  24.774  24.120  1.00  0.00     0.012 C 
ATOM     28  C   UNL A   1      34.801  24.729  25.657  1.00  0.00     0.009 C 
ATOM     29  C   UNL A   1      35.086  23.379  23.580  1.00  0.00     0.009 C 
ENDBRANCH   9  27
ENDBRANCH   7   9
ENDBRANCH   6   7
ENDBRANCH   5   6
ENDBRANCH   4   5
ENDBRANCH   3   4
ENDBRANCH   2   3
ENDBRANCH   1   2
BRANCH   1  30
ATOM     30  O   UNL A   1      34.382  28.482  26.848  1.00  0.00    -0.377 OA
BRANCH  30  31
ATOM     31  C   UNL A   1      34.971  29.703  27.286  1.00  0.00     0.188 C 
BRANCH  31  32
ATOM     32  C   UNL A   1      35.766  29.734  28.609  1.00  0.00     0.188 C 
BRANCH  32  33
ATOM     33  O   UNL A   1      35.992  31.028  29.154  1.00  0.00    -0.376 OA
BRANCH  33  34
ATOM     34  C   UNL A   1      35.994  31.128  30.573  1.00  0.00     0.202 C 
BRANCH  34  35
ATOM     35  C   UNL A   1      36.242  32.534  31.140  1.00  0.00     0.261 C 
BRANCH  35  36
ATOM     36  O   UNL A   1      37.625  32.874  31.329  1.00  0.00    -0.460 OA
BRANCH  36  37
ATOM     37  C   UNL A   1      38.306  32.167  32.254  1.00  0.00     0.338 C 
ATOM     38  O   UNL A   1      38.076  32.091  33.447  1.00  0.00    -0.246 OA
BRANCH  37  39
ATOM     39  C   UNL A   1      39.305  31.345  31.551  1.00  0.00     0.060 A 
ATOM     40  C   UNL A   1      40.092  30.459  32.296  1.00  0.00     0.016 A 
ATOM     41  C   UNL A   1      39.493  31.493  30.176  1.00  0.00     0.016 A 
ATOM     42  C   UNL A   1      41.121  29.759  31.671  1.00  0.00     0.010 A 
ATOM     43  C   UNL A   1      40.537  30.807  29.555  1.00  0.00     0.010 A 
ATOM     44  C   UNL A   1      41.383  29.978  30.311  1.00  0.00    -0.014 A 
BRANCH  44  45
ATOM     45  C   UNL A   1      42.686  29.553  29.750  1.00  0.00     0.031 A 
ATOM     46  C   UNL A   1      42.787  28.159  29.193  1.00  0.00     0.074 A 
ATOM     47  C   UNL A   1      43.740  30.386  29.712  1.00  0.00     0.049 A 
ATOM     48  N   UNL A   1      43.815  27.544  28.671  1.00  0.00    -0.248 NA
ATOM     49  C   UNL A   1      41.556  27.348  29.231  1.00  0.00     0.031 C 
ATOM     50  C   UNL A   1      43.749  31.768  30.184  1.00  0.00     0.029 A 
ATOM     51  N   UNL A   1      45.015  30.178  29.250  1.00  0.00    -0.354 N 
ATOM     52  C   UNL A   1      43.355  26.283  28.311  1.00  0.00     0.074 A 
ATOM     53  C   UNL A   1      41.967  26.204  28.706  1.00  0.00     0.031 C 
ATOM     54  C   UNL A   1      44.977  32.284  29.996  1.00  0.00     0.029 A 
ATOM     55  C   UNL A   1      45.843  31.262  29.412  1.00  0.00     0.049 A 
ATOM     56  H   UNL A   1      45.308  29.332  28.841  1.00  0.00     0.167 HD
ATOM     57  C   UNL A   1      44.027  25.281  27.698  1.00  0.00     0.037 A 
ATOM     58  C   UNL A   1      47.155  31.399  29.131  1.00  0.00     0.037 A 
ATOM     59  C   UNL A   1      45.413  25.354  27.325  1.00  0.00     0.049 A 
ATOM     60  C   UNL A   1      47.901  30.243  28.513  1.00  0.00     0.074 A 
ATOM     61  C   UNL A   1      46.196  24.387  26.722  1.00  0.00     0.029 A 
ATOM     62  N   UNL A   1      46.224  26.462  27.524  1.00  0.00    -0.354 N 
ATOM     63  N   UNL A   1      47.454  29.056  28.173  1.00  0.00    -0.248 NA
ATOM     64  C   UNL A   1      49.331  30.448  28.234  1.00  0.00     0.031 C 
ATOM     65  C   UNL A   1      47.492  24.898  26.585  1.00  0.00     0.029 A 
ATOM     66  C   UNL A   1      47.501  26.200  27.062  1.00  0.00     0.049 A 
ATOM     67  H   UNL A   1      45.933  27.309  27.933  1.00  0.00     0.167 HD
ATOM     68  C   UNL A   1      48.538  28.389  27.607  1.00  0.00     0.074 A 
ATOM     69  C   UNL A   1      49.660  29.303  27.650  1.00  0.00     0.031 C 
ATOM     70  C   UNL A   1      48.598  27.134  27.094  1.00  0.00     0.037 A 
BRANCH  57  71
ATOM     71  C   UNL A   1      43.267  24.017  27.413  1.00  0.00     0.058 A 
ATOM     72  C   UNL A   1      43.272  22.942  28.316  1.00  0.00     0.135 A 
ATOM     73  C   UNL A   1      42.525  23.879  26.231  1.00  0.00     0.135 A 
ATOM     74  F   UNL A   1      43.987  23.013  29.450  1.00  0.00    -0.206 F 
ATOM     75  C   UNL A   1      42.584  21.763  28.045  1.00  0.00     0.059 A 
ATOM     76  C   UNL A   1      41.810  22.719  25.949  1.00  0.00     0.059 A 
ATOM     77  F   UNL A   1      42.495  24.875  25.331  1.00  0.00    -0.206 F 
ATOM     78  C   UNL A   1      41.858  21.661  26.857  1.00  0.00     0.060 A 
BRANCH  78  79
ATOM     79  S   UNL A   1      40.969  20.126  26.517  1.00  0.00     0.124 S 
ATOM     80  O   UNL A   1      40.904  19.528  27.847  1.00  0.00    -0.237 OA
ATOM     81  O   UNL A   1      39.703  20.609  25.978  1.00  0.00    -0.237 OA
ATOM     82  O   UNL A   1      41.833  19.439  25.562  1.00  0.00    -0.744 OA
ENDBRANCH  78  79
ENDBRANCH  57  71
BRANCH  58  83
ATOM     83  C   UNL A   1      47.855  32.676  29.429  1.00  0.00     0.058 A 
ATOM     84  C   UNL A   1      48.494  32.880  30.661  1.00  0.00     0.135 A 
ATOM     85  C   UNL A   1      47.877  33.725  28.499  1.00  0.00     0.135 A 
ATOM     86  F   UNL A   1      48.490  31.909  31.588  1.00  0.00    -0.206 F 
ATOM     87  C   UNL A   1      49.111  34.088  30.971  1.00  0.00     0.059 A 
ATOM     88  C   UNL A   1      48.508  34.934  28.776  1.00  0.00     0.059 A 
ATOM     89  F   UNL A   1      47.289  33.577  27.302  1.00  0.00    -0.206 F 
ATOM     90  C   UNL A   1      49.110  35.111  30.020  1.00  0.00     0.060 A 
BRANCH  90  91
ATOM     91  S   UNL A   1      49.942  36.665  30.412  1.00  0.00     0.124 S 
ATOM     92  O   UNL A   1      51.270  36.436  29.854  1.00  0.00    -0.237 OA
ATOM     93  O   UNL A   1      49.115  37.644  29.714  1.00  0.00    -0.237 OA
ATOM     94  O   UNL A   1      49.868  36.722  31.869  1.00  0.00    -0.744 OA
ENDBRANCH  90  91
ENDBRANCH  58  83
BRANCH  70  95
ATOM     95  C   UNL A   1      49.900  26.696  26.484  1.00  0.00     0.058 A 
ATOM     96  C   UNL A   1      50.265  27.057  25.179  1.00  0.00     0.135 A 
ATOM     97  C   UNL A   1      50.817  25.949  27.241  1.00  0.00     0.135 A 
ATOM     98  F   UNL A   1      49.421  27.768  24.413  1.00  0.00    -0.206 F 
ATOM     99  C   UNL A   1      51.486  26.673  24.635  1.00  0.00     0.059 A 
ATOM    100  C   UNL A   1      52.054  25.575  26.726  1.00  0.00     0.059 A 
ATOM    101  F   UNL A   1      50.521  25.589  28.500  1.00  0.00    -0.206 F 
ATOM    102  C   UNL A   1      52.374  25.931  25.417  1.00  0.00     0.060 A 
BRANCH 102 103
ATOM    103  S   UNL A   1      53.971  25.464  24.714  1.00  0.00     0.124 S 
ATOM    104  O   UNL A   1      54.898  26.057  25.672  1.00  0.00    -0.237 OA
ATOM    105  O   UNL A   1      53.902  24.005  24.719  1.00  0.00    -0.237 OA
ATOM    106  O   UNL A   1      53.953  26.081  23.391  1.00  0.00    -0.744 OA
ENDBRANCH 102 103
ENDBRANCH  70  95
ENDBRANCH  44  45
ENDBRANCH  37  39
ENDBRANCH  36  37
ENDBRANCH  35  36
ENDBRANCH  34  35
ENDBRANCH  33  34
ENDBRANCH  32  33
ENDBRANCH  31  32
ENDBRANCH  30  31
ENDBRANCH   1  30
TORSDOF 28
ENDMDL
MODEL 2
REMARK VINA RESULT:      -9.0      1.271      7.914
REMARK SMILES CC(=O)N1CCc2cc(S(=O)(=O)N[C@@H](C(=O)OCCOCCOCCOCCOC(=O)c3ccc(-c4c5nc(c(-c6c(F)cc(S(=O)(=O)[O-])cc6F)c6ccc([nH]6)c(-c6c(F)cc(S(=O)(=O)[O-])cc6F)c6nc(c(-c7c(F)cc(S(=O)(=O)[O-])cc7F)c7ccc4[nH]7)C=C6)C=C5)cc3)C(C)C)ccc21
REMARK SMILES IDX 22 1 21 2 20 3 19 4 18 5 17 6 15 7 16 8 14 9 13 10 10 12
REMARK SMILES IDX 11 13 12 14 9 15 4 16 5 17 103 18 6 19 7 20 102 21 8 22
REMARK SMILES IDX 101 23 2 24 1 25 3 26 98 27 99 28 100 29 23 30 24 31 25 32
REMARK SMILES IDX 26 33 27 34 28 35 29 36 30 37 31 38 32 39 33 40 97 41 34 42
REMARK SMILES IDX 96 43 35 44 36 45 37 46 90 47 38 48 95 49 89 50 91 51 39 52
REMARK SMILES IDX 94 53 88 54 87 55 40 57 74 58 53 59 73 60 54 61 57 62 72 63
REMARK SMILES IDX 92 64 55 65 56 66 71 68 93 69 58 70 41 71 42 72 51 73 43 74
REMARK SMILES IDX 44 75 50 76 52 77 45 78 46 79 47 80 48 81 49 82 75 83 76 84
REMARK SMILES IDX 85 85 77 86 78 87 84 88 86 89 79 90 80 91 81 92 82 93 83 94
REMARK SMILES IDX 59 95 60 96 69 97 61 98 62 99 68 100 70 101 63 102 64 103
REMARK SMILES IDX 65 104 66 105 67 106
REMARK H PARENT 13 11 91 56 57 67
REMARK Flexibility Score: inf
ROOT
ATOM      1  C   UNL A   1      33.624  29.099  27.520  1.00  0.00     0.188 C 
ENDROOT
BRANCH   1   2
ATOM      2  C   UNL A   1      32.127  28.825  27.293  1.00  0.00     0.188 C 
BRANCH   2   3
ATOM      3  O   UNL A   1      31.808  28.126  26.094  1.00  0.00    -0.376 OA
BRANCH   3   4
ATOM      4  C   UNL A   1      31.424  28.955  24.996  1.00  0.00     0.202 C 
BRANCH   4   5
ATOM      5  C   UNL A   1      32.529  29.172  23.960  1.00  0.00     0.261 C 
BRANCH   5   6
ATOM      6  O   UNL A   1      33.485  28.104  24.010  1.00  0.00    -0.462 OA
BRANCH   6   7
ATOM      7  C   UNL A   1      33.493  27.186  23.028  1.00  0.00     0.324 C 
ATOM      8  O   UNL A   1      33.949  27.370  21.905  1.00  0.00    -0.250 OA
BRANCH   7   9
ATOM      9  C   UNL A   1      32.963  25.837  23.504  1.00  0.00     0.182 C 
BRANCH   9  10
ATOM     10  N   UNL A   1      33.937  24.786  23.876  1.00  0.00    -0.197 NA
ATOM     11  H   UNL A   1      33.775  24.028  23.212  1.00  0.00     0.142 HD
BRANCH  10  12
ATOM     12  S   UNL A   1      34.065  24.040  25.367  1.00  0.00     0.241 S 
ATOM     13  O   UNL A   1      32.954  24.415  26.205  1.00  0.00    -0.207 OA
ATOM     14  O   UNL A   1      35.439  24.239  25.774  1.00  0.00    -0.207 OA
BRANCH  12  15
ATOM     15  C   UNL A   1      33.889  22.313  25.026  1.00  0.00     0.082 A 
ATOM     16  N   UNL A   1      33.876  18.153  24.877  1.00  0.00    -0.312 N 
ATOM     17  C   UNL A   1      35.312  17.873  24.699  1.00  0.00     0.130 C 
ATOM     18  C   UNL A   1      33.688  19.547  24.891  1.00  0.00     0.047 A 
ATOM     19  C   UNL A   1      36.054  19.208  24.662  1.00  0.00     0.059 C 
ATOM     20  C   UNL A   1      34.930  20.183  24.801  1.00  0.00    -0.021 A 
ATOM     21  C   UNL A   1      32.531  20.305  24.996  1.00  0.00     0.028 A 
ATOM     22  C   UNL A   1      35.054  21.560  24.880  1.00  0.00     0.027 A 
ATOM     23  C   UNL A   1      32.631  21.699  25.039  1.00  0.00     0.024 A 
BRANCH  16  24
ATOM     24  C   UNL A   1      33.001  17.099  25.021  1.00  0.00     0.223 C 
ATOM     25  C   UNL A   1      33.533  15.697  25.099  1.00  0.00     0.115 C 
ATOM     26  O   UNL A   1      31.780  17.274  25.084  1.00  0.00    -0.275 OA
ENDBRANCH  16  24
ENDBRANCH  12  15
ENDBRANCH  10  12
ENDBRANCH   9  10
BRANCH   9  27
ATOM     27  C   UNL A   1      31.966  25.197  22.483  1.00  0.00     0.012 C 
ATOM     28  C   UNL A   1      31.078  24.143  23.165  1.00  0.00     0.009 C 
ATOM     29  C   UNL A   1      31.068  26.202  21.760  1.00  0.00     0.009 C 
ENDBRANCH   9  27
ENDBRANCH   7   9
ENDBRANCH   6   7
ENDBRANCH   5   6
ENDBRANCH   4   5
ENDBRANCH   3   4
ENDBRANCH   2   3
ENDBRANCH   1   2
BRANCH   1  30
ATOM     30  O   UNL A   1      34.172  30.363  27.199  1.00  0.00    -0.377 OA
BRANCH  30  31
ATOM     31  C   UNL A   1      33.560  31.535  27.731  1.00  0.00     0.188 C 
BRANCH  31  32
ATOM     32  C   UNL A   1      34.444  32.655  28.321  1.00  0.00     0.188 C 
BRANCH  32  33
ATOM     33  O   UNL A   1      33.953  33.254  29.515  1.00  0.00    -0.376 OA
BRANCH  33  34
ATOM     34  C   UNL A   1      34.392  32.679  30.739  1.00  0.00     0.202 C 
BRANCH  34  35
ATOM     35  C   UNL A   1      35.909  32.478  30.872  1.00  0.00     0.261 C 
BRANCH  35  36
ATOM     36  O   UNL A   1      36.381  31.174  30.495  1.00  0.00    -0.460 OA
BRANCH  36  37
ATOM     37  C   UNL A   1      37.020  30.459  31.444  1.00  0.00     0.338 C 
ATOM     38  O   UNL A   1      36.526  29.869  32.387  1.00  0.00    -0.246 OA
BRANCH  37  39
ATOM     39  C   UNL A   1      38.437  30.362  31.060  1.00  0.00     0.060 A 
ATOM     40  C   UNL A   1      38.808  30.722  29.758  1.00  0.00     0.016 A 
ATOM     41  C   UNL A   1      39.378  29.867  31.964  1.00  0.00     0.016 A 
ATOM     42  C   UNL A   1      40.121  30.527  29.337  1.00  0.00     0.010 A 
ATOM     43  C   UNL A   1      40.688  29.652  31.534  1.00  0.00     0.010 A 
ATOM     44  C   UNL A   1      41.049  29.936  30.206  1.00  0.00    -0.014 A 
BRANCH  44  45
ATOM     45  C   UNL A   1      42.301  29.375  29.651  1.00  0.00     0.031 A 
ATOM     46  C   UNL A   1      43.512  30.270  29.614  1.00  0.00     0.074 A 
ATOM     47  C   UNL A   1      42.373  28.105  29.218  1.00  0.00     0.049 A 
ATOM     48  N   UNL A   1      44.712  30.026  29.158  1.00  0.00    -0.248 NA
ATOM     49  C   UNL A   1      43.342  31.626  30.167  1.00  0.00     0.031 C 
ATOM     50  C   UNL A   1      41.279  27.137  29.243  1.00  0.00     0.029 A 
ATOM     51  N   UNL A   1      43.424  27.416  28.668  1.00  0.00    -0.354 N 
ATOM     52  C   UNL A   1      45.440  31.189  29.378  1.00  0.00     0.074 A 
ATOM     53  C   UNL A   1      44.541  32.152  29.973  1.00  0.00     0.031 C 
ATOM     54  C   UNL A   1      41.715  25.976  28.720  1.00  0.00     0.029 A 
ATOM     55  C   UNL A   1      43.109  26.129  28.305  1.00  0.00     0.049 A 
ATOM     56  H   UNL A   1      44.319  27.807  28.546  1.00  0.00     0.167 HD
ATOM     57  C   UNL A   1      46.745  31.433  29.115  1.00  0.00     0.037 A 
ATOM     58  C   UNL A   1      43.862  25.193  27.694  1.00  0.00     0.037 A 
ATOM     59  C   UNL A   1      47.632  30.481  28.504  1.00  0.00     0.049 A 
ATOM     60  C   UNL A   1      45.294  25.511  27.346  1.00  0.00     0.074 A 
ATOM     61  C   UNL A   1      48.966  30.634  28.171  1.00  0.00     0.029 A 
ATOM     62  N   UNL A   1      47.271  29.194  28.132  1.00  0.00    -0.354 N 
ATOM     63  N   UNL A   1      45.973  26.614  27.562  1.00  0.00    -0.248 NA
ATOM     64  C   UNL A   1      46.066  24.454  26.674  1.00  0.00     0.031 C 
ATOM     65  C   UNL A   1      49.403  29.450  27.567  1.00  0.00     0.029 A 
ATOM     66  C   UNL A   1      48.353  28.545  27.566  1.00  0.00     0.049 A 
ATOM     67  H   UNL A   1      46.376  28.801  28.253  1.00  0.00     0.167 HD
ATOM     68  C   UNL A   1      47.259  26.368  27.088  1.00  0.00     0.074 A 
ATOM     69  C   UNL A   1      47.264  25.014  26.575  1.00  0.00     0.031 C 
ATOM     70  C   UNL A   1      48.341  27.188  27.082  1.00  0.00     0.037 A 
BRANCH  57  71
ATOM     71  C   UNL A   1      47.277  32.790  29.474  1.00  0.00     0.058 A 
ATOM     72  C   UNL A   1      47.796  33.059  30.751  1.00  0.00     0.135 A 
ATOM     73  C   UNL A   1      47.271  33.831  28.534  1.00  0.00     0.135 A 
ATOM     74  F   UNL A   1      47.799  32.104  31.695  1.00  0.00    -0.206 F 
ATOM     75  C   UNL A   1      48.271  34.322  31.090  1.00  0.00     0.059 A 
ATOM     76  C   UNL A   1      47.763  35.096  28.844  1.00  0.00     0.059 A 
ATOM     77  F   UNL A   1      46.778  33.629  27.302  1.00  0.00    -0.206 F 
ATOM     78  C   UNL A   1      48.247  35.335  30.130  1.00  0.00     0.060 A 
BRANCH  78  79
ATOM     79  S   UNL A   1      48.867  36.969  30.583  1.00  0.00     0.124 S 
ATOM     80  O   UNL A   1      48.295  37.799  29.528  1.00  0.00    -0.237 OA
ATOM     81  O   UNL A   1      48.302  37.161  31.915  1.00  0.00    -0.237 OA
ATOM     82  O   UNL A   1      50.317  36.806  30.538  1.00  0.00    -0.744 OA
ENDBRANCH  78  79
ENDBRANCH  57  71
BRANCH  58  83
ATOM     83  C   UNL A   1      43.284  23.863  27.367  1.00  0.00     0.058 A 
ATOM     84  C   UNL A   1      43.335  22.805  28.288  1.00  0.00     0.135 A 
ATOM     85  C   UNL A   1      42.691  23.616  26.120  1.00  0.00     0.135 A 
ATOM     86  F   UNL A   1      43.902  22.990  29.490  1.00  0.00    -0.206 F 
ATOM     87  C   UNL A   1      42.839  21.543  27.977  1.00  0.00     0.059 A 
ATOM     88  C   UNL A   1      42.168  22.369  25.794  1.00  0.00     0.059 A 
ATOM     89  F   UNL A   1      42.608  24.597  25.208  1.00  0.00    -0.206 F 
ATOM     90  C   UNL A   1      42.259  21.335  26.723  1.00  0.00     0.060 A 
BRANCH  90  91
ATOM     91  S   UNL A   1      41.586  19.704  26.336  1.00  0.00     0.124 S 
ATOM     92  O   UNL A   1      41.882  18.967  27.558  1.00  0.00    -0.237 OA
ATOM     93  O   UNL A   1      40.178  20.000  26.091  1.00  0.00    -0.237 OA
ATOM     94  O   UNL A   1      42.347  19.304  25.155  1.00  0.00    -0.744 OA
ENDBRANCH  90  91
ENDBRANCH  58  83
BRANCH  70  95
ATOM     95  C   UNL A   1      49.634  26.627  26.560  1.00  0.00     0.058 A 
ATOM     96  C   UNL A   1      50.029  26.796  25.225  1.00  0.00     0.135 A 
ATOM     97  C   UNL A   1      50.515  25.959  27.428  1.00  0.00     0.135 A 
ATOM     98  F   UNL A   1      49.221  27.424  24.355  1.00  0.00    -0.206 F 
ATOM     99  C   UNL A   1      51.243  26.302  24.760  1.00  0.00     0.059 A 
ATOM    100  C   UNL A   1      51.744  25.479  26.990  1.00  0.00     0.059 A 
ATOM    101  F   UNL A   1      50.189  25.783  28.718  1.00  0.00    -0.206 F 
ATOM    102  C   UNL A   1      52.094  25.644  25.650  1.00  0.00     0.060 A 
BRANCH 102 103
ATOM    103  S   UNL A   1      53.682  25.032  25.046  1.00  0.00     0.124 S 
ATOM    104  O   UNL A   1      53.452  23.593  25.020  1.00  0.00    -0.237 OA
ATOM    105  O   UNL A   1      53.793  25.680  23.742  1.00  0.00    -0.237 OA
ATOM    106  O   UNL A   1      54.631  25.501  26.053  1.00  0.00    -0.744 OA
ENDBRANCH 102 103
ENDBRANCH  70  95
ENDBRANCH  44  45
ENDBRANCH  37  39
ENDBRANCH  36  37
ENDBRANCH  35  36
ENDBRANCH  34  35
ENDBRANCH  33  34
ENDBRANCH  32  33
ENDBRANCH  31  32
ENDBRANCH  30  31
ENDBRANCH   1  30
TORSDOF 28
ENDMDL
MODEL 3
REMARK VINA RESULT:      -7.0      6.213     12.574
REMARK SMILES CC(=O)N1CCc2cc(S(=O)(=O)N[C@@H](C(=O)OCCOCCOCCOCCOC(=O)c3ccc(-c4c5nc(c(-c6c(F)cc(S(=O)(=O)[O-])cc6F)c6ccc([nH]6)c(-c6c(F)cc(S(=O)(=O)[O-])cc6F)c6nc(c(-c7c(F)cc(S(=O)(=O)[O-])cc7F)c7ccc4[nH]7)C=C6)C=C5)cc3)C(C)C)ccc21
REMARK SMILES IDX 22 1 21 2 20 3 19 4 18 5 17 6 15 7 16 8 14 9 13 10 10 12
REMARK SMILES IDX 11 13 12 14 9 15 4 16 5 17 103 18 6 19 7 20 102 21 8 22
REMARK SMILES IDX 101 23 2 24 1 25 3 26 98 27 99 28 100 29 23 30 24 31 25 32
REMARK SMILES IDX 26 33 27 34 28 35 29 36 30 37 31 38 32 39 33 40 97 41 34 42
REMARK SMILES IDX 96 43 35 44 36 45 37 46 90 47 38 48 95 49 89 50 91 51 39 52
REMARK SMILES IDX 94 53 88 54 87 55 40 57 74 58 53 59 73 60 54 61 57 62 72 63
REMARK SMILES IDX 92 64 55 65 56 66 71 68 93 69 58 70 41 71 42 72 51 73 43 74
REMARK SMILES IDX 44 75 50 76 52 77 45 78 46 79 47 80 48 81 49 82 75 83 76 84
REMARK SMILES IDX 85 85 77 86 78 87 84 88 86 89 79 90 80 91 81 92 82 93 83 94
REMARK SMILES IDX 59 95 60 96 69 97 61 98 62 99 68 100 70 101 63 102 64 103
REMARK SMILES IDX 65 104 66 105 67 106
REMARK H PARENT 13 11 91 56 57 67
REMARK Flexibility Score: inf
ROOT
ATOM      1  C   UNL A   1      44.555  25.351  31.360  1.00  0.00     0.188 C 
ENDROOT
BRANCH   1   2
ATOM      2  C   UNL A   1      44.034  24.579  30.134  1.00  0.00     0.188 C 
BRANCH   2   3
ATOM      3  O   UNL A   1      43.591  23.251  30.390  1.00  0.00    -0.376 OA
BRANCH   3   4
ATOM      4  C   UNL A   1      42.785  22.674  29.363  1.00  0.00     0.202 C 
BRANCH   4   5
ATOM      5  C   UNL A   1      43.566  22.258  28.115  1.00  0.00     0.261 C 
BRANCH   5   6
ATOM      6  O   UNL A   1      42.821  22.561  26.928  1.00  0.00    -0.462 OA
BRANCH   6   7
ATOM      7  C   UNL A   1      42.589  23.846  26.610  1.00  0.00     0.324 C 
ATOM      8  O   UNL A   1      41.479  24.367  26.576  1.00  0.00    -0.250 OA
BRANCH   7   9
ATOM      9  C   UNL A   1      43.883  24.624  26.398  1.00  0.00     0.182 C 
BRANCH   9  10
ATOM     10  N   UNL A   1      43.848  26.100  26.511  1.00  0.00    -0.197 NA
ATOM     11  H   UNL A   1      43.668  26.287  27.498  1.00  0.00     0.142 HD
BRANCH  10  12
ATOM     12  S   UNL A   1      42.828  27.131  25.678  1.00  0.00     0.241 S 
ATOM     13  O   UNL A   1      42.034  26.386  24.734  1.00  0.00    -0.207 OA
ATOM     14  O   UNL A   1      43.659  28.246  25.277  1.00  0.00    -0.207 OA
BRANCH  12  15
ATOM     15  C   UNL A   1      41.715  27.753  26.905  1.00  0.00     0.082 A 
ATOM     16  N   UNL A   1      39.694  29.656  30.007  1.00  0.00    -0.312 N 
ATOM     17  C   UNL A   1      40.446  29.165  31.176  1.00  0.00     0.130 C 
ATOM     18  C   UNL A   1      40.220  29.054  28.849  1.00  0.00     0.047 A 
ATOM     19  C   UNL A   1      41.552  28.238  30.673  1.00  0.00     0.059 C 
ATOM     20  C   UNL A   1      41.313  28.255  29.198  1.00  0.00    -0.021 A 
ATOM     21  C   UNL A   1      39.839  29.160  27.520  1.00  0.00     0.028 A 
ATOM     22  C   UNL A   1      42.080  27.609  28.243  1.00  0.00     0.027 A 
ATOM     23  C   UNL A   1      40.577  28.485  26.543  1.00  0.00     0.024 A 
BRANCH  16  24
ATOM     24  C   UNL A   1      38.689  30.578  30.196  1.00  0.00     0.223 C 
ATOM     25  C   UNL A   1      37.338  30.118  30.664  1.00  0.00     0.115 C 
ATOM     26  O   UNL A   1      38.864  31.782  29.987  1.00  0.00    -0.275 OA
ENDBRANCH  16  24
ENDBRANCH  12  15
ENDBRANCH  10  12
ENDBRANCH   9  10
BRANCH   9  27
ATOM     27  C   UNL A   1      44.563  24.286  25.031  1.00  0.00     0.012 C 
ATOM     28  C   UNL A   1      46.052  23.952  25.222  1.00  0.00     0.009 C 
ATOM     29  C   UNL A   1      43.899  23.143  24.260  1.00  0.00     0.009 C 
ENDBRANCH   9  27
ENDBRANCH   7   9
ENDBRANCH   6   7
ENDBRANCH   5   6
ENDBRANCH   4   5
ENDBRANCH   3   4
ENDBRANCH   2   3
ENDBRANCH   1   2
BRANCH   1  30
ATOM     30  O   UNL A   1      45.943  25.565  31.526  1.00  0.00    -0.377 OA
BRANCH  30  31
ATOM     31  C   UNL A   1      46.415  26.112  32.755  1.00  0.00     0.188 C 
BRANCH  31  32
ATOM     32  C   UNL A   1      45.525  26.035  34.015  1.00  0.00     0.188 C 
BRANCH  32  33
ATOM     33  O   UNL A   1      45.916  25.064  34.978  1.00  0.00    -0.376 OA
BRANCH  33  34
ATOM     34  C   UNL A   1      45.142  23.872  35.026  1.00  0.00     0.202 C 
BRANCH  34  35
ATOM     35  C   UNL A   1      43.680  24.047  35.464  1.00  0.00     0.261 C 
BRANCH  35  36
ATOM     36  O   UNL A   1      43.499  24.797  36.676  1.00  0.00    -0.460 OA
BRANCH  36  37
ATOM     37  C   UNL A   1      42.295  25.380  36.858  1.00  0.00     0.338 C 
ATOM     38  O   UNL A   1      41.299  24.886  37.353  1.00  0.00    -0.246 OA
BRANCH  37  39
ATOM     39  C   UNL A   1      42.423  26.803  36.505  1.00  0.00     0.060 A 
ATOM     40  C   UNL A   1      41.398  27.409  35.768  1.00  0.00     0.016 A 
ATOM     41  C   UNL A   1      43.573  27.513  36.855  1.00  0.00     0.016 A 
ATOM     42  C   UNL A   1      41.551  28.719  35.322  1.00  0.00     0.010 A 
ATOM     43  C   UNL A   1      43.734  28.818  36.390  1.00  0.00     0.010 A 
ATOM     44  C   UNL A   1      42.746  29.406  35.582  1.00  0.00    -0.014 A 
BRANCH  44  45
ATOM     45  C   UNL A   1      43.067  30.617  34.794  1.00  0.00     0.031 A 
ATOM     46  C   UNL A   1      42.721  31.954  35.394  1.00  0.00     0.074 A 
ATOM     47  C   UNL A   1      43.670  30.538  33.597  1.00  0.00     0.049 A 
ATOM     48  N   UNL A   1      42.877  33.153  34.899  1.00  0.00    -0.248 NA
ATOM     49  C   UNL A   1      42.116  31.931  36.739  1.00  0.00     0.031 C 
ATOM     50  C   UNL A   1      44.087  29.304  32.935  1.00  0.00     0.029 A 
ATOM     51  N   UNL A   1      44.034  31.531  32.722  1.00  0.00    -0.354 N 
ATOM     52  C   UNL A   1      42.401  34.025  35.870  1.00  0.00     0.074 A 
ATOM     53  C   UNL A   1      41.916  33.220  36.969  1.00  0.00     0.031 C 
ATOM     54  C   UNL A   1      44.644  29.612  31.750  1.00  0.00     0.029 A 
ATOM     55  C   UNL A   1      44.601  31.062  31.562  1.00  0.00     0.049 A 
ATOM     56  H   UNL A   1      43.901  32.488  32.908  1.00  0.00     0.167 HD
ATOM     57  C   UNL A   1      42.377  35.378  35.855  1.00  0.00     0.037 A 
ATOM     58  C   UNL A   1      45.021  31.733  30.470  1.00  0.00     0.037 A 
ATOM     59  C   UNL A   1      42.840  36.176  34.753  1.00  0.00     0.049 A 
ATOM     60  C   UNL A   1      44.918  33.238  30.446  1.00  0.00     0.074 A 
ATOM     61  C   UNL A   1      42.838  37.553  34.623  1.00  0.00     0.029 A 
ATOM     62  N   UNL A   1      43.389  35.664  33.586  1.00  0.00    -0.354 N 
ATOM     63  N   UNL A   1      44.469  34.052  31.372  1.00  0.00    -0.248 NA
ATOM     64  C   UNL A   1      45.385  33.916  29.227  1.00  0.00     0.031 C 
ATOM     65  C   UNL A   1      43.356  37.874  33.364  1.00  0.00     0.029 A 
ATOM     66  C   UNL A   1      43.722  36.697  32.729  1.00  0.00     0.049 A 
ATOM     67  H   UNL A   1      43.523  34.707  33.397  1.00  0.00     0.167 HD
ATOM     68  C   UNL A   1      44.635  35.337  30.863  1.00  0.00     0.074 A 
ATOM     69  C   UNL A   1      45.226  35.193  29.549  1.00  0.00     0.031 C 
ATOM     70  C   UNL A   1      44.331  36.530  31.433  1.00  0.00     0.037 A 
BRANCH  57  71
ATOM     71  C   UNL A   1      41.811  36.070  37.061  1.00  0.00     0.058 A 
ATOM     72  C   UNL A   1      40.429  36.267  37.211  1.00  0.00     0.135 A 
ATOM     73  C   UNL A   1      42.656  36.537  38.079  1.00  0.00     0.135 A 
ATOM     74  F   UNL A   1      39.580  35.863  36.253  1.00  0.00    -0.206 F 
ATOM     75  C   UNL A   1      39.905  36.925  38.319  1.00  0.00     0.059 A 
ATOM     76  C   UNL A   1      42.153  37.177  39.208  1.00  0.00     0.059 A 
ATOM     77  F   UNL A   1      43.986  36.381  37.980  1.00  0.00    -0.206 F 
ATOM     78  C   UNL A   1      40.777  37.379  39.312  1.00  0.00     0.060 A 
BRANCH  78  79
ATOM     79  S   UNL A   1      40.084  38.231  40.745  1.00  0.00     0.124 S 
ATOM     80  O   UNL A   1      40.227  39.629  40.349  1.00  0.00    -0.237 OA
ATOM     81  O   UNL A   1      38.719  37.721  40.784  1.00  0.00    -0.237 OA
ATOM     82  O   UNL A   1      40.944  37.800  41.843  1.00  0.00    -0.744 OA
ENDBRANCH  78  79
ENDBRANCH  57  71
BRANCH  58  83
ATOM     83  C   UNL A   1      45.577  30.995  29.306  1.00  0.00     0.058 A 
ATOM     84  C   UNL A   1      44.749  30.567  28.257  1.00  0.00     0.135 A 
ATOM     85  C   UNL A   1      46.942  30.683  29.230  1.00  0.00     0.135 A 
ATOM     86  F   UNL A   1      43.434  30.833  28.290  1.00  0.00    -0.206 F 
ATOM     87  C   UNL A   1      45.250  29.835  27.186  1.00  0.00     0.059 A 
ATOM     88  C   UNL A   1      47.471  29.972  28.158  1.00  0.00     0.059 A 
ATOM     89  F   UNL A   1      47.778  31.078  30.203  1.00  0.00    -0.206 F 
ATOM     90  C   UNL A   1      46.615  29.540  27.147  1.00  0.00     0.060 A 
BRANCH  90  91
ATOM     91  S   UNL A   1      47.267  28.619  25.737  1.00  0.00     0.124 S 
ATOM     92  O   UNL A   1      46.617  29.294  24.620  1.00  0.00    -0.237 OA
ATOM     93  O   UNL A   1      48.705  28.833  25.865  1.00  0.00    -0.237 OA
ATOM     94  O   UNL A   1      46.821  27.253  25.998  1.00  0.00    -0.744 OA
ENDBRANCH  90  91
ENDBRANCH  58  83
BRANCH  70  95
ATOM     95  C   UNL A   1      44.684  37.775  30.669  1.00  0.00     0.058 A 
ATOM     96  C   UNL A   1      45.893  38.455  30.878  1.00  0.00     0.135 A 
ATOM     97  C   UNL A   1      43.820  38.260  29.672  1.00  0.00     0.135 A 
ATOM     98  F   UNL A   1      46.751  38.033  31.820  1.00  0.00    -0.206 F 
ATOM     99  C   UNL A   1      46.225  39.587  30.141  1.00  0.00     0.059 A 
ATOM    100  C   UNL A   1      44.143  39.376  28.908  1.00  0.00     0.059 A 
ATOM    101  F   UNL A   1      42.656  37.637  29.425  1.00  0.00    -0.206 F 
ATOM    102  C   UNL A   1      45.342  40.041  29.158  1.00  0.00     0.060 A 
BRANCH 102 103
ATOM    103  S   UNL A   1      45.795  41.493  28.186  1.00  0.00     0.124 S 
ATOM    104  O   UNL A   1      46.633  40.903  27.149  1.00  0.00    -0.237 OA
ATOM    105  O   UNL A   1      44.496  41.993  27.743  1.00  0.00    -0.237 OA
ATOM    106  O   UNL A   1      46.489  42.343  29.149  1.00  0.00    -0.744 OA
ENDBRANCH 102 103
ENDBRANCH  70  95
ENDBRANCH  44  45
ENDBRANCH  37  39
ENDBRANCH  36  37
ENDBRANCH  35  36
ENDBRANCH  34  35
ENDBRANCH  33  34
ENDBRANCH  32  33
ENDBRANCH  31  32
ENDBRANCH  30  31
ENDBRANCH   1  30
TORSDOF 28
ENDMDL
