MODEL 1
REMARK VINA RESULT:      -7.7      0.000      0.000
REMARK SMILES Cc1ccc(/C=C(\NC(=O)c2cccc(C)c2)C(=O)OCCOCCOCCOCCOC(=O)c2ccc(-c3c4nc(c(-c5c(F)cc(S(=O)(=O)[O-])cc5F)c5ccc([nH]5)c(-c5c(F)cc(S(=O)(=O)[O-])cc5F)c5nc(c(-c6c(F)cc(S(=O)(=O)[O-])cc6F)c6ccc3[nH]6)C=C5)C=C4)cc2)cc1
REMARK SMILES IDX 27 1 26 2 25 3 24 4 23 5 22 6 21 7 20 8 18 9 19 10 7 11 6 12
REMARK SMILES IDX 5 13 1 14 2 15 3 16 102 17 4 18 101 19 8 20 9 21 10 23 11 24
REMARK SMILES IDX 12 25 17 26 13 27 15 28 14 29 16 30 28 31 29 32 30 33 31 34
REMARK SMILES IDX 32 35 33 36 34 37 35 38 36 39 100 40 37 41 99 42 38 43 39 44
REMARK SMILES IDX 40 45 93 46 41 47 98 48 92 49 94 50 42 51 97 52 91 53 90 54
REMARK SMILES IDX 43 56 77 57 56 58 76 59 57 60 60 61 75 62 95 63 58 64 59 65
REMARK SMILES IDX 74 67 96 68 61 69 44 70 45 71 54 72 46 73 47 74 53 75 55 76
REMARK SMILES IDX 48 77 49 78 50 79 51 80 52 81 78 82 79 83 88 84 80 85 81 86
REMARK SMILES IDX 87 87 89 88 82 89 83 90 84 91 85 92 86 93 62 94 63 95 72 96
REMARK SMILES IDX 64 97 65 98 71 99 73 100 66 101 67 102 68 103 69 104 70 105
REMARK H PARENT 8 22 94 55 60 66
REMARK Flexibility Score: inf
ROOT
ATOM      1  C   UNL A   1      45.095  25.147  25.121  1.00  0.00     0.188 C 
ENDROOT
BRANCH   1   2
ATOM      2  O   UNL A   1      45.629  24.067  24.351  1.00  0.00    -0.377 OA
BRANCH   2   3
ATOM      3  C   UNL A   1      46.109  22.955  25.123  1.00  0.00     0.188 C 
BRANCH   3   4
ATOM      4  C   UNL A   1      45.398  21.601  24.927  1.00  0.00     0.188 C 
BRANCH   4   5
ATOM      5  O   UNL A   1      44.097  21.768  24.343  1.00  0.00    -0.376 OA
BRANCH   5   6
ATOM      6  C   UNL A   1      43.098  22.114  25.309  1.00  0.00     0.202 C 
BRANCH   6   7
ATOM      7  C   UNL A   1      42.821  21.047  26.367  1.00  0.00     0.261 C 
BRANCH   7   8
ATOM      8  O   UNL A   1      41.586  21.395  26.985  1.00  0.00    -0.459 OA
BRANCH   8   9
ATOM      9  C   UNL A   1      40.421  21.199  26.375  1.00  0.00     0.354 C 
ATOM     10  O   UNL A   1      39.868  20.096  26.334  1.00  0.00    -0.244 OA
BRANCH   9  11
ATOM     11  C   UNL A   1      39.659  22.528  26.056  1.00  0.00     0.128 C 
ATOM     12  C   UNL A   1      38.419  22.072  25.668  1.00  0.00     0.042 C 
BRANCH  12  13
ATOM     13  C   UNL A   1      36.979  21.953  25.206  1.00  0.00    -0.023 A 
ATOM     14  C   UNL A   1      32.852  22.414  23.756  1.00  0.00     0.044 C 
ATOM     15  C   UNL A   1      34.289  22.209  24.152  1.00  0.00    -0.051 A 
ATOM     16  C   UNL A   1      34.760  21.019  24.741  1.00  0.00     0.004 A 
ATOM     17  C   UNL A   1      35.189  23.248  24.001  1.00  0.00     0.004 A 
ATOM     18  C   UNL A   1      36.092  20.886  25.252  1.00  0.00     0.008 A 
ATOM     19  C   UNL A   1      36.481  23.118  24.521  1.00  0.00     0.008 A 
ENDBRANCH  12  13
BRANCH  11  20
ATOM     20  N   UNL A   1      40.297  23.839  26.291  1.00  0.00    -0.316 N 
ATOM     21  C   UNL A   1      39.744  24.751  27.347  1.00  0.00     0.255 C 
ATOM     22  H   UNL A   1      41.079  24.112  25.758  1.00  0.00     0.170 HD
ATOM     23  O   UNL A   1      38.757  24.096  27.733  1.00  0.00    -0.269 OA
BRANCH  21  24
ATOM     24  C   UNL A   1      39.984  26.596  27.863  1.00  0.00     0.040 A 
ATOM     25  C   UNL A   1      40.128  28.265  26.788  1.00  0.00     0.014 A 
ATOM     26  C   UNL A   1      41.396  26.164  28.809  1.00  0.00     0.017 A 
ATOM     27  C   UNL A   1      41.842  28.917  26.470  1.00  0.00     0.001 A 
ATOM     28  C   UNL A   1      42.842  27.079  28.793  1.00  0.00    -0.050 A 
ATOM     29  C   UNL A   1      43.121  28.359  27.605  1.00  0.00     0.003 A 
ATOM     30  C   UNL A   1      43.473  26.982  30.171  1.00  0.00     0.044 C 
ENDBRANCH  21  24
ENDBRANCH  11  20
ENDBRANCH   9  11
ENDBRANCH   8   9
ENDBRANCH   7   8
ENDBRANCH   6   7
ENDBRANCH   5   6
ENDBRANCH   4   5
ENDBRANCH   3   4
ENDBRANCH   2   3
ENDBRANCH   1   2
BRANCH   1  31
ATOM     31  C   UNL A   1      45.871  26.450  25.056  1.00  0.00     0.188 C 
BRANCH  31  32
ATOM     32  O   UNL A   1      47.004  26.212  24.224  1.00  0.00    -0.376 OA
BRANCH  32  33
ATOM     33  C   UNL A   1      48.271  26.503  24.781  1.00  0.00     0.202 C 
BRANCH  33  34
ATOM     34  C   UNL A   1      48.690  25.594  25.944  1.00  0.00     0.261 C 
BRANCH  34  35
ATOM     35  O   UNL A   1      48.634  26.296  27.207  1.00  0.00    -0.460 OA
BRANCH  35  36
ATOM     36  C   UNL A   1      47.965  25.630  28.192  1.00  0.00     0.338 C 
ATOM     37  O   UNL A   1      47.255  24.659  27.995  1.00  0.00    -0.246 OA
BRANCH  36  38
ATOM     38  C   UNL A   1      48.098  26.370  29.473  1.00  0.00     0.060 A 
ATOM     39  C   UNL A   1      47.201  26.166  30.513  1.00  0.00     0.016 A 
ATOM     40  C   UNL A   1      48.944  27.461  29.538  1.00  0.00     0.016 A 
ATOM     41  C   UNL A   1      46.946  27.220  31.410  1.00  0.00     0.010 A 
ATOM     42  C   UNL A   1      48.608  28.502  30.393  1.00  0.00     0.010 A 
ATOM     43  C   UNL A   1      47.512  28.471  31.264  1.00  0.00    -0.014 A 
BRANCH  43  44
ATOM     44  C   UNL A   1      47.230  29.676  32.156  1.00  0.00     0.031 A 
ATOM     45  C   UNL A   1      45.901  30.522  31.174  1.00  0.00     0.074 A 
ATOM     46  C   UNL A   1      47.770  29.646  33.625  1.00  0.00     0.049 A 
ATOM     47  N   UNL A   1      45.054  31.500  31.475  1.00  0.00    -0.248 NA
ATOM     48  C   UNL A   1      45.563  30.147  29.768  1.00  0.00     0.031 C 
ATOM     49  C   UNL A   1      47.219  29.947  35.192  1.00  0.00     0.029 A 
ATOM     50  N   UNL A   1      48.737  30.590  34.069  1.00  0.00    -0.354 N 
ATOM     51  C   UNL A   1      43.945  31.548  30.634  1.00  0.00     0.074 A 
ATOM     52  C   UNL A   1      44.355  30.705  29.542  1.00  0.00     0.031 C 
ATOM     53  C   UNL A   1      47.491  31.193  35.803  1.00  0.00     0.029 A 
ATOM     54  C   UNL A   1      48.174  32.039  34.830  1.00  0.00     0.049 A 
ATOM     55  H   UNL A   1      49.700  30.423  33.947  1.00  0.00     0.167 HD
ATOM     56  C   UNL A   1      42.760  32.185  30.972  1.00  0.00     0.037 A 
ATOM     57  C   UNL A   1      48.170  33.520  33.950  1.00  0.00     0.037 A 
ATOM     58  C   UNL A   1      42.837  33.123  32.095  1.00  0.00     0.049 A 
ATOM     59  C   UNL A   1      47.140  34.651  34.586  1.00  0.00     0.074 A 
ATOM     60  C   UNL A   1      42.130  33.243  33.284  1.00  0.00     0.029 A 
ATOM     61  N   UNL A   1      43.566  34.291  31.985  1.00  0.00    -0.354 N 
ATOM     62  N   UNL A   1      45.836  34.580  34.474  1.00  0.00    -0.248 NA
ATOM     63  C   UNL A   1      47.534  36.010  35.044  1.00  0.00     0.031 C 
ATOM     64  C   UNL A   1      42.627  34.346  34.001  1.00  0.00     0.029 A 
ATOM     65  C   UNL A   1      43.521  34.991  33.175  1.00  0.00     0.049 A 
ATOM     66  H   UNL A   1      44.047  34.581  31.178  1.00  0.00     0.167 HD
ATOM     67  C   UNL A   1      45.399  35.887  34.228  1.00  0.00     0.074 A 
ATOM     68  C   UNL A   1      46.442  36.734  34.747  1.00  0.00     0.031 C 
ATOM     69  C   UNL A   1      44.348  36.154  33.391  1.00  0.00     0.037 A 
BRANCH  56  70
ATOM     70  C   UNL A   1      41.311  31.901  30.478  1.00  0.00     0.058 A 
ATOM     71  C   UNL A   1      40.452  32.997  30.152  1.00  0.00     0.135 A 
ATOM     72  C   UNL A   1      40.636  30.676  30.612  1.00  0.00     0.135 A 
ATOM     73  F   UNL A   1      40.956  34.205  29.850  1.00  0.00    -0.206 F 
ATOM     74  C   UNL A   1      39.054  32.927  30.154  1.00  0.00     0.059 A 
ATOM     75  C   UNL A   1      39.229  30.567  30.542  1.00  0.00     0.059 A 
ATOM     76  F   UNL A   1      41.309  29.545  30.862  1.00  0.00    -0.206 F 
ATOM     77  C   UNL A   1      38.441  31.707  30.379  1.00  0.00     0.060 A 
BRANCH  77  78
ATOM     78  S   UNL A   1      36.631  31.627  30.404  1.00  0.00     0.124 S 
ATOM     79  O   UNL A   1      36.254  32.875  29.749  1.00  0.00    -0.237 OA
ATOM     80  O   UNL A   1      36.347  30.409  29.649  1.00  0.00    -0.237 OA
ATOM     81  O   UNL A   1      36.319  31.552  31.829  1.00  0.00    -0.744 OA
ENDBRANCH  77  78
ENDBRANCH  56  70
BRANCH  57  82
ATOM     82  C   UNL A   1      49.076  33.562  31.969  1.00  0.00     0.058 A 
ATOM     83  C   UNL A   1      48.716  32.567  30.736  1.00  0.00     0.135 A 
ATOM     84  C   UNL A   1      49.282  34.733  31.012  1.00  0.00     0.135 A 
ATOM     85  F   UNL A   1      49.032  31.249  30.798  1.00  0.00    -0.206 F 
ATOM     86  C   UNL A   1      47.821  32.832  29.647  1.00  0.00     0.059 A 
ATOM     87  C   UNL A   1      48.544  35.033  29.794  1.00  0.00     0.059 A 
ATOM     88  F   UNL A   1      50.320  35.572  31.211  1.00  0.00    -0.206 F 
ATOM     89  C   UNL A   1      47.624  34.131  29.273  1.00  0.00     0.060 A 
BRANCH  89  90
ATOM     90  S   UNL A   1      46.380  34.524  27.996  1.00  0.00     0.124 S 
ATOM     91  O   UNL A   1      46.782  33.714  26.851  1.00  0.00    -0.237 OA
ATOM     92  O   UNL A   1      45.130  34.086  28.616  1.00  0.00    -0.237 OA
ATOM     93  O   UNL A   1      46.538  35.964  27.830  1.00  0.00    -0.744 OA
ENDBRANCH  89  90
ENDBRANCH  57  82
BRANCH  69  94
ATOM     94  C   UNL A   1      44.015  37.460  32.674  1.00  0.00     0.058 A 
ATOM     95  C   UNL A   1      43.411  38.575  33.287  1.00  0.00     0.135 A 
ATOM     96  C   UNL A   1      44.455  37.690  31.344  1.00  0.00     0.135 A 
ATOM     97  F   UNL A   1      42.964  38.526  34.549  1.00  0.00    -0.206 F 
ATOM     98  C   UNL A   1      43.253  39.811  32.650  1.00  0.00     0.059 A 
ATOM     99  C   UNL A   1      44.280  38.908  30.673  1.00  0.00     0.059 A 
ATOM    100  F   UNL A   1      45.056  36.716  30.643  1.00  0.00    -0.206 F 
ATOM    101  C   UNL A   1      43.654  39.959  31.328  1.00  0.00     0.060 A 
BRANCH 101 102
ATOM    102  S   UNL A   1      43.246  41.496  30.479  1.00  0.00     0.124 S 
ATOM    103  O   UNL A   1      41.915  41.772  31.013  1.00  0.00    -0.237 OA
ATOM    104  O   UNL A   1      44.301  42.398  30.929  1.00  0.00    -0.237 OA
ATOM    105  O   UNL A   1      43.290  41.136  29.066  1.00  0.00    -0.744 OA
ENDBRANCH 101 102
ENDBRANCH  69  94
ENDBRANCH  43  44
ENDBRANCH  36  38
ENDBRANCH  35  36
ENDBRANCH  34  35
ENDBRANCH  33  34
ENDBRANCH  32  33
ENDBRANCH  31  32
ENDBRANCH   1  31
TORSDOF 26
ENDMDL
MODEL 2
REMARK VINA RESULT:      -7.5      6.929     12.841
REMARK SMILES Cc1ccc(/C=C(\NC(=O)c2cccc(C)c2)C(=O)OCCOCCOCCOCCOC(=O)c2ccc(-c3c4nc(c(-c5c(F)cc(S(=O)(=O)[O-])cc5F)c5ccc([nH]5)c(-c5c(F)cc(S(=O)(=O)[O-])cc5F)c5nc(c(-c6c(F)cc(S(=O)(=O)[O-])cc6F)c6ccc3[nH]6)C=C5)C=C4)cc2)cc1
REMARK SMILES IDX 27 1 26 2 25 3 24 4 23 5 22 6 21 7 20 8 18 9 19 10 7 11 6 12
REMARK SMILES IDX 5 13 1 14 2 15 3 16 102 17 4 18 101 19 8 20 9 21 10 23 11 24
REMARK SMILES IDX 12 25 17 26 13 27 15 28 14 29 16 30 28 31 29 32 30 33 31 34
REMARK SMILES IDX 32 35 33 36 34 37 35 38 36 39 100 40 37 41 99 42 38 43 39 44
REMARK SMILES IDX 40 45 93 46 41 47 98 48 92 49 94 50 42 51 97 52 91 53 90 54
REMARK SMILES IDX 43 56 77 57 56 58 76 59 57 60 60 61 75 62 95 63 58 64 59 65
REMARK SMILES IDX 74 67 96 68 61 69 44 70 45 71 54 72 46 73 47 74 53 75 55 76
REMARK SMILES IDX 48 77 49 78 50 79 51 80 52 81 78 82 79 83 88 84 80 85 81 86
REMARK SMILES IDX 87 87 89 88 82 89 83 90 84 91 85 92 86 93 62 94 63 95 72 96
REMARK SMILES IDX 64 97 65 98 71 99 73 100 66 101 67 102 68 103 69 104 70 105
REMARK H PARENT 8 22 94 55 60 66
REMARK Flexibility Score: inf
ROOT
ATOM      1  C   UNL A   1      39.751  31.486  31.605  1.00  0.00     0.188 C 
ENDROOT
BRANCH   1   2
ATOM      2  O   UNL A   1      39.301  31.644  30.257  1.00  0.00    -0.377 OA
BRANCH   2   3
ATOM      3  C   UNL A   1      37.877  31.568  30.084  1.00  0.00     0.188 C 
BRANCH   3   4
ATOM      4  C   UNL A   1      37.356  31.212  28.677  1.00  0.00     0.188 C 
BRANCH   4   5
ATOM      5  O   UNL A   1      36.180  31.964  28.344  1.00  0.00    -0.376 OA
BRANCH   5   6
ATOM      6  C   UNL A   1      34.971  31.300  28.727  1.00  0.00     0.202 C 
BRANCH   6   7
ATOM      7  C   UNL A   1      33.856  31.328  27.683  1.00  0.00     0.261 C 
BRANCH   7   8
ATOM      8  O   UNL A   1      33.469  29.975  27.464  1.00  0.00    -0.459 OA
BRANCH   8   9
ATOM      9  C   UNL A   1      34.200  29.153  26.715  1.00  0.00     0.354 C 
ATOM     10  O   UNL A   1      35.424  29.055  26.834  1.00  0.00    -0.244 OA
BRANCH   9  11
ATOM     11  C   UNL A   1      33.344  28.081  25.962  1.00  0.00     0.128 C 
ATOM     12  C   UNL A   1      32.362  28.847  25.374  1.00  0.00     0.042 C 
BRANCH  12  13
ATOM     13  C   UNL A   1      31.165  29.343  24.585  1.00  0.00    -0.023 A 
ATOM     14  C   UNL A   1      27.774  30.085  21.884  1.00  0.00     0.044 C 
ATOM     15  C   UNL A   1      28.859  29.811  22.890  1.00  0.00    -0.051 A 
ATOM     16  C   UNL A   1      29.388  30.804  23.737  1.00  0.00     0.004 A 
ATOM     17  C   UNL A   1      29.421  28.549  22.954  1.00  0.00     0.004 A 
ATOM     18  C   UNL A   1      30.520  30.572  24.584  1.00  0.00     0.008 A 
ATOM     19  C   UNL A   1      30.539  28.336  23.768  1.00  0.00     0.008 A 
ENDBRANCH  12  13
BRANCH  11  20
ATOM     20  N   UNL A   1      33.751  26.662  25.951  1.00  0.00    -0.316 N 
ATOM     21  C   UNL A   1      34.059  25.992  24.642  1.00  0.00     0.255 C 
ATOM     22  H   UNL A   1      33.820  26.158  26.795  1.00  0.00     0.170 HD
ATOM     23  O   UNL A   1      33.801  26.909  23.840  1.00  0.00    -0.269 OA
BRANCH  21  24
ATOM     24  C   UNL A   1      34.346  24.182  24.036  1.00  0.00     0.040 A 
ATOM     25  C   UNL A   1      33.197  22.558  24.118  1.00  0.00     0.014 A 
ATOM     26  C   UNL A   1      35.855  24.106  24.926  1.00  0.00     0.017 A 
ATOM     27  C   UNL A   1      33.543  21.351  25.491  1.00  0.00     0.001 A 
ATOM     28  C   UNL A   1      36.317  22.746  25.857  1.00  0.00    -0.050 A 
ATOM     29  C   UNL A   1      35.183  21.440  26.225  1.00  0.00     0.003 A 
ATOM     30  C   UNL A   1      37.830  22.629  25.795  1.00  0.00     0.044 C 
ENDBRANCH  21  24
ENDBRANCH  11  20
ENDBRANCH   9  11
ENDBRANCH   8   9
ENDBRANCH   7   8
ENDBRANCH   6   7
ENDBRANCH   5   6
ENDBRANCH   4   5
ENDBRANCH   3   4
ENDBRANCH   2   3
ENDBRANCH   1   2
BRANCH   1  31
ATOM     31  C   UNL A   1      40.384  32.713  32.237  1.00  0.00     0.188 C 
BRANCH  31  32
ATOM     32  O   UNL A   1      39.314  33.542  32.684  1.00  0.00    -0.376 OA
BRANCH  32  33
ATOM     33  C   UNL A   1      39.167  33.686  34.082  1.00  0.00     0.202 C 
BRANCH  33  34
ATOM     34  C   UNL A   1      40.222  32.956  34.923  1.00  0.00     0.261 C 
BRANCH  34  35
ATOM     35  O   UNL A   1      40.680  33.776  36.022  1.00  0.00    -0.460 OA
BRANCH  35  36
ATOM     36  C   UNL A   1      42.014  34.059  35.996  1.00  0.00     0.338 C 
ATOM     37  O   UNL A   1      42.472  35.151  35.706  1.00  0.00    -0.246 OA
BRANCH  36  38
ATOM     38  C   UNL A   1      42.792  32.809  36.195  1.00  0.00     0.060 A 
ATOM     39  C   UNL A   1      43.443  32.196  35.133  1.00  0.00     0.016 A 
ATOM     40  C   UNL A   1      42.648  32.104  37.375  1.00  0.00     0.016 A 
ATOM     41  C   UNL A   1      43.633  30.802  35.164  1.00  0.00     0.010 A 
ATOM     42  C   UNL A   1      42.782  30.722  37.334  1.00  0.00     0.010 A 
ATOM     43  C   UNL A   1      43.148  30.009  36.186  1.00  0.00    -0.014 A 
BRANCH  43  44
ATOM     44  C   UNL A   1      43.257  28.489  36.251  1.00  0.00     0.031 A 
ATOM     45  C   UNL A   1      45.031  28.298  36.766  1.00  0.00     0.074 A 
ATOM     46  C   UNL A   1      41.932  27.656  36.260  1.00  0.00     0.049 A 
ATOM     47  N   UNL A   1      45.722  27.259  37.221  1.00  0.00    -0.248 NA
ATOM     48  C   UNL A   1      46.008  29.429  36.756  1.00  0.00     0.031 C 
ATOM     49  C   UNL A   1      41.234  26.382  37.121  1.00  0.00     0.029 A 
ATOM     50  N   UNL A   1      41.623  26.759  35.201  1.00  0.00    -0.354 N 
ATOM     51  C   UNL A   1      46.884  27.621  37.896  1.00  0.00     0.074 A 
ATOM     52  C   UNL A   1      47.038  29.002  37.518  1.00  0.00     0.031 C 
ATOM     53  C   UNL A   1      41.296  25.069  36.601  1.00  0.00     0.029 A 
ATOM     54  C   UNL A   1      42.086  25.100  35.374  1.00  0.00     0.049 A 
ATOM     55  H   UNL A   1      41.159  27.074  34.391  1.00  0.00     0.167 HD
ATOM     56  C   UNL A   1      47.540  26.784  38.786  1.00  0.00     0.037 A 
ATOM     57  C   UNL A   1      43.465  24.505  34.530  1.00  0.00     0.037 A 
ATOM     58  C   UNL A   1      47.176  25.366  38.716  1.00  0.00     0.049 A 
ATOM     59  C   UNL A   1      44.082  23.117  35.191  1.00  0.00     0.074 A 
ATOM     60  C   UNL A   1      46.731  24.451  39.661  1.00  0.00     0.029 A 
ATOM     61  N   UNL A   1      47.490  24.615  37.601  1.00  0.00    -0.354 N 
ATOM     62  N   UNL A   1      44.759  23.094  36.313  1.00  0.00    -0.248 NA
ATOM     63  C   UNL A   1      44.251  21.826  34.473  1.00  0.00     0.031 C 
ATOM     64  C   UNL A   1      46.536  23.207  39.035  1.00  0.00     0.029 A 
ATOM     65  C   UNL A   1      47.018  23.326  37.750  1.00  0.00     0.049 A 
ATOM     66  H   UNL A   1      47.979  24.949  36.816  1.00  0.00     0.167 HD
ATOM     67  C   UNL A   1      45.807  22.188  36.111  1.00  0.00     0.074 A 
ATOM     68  C   UNL A   1      45.359  21.328  35.047  1.00  0.00     0.031 C 
ATOM     69  C   UNL A   1      47.050  22.387  36.655  1.00  0.00     0.037 A 
BRANCH  56  70
ATOM     70  C   UNL A   1      48.452  27.147  39.995  1.00  0.00     0.058 A 
ATOM     71  C   UNL A   1      47.858  27.592  41.217  1.00  0.00     0.135 A 
ATOM     72  C   UNL A   1      49.835  27.385  39.922  1.00  0.00     0.135 A 
ATOM     73  F   UNL A   1      46.576  27.311  41.505  1.00  0.00    -0.206 F 
ATOM     74  C   UNL A   1      48.520  28.366  42.177  1.00  0.00     0.059 A 
ATOM     75  C   UNL A   1      50.542  28.099  40.916  1.00  0.00     0.059 A 
ATOM     76  F   UNL A   1      50.547  26.977  38.862  1.00  0.00    -0.206 F 
ATOM     77  C   UNL A   1      49.865  28.642  42.007  1.00  0.00     0.060 A 
BRANCH  77  78
ATOM     78  S   UNL A   1      50.711  29.665  43.241  1.00  0.00     0.124 S 
ATOM     79  O   UNL A   1      51.954  28.931  43.456  1.00  0.00    -0.237 OA
ATOM     80  O   UNL A   1      50.850  30.950  42.560  1.00  0.00    -0.237 OA
ATOM     81  O   UNL A   1      49.784  29.665  44.369  1.00  0.00    -0.744 OA
ENDBRANCH  77  78
ENDBRANCH  56  70
BRANCH  57  82
ATOM     82  C   UNL A   1      44.459  25.813  33.099  1.00  0.00     0.058 A 
ATOM     83  C   UNL A   1      45.385  25.331  31.852  1.00  0.00     0.135 A 
ATOM     84  C   UNL A   1      43.899  26.975  32.282  1.00  0.00     0.135 A 
ATOM     85  F   UNL A   1      46.587  24.742  32.073  1.00  0.00    -0.206 F 
ATOM     86  C   UNL A   1      44.979  25.181  30.485  1.00  0.00     0.059 A 
ATOM     87  C   UNL A   1      43.587  27.000  30.861  1.00  0.00     0.059 A 
ATOM     88  F   UNL A   1      43.746  28.180  32.869  1.00  0.00    -0.206 F 
ATOM     89  C   UNL A   1      43.942  25.943  30.030  1.00  0.00     0.060 A 
BRANCH  89  90
ATOM     90  S   UNL A   1      43.296  25.674  28.344  1.00  0.00     0.124 S 
ATOM     91  O   UNL A   1      42.809  26.988  27.939  1.00  0.00    -0.237 OA
ATOM     92  O   UNL A   1      44.481  25.234  27.610  1.00  0.00    -0.237 OA
ATOM     93  O   UNL A   1      42.266  24.663  28.555  1.00  0.00    -0.744 OA
ENDBRANCH  89  90
ENDBRANCH  57  82
BRANCH  69  94
ATOM     94  C   UNL A   1      48.383  21.787  36.214  1.00  0.00     0.058 A 
ATOM     95  C   UNL A   1      49.150  22.257  35.130  1.00  0.00     0.135 A 
ATOM     96  C   UNL A   1      49.024  20.791  36.996  1.00  0.00     0.135 A 
ATOM     97  F   UNL A   1      48.695  23.215  34.311  1.00  0.00    -0.206 F 
ATOM     98  C   UNL A   1      50.436  21.789  34.838  1.00  0.00     0.059 A 
ATOM     99  C   UNL A   1      50.298  20.283  36.706  1.00  0.00     0.059 A 
ATOM    100  F   UNL A   1      48.412  20.260  38.066  1.00  0.00    -0.206 F 
ATOM    101  C   UNL A   1      50.988  20.773  35.607  1.00  0.00     0.060 A 
BRANCH 101 102
ATOM    102  S   UNL A   1      52.556  20.055  35.075  1.00  0.00     0.124 S 
ATOM    103  O   UNL A   1      52.589  18.828  35.867  1.00  0.00    -0.237 OA
ATOM    104  O   UNL A   1      52.351  19.871  33.642  1.00  0.00    -0.237 OA
ATOM    105  O   UNL A   1      53.543  21.064  35.442  1.00  0.00    -0.744 OA
ENDBRANCH 101 102
ENDBRANCH  69  94
ENDBRANCH  43  44
ENDBRANCH  36  38
ENDBRANCH  35  36
ENDBRANCH  34  35
ENDBRANCH  33  34
ENDBRANCH  32  33
ENDBRANCH  31  32
ENDBRANCH   1  31
TORSDOF 26
ENDMDL
MODEL 3
REMARK VINA RESULT:      -7.3      4.040     14.585
REMARK SMILES Cc1ccc(/C=C(\NC(=O)c2cccc(C)c2)C(=O)OCCOCCOCCOCCOC(=O)c2ccc(-c3c4nc(c(-c5c(F)cc(S(=O)(=O)[O-])cc5F)c5ccc([nH]5)c(-c5c(F)cc(S(=O)(=O)[O-])cc5F)c5nc(c(-c6c(F)cc(S(=O)(=O)[O-])cc6F)c6ccc3[nH]6)C=C5)C=C4)cc2)cc1
REMARK SMILES IDX 27 1 26 2 25 3 24 4 23 5 22 6 21 7 20 8 18 9 19 10 7 11 6 12
REMARK SMILES IDX 5 13 1 14 2 15 3 16 102 17 4 18 101 19 8 20 9 21 10 23 11 24
REMARK SMILES IDX 12 25 17 26 13 27 15 28 14 29 16 30 28 31 29 32 30 33 31 34
REMARK SMILES IDX 32 35 33 36 34 37 35 38 36 39 100 40 37 41 99 42 38 43 39 44
REMARK SMILES IDX 40 45 93 46 41 47 98 48 92 49 94 50 42 51 97 52 91 53 90 54
REMARK SMILES IDX 43 56 77 57 56 58 76 59 57 60 60 61 75 62 95 63 58 64 59 65
REMARK SMILES IDX 74 67 96 68 61 69 44 70 45 71 54 72 46 73 47 74 53 75 55 76
REMARK SMILES IDX 48 77 49 78 50 79 51 80 52 81 78 82 79 83 88 84 80 85 81 86
REMARK SMILES IDX 87 87 89 88 82 89 83 90 84 91 85 92 86 93 62 94 63 95 72 96
REMARK SMILES IDX 64 97 65 98 71 99 73 100 66 101 67 102 68 103 69 104 70 105
REMARK H PARENT 8 22 94 55 60 66
REMARK Flexibility Score: inf
ROOT
ATOM      1  C   UNL A   1      42.162  42.259  32.693  1.00  0.00     0.188 C 
ENDROOT
BRANCH   1   2
ATOM      2  O   UNL A   1      42.472  41.541  33.889  1.00  0.00    -0.377 OA
BRANCH   2   3
ATOM      3  C   UNL A   1      43.538  40.587  33.762  1.00  0.00     0.188 C 
BRANCH   3   4
ATOM      4  C   UNL A   1      44.880  40.935  34.438  1.00  0.00     0.188 C 
BRANCH   4   5
ATOM      5  O   UNL A   1      45.986  40.745  33.544  1.00  0.00    -0.376 OA
BRANCH   5   6
ATOM      6  C   UNL A   1      46.679  41.964  33.254  1.00  0.00     0.202 C 
BRANCH   6   7
ATOM      7  C   UNL A   1      47.506  41.951  31.969  1.00  0.00     0.261 C 
BRANCH   7   8
ATOM      8  O   UNL A   1      46.588  42.115  30.892  1.00  0.00    -0.459 OA
BRANCH   8   9
ATOM      9  C   UNL A   1      46.984  42.546  29.698  1.00  0.00     0.354 C 
ATOM     10  O   UNL A   1      47.802  43.460  29.557  1.00  0.00    -0.244 OA
BRANCH   9  11
ATOM     11  C   UNL A   1      46.619  41.564  28.536  1.00  0.00     0.128 C 
ATOM     12  C   UNL A   1      46.257  42.425  27.524  1.00  0.00     0.042 C 
BRANCH  12  13
ATOM     13  C   UNL A   1      45.810  43.038  26.211  1.00  0.00    -0.023 A 
ATOM     14  C   UNL A   1      45.011  44.271  22.065  1.00  0.00     0.044 C 
ATOM     15  C   UNL A   1      45.181  43.802  23.484  1.00  0.00    -0.051 A 
ATOM     16  C   UNL A   1      44.757  44.554  24.597  1.00  0.00     0.004 A 
ATOM     17  C   UNL A   1      45.842  42.612  23.731  1.00  0.00     0.004 A 
ATOM     18  C   UNL A   1      45.056  44.174  25.945  1.00  0.00     0.008 A 
ATOM     19  C   UNL A   1      46.149  42.258  25.049  1.00  0.00     0.008 A 
ENDBRANCH  12  13
BRANCH  11  20
ATOM     20  N   UNL A   1      46.798  40.107  28.694  1.00  0.00    -0.316 N 
ATOM     21  C   UNL A   1      48.001  39.440  28.091  1.00  0.00     0.255 C 
ATOM     22  H   UNL A   1      46.134  39.576  29.192  1.00  0.00     0.170 HD
ATOM     23  O   UNL A   1      48.541  40.403  27.513  1.00  0.00    -0.269 OA
BRANCH  21  24
ATOM     24  C   UNL A   1      48.570  37.626  27.757  1.00  0.00     0.040 A 
ATOM     25  C   UNL A   1      47.577  36.020  27.124  1.00  0.00     0.014 A 
ATOM     26  C   UNL A   1      49.250  37.526  29.370  1.00  0.00     0.017 A 
ATOM     27  C   UNL A   1      47.021  34.808  28.421  1.00  0.00     0.001 A 
ATOM     28  C   UNL A   1      49.049  36.159  30.380  1.00  0.00    -0.050 A 
ATOM     29  C   UNL A   1      47.902  34.871  29.988  1.00  0.00     0.003 A 
ATOM     30  C   UNL A   1      50.299  36.018  31.231  1.00  0.00     0.044 C 
ENDBRANCH  21  24
ENDBRANCH  11  20
ENDBRANCH   9  11
ENDBRANCH   8   9
ENDBRANCH   7   8
ENDBRANCH   6   7
ENDBRANCH   5   6
ENDBRANCH   4   5
ENDBRANCH   3   4
ENDBRANCH   2   3
ENDBRANCH   1   2
BRANCH   1  31
ATOM     31  C   UNL A   1      43.353  42.802  31.922  1.00  0.00     0.188 C 
BRANCH  31  32
ATOM     32  O   UNL A   1      43.232  42.319  30.586  1.00  0.00    -0.376 OA
BRANCH  32  33
ATOM     33  C   UNL A   1      42.302  41.275  30.374  1.00  0.00     0.202 C 
BRANCH  33  34
ATOM     34  C   UNL A   1      42.207  40.777  28.926  1.00  0.00     0.261 C 
BRANCH  34  35
ATOM     35  O   UNL A   1      43.514  40.478  28.386  1.00  0.00    -0.460 OA
BRANCH  35  36
ATOM     36  C   UNL A   1      43.494  39.873  27.163  1.00  0.00     0.338 C 
ATOM     37  O   UNL A   1      43.277  40.461  26.118  1.00  0.00    -0.246 OA
BRANCH  36  38
ATOM     38  C   UNL A   1      43.596  38.401  27.334  1.00  0.00     0.060 A 
ATOM     39  C   UNL A   1      42.591  37.558  26.880  1.00  0.00     0.016 A 
ATOM     40  C   UNL A   1      44.555  37.885  28.184  1.00  0.00     0.016 A 
ATOM     41  C   UNL A   1      42.382  36.332  27.538  1.00  0.00     0.010 A 
ATOM     42  C   UNL A   1      44.268  36.705  28.858  1.00  0.00     0.010 A 
ATOM     43  C   UNL A   1      43.101  35.957  28.655  1.00  0.00    -0.014 A 
BRANCH  43  44
ATOM     44  C   UNL A   1      42.883  34.678  29.457  1.00  0.00     0.031 A 
ATOM     45  C   UNL A   1      43.489  33.409  28.244  1.00  0.00     0.074 A 
ATOM     46  C   UNL A   1      42.630  34.809  30.997  1.00  0.00     0.049 A 
ATOM     47  N   UNL A   1      43.788  32.121  28.374  1.00  0.00    -0.248 NA
ATOM     48  C   UNL A   1      43.771  33.722  26.811  1.00  0.00     0.031 C 
ATOM     49  C   UNL A   1      43.174  34.123  32.440  1.00  0.00     0.029 A 
ATOM     50  N   UNL A   1      41.398  34.396  31.574  1.00  0.00    -0.354 N 
ATOM     51  C   UNL A   1      44.609  31.641  27.357  1.00  0.00     0.074 A 
ATOM     52  C   UNL A   1      44.515  32.685  26.371  1.00  0.00     0.031 C 
ATOM     53  C   UNL A   1      42.419  33.099  33.058  1.00  0.00     0.029 A 
ATOM     54  C   UNL A   1      41.286  32.783  32.193  1.00  0.00     0.049 A 
ATOM     55  H   UNL A   1      40.630  35.010  31.620  1.00  0.00     0.167 HD
ATOM     56  C   UNL A   1      45.371  30.488  27.474  1.00  0.00     0.037 A 
ATOM     57  C   UNL A   1      40.454  31.576  31.289  1.00  0.00     0.037 A 
ATOM     58  C   UNL A   1      45.003  29.588  28.571  1.00  0.00     0.049 A 
ATOM     59  C   UNL A   1      40.883  30.034  31.714  1.00  0.00     0.074 A 
ATOM     60  C   UNL A   1      45.718  29.026  29.620  1.00  0.00     0.029 A 
ATOM     61  N   UNL A   1      43.793  28.923  28.558  1.00  0.00    -0.354 N 
ATOM     62  N   UNL A   1      42.029  29.489  31.386  1.00  0.00    -0.248 NA
ATOM     63  C   UNL A   1      39.947  28.985  32.198  1.00  0.00     0.031 C 
ATOM     64  C   UNL A   1      44.852  28.222  30.384  1.00  0.00     0.029 A 
ATOM     65  C   UNL A   1      43.655  28.167  29.704  1.00  0.00     0.049 A 
ATOM     66  H   UNL A   1      43.126  28.980  27.836  1.00  0.00     0.167 HD
ATOM     67  C   UNL A   1      41.740  28.165  31.037  1.00  0.00     0.074 A 
ATOM     68  C   UNL A   1      40.500  27.864  31.704  1.00  0.00     0.031 C 
ATOM     69  C   UNL A   1      42.407  27.520  30.028  1.00  0.00     0.037 A 
BRANCH  56  70
ATOM     70  C   UNL A   1      46.694  30.100  26.751  1.00  0.00     0.058 A 
ATOM     71  C   UNL A   1      46.769  28.863  26.038  1.00  0.00     0.135 A 
ATOM     72  C   UNL A   1      47.946  30.696  26.979  1.00  0.00     0.135 A 
ATOM     73  F   UNL A   1      45.657  28.240  25.614  1.00  0.00    -0.206 F 
ATOM     74  C   UNL A   1      47.964  28.189  25.756  1.00  0.00     0.059 A 
ATOM     75  C   UNL A   1      49.165  30.069  26.635  1.00  0.00     0.059 A 
ATOM     76  F   UNL A   1      48.039  31.886  27.588  1.00  0.00    -0.206 F 
ATOM     77  C   UNL A   1      49.167  28.788  26.085  1.00  0.00     0.060 A 
BRANCH  77  78
ATOM     78  S   UNL A   1      50.710  27.901  25.740  1.00  0.00     0.124 S 
ATOM     79  O   UNL A   1      51.498  28.908  25.037  1.00  0.00    -0.237 OA
ATOM     80  O   UNL A   1      51.188  27.546  27.074  1.00  0.00    -0.237 OA
ATOM     81  O   UNL A   1      50.271  26.771  24.925  1.00  0.00    -0.744 OA
ENDBRANCH  77  78
ENDBRANCH  56  70
BRANCH  57  82
ATOM     82  C   UNL A   1      39.381  32.173  29.489  1.00  0.00     0.058 A 
ATOM     83  C   UNL A   1      38.162  31.353  28.791  1.00  0.00     0.135 A 
ATOM     84  C   UNL A   1      38.735  33.509  29.132  1.00  0.00     0.135 A 
ATOM     85  F   UNL A   1      38.388  30.154  28.198  1.00  0.00    -0.206 F 
ATOM     86  C   UNL A   1      36.758  31.593  28.954  1.00  0.00     0.059 A 
ATOM     87  C   UNL A   1      37.318  33.840  29.111  1.00  0.00     0.059 A 
ATOM     88  F   UNL A   1      39.511  34.516  28.680  1.00  0.00    -0.206 F 
ATOM     89  C   UNL A   1      36.349  32.857  29.273  1.00  0.00     0.060 A 
BRANCH  89  90
ATOM     90  S   UNL A   1      34.589  33.170  29.639  1.00  0.00     0.124 S 
ATOM     91  O   UNL A   1      34.509  34.621  29.770  1.00  0.00    -0.237 OA
ATOM     92  O   UNL A   1      33.914  32.650  28.451  1.00  0.00    -0.237 OA
ATOM     93  O   UNL A   1      34.380  32.418  30.870  1.00  0.00    -0.744 OA
ENDBRANCH  89  90
ENDBRANCH  57  82
BRANCH  69  94
ATOM     94  C   UNL A   1      41.964  26.293  29.234  1.00  0.00     0.058 A 
ATOM     95  C   UNL A   1      42.513  25.004  29.384  1.00  0.00     0.135 A 
ATOM     96  C   UNL A   1      40.829  26.350  28.384  1.00  0.00     0.135 A 
ATOM     97  F   UNL A   1      43.573  24.780  30.172  1.00  0.00    -0.206 F 
ATOM     98  C   UNL A   1      41.991  23.869  28.756  1.00  0.00     0.059 A 
ATOM     99  C   UNL A   1      40.306  25.233  27.718  1.00  0.00     0.059 A 
ATOM    100  F   UNL A   1      40.200  27.514  28.158  1.00  0.00    -0.206 F 
ATOM    101  C   UNL A   1      40.912  23.997  27.891  1.00  0.00     0.060 A 
BRANCH 101 102
ATOM    102  S   UNL A   1      40.401  22.551  26.942  1.00  0.00     0.124 S 
ATOM    103  O   UNL A   1      40.477  21.503  27.956  1.00  0.00    -0.237 OA
ATOM    104  O   UNL A   1      39.053  22.911  26.513  1.00  0.00    -0.237 OA
ATOM    105  O   UNL A   1      41.394  22.464  25.877  1.00  0.00    -0.744 OA
ENDBRANCH 101 102
ENDBRANCH  69  94
ENDBRANCH  43  44
ENDBRANCH  36  38
ENDBRANCH  35  36
ENDBRANCH  34  35
ENDBRANCH  33  34
ENDBRANCH  32  33
ENDBRANCH  31  32
ENDBRANCH   1  31
TORSDOF 26
ENDMDL
