MODEL 1
REMARK VINA RESULT:      -8.2      0.000      0.000
REMARK SMILES CC(C)CN(C)c1cc2c(cc1Cl)C=C(C(=O)OCCOCCOCCOCCOC(=O)c1ccc(-c3c4nc(c(-c5c(F)cc(S(=O)(=O)[O-])cc5F)c5ccc([nH]5)c(-c5c(F)cc(S(=O)(=O)[O-])cc5F)c5nc(c(-c6c(F)cc(S(=O)(=O)[O-])cc6F)c6ccc3[nH]6)C=C5)C=C4)cc1)[C@@H](C(F)(F)F)O2
REMARK SMILES IDX 24 1 23 2 22 3 21 4 20 5 19 6 18 7 16 8 17 9 15 10 7 11 8 12
REMARK SMILES IDX 12 13 9 14 11 15 13 16 10 17 104 18 14 19 99 20 5 21 6 22
REMARK SMILES IDX 4 23 2 24 1 25 3 26 100 27 101 28 102 29 103 30 25 31 26 32
REMARK SMILES IDX 27 33 28 34 29 35 30 36 31 37 32 38 33 39 34 40 98 41 35 42
REMARK SMILES IDX 97 43 36 44 37 45 38 46 91 47 39 48 96 49 90 50 92 51 40 52
REMARK SMILES IDX 95 53 89 54 88 55 41 57 75 58 54 59 74 60 55 61 58 62 73 63
REMARK SMILES IDX 93 64 56 65 57 66 72 68 94 69 59 70 42 71 43 72 52 73 44 74
REMARK SMILES IDX 45 75 51 76 53 77 46 78 47 79 48 80 49 81 50 82 76 83 77 84
REMARK SMILES IDX 86 85 78 86 79 87 85 88 87 89 80 90 81 91 82 92 83 93 84 94
REMARK SMILES IDX 60 95 61 96 70 97 62 98 63 99 69 100 71 101 64 102 65 103
REMARK SMILES IDX 66 104 67 105 68 106
REMARK H PARENT 92 56 58 67
REMARK Flexibility Score: inf
ROOT
ATOM      1  O   UNL A   1      31.099  27.340  24.161  1.00  0.00    -0.377 OA
ENDROOT
BRANCH   1   2
ATOM      2  C   UNL A   1      31.543  26.135  24.759  1.00  0.00     0.188 C 
BRANCH   2   3
ATOM      3  C   UNL A   1      31.909  25.042  23.739  1.00  0.00     0.188 C 
BRANCH   3   4
ATOM      4  O   UNL A   1      30.800  24.235  23.362  1.00  0.00    -0.376 OA
BRANCH   4   5
ATOM      5  C   UNL A   1      30.976  22.825  23.322  1.00  0.00     0.202 C 
BRANCH   5   6
ATOM      6  C   UNL A   1      32.352  22.252  22.932  1.00  0.00     0.261 C 
BRANCH   6   7
ATOM      7  O   UNL A   1      32.565  20.870  23.258  1.00  0.00    -0.460 OA
BRANCH   7   8
ATOM      8  C   UNL A   1      32.779  20.579  24.552  1.00  0.00     0.338 C 
ATOM      9  O   UNL A   1      32.132  19.804  25.236  1.00  0.00    -0.246 OA
BRANCH   8  10
ATOM     10  C   UNL A   1      34.049  21.204  24.980  1.00  0.00     0.087 C 
ATOM     11  C   UNL A   1      38.890  22.047  26.100  1.00  0.00     0.059 A 
ATOM     12  C   UNL A   1      37.719  22.833  26.159  1.00  0.00     0.074 A 
ATOM     13  C   UNL A   1      38.765  20.735  25.597  1.00  0.00     0.065 A 
ATOM     14  C   UNL A   1      36.484  22.331  25.719  1.00  0.00     0.130 A 
ATOM     15  C   UNL A   1      37.560  20.276  25.063  1.00  0.00     0.034 A 
ATOM     16  Cl  UNL A   1      40.052  19.579  25.672  1.00  0.00    -0.082 Cl
ATOM     17  C   UNL A   1      36.420  21.071  25.131  1.00  0.00     0.019 A 
ATOM     18  O   UNL A   1      35.379  23.126  25.878  1.00  0.00    -0.475 OA
ATOM     19  C   UNL A   1      35.164  20.550  24.637  1.00  0.00     0.027 C 
ATOM     20  C   UNL A   1      34.059  22.496  25.759  1.00  0.00     0.316 C 
BRANCH  11  21
ATOM     21  N   UNL A   1      40.124  22.546  26.541  1.00  0.00    -0.373 N 
ATOM     22  C   UNL A   1      40.547  22.095  27.862  1.00  0.00     0.143 C 
BRANCH  21  23
ATOM     23  C   UNL A   1      40.524  23.904  26.121  1.00  0.00     0.119 C 
BRANCH  23  24
ATOM     24  C   UNL A   1      40.887  24.817  27.314  1.00  0.00     0.002 C 
ATOM     25  C   UNL A   1      41.771  25.994  26.892  1.00  0.00     0.009 C 
ATOM     26  C   UNL A   1      39.640  25.366  28.014  1.00  0.00     0.009 C 
ENDBRANCH  23  24
ENDBRANCH  21  23
ENDBRANCH  11  21
BRANCH  20  27
ATOM     27  C   UNL A   1      33.432  22.299  27.146  1.00  0.00     0.430 C 
ATOM     28  F   UNL A   1      34.054  23.047  28.086  1.00  0.00    -0.167 F 
ATOM     29  F   UNL A   1      32.126  22.655  27.151  1.00  0.00    -0.167 F 
ATOM     30  F   UNL A   1      33.498  21.007  27.545  1.00  0.00    -0.167 F 
ENDBRANCH  20  27
ENDBRANCH   8  10
ENDBRANCH   7   8
ENDBRANCH   6   7
ENDBRANCH   5   6
ENDBRANCH   4   5
ENDBRANCH   3   4
ENDBRANCH   2   3
ENDBRANCH   1   2
BRANCH   1  31
ATOM     31  C   UNL A   1      31.829  28.540  24.427  1.00  0.00     0.188 C 
BRANCH  31  32
ATOM     32  C   UNL A   1      31.137  29.868  24.820  1.00  0.00     0.188 C 
BRANCH  32  33
ATOM     33  O   UNL A   1      31.957  30.763  25.566  1.00  0.00    -0.376 OA
BRANCH  33  34
ATOM     34  C   UNL A   1      32.097  30.502  26.954  1.00  0.00     0.202 C 
BRANCH  34  35
ATOM     35  C   UNL A   1      33.163  31.352  27.653  1.00  0.00     0.261 C 
BRANCH  35  36
ATOM     36  O   UNL A   1      34.521  31.050  27.299  1.00  0.00    -0.460 OA
BRANCH  36  37
ATOM     37  C   UNL A   1      35.042  29.883  27.737  1.00  0.00     0.338 C 
ATOM     38  O   UNL A   1      34.686  28.757  27.435  1.00  0.00    -0.246 OA
BRANCH  37  39
ATOM     39  C   UNL A   1      36.264  30.211  28.504  1.00  0.00     0.060 A 
ATOM     40  C   UNL A   1      36.805  29.276  29.390  1.00  0.00     0.016 A 
ATOM     41  C   UNL A   1      36.846  31.478  28.366  1.00  0.00     0.016 A 
ATOM     42  C   UNL A   1      37.951  29.601  30.116  1.00  0.00     0.010 A 
ATOM     43  C   UNL A   1      37.992  31.801  29.098  1.00  0.00     0.010 A 
ATOM     44  C   UNL A   1      38.567  30.854  29.958  1.00  0.00    -0.014 A 
BRANCH  44  45
ATOM     45  C   UNL A   1      39.910  31.080  30.547  1.00  0.00     0.031 A 
ATOM     46  C   UNL A   1      40.108  31.854  31.816  1.00  0.00     0.074 A 
ATOM     47  C   UNL A   1      40.966  30.534  29.911  1.00  0.00     0.049 A 
ATOM     48  N   UNL A   1      41.212  32.045  32.491  1.00  0.00    -0.248 NA
ATOM     49  C   UNL A   1      38.924  32.498  32.404  1.00  0.00     0.031 C 
ATOM     50  C   UNL A   1      40.886  29.777  28.657  1.00  0.00     0.029 A 
ATOM     51  N   UNL A   1      42.298  30.510  30.230  1.00  0.00    -0.354 N 
ATOM     52  C   UNL A   1      40.859  32.802  33.601  1.00  0.00     0.074 A 
ATOM     53  C   UNL A   1      39.441  33.079  33.481  1.00  0.00     0.031 C 
ATOM     54  C   UNL A   1      42.112  29.336  28.333  1.00  0.00     0.029 A 
ATOM     55  C   UNL A   1      43.064  29.799  29.337  1.00  0.00     0.049 A 
ATOM     56  H   UNL A   1      42.671  30.959  31.023  1.00  0.00     0.167 HD
ATOM     57  C   UNL A   1      41.645  33.203  34.630  1.00  0.00     0.037 A 
ATOM     58  C   UNL A   1      44.385  29.540  29.329  1.00  0.00     0.037 A 
ATOM     59  C   UNL A   1      43.058  32.929  34.730  1.00  0.00     0.049 A 
ATOM     60  C   UNL A   1      45.238  30.053  30.457  1.00  0.00     0.074 A 
ATOM     61  C   UNL A   1      43.930  33.279  35.750  1.00  0.00     0.029 A 
ATOM     62  N   UNL A   1      43.810  32.249  33.784  1.00  0.00    -0.354 N 
ATOM     63  N   UNL A   1      44.874  30.712  31.530  1.00  0.00    -0.248 NA
ATOM     64  C   UNL A   1      46.680  29.782  30.375  1.00  0.00     0.031 C 
ATOM     65  C   UNL A   1      45.213  32.850  35.399  1.00  0.00     0.029 A 
ATOM     66  C   UNL A   1      45.136  32.189  34.184  1.00  0.00     0.049 A 
ATOM     67  H   UNL A   1      43.454  31.864  32.951  1.00  0.00     0.167 HD
ATOM     68  C   UNL A   1      46.037  30.912  32.263  1.00  0.00     0.074 A 
ATOM     69  C   UNL A   1      47.113  30.290  31.521  1.00  0.00     0.031 C 
ATOM     70  C   UNL A   1      46.199  31.559  33.443  1.00  0.00     0.037 A 
BRANCH  57  71
ATOM     71  C   UNL A   1      41.008  33.955  35.766  1.00  0.00     0.058 A 
ATOM     72  C   UNL A   1      40.622  33.295  36.943  1.00  0.00     0.135 A 
ATOM     73  C   UNL A   1      40.912  35.357  35.740  1.00  0.00     0.135 A 
ATOM     74  F   UNL A   1      40.686  31.956  37.018  1.00  0.00    -0.206 F 
ATOM     75  C   UNL A   1      40.174  33.997  38.058  1.00  0.00     0.059 A 
ATOM     76  C   UNL A   1      40.485  36.081  36.850  1.00  0.00     0.059 A 
ATOM     77  F   UNL A   1      41.269  36.038  34.639  1.00  0.00    -0.206 F 
ATOM     78  C   UNL A   1      40.122  35.391  38.006  1.00  0.00     0.060 A 
BRANCH  78  79
ATOM     79  S   UNL A   1      39.600  36.285  39.486  1.00  0.00     0.124 S 
ATOM     80  O   UNL A   1      38.667  35.337  40.086  1.00  0.00    -0.237 OA
ATOM     81  O   UNL A   1      40.861  36.469  40.196  1.00  0.00    -0.237 OA
ATOM     82  O   UNL A   1      38.998  37.504  38.955  1.00  0.00    -0.744 OA
ENDBRANCH  78  79
ENDBRANCH  57  71
BRANCH  58  83
ATOM     83  C   UNL A   1      44.984  28.737  28.231  1.00  0.00     0.058 A 
ATOM     84  C   UNL A   1      45.062  27.340  28.320  1.00  0.00     0.135 A 
ATOM     85  C   UNL A   1      45.507  29.351  27.081  1.00  0.00     0.135 A 
ATOM     86  F   UNL A   1      44.576  26.709  29.400  1.00  0.00    -0.206 F 
ATOM     87  C   UNL A   1      45.670  26.581  27.327  1.00  0.00     0.059 A 
ATOM     88  C   UNL A   1      46.092  28.610  26.062  1.00  0.00     0.059 A 
ATOM     89  F   UNL A   1      45.437  30.684  26.939  1.00  0.00    -0.206 F 
ATOM     90  C   UNL A   1      46.186  27.227  26.203  1.00  0.00     0.060 A 
BRANCH  90  91
ATOM     91  S   UNL A   1      46.973  26.230  24.920  1.00  0.00     0.124 S 
ATOM     92  O   UNL A   1      48.234  25.873  25.560  1.00  0.00    -0.237 OA
ATOM     93  O   UNL A   1      46.015  25.145  24.745  1.00  0.00    -0.237 OA
ATOM     94  O   UNL A   1      47.076  27.154  23.794  1.00  0.00    -0.744 OA
ENDBRANCH  90  91
ENDBRANCH  58  83
BRANCH  70  95
ATOM     95  C   UNL A   1      47.586  31.612  34.022  1.00  0.00     0.058 A 
ATOM     96  C   UNL A   1      48.471  32.655  33.710  1.00  0.00     0.135 A 
ATOM     97  C   UNL A   1      48.013  30.644  34.947  1.00  0.00     0.135 A 
ATOM     98  F   UNL A   1      48.116  33.600  32.824  1.00  0.00    -0.206 F 
ATOM     99  C   UNL A   1      49.736  32.732  34.283  1.00  0.00     0.059 A 
ATOM    100  C   UNL A   1      49.263  30.715  35.553  1.00  0.00     0.059 A 
ATOM    101  F   UNL A   1      47.204  29.628  35.284  1.00  0.00    -0.206 F 
ATOM    102  C   UNL A   1      50.121  31.760  35.209  1.00  0.00     0.060 A 
BRANCH 102 103
ATOM    103  S   UNL A   1      51.747  31.902  35.979  1.00  0.00     0.124 S 
ATOM    104  O   UNL A   1      52.253  33.130  35.376  1.00  0.00    -0.237 OA
ATOM    105  O   UNL A   1      51.413  31.984  37.398  1.00  0.00    -0.237 OA
ATOM    106  O   UNL A   1      52.428  30.676  35.571  1.00  0.00    -0.744 OA
ENDBRANCH 102 103
ENDBRANCH  70  95
ENDBRANCH  44  45
ENDBRANCH  37  39
ENDBRANCH  36  37
ENDBRANCH  35  36
ENDBRANCH  34  35
ENDBRANCH  33  34
ENDBRANCH  32  33
ENDBRANCH  31  32
ENDBRANCH   1  31
TORSDOF 27
ENDMDL
MODEL 2
REMARK VINA RESULT:      -8.2      2.592      8.334
REMARK SMILES CC(C)CN(C)c1cc2c(cc1Cl)C=C(C(=O)OCCOCCOCCOCCOC(=O)c1ccc(-c3c4nc(c(-c5c(F)cc(S(=O)(=O)[O-])cc5F)c5ccc([nH]5)c(-c5c(F)cc(S(=O)(=O)[O-])cc5F)c5nc(c(-c6c(F)cc(S(=O)(=O)[O-])cc6F)c6ccc3[nH]6)C=C5)C=C4)cc1)[C@@H](C(F)(F)F)O2
REMARK SMILES IDX 24 1 23 2 22 3 21 4 20 5 19 6 18 7 16 8 17 9 15 10 7 11 8 12
REMARK SMILES IDX 12 13 9 14 11 15 13 16 10 17 104 18 14 19 99 20 5 21 6 22
REMARK SMILES IDX 4 23 2 24 1 25 3 26 100 27 101 28 102 29 103 30 25 31 26 32
REMARK SMILES IDX 27 33 28 34 29 35 30 36 31 37 32 38 33 39 34 40 98 41 35 42
REMARK SMILES IDX 97 43 36 44 37 45 38 46 91 47 39 48 96 49 90 50 92 51 40 52
REMARK SMILES IDX 95 53 89 54 88 55 41 57 75 58 54 59 74 60 55 61 58 62 73 63
REMARK SMILES IDX 93 64 56 65 57 66 72 68 94 69 59 70 42 71 43 72 52 73 44 74
REMARK SMILES IDX 45 75 51 76 53 77 46 78 47 79 48 80 49 81 50 82 76 83 77 84
REMARK SMILES IDX 86 85 78 86 79 87 85 88 87 89 80 90 81 91 82 92 83 93 84 94
REMARK SMILES IDX 60 95 61 96 70 97 62 98 63 99 69 100 71 101 64 102 65 103
REMARK SMILES IDX 66 104 67 105 68 106
REMARK H PARENT 92 56 58 67
REMARK Flexibility Score: inf
ROOT
ATOM      1  O   UNL A   1      31.910  27.546  27.168  1.00  0.00    -0.377 OA
ENDROOT
BRANCH   1   2
ATOM      2  C   UNL A   1      32.900  26.900  26.387  1.00  0.00     0.188 C 
BRANCH   2   3
ATOM      3  C   UNL A   1      32.892  27.329  24.908  1.00  0.00     0.188 C 
BRANCH   3   4
ATOM      4  O   UNL A   1      31.581  27.491  24.381  1.00  0.00    -0.376 OA
BRANCH   4   5
ATOM      5  C   UNL A   1      30.854  26.325  24.014  1.00  0.00     0.202 C 
BRANCH   5   6
ATOM      6  C   UNL A   1      31.627  25.043  23.652  1.00  0.00     0.261 C 
BRANCH   6   7
ATOM      7  O   UNL A   1      30.988  23.809  24.015  1.00  0.00    -0.460 OA
BRANCH   7   8
ATOM      8  C   UNL A   1      31.218  23.350  25.256  1.00  0.00     0.338 C 
ATOM      9  O   UNL A   1      30.420  23.324  26.178  1.00  0.00    -0.246 OA
BRANCH   8  10
ATOM     10  C   UNL A   1      32.545  22.699  25.288  1.00  0.00     0.087 C 
ATOM     11  C   UNL A   1      37.492  21.813  25.683  1.00  0.00     0.059 A 
ATOM     12  C   UNL A   1      36.369  21.001  25.411  1.00  0.00     0.074 A 
ATOM     13  C   UNL A   1      37.255  23.179  25.944  1.00  0.00     0.065 A 
ATOM     14  C   UNL A   1      35.070  21.533  25.417  1.00  0.00     0.130 A 
ATOM     15  C   UNL A   1      35.958  23.681  26.054  1.00  0.00     0.034 A 
ATOM     16  Cl  UNL A   1      38.533  24.341  26.070  1.00  0.00    -0.082 Cl
ATOM     17  C   UNL A   1      34.868  22.861  25.783  1.00  0.00     0.019 A 
ATOM     18  O   UNL A   1      34.038  20.701  25.070  1.00  0.00    -0.475 OA
ATOM     19  C   UNL A   1      33.533  23.417  25.832  1.00  0.00     0.027 C 
ATOM     20  C   UNL A   1      32.748  21.312  24.729  1.00  0.00     0.316 C 
BRANCH  11  21
ATOM     21  N   UNL A   1      38.790  21.284  25.675  1.00  0.00    -0.373 N 
ATOM     22  C   UNL A   1      38.927  19.969  25.060  1.00  0.00     0.143 C 
BRANCH  21  23
ATOM     23  C   UNL A   1      39.691  21.613  26.798  1.00  0.00     0.119 C 
BRANCH  23  24
ATOM     24  C   UNL A   1      41.179  21.363  26.465  1.00  0.00     0.002 C 
ATOM     25  C   UNL A   1      41.777  22.486  25.614  1.00  0.00     0.009 C 
ATOM     26  C   UNL A   1      42.027  21.199  27.730  1.00  0.00     0.009 C 
ENDBRANCH  23  24
ENDBRANCH  21  23
ENDBRANCH  11  21
BRANCH  20  27
ATOM     27  C   UNL A   1      32.535  21.303  23.209  1.00  0.00     0.430 C 
ATOM     28  F   UNL A   1      31.233  21.485  22.887  1.00  0.00    -0.167 F 
ATOM     29  F   UNL A   1      33.238  22.290  22.607  1.00  0.00    -0.167 F 
ATOM     30  F   UNL A   1      32.931  20.132  22.656  1.00  0.00    -0.167 F 
ENDBRANCH  20  27
ENDBRANCH   8  10
ENDBRANCH   7   8
ENDBRANCH   6   7
ENDBRANCH   5   6
ENDBRANCH   4   5
ENDBRANCH   3   4
ENDBRANCH   2   3
ENDBRANCH   1   2
BRANCH   1  31
ATOM     31  C   UNL A   1      31.579  28.902  26.860  1.00  0.00     0.188 C 
BRANCH  31  32
ATOM     32  C   UNL A   1      32.564  30.074  27.087  1.00  0.00     0.188 C 
BRANCH  32  33
ATOM     33  O   UNL A   1      32.357  31.194  26.232  1.00  0.00    -0.376 OA
BRANCH  33  34
ATOM     34  C   UNL A   1      31.532  32.238  26.727  1.00  0.00     0.202 C 
BRANCH  34  35
ATOM     35  C   UNL A   1      32.294  33.495  27.159  1.00  0.00     0.261 C 
BRANCH  35  36
ATOM     36  O   UNL A   1      33.360  33.277  28.096  1.00  0.00    -0.460 OA
BRANCH  36  37
ATOM     37  C   UNL A   1      33.564  34.213  29.048  1.00  0.00     0.338 C 
ATOM     38  O   UNL A   1      32.852  35.167  29.308  1.00  0.00    -0.246 OA
BRANCH  37  39
ATOM     39  C   UNL A   1      34.715  33.764  29.862  1.00  0.00     0.060 A 
ATOM     40  C   UNL A   1      34.542  32.771  30.830  1.00  0.00     0.016 A 
ATOM     41  C   UNL A   1      35.965  34.373  29.685  1.00  0.00     0.016 A 
ATOM     42  C   UNL A   1      35.632  32.364  31.599  1.00  0.00     0.010 A 
ATOM     43  C   UNL A   1      37.054  33.964  30.460  1.00  0.00     0.010 A 
ATOM     44  C   UNL A   1      36.900  32.938  31.404  1.00  0.00    -0.014 A 
BRANCH  44  45
ATOM     45  C   UNL A   1      38.082  32.320  32.053  1.00  0.00     0.031 A 
ATOM     46  C   UNL A   1      38.987  31.369  31.329  1.00  0.00     0.074 A 
ATOM     47  C   UNL A   1      38.340  32.668  33.330  1.00  0.00     0.049 A 
ATOM     48  N   UNL A   1      40.105  30.831  31.745  1.00  0.00    -0.248 NA
ATOM     49  C   UNL A   1      38.594  30.965  29.971  1.00  0.00     0.031 C 
ATOM     50  C   UNL A   1      37.511  33.571  34.134  1.00  0.00     0.029 A 
ATOM     51  N   UNL A   1      39.369  32.325  34.168  1.00  0.00    -0.354 N 
ATOM     52  C   UNL A   1      40.571  30.052  30.694  1.00  0.00     0.074 A 
ATOM     53  C   UNL A   1      39.585  30.146  29.637  1.00  0.00     0.031 C 
ATOM     54  C   UNL A   1      38.083  33.737  35.337  1.00  0.00     0.029 A 
ATOM     55  C   UNL A   1      39.300  32.935  35.399  1.00  0.00     0.049 A 
ATOM     56  H   UNL A   1      40.088  31.704  33.913  1.00  0.00     0.167 HD
ATOM     57  C   UNL A   1      41.726  29.345  30.618  1.00  0.00     0.037 A 
ATOM     58  C   UNL A   1      40.128  32.862  36.458  1.00  0.00     0.037 A 
ATOM     59  C   UNL A   1      42.694  29.251  31.684  1.00  0.00     0.049 A 
ATOM     60  C   UNL A   1      41.369  32.020  36.360  1.00  0.00     0.074 A 
ATOM     61  C   UNL A   1      43.905  28.575  31.687  1.00  0.00     0.029 A 
ATOM     62  N   UNL A   1      42.569  29.841  32.933  1.00  0.00    -0.354 N 
ATOM     63  N   UNL A   1      41.825  31.341  35.336  1.00  0.00    -0.248 NA
ATOM     64  C   UNL A   1      42.213  31.938  37.561  1.00  0.00     0.031 C 
ATOM     65  C   UNL A   1      44.487  28.719  32.950  1.00  0.00     0.029 A 
ATOM     66  C   UNL A   1      43.666  29.525  33.720  1.00  0.00     0.049 A 
ATOM     67  H   UNL A   1      41.812  30.402  33.219  1.00  0.00     0.167 HD
ATOM     68  C   UNL A   1      43.020  30.773  35.760  1.00  0.00     0.074 A 
ATOM     69  C   UNL A   1      43.227  31.202  37.127  1.00  0.00     0.031 C 
ATOM     70  C   UNL A   1      43.867  29.964  35.078  1.00  0.00     0.037 A 
BRANCH  57  71
ATOM     71  C   UNL A   1      42.048  28.636  29.332  1.00  0.00     0.058 A 
ATOM     72  C   UNL A   1      41.406  27.436  28.989  1.00  0.00     0.135 A 
ATOM     73  C   UNL A   1      42.890  29.224  28.374  1.00  0.00     0.135 A 
ATOM     74  F   UNL A   1      40.597  26.827  29.871  1.00  0.00    -0.206 F 
ATOM     75  C   UNL A   1      41.579  26.849  27.739  1.00  0.00     0.059 A 
ATOM     76  C   UNL A   1      43.063  28.666  27.110  1.00  0.00     0.059 A 
ATOM     77  F   UNL A   1      43.528  30.373  28.650  1.00  0.00    -0.206 F 
ATOM     78  C   UNL A   1      42.399  27.479  26.801  1.00  0.00     0.060 A 
BRANCH  78  79
ATOM     79  S   UNL A   1      42.558  26.735  25.163  1.00  0.00     0.124 S 
ATOM     80  O   UNL A   1      42.669  27.918  24.315  1.00  0.00    -0.237 OA
ATOM     81  O   UNL A   1      43.772  25.939  25.302  1.00  0.00    -0.237 OA
ATOM     82  O   UNL A   1      41.323  25.972  25.013  1.00  0.00    -0.744 OA
ENDBRANCH  78  79
ENDBRANCH  57  71
BRANCH  58  83
ATOM     83  C   UNL A   1      39.825  33.625  37.698  1.00  0.00     0.058 A 
ATOM     84  C   UNL A   1      38.837  33.184  38.590  1.00  0.00     0.135 A 
ATOM     85  C   UNL A   1      40.500  34.817  38.004  1.00  0.00     0.135 A 
ATOM     86  F   UNL A   1      38.165  32.050  38.340  1.00  0.00    -0.206 F 
ATOM     87  C   UNL A   1      38.503  33.915  39.725  1.00  0.00     0.059 A 
ATOM     88  C   UNL A   1      40.204  35.550  39.147  1.00  0.00     0.059 A 
ATOM     89  F   UNL A   1      41.468  35.269  37.191  1.00  0.00    -0.206 F 
ATOM     90  C   UNL A   1      39.191  35.100  39.991  1.00  0.00     0.060 A 
BRANCH  90  91
ATOM     91  S   UNL A   1      38.748  36.041  41.467  1.00  0.00     0.124 S 
ATOM     92  O   UNL A   1      39.975  35.951  42.250  1.00  0.00    -0.237 OA
ATOM     93  O   UNL A   1      38.439  37.354  40.911  1.00  0.00    -0.237 OA
ATOM     94  O   UNL A   1      37.603  35.308  42.000  1.00  0.00    -0.744 OA
ENDBRANCH  90  91
ENDBRANCH  58  83
BRANCH  70  95
ATOM     95  C   UNL A   1      45.109  29.502  35.788  1.00  0.00     0.058 A 
ATOM     96  C   UNL A   1      46.305  30.234  35.726  1.00  0.00     0.135 A 
ATOM     97  C   UNL A   1      45.087  28.349  36.592  1.00  0.00     0.135 A 
ATOM     98  F   UNL A   1      46.383  31.337  34.965  1.00  0.00    -0.206 F 
ATOM     99  C   UNL A   1      47.440  29.833  36.423  1.00  0.00     0.059 A 
ATOM    100  C   UNL A   1      46.202  27.945  37.319  1.00  0.00     0.059 A 
ATOM    101  F   UNL A   1      43.968  27.616  36.690  1.00  0.00    -0.206 F 
ATOM    102  C   UNL A   1      47.377  28.690  37.223  1.00  0.00     0.060 A 
BRANCH 102 103
ATOM    103  S   UNL A   1      48.844  28.212  38.158  1.00  0.00     0.124 S 
ATOM    104  O   UNL A   1      49.588  27.440  37.168  1.00  0.00    -0.237 OA
ATOM    105  O   UNL A   1      49.420  29.506  38.515  1.00  0.00    -0.237 OA
ATOM    106  O   UNL A   1      48.303  27.444  39.276  1.00  0.00    -0.744 OA
ENDBRANCH 102 103
ENDBRANCH  70  95
ENDBRANCH  44  45
ENDBRANCH  37  39
ENDBRANCH  36  37
ENDBRANCH  35  36
ENDBRANCH  34  35
ENDBRANCH  33  34
ENDBRANCH  32  33
ENDBRANCH  31  32
ENDBRANCH   1  31
TORSDOF 27
ENDMDL
MODEL 3
REMARK VINA RESULT:      -8.1      5.786     11.049
REMARK SMILES CC(C)CN(C)c1cc2c(cc1Cl)C=C(C(=O)OCCOCCOCCOCCOC(=O)c1ccc(-c3c4nc(c(-c5c(F)cc(S(=O)(=O)[O-])cc5F)c5ccc([nH]5)c(-c5c(F)cc(S(=O)(=O)[O-])cc5F)c5nc(c(-c6c(F)cc(S(=O)(=O)[O-])cc6F)c6ccc3[nH]6)C=C5)C=C4)cc1)[C@@H](C(F)(F)F)O2
REMARK SMILES IDX 24 1 23 2 22 3 21 4 20 5 19 6 18 7 16 8 17 9 15 10 7 11 8 12
REMARK SMILES IDX 12 13 9 14 11 15 13 16 10 17 104 18 14 19 99 20 5 21 6 22
REMARK SMILES IDX 4 23 2 24 1 25 3 26 100 27 101 28 102 29 103 30 25 31 26 32
REMARK SMILES IDX 27 33 28 34 29 35 30 36 31 37 32 38 33 39 34 40 98 41 35 42
REMARK SMILES IDX 97 43 36 44 37 45 38 46 91 47 39 48 96 49 90 50 92 51 40 52
REMARK SMILES IDX 95 53 89 54 88 55 41 57 75 58 54 59 74 60 55 61 58 62 73 63
REMARK SMILES IDX 93 64 56 65 57 66 72 68 94 69 59 70 42 71 43 72 52 73 44 74
REMARK SMILES IDX 45 75 51 76 53 77 46 78 47 79 48 80 49 81 50 82 76 83 77 84
REMARK SMILES IDX 86 85 78 86 79 87 85 88 87 89 80 90 81 91 82 92 83 93 84 94
REMARK SMILES IDX 60 95 61 96 70 97 62 98 63 99 69 100 71 101 64 102 65 103
REMARK SMILES IDX 66 104 67 105 68 106
REMARK H PARENT 92 56 58 67
REMARK Flexibility Score: inf
ROOT
ATOM      1  O   UNL A   1      32.847  34.809  32.411  1.00  0.00    -0.377 OA
ENDROOT
BRANCH   1   2
ATOM      2  C   UNL A   1      32.721  36.122  31.893  1.00  0.00     0.188 C 
BRANCH   2   3
ATOM      3  C   UNL A   1      32.821  36.188  30.358  1.00  0.00     0.188 C 
BRANCH   3   4
ATOM      4  O   UNL A   1      32.594  34.932  29.728  1.00  0.00    -0.376 OA
BRANCH   4   5
ATOM      5  C   UNL A   1      33.607  34.414  28.877  1.00  0.00     0.202 C 
BRANCH   5   6
ATOM      6  C   UNL A   1      34.494  33.259  29.381  1.00  0.00     0.261 C 
BRANCH   6   7
ATOM      7  O   UNL A   1      34.061  31.939  29.020  1.00  0.00    -0.460 OA
BRANCH   7   8
ATOM      8  C   UNL A   1      34.493  31.463  27.840  1.00  0.00     0.338 C 
ATOM      9  O   UNL A   1      35.507  31.799  27.252  1.00  0.00    -0.246 OA
BRANCH   8  10
ATOM     10  C   UNL A   1      33.642  30.320  27.444  1.00  0.00     0.087 C 
ATOM     11  C   UNL A   1      31.965  25.982  25.500  1.00  0.00     0.059 A 
ATOM     12  C   UNL A   1      31.365  27.018  26.249  1.00  0.00     0.074 A 
ATOM     13  C   UNL A   1      33.344  26.099  25.223  1.00  0.00     0.065 A 
ATOM     14  C   UNL A   1      32.117  28.110  26.709  1.00  0.00     0.130 A 
ATOM     15  C   UNL A   1      34.108  27.129  25.771  1.00  0.00     0.034 A 
ATOM     16  Cl  UNL A   1      34.170  25.036  24.133  1.00  0.00    -0.082 Cl
ATOM     17  C   UNL A   1      33.494  28.137  26.506  1.00  0.00     0.019 A 
ATOM     18  O   UNL A   1      31.450  29.114  27.364  1.00  0.00    -0.475 OA
ATOM     19  C   UNL A   1      34.292  29.236  27.007  1.00  0.00     0.027 C 
ATOM     20  C   UNL A   1      32.139  30.398  27.532  1.00  0.00     0.316 C 
BRANCH  11  21
ATOM     21  N   UNL A   1      31.216  24.892  25.037  1.00  0.00    -0.373 N 
ATOM     22  C   UNL A   1      30.451  25.129  23.819  1.00  0.00     0.143 C 
BRANCH  21  23
ATOM     23  C   UNL A   1      30.651  23.955  26.029  1.00  0.00     0.119 C 
BRANCH  23  24
ATOM     24  C   UNL A   1      31.531  22.703  26.240  1.00  0.00     0.002 C 
ATOM     25  C   UNL A   1      32.122  22.184  24.925  1.00  0.00     0.009 C 
ATOM     26  C   UNL A   1      32.677  22.969  27.221  1.00  0.00     0.009 C 
ENDBRANCH  23  24
ENDBRANCH  21  23
ENDBRANCH  11  21
BRANCH  20  27
ATOM     27  C   UNL A   1      31.590  31.435  26.541  1.00  0.00     0.430 C 
ATOM     28  F   UNL A   1      32.413  32.502  26.429  1.00  0.00    -0.167 F 
ATOM     29  F   UNL A   1      31.450  30.906  25.303  1.00  0.00    -0.167 F 
ATOM     30  F   UNL A   1      30.375  31.895  26.922  1.00  0.00    -0.167 F 
ENDBRANCH  20  27
ENDBRANCH   8  10
ENDBRANCH   7   8
ENDBRANCH   6   7
ENDBRANCH   5   6
ENDBRANCH   4   5
ENDBRANCH   3   4
ENDBRANCH   2   3
ENDBRANCH   1   2
BRANCH   1  31
ATOM     31  C   UNL A   1      34.111  34.406  32.943  1.00  0.00     0.188 C 
BRANCH  31  32
ATOM     32  C   UNL A   1      35.429  35.150  32.617  1.00  0.00     0.188 C 
BRANCH  32  33
ATOM     33  O   UNL A   1      36.465  34.963  33.576  1.00  0.00    -0.376 OA
BRANCH  33  34
ATOM     34  C   UNL A   1      37.535  34.106  33.208  1.00  0.00     0.202 C 
BRANCH  34  35
ATOM     35  C   UNL A   1      37.466  33.591  31.767  1.00  0.00     0.261 C 
BRANCH  35  36
ATOM     36  O   UNL A   1      37.402  32.163  31.627  1.00  0.00    -0.460 OA
BRANCH  36  37
ATOM     37  C   UNL A   1      38.491  31.527  31.143  1.00  0.00     0.338 C 
ATOM     38  O   UNL A   1      38.816  31.408  29.974  1.00  0.00    -0.246 OA
BRANCH  37  39
ATOM     39  C   UNL A   1      39.337  31.165  32.301  1.00  0.00     0.060 A 
ATOM     40  C   UNL A   1      40.693  31.500  32.309  1.00  0.00     0.016 A 
ATOM     41  C   UNL A   1      38.777  30.448  33.367  1.00  0.00     0.016 A 
ATOM     42  C   UNL A   1      41.483  31.144  33.402  1.00  0.00     0.010 A 
ATOM     43  C   UNL A   1      39.573  30.089  34.459  1.00  0.00     0.010 A 
ATOM     44  C   UNL A   1      40.925  30.458  34.495  1.00  0.00    -0.014 A 
BRANCH  44  45
ATOM     45  C   UNL A   1      41.719  30.312  35.739  1.00  0.00     0.031 A 
ATOM     46  C   UNL A   1      42.586  29.117  36.000  1.00  0.00     0.074 A 
ATOM     47  C   UNL A   1      41.660  31.319  36.634  1.00  0.00     0.049 A 
ATOM     48  N   UNL A   1      43.405  28.906  36.998  1.00  0.00    -0.248 NA
ATOM     49  C   UNL A   1      42.531  28.018  35.024  1.00  0.00     0.031 C 
ATOM     50  C   UNL A   1      40.832  32.520  36.488  1.00  0.00     0.029 A 
ATOM     51  N   UNL A   1      42.311  31.507  37.825  1.00  0.00    -0.354 N 
ATOM     52  C   UNL A   1      43.990  27.668  36.761  1.00  0.00     0.074 A 
ATOM     53  C   UNL A   1      43.391  27.151  35.547  1.00  0.00     0.031 C 
ATOM     54  C   UNL A   1      41.051  33.334  37.532  1.00  0.00     0.029 A 
ATOM     55  C   UNL A   1      42.012  32.704  38.431  1.00  0.00     0.049 A 
ATOM     56  H   UNL A   1      42.934  30.849  38.209  1.00  0.00     0.167 HD
ATOM     57  C   UNL A   1      44.951  27.040  37.482  1.00  0.00     0.037 A 
ATOM     58  C   UNL A   1      42.465  33.241  39.580  1.00  0.00     0.037 A 
ATOM     59  C   UNL A   1      45.530  27.562  38.696  1.00  0.00     0.049 A 
ATOM     60  C   UNL A   1      43.488  32.488  40.385  1.00  0.00     0.074 A 
ATOM     61  C   UNL A   1      46.527  27.003  39.481  1.00  0.00     0.029 A 
ATOM     62  N   UNL A   1      45.168  28.753  39.307  1.00  0.00    -0.354 N 
ATOM     63  N   UNL A   1      44.075  31.348  40.112  1.00  0.00    -0.248 NA
ATOM     64  C   UNL A   1      43.913  33.096  41.654  1.00  0.00     0.031 C 
ATOM     65  C   UNL A   1      46.734  27.833  40.587  1.00  0.00     0.029 A 
ATOM     66  C   UNL A   1      45.903  28.934  40.468  1.00  0.00     0.049 A 
ATOM     67  H   UNL A   1      44.489  29.379  38.966  1.00  0.00     0.167 HD
ATOM     68  C   UNL A   1      44.957  31.116  41.160  1.00  0.00     0.074 A 
ATOM     69  C   UNL A   1      44.840  32.241  42.063  1.00  0.00     0.031 C 
ATOM     70  C   UNL A   1      45.786  30.063  41.357  1.00  0.00     0.037 A 
BRANCH  57  71
ATOM     71  C   UNL A   1      45.483  25.728  36.975  1.00  0.00     0.058 A 
ATOM     72  C   UNL A   1      44.893  24.513  37.356  1.00  0.00     0.135 A 
ATOM     73  C   UNL A   1      46.490  25.688  35.995  1.00  0.00     0.135 A 
ATOM     74  F   UNL A   1      43.933  24.495  38.294  1.00  0.00    -0.206 F 
ATOM     75  C   UNL A   1      45.275  23.306  36.780  1.00  0.00     0.059 A 
ATOM     76  C   UNL A   1      46.873  24.493  35.390  1.00  0.00     0.059 A 
ATOM     77  F   UNL A   1      47.086  26.821  35.592  1.00  0.00    -0.206 F 
ATOM     78  C   UNL A   1      46.257  23.308  35.787  1.00  0.00     0.060 A 
BRANCH  78  79
ATOM     79  S   UNL A   1      46.689  21.738  35.006  1.00  0.00     0.124 S 
ATOM     80  O   UNL A   1      45.644  21.619  33.993  1.00  0.00    -0.237 OA
ATOM     81  O   UNL A   1      48.032  22.005  34.501  1.00  0.00    -0.237 OA
ATOM     82  O   UNL A   1      46.612  20.777  36.101  1.00  0.00    -0.744 OA
ENDBRANCH  78  79
ENDBRANCH  57  71
BRANCH  58  83
ATOM     83  C   UNL A   1      41.975  34.570  40.029  1.00  0.00     0.058 A 
ATOM     84  C   UNL A   1      40.796  34.686  40.780  1.00  0.00     0.135 A 
ATOM     85  C   UNL A   1      42.662  35.749  39.702  1.00  0.00     0.135 A 
ATOM     86  F   UNL A   1      40.105  33.586  41.117  1.00  0.00    -0.206 F 
ATOM     87  C   UNL A   1      40.295  35.925  41.160  1.00  0.00     0.059 A 
ATOM     88  C   UNL A   1      42.196  36.998  40.096  1.00  0.00     0.059 A 
ATOM     89  F   UNL A   1      43.806  35.690  39.003  1.00  0.00    -0.206 F 
ATOM     90  C   UNL A   1      41.001  37.077  40.808  1.00  0.00     0.060 A 
BRANCH  90  91
ATOM     91  S   UNL A   1      40.339  38.681  41.306  1.00  0.00     0.124 S 
ATOM     92  O   UNL A   1      40.768  38.753  42.699  1.00  0.00    -0.237 OA
ATOM     93  O   UNL A   1      41.010  39.589  40.383  1.00  0.00    -0.237 OA
ATOM     94  O   UNL A   1      38.902  38.531  41.095  1.00  0.00    -0.744 OA
ENDBRANCH  90  91
ENDBRANCH  58  83
BRANCH  70  95
ATOM     95  C   UNL A   1      46.651  30.080  42.588  1.00  0.00     0.058 A 
ATOM     96  C   UNL A   1      46.243  29.461  43.779  1.00  0.00     0.135 A 
ATOM     97  C   UNL A   1      47.927  30.666  42.557  1.00  0.00     0.135 A 
ATOM     98  F   UNL A   1      45.028  28.895  43.865  1.00  0.00    -0.206 F 
ATOM     99  C   UNL A   1      47.063  29.434  44.902  1.00  0.00     0.059 A 
ATOM    100  C   UNL A   1      48.775  30.628  43.660  1.00  0.00     0.059 A 
ATOM    101  F   UNL A   1      48.369  31.267  41.441  1.00  0.00    -0.206 F 
ATOM    102  C   UNL A   1      48.331  30.015  44.831  1.00  0.00     0.060 A 
BRANCH 102 103
ATOM    103  S   UNL A   1      49.400  29.927  46.282  1.00  0.00     0.124 S 
ATOM    104  O   UNL A   1      49.574  31.339  46.607  1.00  0.00    -0.237 OA
ATOM    105  O   UNL A   1      48.588  29.157  47.220  1.00  0.00    -0.237 OA
ATOM    106  O   UNL A   1      50.593  29.246  45.788  1.00  0.00    -0.744 OA
ENDBRANCH 102 103
ENDBRANCH  70  95
ENDBRANCH  44  45
ENDBRANCH  37  39
ENDBRANCH  36  37
ENDBRANCH  35  36
ENDBRANCH  34  35
ENDBRANCH  33  34
ENDBRANCH  32  33
ENDBRANCH  31  32
ENDBRANCH   1  31
TORSDOF 27
ENDMDL
