MODEL 1
REMARK VINA RESULT:      -8.4      0.000      0.000
REMARK SMILES CN(C)c1cc(C(F)(F)F)cc(-c2cccc(/C=C/C(=O)OCCOCCOCCOCCOC(=O)c3ccc(-c4c5nc(c(-c6c(F)cc(S(=O)(=O)[O-])cc6F)c6ccc([nH]6)c(-c6c(F)cc(S(=O)(=O)[O-])cc6F)c6nc(c(-c7c(F)cc(S(=O)(=O)[O-])cc7F)c7ccc4[nH]7)C=C6)C=C5)cc3)c2)n1
REMARK SMILES IDX 28 1 27 2 26 3 25 4 24 5 23 6 22 7 20 8 21 9 19 10 18 11
REMARK SMILES IDX 17 12 13 13 14 14 103 15 15 16 16 17 12 18 4 19 5 20 104 21
REMARK SMILES IDX 6 22 11 23 2 24 1 25 3 26 7 27 8 28 9 29 10 30 29 31 30 32
REMARK SMILES IDX 31 33 32 34 33 35 34 36 35 37 36 38 37 39 38 40 102 41 39 42
REMARK SMILES IDX 101 43 40 44 41 45 42 46 95 47 43 48 100 49 94 50 96 51
REMARK SMILES IDX 44 52 99 53 93 54 92 55 45 57 79 58 58 59 78 60 59 61 62 62
REMARK SMILES IDX 77 63 97 64 60 65 61 66 76 68 98 69 63 70 46 71 47 72 56 73
REMARK SMILES IDX 48 74 49 75 55 76 57 77 50 78 51 79 52 80 53 81 54 82 80 83
REMARK SMILES IDX 81 84 90 85 82 86 83 87 89 88 91 89 84 90 85 91 86 92 87 93
REMARK SMILES IDX 88 94 64 95 65 96 74 97 66 98 67 99 73 100 75 101 68 102
REMARK SMILES IDX 69 103 70 104 71 105 72 106
REMARK H PARENT 96 56 62 67
REMARK Flexibility Score: inf
ROOT
ATOM      1  O   UNL A   1      36.124  34.956  33.736  1.00  0.00    -0.377 OA
ENDROOT
BRANCH   1   2
ATOM      2  C   UNL A   1      36.035  33.932  34.711  1.00  0.00     0.188 C 
BRANCH   2   3
ATOM      3  C   UNL A   1      36.606  32.554  34.326  1.00  0.00     0.188 C 
BRANCH   3   4
ATOM      4  O   UNL A   1      37.523  32.036  35.271  1.00  0.00    -0.376 OA
BRANCH   4   5
ATOM      5  C   UNL A   1      38.033  30.723  35.128  1.00  0.00     0.202 C 
BRANCH   5   6
ATOM      6  C   UNL A   1      39.079  30.367  34.058  1.00  0.00     0.261 C 
BRANCH   6   7
ATOM      7  O   UNL A   1      38.582  29.976  32.776  1.00  0.00    -0.460 OA
BRANCH   7   8
ATOM      8  C   UNL A   1      38.381  28.661  32.562  1.00  0.00     0.330 C 
ATOM      9  O   UNL A   1      37.625  27.934  33.186  1.00  0.00    -0.247 OA
BRANCH   8  10
ATOM     10  C   UNL A   1      39.078  28.216  31.332  1.00  0.00     0.094 C 
ATOM     11  C   UNL A   1      38.558  28.284  30.095  1.00  0.00     0.015 C 
BRANCH  11  12
ATOM     12  C   UNL A   1      39.240  27.791  28.886  1.00  0.00    -0.025 A 
ATOM     13  C   UNL A   1      39.752  25.897  27.407  1.00  0.00     0.001 A 
ATOM     14  C   UNL A   1      40.514  26.761  26.605  1.00  0.00     0.010 A 
ATOM     15  C   UNL A   1      39.135  26.431  28.555  1.00  0.00     0.018 A 
ATOM     16  C   UNL A   1      40.657  28.108  26.938  1.00  0.00     0.001 A 
ATOM     17  C   UNL A   1      40.030  28.617  28.077  1.00  0.00     0.008 A 
BRANCH  13  18
ATOM     18  C   UNL A   1      39.580  24.483  27.035  1.00  0.00     0.073 A 
ATOM     19  C   UNL A   1      40.480  22.321  27.115  1.00  0.00     0.129 A 
ATOM     20  C   UNL A   1      39.414  21.844  26.359  1.00  0.00     0.060 A 
ATOM     21  N   UNL A   1      40.556  23.633  27.439  1.00  0.00    -0.231 NA
ATOM     22  C   UNL A   1      38.391  22.707  25.954  1.00  0.00     0.061 A 
ATOM     23  C   UNL A   1      38.486  24.055  26.296  1.00  0.00     0.042 A 
BRANCH  19  24
ATOM     24  N   UNL A   1      41.456  21.459  27.587  1.00  0.00    -0.363 N 
ATOM     25  C   UNL A   1      41.234  20.027  27.592  1.00  0.00     0.144 C 
ATOM     26  C   UNL A   1      42.805  21.983  27.695  1.00  0.00     0.144 C 
ENDBRANCH  19  24
BRANCH  22  27
ATOM     27  C   UNL A   1      37.199  22.204  25.190  1.00  0.00     0.416 C 
ATOM     28  F   UNL A   1      36.972  20.880  25.393  1.00  0.00    -0.166 F 
ATOM     29  F   UNL A   1      36.052  22.844  25.550  1.00  0.00    -0.166 F 
ATOM     30  F   UNL A   1      37.308  22.369  23.842  1.00  0.00    -0.166 F 
ENDBRANCH  22  27
ENDBRANCH  13  18
ENDBRANCH  11  12
ENDBRANCH   8  10
ENDBRANCH   7   8
ENDBRANCH   6   7
ENDBRANCH   5   6
ENDBRANCH   4   5
ENDBRANCH   3   4
ENDBRANCH   2   3
ENDBRANCH   1   2
BRANCH   1  31
ATOM     31  C   UNL A   1      34.959  35.355  33.013  1.00  0.00     0.188 C 
BRANCH  31  32
ATOM     32  C   UNL A   1      33.753  34.416  32.759  1.00  0.00     0.188 C 
BRANCH  32  33
ATOM     33  O   UNL A   1      32.863  34.842  31.740  1.00  0.00    -0.376 OA
BRANCH  33  34
ATOM     34  C   UNL A   1      33.415  35.534  30.634  1.00  0.00     0.202 C 
BRANCH  34  35
ATOM     35  C   UNL A   1      33.380  34.802  29.286  1.00  0.00     0.261 C 
BRANCH  35  36
ATOM     36  O   UNL A   1      34.196  33.626  29.188  1.00  0.00    -0.460 OA
BRANCH  36  37
ATOM     37  C   UNL A   1      35.343  33.729  28.475  1.00  0.00     0.338 C 
ATOM     38  O   UNL A   1      35.451  33.982  27.295  1.00  0.00    -0.246 OA
BRANCH  37  39
ATOM     39  C   UNL A   1      36.466  33.658  29.437  1.00  0.00     0.060 A 
ATOM     40  C   UNL A   1      37.608  34.438  29.215  1.00  0.00     0.016 A 
ATOM     41  C   UNL A   1      36.380  32.829  30.557  1.00  0.00     0.016 A 
ATOM     42  C   UNL A   1      38.685  34.365  30.102  1.00  0.00     0.010 A 
ATOM     43  C   UNL A   1      37.467  32.742  31.431  1.00  0.00     0.010 A 
ATOM     44  C   UNL A   1      38.636  33.484  31.192  1.00  0.00    -0.014 A 
BRANCH  44  45
ATOM     45  C   UNL A   1      39.867  33.188  31.966  1.00  0.00     0.031 A 
ATOM     46  C   UNL A   1      40.839  32.187  31.397  1.00  0.00     0.074 A 
ATOM     47  C   UNL A   1      40.128  33.795  33.139  1.00  0.00     0.049 A 
ATOM     48  N   UNL A   1      41.931  31.697  31.922  1.00  0.00    -0.248 NA
ATOM     49  C   UNL A   1      40.532  31.667  30.052  1.00  0.00     0.031 C 
ATOM     50  C   UNL A   1      39.289  34.813  33.771  1.00  0.00     0.029 A 
ATOM     51  N   UNL A   1      41.173  33.629  34.016  1.00  0.00    -0.354 N 
ATOM     52  C   UNL A   1      42.441  30.815  30.976  1.00  0.00     0.074 A 
ATOM     53  C   UNL A   1      41.522  30.808  29.860  1.00  0.00     0.031 C 
ATOM     54  C   UNL A   1      39.846  35.168  34.944  1.00  0.00     0.029 A 
ATOM     55  C   UNL A   1      41.056  34.377  35.164  1.00  0.00     0.049 A 
ATOM     56  H   UNL A   1      41.934  33.030  33.838  1.00  0.00     0.167 HD
ATOM     57  C   UNL A   1      43.582  30.088  31.026  1.00  0.00     0.037 A 
ATOM     58  C   UNL A   1      41.823  34.397  36.274  1.00  0.00     0.037 A 
ATOM     59  C   UNL A   1      44.493  30.096  32.140  1.00  0.00     0.049 A 
ATOM     60  C   UNL A   1      43.041  33.504  36.343  1.00  0.00     0.074 A 
ATOM     61  C   UNL A   1      45.671  29.388  32.291  1.00  0.00     0.029 A 
ATOM     62  N   UNL A   1      44.328  30.850  33.292  1.00  0.00    -0.354 N 
ATOM     63  N   UNL A   1      43.518  32.681  35.438  1.00  0.00    -0.248 NA
ATOM     64  C   UNL A   1      43.827  33.543  37.586  1.00  0.00     0.031 C 
ATOM     65  C   UNL A   1      46.194  29.675  33.555  1.00  0.00     0.029 A 
ATOM     66  C   UNL A   1      45.375  30.610  34.166  1.00  0.00     0.049 A 
ATOM     67  H   UNL A   1      43.578  31.464  33.465  1.00  0.00     0.167 HD
ATOM     68  C   UNL A   1      44.678  32.142  35.985  1.00  0.00     0.074 A 
ATOM     69  C   UNL A   1      44.838  32.737  37.294  1.00  0.00     0.031 C 
ATOM     70  C   UNL A   1      45.537  31.235  35.455  1.00  0.00     0.037 A 
BRANCH  57  71
ATOM     71  C   UNL A   1      43.912  29.214  29.848  1.00  0.00     0.058 A 
ATOM     72  C   UNL A   1      43.402  27.911  29.734  1.00  0.00     0.135 A 
ATOM     73  C   UNL A   1      44.686  29.710  28.787  1.00  0.00     0.135 A 
ATOM     74  F   UNL A   1      42.677  27.379  30.730  1.00  0.00    -0.206 F 
ATOM     75  C   UNL A   1      43.653  27.129  28.612  1.00  0.00     0.059 A 
ATOM     76  C   UNL A   1      44.926  28.956  27.642  1.00  0.00     0.059 A 
ATOM     77  F   UNL A   1      45.204  30.947  28.848  1.00  0.00    -0.206 F 
ATOM     78  C   UNL A   1      44.408  27.664  27.566  1.00  0.00     0.060 A 
BRANCH  78  79
ATOM     79  S   UNL A   1      44.681  26.651  26.098  1.00  0.00     0.124 S 
ATOM     80  O   UNL A   1      44.009  27.439  25.070  1.00  0.00    -0.237 OA
ATOM     81  O   UNL A   1      46.138  26.613  26.015  1.00  0.00    -0.237 OA
ATOM     82  O   UNL A   1      44.041  25.383  26.433  1.00  0.00    -0.744 OA
ENDBRANCH  78  79
ENDBRANCH  57  71
BRANCH  58  83
ATOM     83  C   UNL A   1      41.462  35.261  37.434  1.00  0.00     0.058 A 
ATOM     84  C   UNL A   1      42.031  36.535  37.597  1.00  0.00     0.135 A 
ATOM     85  C   UNL A   1      40.591  34.807  38.437  1.00  0.00     0.135 A 
ATOM     86  F   UNL A   1      42.879  37.013  36.673  1.00  0.00    -0.206 F 
ATOM     87  C   UNL A   1      41.784  37.307  38.727  1.00  0.00     0.059 A 
ATOM     88  C   UNL A   1      40.302  35.575  39.560  1.00  0.00     0.059 A 
ATOM     89  F   UNL A   1      40.011  33.602  38.330  1.00  0.00    -0.206 F 
ATOM     90  C   UNL A   1      40.921  36.816  39.707  1.00  0.00     0.060 A 
BRANCH  90  91
ATOM     91  S   UNL A   1      40.608  37.824  41.172  1.00  0.00     0.124 S 
ATOM     92  O   UNL A   1      40.556  39.165  40.600  1.00  0.00    -0.237 OA
ATOM     93  O   UNL A   1      39.339  37.284  41.651  1.00  0.00    -0.237 OA
ATOM     94  O   UNL A   1      41.760  37.546  42.024  1.00  0.00    -0.744 OA
ENDBRANCH  90  91
ENDBRANCH  58  83
BRANCH  70  95
ATOM     95  C   UNL A   1      46.761  30.875  36.253  1.00  0.00     0.058 A 
ATOM     96  C   UNL A   1      47.931  31.647  36.212  1.00  0.00     0.135 A 
ATOM     97  C   UNL A   1      46.737  29.769  37.122  1.00  0.00     0.135 A 
ATOM     98  F   UNL A   1      48.010  32.711  35.397  1.00  0.00    -0.206 F 
ATOM     99  C   UNL A   1      49.044  31.324  36.984  1.00  0.00     0.059 A 
ATOM    100  C   UNL A   1      47.825  29.448  37.927  1.00  0.00     0.059 A 
ATOM    101  F   UNL A   1      45.638  29.002  37.211  1.00  0.00    -0.206 F 
ATOM    102  C   UNL A   1      48.979  30.224  37.842  1.00  0.00     0.060 A 
BRANCH 102 103
ATOM    103  S   UNL A   1      50.416  29.841  38.865  1.00  0.00     0.124 S 
ATOM    104  O   UNL A   1      51.379  30.836  38.407  1.00  0.00    -0.237 OA
ATOM    105  O   UNL A   1      49.897  30.035  40.216  1.00  0.00    -0.237 OA
ATOM    106  O   UNL A   1      50.727  28.458  38.513  1.00  0.00    -0.744 OA
ENDBRANCH 102 103
ENDBRANCH  70  95
ENDBRANCH  44  45
ENDBRANCH  37  39
ENDBRANCH  36  37
ENDBRANCH  35  36
ENDBRANCH  34  35
ENDBRANCH  33  34
ENDBRANCH  32  33
ENDBRANCH  31  32
ENDBRANCH   1  31
TORSDOF 27
ENDMDL
MODEL 2
REMARK VINA RESULT:      -8.0      4.224      7.081
REMARK SMILES CN(C)c1cc(C(F)(F)F)cc(-c2cccc(/C=C/C(=O)OCCOCCOCCOCCOC(=O)c3ccc(-c4c5nc(c(-c6c(F)cc(S(=O)(=O)[O-])cc6F)c6ccc([nH]6)c(-c6c(F)cc(S(=O)(=O)[O-])cc6F)c6nc(c(-c7c(F)cc(S(=O)(=O)[O-])cc7F)c7ccc4[nH]7)C=C6)C=C5)cc3)c2)n1
REMARK SMILES IDX 28 1 27 2 26 3 25 4 24 5 23 6 22 7 20 8 21 9 19 10 18 11
REMARK SMILES IDX 17 12 13 13 14 14 103 15 15 16 16 17 12 18 4 19 5 20 104 21
REMARK SMILES IDX 6 22 11 23 2 24 1 25 3 26 7 27 8 28 9 29 10 30 29 31 30 32
REMARK SMILES IDX 31 33 32 34 33 35 34 36 35 37 36 38 37 39 38 40 102 41 39 42
REMARK SMILES IDX 101 43 40 44 41 45 42 46 95 47 43 48 100 49 94 50 96 51
REMARK SMILES IDX 44 52 99 53 93 54 92 55 45 57 79 58 58 59 78 60 59 61 62 62
REMARK SMILES IDX 77 63 97 64 60 65 61 66 76 68 98 69 63 70 46 71 47 72 56 73
REMARK SMILES IDX 48 74 49 75 55 76 57 77 50 78 51 79 52 80 53 81 54 82 80 83
REMARK SMILES IDX 81 84 90 85 82 86 83 87 89 88 91 89 84 90 85 91 86 92 87 93
REMARK SMILES IDX 88 94 64 95 65 96 74 97 66 98 67 99 73 100 75 101 68 102
REMARK SMILES IDX 69 103 70 104 71 105 72 106
REMARK H PARENT 96 56 62 67
REMARK Flexibility Score: inf
ROOT
ATOM      1  O   UNL A   1      34.715  25.505  26.006  1.00  0.00    -0.377 OA
ENDROOT
BRANCH   1   2
ATOM      2  C   UNL A   1      35.223  24.396  25.285  1.00  0.00     0.188 C 
BRANCH   2   3
ATOM      3  C   UNL A   1      36.306  23.551  25.982  1.00  0.00     0.188 C 
BRANCH   3   4
ATOM      4  O   UNL A   1      37.626  23.907  25.617  1.00  0.00    -0.376 OA
BRANCH   4   5
ATOM      5  C   UNL A   1      38.713  23.592  26.467  1.00  0.00     0.202 C 
BRANCH   5   6
ATOM      6  C   UNL A   1      39.272  22.164  26.579  1.00  0.00     0.261 C 
BRANCH   6   7
ATOM      7  O   UNL A   1      39.401  21.425  25.362  1.00  0.00    -0.460 OA
BRANCH   7   8
ATOM      8  C   UNL A   1      38.883  20.181  25.333  1.00  0.00     0.330 C 
ATOM      9  O   UNL A   1      39.478  19.143  25.575  1.00  0.00    -0.247 OA
BRANCH   8  10
ATOM     10  C   UNL A   1      37.416  20.228  25.131  1.00  0.00     0.094 C 
ATOM     11  C   UNL A   1      36.649  19.158  24.862  1.00  0.00     0.015 C 
BRANCH  11  12
ATOM     12  C   UNL A   1      35.198  19.224  24.612  1.00  0.00    -0.025 A 
ATOM     13  C   UNL A   1      33.200  20.617  24.291  1.00  0.00     0.001 A 
ATOM     14  C   UNL A   1      32.438  19.447  24.149  1.00  0.00     0.010 A 
ATOM     15  C   UNL A   1      34.580  20.482  24.539  1.00  0.00     0.018 A 
ATOM     16  C   UNL A   1      33.030  18.188  24.252  1.00  0.00     0.001 A 
ATOM     17  C   UNL A   1      34.401  18.079  24.491  1.00  0.00     0.008 A 
BRANCH  13  18
ATOM     18  C   UNL A   1      32.575  21.942  24.151  1.00  0.00     0.073 A 
ATOM     19  C   UNL A   1      31.069  23.494  25.052  1.00  0.00     0.129 A 
ATOM     20  C   UNL A   1      31.300  24.349  23.980  1.00  0.00     0.060 A 
ATOM     21  N   UNL A   1      31.701  22.300  25.124  1.00  0.00    -0.231 NA
ATOM     22  C   UNL A   1      32.213  24.001  22.980  1.00  0.00     0.061 A 
ATOM     23  C   UNL A   1      32.855  22.767  23.070  1.00  0.00     0.042 A 
BRANCH  19  24
ATOM     24  N   UNL A   1      30.225  23.866  26.087  1.00  0.00    -0.363 N 
ATOM     25  C   UNL A   1      29.520  25.131  26.043  1.00  0.00     0.144 C 
ATOM     26  C   UNL A   1      29.775  22.817  26.982  1.00  0.00     0.144 C 
ENDBRANCH  19  24
BRANCH  22  27
ATOM     27  C   UNL A   1      32.526  24.933  21.845  1.00  0.00     0.416 C 
ATOM     28  F   UNL A   1      31.480  25.743  21.535  1.00  0.00    -0.166 F 
ATOM     29  F   UNL A   1      33.571  25.758  22.131  1.00  0.00    -0.166 F 
ATOM     30  F   UNL A   1      32.864  24.292  20.692  1.00  0.00    -0.166 F 
ENDBRANCH  22  27
ENDBRANCH  13  18
ENDBRANCH  11  12
ENDBRANCH   8  10
ENDBRANCH   7   8
ENDBRANCH   6   7
ENDBRANCH   5   6
ENDBRANCH   4   5
ENDBRANCH   3   4
ENDBRANCH   2   3
ENDBRANCH   1   2
BRANCH   1  31
ATOM     31  C   UNL A   1      33.684  26.313  25.438  1.00  0.00     0.188 C 
BRANCH  31  32
ATOM     32  C   UNL A   1      32.453  26.808  26.239  1.00  0.00     0.188 C 
BRANCH  32  33
ATOM     33  O   UNL A   1      31.682  27.811  25.597  1.00  0.00    -0.376 OA
BRANCH  33  34
ATOM     34  C   UNL A   1      31.640  29.092  26.199  1.00  0.00     0.202 C 
BRANCH  34  35
ATOM     35  C   UNL A   1      32.351  29.232  27.551  1.00  0.00     0.261 C 
BRANCH  35  36
ATOM     36  O   UNL A   1      33.527  30.054  27.562  1.00  0.00    -0.460 OA
BRANCH  36  37
ATOM     37  C   UNL A   1      34.567  29.652  26.792  1.00  0.00     0.338 C 
ATOM     38  O   UNL A   1      34.556  29.439  25.599  1.00  0.00    -0.246 OA
BRANCH  37  39
ATOM     39  C   UNL A   1      35.781  29.692  27.639  1.00  0.00     0.060 A 
ATOM     40  C   UNL A   1      37.003  30.065  27.065  1.00  0.00     0.016 A 
ATOM     41  C   UNL A   1      35.703  29.370  28.995  1.00  0.00     0.016 A 
ATOM     42  C   UNL A   1      38.162  30.086  27.845  1.00  0.00     0.010 A 
ATOM     43  C   UNL A   1      36.867  29.372  29.768  1.00  0.00     0.010 A 
ATOM     44  C   UNL A   1      38.106  29.699  29.191  1.00  0.00    -0.014 A 
BRANCH  44  45
ATOM     45  C   UNL A   1      39.359  29.443  29.946  1.00  0.00     0.031 A 
ATOM     46  C   UNL A   1      40.253  28.324  29.477  1.00  0.00     0.074 A 
ATOM     47  C   UNL A   1      39.706  30.186  31.012  1.00  0.00     0.049 A 
ATOM     48  N   UNL A   1      41.345  27.851  30.016  1.00  0.00    -0.248 NA
ATOM     49  C   UNL A   1      39.855  27.646  28.229  1.00  0.00     0.031 C 
ATOM     50  C   UNL A   1      38.949  31.323  31.536  1.00  0.00     0.029 A 
ATOM     51  N   UNL A   1      40.785  30.083  31.858  1.00  0.00    -0.354 N 
ATOM     52  C   UNL A   1      41.765  26.824  29.178  1.00  0.00     0.074 A 
ATOM     53  C   UNL A   1      40.792  26.717  28.114  1.00  0.00     0.031 C 
ATOM     54  C   UNL A   1      39.579  31.801  32.624  1.00  0.00     0.029 A 
ATOM     55  C   UNL A   1      40.761  30.983  32.898  1.00  0.00     0.049 A 
ATOM     56  H   UNL A   1      41.506  29.426  31.731  1.00  0.00     0.167 HD
ATOM     57  C   UNL A   1      42.871  26.050  29.278  1.00  0.00     0.037 A 
ATOM     58  C   UNL A   1      41.582  31.110  33.961  1.00  0.00     0.037 A 
ATOM     59  C   UNL A   1      43.836  26.158  30.340  1.00  0.00     0.049 A 
ATOM     60  C   UNL A   1      42.758  30.170  34.099  1.00  0.00     0.074 A 
ATOM     61  C   UNL A   1      44.985  25.414  30.535  1.00  0.00     0.029 A 
ATOM     62  N   UNL A   1      43.764  27.068  31.385  1.00  0.00    -0.354 N 
ATOM     63  N   UNL A   1      43.149  29.209  33.294  1.00  0.00    -0.248 NA
ATOM     64  C   UNL A   1      43.606  30.333  35.290  1.00  0.00     0.031 C 
ATOM     65  C   UNL A   1      45.584  25.840  31.724  1.00  0.00     0.029 A 
ATOM     66  C   UNL A   1      44.841  26.890  32.237  1.00  0.00     0.049 A 
ATOM     67  H   UNL A   1      43.054  27.738  31.504  1.00  0.00     0.167 HD
ATOM     68  C   UNL A   1      44.309  28.687  33.860  1.00  0.00     0.074 A 
ATOM     69  C   UNL A   1      44.562  29.443  35.067  1.00  0.00     0.031 C 
ATOM     70  C   UNL A   1      45.096  27.672  33.421  1.00  0.00     0.037 A 
BRANCH  57  71
ATOM     71  C   UNL A   1      43.100  25.011  28.216  1.00  0.00     0.058 A 
ATOM     72  C   UNL A   1      43.800  25.308  27.036  1.00  0.00     0.135 A 
ATOM     73  C   UNL A   1      42.680  23.685  28.413  1.00  0.00     0.135 A 
ATOM     74  F   UNL A   1      44.203  26.563  26.786  1.00  0.00    -0.206 F 
ATOM     75  C   UNL A   1      44.070  24.329  26.085  1.00  0.00     0.059 A 
ATOM     76  C   UNL A   1      42.964  22.683  27.489  1.00  0.00     0.059 A 
ATOM     77  F   UNL A   1      42.000  23.349  29.520  1.00  0.00    -0.206 F 
ATOM     78  C   UNL A   1      43.656  23.017  26.326  1.00  0.00     0.060 A 
BRANCH  78  79
ATOM     79  S   UNL A   1      44.059  21.752  25.104  1.00  0.00     0.124 S 
ATOM     80  O   UNL A   1      43.054  20.734  25.395  1.00  0.00    -0.237 OA
ATOM     81  O   UNL A   1      43.886  22.470  23.845  1.00  0.00    -0.237 OA
ATOM     82  O   UNL A   1      45.433  21.386  25.430  1.00  0.00    -0.744 OA
ENDBRANCH  78  79
ENDBRANCH  57  71
BRANCH  58  83
ATOM     83  C   UNL A   1      41.321  32.140  35.007  1.00  0.00     0.058 A 
ATOM     84  C   UNL A   1      40.376  31.922  36.022  1.00  0.00     0.135 A 
ATOM     85  C   UNL A   1      41.963  33.388  34.975  1.00  0.00     0.135 A 
ATOM     86  F   UNL A   1      39.724  30.751  36.092  1.00  0.00    -0.206 F 
ATOM     87  C   UNL A   1      40.047  32.915  36.941  1.00  0.00     0.059 A 
ATOM     88  C   UNL A   1      41.677  34.384  35.903  1.00  0.00     0.059 A 
ATOM     89  F   UNL A   1      42.883  33.649  34.033  1.00  0.00    -0.206 F 
ATOM     90  C   UNL A   1      40.700  34.146  36.869  1.00  0.00     0.060 A 
BRANCH  90  91
ATOM     91  S   UNL A   1      40.266  35.429  38.064  1.00  0.00     0.124 S 
ATOM     92  O   UNL A   1      39.816  36.504  37.189  1.00  0.00    -0.237 OA
ATOM     93  O   UNL A   1      39.229  34.772  38.855  1.00  0.00    -0.237 OA
ATOM     94  O   UNL A   1      41.521  35.670  38.768  1.00  0.00    -0.744 OA
ENDBRANCH  90  91
ENDBRANCH  58  83
BRANCH  70  95
ATOM     95  C   UNL A   1      46.341  27.357  34.208  1.00  0.00     0.058 A 
ATOM     96  C   UNL A   1      46.344  26.420  35.252  1.00  0.00     0.135 A 
ATOM     97  C   UNL A   1      47.563  27.961  33.865  1.00  0.00     0.135 A 
ATOM     98  F   UNL A   1      45.204  25.817  35.623  1.00  0.00    -0.206 F 
ATOM     99  C   UNL A   1      47.510  26.111  35.947  1.00  0.00     0.059 A 
ATOM    100  C   UNL A   1      48.746  27.642  34.524  1.00  0.00     0.059 A 
ATOM    101  F   UNL A   1      47.620  28.855  32.865  1.00  0.00    -0.206 F 
ATOM    102  C   UNL A   1      48.707  26.724  35.572  1.00  0.00     0.060 A 
BRANCH 102 103
ATOM    103  S   UNL A   1      50.218  26.283  36.457  1.00  0.00     0.124 S 
ATOM    104  O   UNL A   1      49.752  25.198  37.313  1.00  0.00    -0.237 OA
ATOM    105  O   UNL A   1      51.113  25.895  35.372  1.00  0.00    -0.237 OA
ATOM    106  O   UNL A   1      50.580  27.517  37.150  1.00  0.00    -0.744 OA
ENDBRANCH 102 103
ENDBRANCH  70  95
ENDBRANCH  44  45
ENDBRANCH  37  39
ENDBRANCH  36  37
ENDBRANCH  35  36
ENDBRANCH  34  35
ENDBRANCH  33  34
ENDBRANCH  32  33
ENDBRANCH  31  32
ENDBRANCH   1  31
TORSDOF 27
ENDMDL
MODEL 3
REMARK VINA RESULT:      -8.0      4.246      7.041
REMARK SMILES CN(C)c1cc(C(F)(F)F)cc(-c2cccc(/C=C/C(=O)OCCOCCOCCOCCOC(=O)c3ccc(-c4c5nc(c(-c6c(F)cc(S(=O)(=O)[O-])cc6F)c6ccc([nH]6)c(-c6c(F)cc(S(=O)(=O)[O-])cc6F)c6nc(c(-c7c(F)cc(S(=O)(=O)[O-])cc7F)c7ccc4[nH]7)C=C6)C=C5)cc3)c2)n1
REMARK SMILES IDX 28 1 27 2 26 3 25 4 24 5 23 6 22 7 20 8 21 9 19 10 18 11
REMARK SMILES IDX 17 12 13 13 14 14 103 15 15 16 16 17 12 18 4 19 5 20 104 21
REMARK SMILES IDX 6 22 11 23 2 24 1 25 3 26 7 27 8 28 9 29 10 30 29 31 30 32
REMARK SMILES IDX 31 33 32 34 33 35 34 36 35 37 36 38 37 39 38 40 102 41 39 42
REMARK SMILES IDX 101 43 40 44 41 45 42 46 95 47 43 48 100 49 94 50 96 51
REMARK SMILES IDX 44 52 99 53 93 54 92 55 45 57 79 58 58 59 78 60 59 61 62 62
REMARK SMILES IDX 77 63 97 64 60 65 61 66 76 68 98 69 63 70 46 71 47 72 56 73
REMARK SMILES IDX 48 74 49 75 55 76 57 77 50 78 51 79 52 80 53 81 54 82 80 83
REMARK SMILES IDX 81 84 90 85 82 86 83 87 89 88 91 89 84 90 85 91 86 92 87 93
REMARK SMILES IDX 88 94 64 95 65 96 74 97 66 98 67 99 73 100 75 101 68 102
REMARK SMILES IDX 69 103 70 104 71 105 72 106
REMARK H PARENT 96 56 62 67
REMARK Flexibility Score: inf
ROOT
ATOM      1  O   UNL A   1      34.376  25.429  26.093  1.00  0.00    -0.377 OA
ENDROOT
BRANCH   1   2
ATOM      2  C   UNL A   1      34.262  24.018  26.154  1.00  0.00     0.188 C 
BRANCH   2   3
ATOM      3  C   UNL A   1      35.550  23.207  25.914  1.00  0.00     0.188 C 
BRANCH   3   4
ATOM      4  O   UNL A   1      36.647  23.995  25.494  1.00  0.00    -0.376 OA
BRANCH   4   5
ATOM      5  C   UNL A   1      37.959  23.463  25.515  1.00  0.00     0.202 C 
BRANCH   5   6
ATOM      6  C   UNL A   1      38.294  22.148  26.238  1.00  0.00     0.261 C 
BRANCH   6   7
ATOM      7  O   UNL A   1      39.273  21.306  25.624  1.00  0.00    -0.460 OA
BRANCH   7   8
ATOM      8  C   UNL A   1      38.903  20.047  25.316  1.00  0.00     0.330 C 
ATOM      9  O   UNL A   1      39.593  19.046  25.416  1.00  0.00    -0.247 OA
BRANCH   8  10
ATOM     10  C   UNL A   1      37.459  19.989  24.990  1.00  0.00     0.094 C 
ATOM     11  C   UNL A   1      36.729  18.860  24.959  1.00  0.00     0.015 C 
BRANCH  11  12
ATOM     12  C   UNL A   1      35.306  18.807  24.583  1.00  0.00    -0.025 A 
ATOM     13  C   UNL A   1      33.148  19.971  24.420  1.00  0.00     0.001 A 
ATOM     14  C   UNL A   1      32.581  18.796  23.905  1.00  0.00     0.010 A 
ATOM     15  C   UNL A   1      34.513  19.950  24.770  1.00  0.00     0.018 A 
ATOM     16  C   UNL A   1      33.347  17.641  23.745  1.00  0.00     0.001 A 
ATOM     17  C   UNL A   1      34.699  17.645  24.091  1.00  0.00     0.008 A 
BRANCH  13  18
ATOM     18  C   UNL A   1      32.344  21.196  24.558  1.00  0.00     0.073 A 
ATOM     19  C   UNL A   1      31.795  23.283  23.646  1.00  0.00     0.129 A 
ATOM     20  C   UNL A   1      30.955  23.540  24.724  1.00  0.00     0.060 A 
ATOM     21  N   UNL A   1      32.484  22.120  23.576  1.00  0.00    -0.231 NA
ATOM     22  C   UNL A   1      30.787  22.586  25.733  1.00  0.00     0.061 A 
ATOM     23  C   UNL A   1      31.505  21.395  25.646  1.00  0.00     0.042 A 
BRANCH  19  24
ATOM     24  N   UNL A   1      31.906  24.188  22.603  1.00  0.00    -0.363 N 
ATOM     25  C   UNL A   1      31.191  25.448  22.642  1.00  0.00     0.144 C 
ATOM     26  C   UNL A   1      33.030  24.021  21.700  1.00  0.00     0.144 C 
ENDBRANCH  19  24
BRANCH  22  27
ATOM     27  C   UNL A   1      29.839  22.814  26.876  1.00  0.00     0.416 C 
ATOM     28  F   UNL A   1      28.779  21.966  26.849  1.00  0.00    -0.166 F 
ATOM     29  F   UNL A   1      30.439  22.629  28.085  1.00  0.00    -0.166 F 
ATOM     30  F   UNL A   1      29.319  24.072  26.910  1.00  0.00    -0.166 F 
ENDBRANCH  22  27
ENDBRANCH  13  18
ENDBRANCH  11  12
ENDBRANCH   8  10
ENDBRANCH   7   8
ENDBRANCH   6   7
ENDBRANCH   5   6
ENDBRANCH   4   5
ENDBRANCH   3   4
ENDBRANCH   2   3
ENDBRANCH   1   2
BRANCH   1  31
ATOM     31  C   UNL A   1      33.375  26.196  25.423  1.00  0.00     0.188 C 
BRANCH  31  32
ATOM     32  C   UNL A   1      32.088  26.708  26.118  1.00  0.00     0.188 C 
BRANCH  32  33
ATOM     33  O   UNL A   1      31.445  27.792  25.468  1.00  0.00    -0.376 OA
BRANCH  33  34
ATOM     34  C   UNL A   1      31.542  29.070  26.071  1.00  0.00     0.202 C 
BRANCH  34  35
ATOM     35  C   UNL A   1      32.226  29.124  27.443  1.00  0.00     0.261 C 
BRANCH  35  36
ATOM     36  O   UNL A   1      33.422  29.913  27.518  1.00  0.00    -0.460 OA
BRANCH  36  37
ATOM     37  C   UNL A   1      34.468  29.523  26.751  1.00  0.00     0.338 C 
ATOM     38  O   UNL A   1      34.456  29.287  25.563  1.00  0.00    -0.246 OA
BRANCH  37  39
ATOM     39  C   UNL A   1      35.685  29.607  27.591  1.00  0.00     0.060 A 
ATOM     40  C   UNL A   1      36.895  29.997  27.003  1.00  0.00     0.016 A 
ATOM     41  C   UNL A   1      35.621  29.311  28.953  1.00  0.00     0.016 A 
ATOM     42  C   UNL A   1      38.057  30.060  27.777  1.00  0.00     0.010 A 
ATOM     43  C   UNL A   1      36.787  29.356  29.721  1.00  0.00     0.010 A 
ATOM     44  C   UNL A   1      38.016  29.699  29.131  1.00  0.00    -0.014 A 
BRANCH  44  45
ATOM     45  C   UNL A   1      39.277  29.487  29.884  1.00  0.00     0.031 A 
ATOM     46  C   UNL A   1      40.191  28.374  29.439  1.00  0.00     0.074 A 
ATOM     47  C   UNL A   1      39.616  30.265  30.929  1.00  0.00     0.049 A 
ATOM     48  N   UNL A   1      41.295  27.936  29.984  1.00  0.00    -0.248 NA
ATOM     49  C   UNL A   1      39.800  27.657  28.212  1.00  0.00     0.031 C 
ATOM     50  C   UNL A   1      38.840  31.400  31.428  1.00  0.00     0.029 A 
ATOM     51  N   UNL A   1      40.701  30.204  31.771  1.00  0.00    -0.354 N 
ATOM     52  C   UNL A   1      41.730  26.897  29.170  1.00  0.00     0.074 A 
ATOM     53  C   UNL A   1      40.754  26.743  28.115  1.00  0.00     0.031 C 
ATOM     54  C   UNL A   1      39.467  31.918  32.500  1.00  0.00     0.029 A 
ATOM     55  C   UNL A   1      40.665  31.131  32.787  1.00  0.00     0.049 A 
ATOM     56  H   UNL A   1      41.435  29.558  31.657  1.00  0.00     0.167 HD
ATOM     57  C   UNL A   1      42.852  26.147  29.283  1.00  0.00     0.037 A 
ATOM     58  C   UNL A   1      41.490  31.301  33.842  1.00  0.00     0.037 A 
ATOM     59  C   UNL A   1      43.820  26.301  30.336  1.00  0.00     0.049 A 
ATOM     60  C   UNL A   1      42.684  30.388  33.997  1.00  0.00     0.074 A 
ATOM     61  C   UNL A   1      44.985  25.585  30.543  1.00  0.00     0.029 A 
ATOM     62  N   UNL A   1      43.736  27.236  31.358  1.00  0.00    -0.354 N 
ATOM     63  N   UNL A   1      43.090  29.414  33.215  1.00  0.00    -0.248 NA
ATOM     64  C   UNL A   1      43.536  30.598  35.178  1.00  0.00     0.031 C 
ATOM     65  C   UNL A   1      45.582  26.053  31.718  1.00  0.00     0.029 A 
ATOM     66  C   UNL A   1      44.821  27.102  32.208  1.00  0.00     0.049 A 
ATOM     67  H   UNL A   1      43.013  27.895  31.464  1.00  0.00     0.167 HD
ATOM     68  C   UNL A   1      44.263  28.929  33.786  1.00  0.00     0.074 A 
ATOM     69  C   UNL A   1      44.508  29.721  34.973  1.00  0.00     0.031 C 
ATOM     70  C   UNL A   1      45.067  27.919  33.369  1.00  0.00     0.037 A 
BRANCH  57  71
ATOM     71  C   UNL A   1      43.095  25.085  28.248  1.00  0.00     0.058 A 
ATOM     72  C   UNL A   1      43.591  25.402  26.972  1.00  0.00     0.135 A 
ATOM     73  C   UNL A   1      42.901  23.729  28.556  1.00  0.00     0.135 A 
ATOM     74  F   UNL A   1      43.771  26.683  26.616  1.00  0.00    -0.206 F 
ATOM     75  C   UNL A   1      43.879  24.412  26.039  1.00  0.00     0.059 A 
ATOM     76  C   UNL A   1      43.210  22.720  27.648  1.00  0.00     0.059 A 
ATOM     77  F   UNL A   1      42.422  23.371  29.758  1.00  0.00    -0.206 F 
ATOM     78  C   UNL A   1      43.695  23.073  26.389  1.00  0.00     0.060 A 
BRANCH  78  79
ATOM     79  S   UNL A   1      44.122  21.802  25.182  1.00  0.00     0.124 S 
ATOM     80  O   UNL A   1      44.043  22.550  23.930  1.00  0.00    -0.237 OA
ATOM     81  O   UNL A   1      45.463  21.413  25.603  1.00  0.00    -0.237 OA
ATOM     82  O   UNL A   1      43.089  20.790  25.371  1.00  0.00    -0.744 OA
ENDBRANCH  78  79
ENDBRANCH  57  71
BRANCH  58  83
ATOM     83  C   UNL A   1      41.214  32.352  34.862  1.00  0.00     0.058 A 
ATOM     84  C   UNL A   1      41.683  33.665  34.699  1.00  0.00     0.135 A 
ATOM     85  C   UNL A   1      40.532  32.051  36.051  1.00  0.00     0.135 A 
ATOM     86  F   UNL A   1      42.352  34.004  33.585  1.00  0.00    -0.206 F 
ATOM     87  C   UNL A   1      41.524  34.628  35.690  1.00  0.00     0.059 A 
ATOM     88  C   UNL A   1      40.330  33.005  37.044  1.00  0.00     0.059 A 
ATOM     89  F   UNL A   1      40.052  30.815  36.258  1.00  0.00    -0.206 F 
ATOM     90  C   UNL A   1      40.850  34.286  36.863  1.00  0.00     0.060 A 
BRANCH  90  91
ATOM     91  S   UNL A   1      40.650  35.542  38.146  1.00  0.00     0.124 S 
ATOM     92  O   UNL A   1      39.633  34.933  38.996  1.00  0.00    -0.237 OA
ATOM     93  O   UNL A   1      41.993  35.619  38.712  1.00  0.00    -0.237 OA
ATOM     94  O   UNL A   1      40.225  36.721  37.398  1.00  0.00    -0.744 OA
ENDBRANCH  90  91
ENDBRANCH  58  83
BRANCH  70  95
ATOM     95  C   UNL A   1      46.322  27.648  34.157  1.00  0.00     0.058 A 
ATOM     96  C   UNL A   1      47.534  28.293  33.870  1.00  0.00     0.135 A 
ATOM     97  C   UNL A   1      46.290  26.773  35.256  1.00  0.00     0.135 A 
ATOM     98  F   UNL A   1      47.623  29.136  32.830  1.00  0.00    -0.206 F 
ATOM     99  C   UNL A   1      48.678  28.062  34.630  1.00  0.00     0.059 A 
ATOM    100  C   UNL A   1      47.412  26.552  36.048  1.00  0.00     0.059 A 
ATOM    101  F   UNL A   1      45.152  26.138  35.583  1.00  0.00    -0.206 F 
ATOM    102  C   UNL A   1      48.605  27.192  35.720  1.00  0.00     0.060 A 
BRANCH 102 103
ATOM    103  S   UNL A   1      50.086  26.932  36.719  1.00  0.00     0.124 S 
ATOM    104  O   UNL A   1      49.871  25.578  37.218  1.00  0.00    -0.237 OA
ATOM    105  O   UNL A   1      51.156  27.084  35.737  1.00  0.00    -0.237 OA
ATOM    106  O   UNL A   1      50.011  27.990  37.723  1.00  0.00    -0.744 OA
ENDBRANCH 102 103
ENDBRANCH  70  95
ENDBRANCH  44  45
ENDBRANCH  37  39
ENDBRANCH  36  37
ENDBRANCH  35  36
ENDBRANCH  34  35
ENDBRANCH  33  34
ENDBRANCH  32  33
ENDBRANCH  31  32
ENDBRANCH   1  31
TORSDOF 27
ENDMDL
