MODEL 1
REMARK VINA RESULT:      -9.4      0.000      0.000
REMARK SMILES CCC1(C(=O)OCCOCCOCCOCCOC(=O)c2ccc(-c3c4nc(c(-c5c(F)cc(S(=O)(=O)[O-])cc5F)c5ccc([nH]5)c(-c5c(F)cc(S(=O)(=O)[O-])cc5F)c5nc(c(-c6c(F)cc(S(=O)(=O)[O-])cc6F)c6ccc3[nH]6)C=C5)C=C4)cc2)CCN(C(=O)C[C@H]2CSCC[NH2+]2)CC1
REMARK SMILES IDX 13 1 12 2 11 3 10 4 9 5 8 6 7 7 6 8 4 9 5 10 3 11 87 12
REMARK SMILES IDX 100 13 88 14 99 15 89 16 90 17 91 18 2 19 1 20 92 21 93 22
REMARK SMILES IDX 94 23 98 24 95 25 97 26 96 29 14 30 15 31 16 32 17 33 18 34
REMARK SMILES IDX 19 35 20 36 21 37 22 38 86 39 23 40 85 41 24 42 25 43 26 44
REMARK SMILES IDX 79 45 27 46 84 47 78 48 80 49 28 50 83 51 77 52 76 53 29 55
REMARK SMILES IDX 63 56 42 57 62 58 43 59 46 60 61 61 81 62 44 63 45 64 60 66
REMARK SMILES IDX 82 67 47 68 30 69 31 70 40 71 32 72 33 73 39 74 41 75 34 76
REMARK SMILES IDX 35 77 36 78 37 79 38 80 64 81 65 82 74 83 66 84 67 85 73 86
REMARK SMILES IDX 75 87 68 88 69 89 70 90 71 91 72 92 48 93 49 94 58 95 50 96
REMARK SMILES IDX 51 97 57 98 59 99 52 100 53 101 54 102 55 103 56 104
REMARK H PARENT 98 27 98 28 80 54 46 65
REMARK Flexibility Score: inf
ROOT
ATOM      1  C   UNL A   1      37.634  23.692  25.676  1.00  0.00     0.188 C 
ENDROOT
BRANCH   1   2
ATOM      2  O   UNL A   1      37.140  22.620  24.889  1.00  0.00    -0.377 OA
BRANCH   2   3
ATOM      3  C   UNL A   1      36.674  22.942  23.597  1.00  0.00     0.188 C 
BRANCH   3   4
ATOM      4  C   UNL A   1      35.246  23.495  23.534  1.00  0.00     0.188 C 
BRANCH   4   5
ATOM      5  O   UNL A   1      34.658  23.807  22.285  1.00  0.00    -0.376 OA
BRANCH   5   6
ATOM      6  C   UNL A   1      33.261  24.053  22.197  1.00  0.00     0.202 C 
BRANCH   6   7
ATOM      7  C   UNL A   1      32.638  25.131  21.280  1.00  0.00     0.261 C 
BRANCH   7   8
ATOM      8  O   UNL A   1      31.955  26.247  21.888  1.00  0.00    -0.463 OA
BRANCH   8   9
ATOM      9  C   UNL A   1      32.694  27.068  22.674  1.00  0.00     0.312 C 
ATOM     10  O   UNL A   1      33.692  27.666  22.282  1.00  0.00    -0.252 OA
BRANCH   9  11
ATOM     11  C   UNL A   1      32.217  27.152  24.149  1.00  0.00     0.071 C 
ATOM     12  C   UNL A   1      30.818  26.529  24.480  1.00  0.00     0.040 C 
ATOM     13  C   UNL A   1      33.309  26.344  24.900  1.00  0.00     0.040 C 
ATOM     14  C   UNL A   1      30.587  26.173  25.956  1.00  0.00     0.120 C 
ATOM     15  C   UNL A   1      32.975  26.108  26.365  1.00  0.00     0.120 C 
ATOM     16  N   UNL A   1      31.706  25.408  26.469  1.00  0.00    -0.342 N 
ATOM     17  C   UNL A   1      31.501  24.101  26.893  1.00  0.00     0.228 C 
ATOM     18  O   UNL A   1      30.367  23.642  27.048  1.00  0.00    -0.275 OA
BRANCH  11  19
ATOM     19  C   UNL A   1      32.271  28.637  24.634  1.00  0.00     0.015 C 
ATOM     20  C   UNL A   1      31.018  29.482  24.434  1.00  0.00     0.005 C 
ENDBRANCH  11  19
BRANCH  17  21
ATOM     21  C   UNL A   1      32.709  23.211  27.160  1.00  0.00     0.166 C 
BRANCH  21  22
ATOM     22  C   UNL A   1      32.986  22.263  25.975  1.00  0.00     0.201 C 
ATOM     23  C   UNL A   1      33.795  21.036  26.446  1.00  0.00     0.135 C 
ATOM     24  N   UNL A   1      31.747  21.813  25.309  1.00  0.00    -0.342 N 
ATOM     25  S   UNL A   1      34.486  20.128  25.030  1.00  0.00    -0.150 SA
ATOM     26  C   UNL A   1      32.060  21.137  24.031  1.00  0.00     0.271 C 
ATOM     27  H   UNL A   1      31.153  22.620  25.125  1.00  0.00     0.346 HD
ATOM     28  H   UNL A   1      31.267  21.153  25.922  1.00  0.00     0.346 HD
ATOM     29  C   UNL A   1      32.909  19.861  24.154  1.00  0.00     0.131 C 
ENDBRANCH  21  22
ENDBRANCH  17  21
ENDBRANCH   9  11
ENDBRANCH   8   9
ENDBRANCH   7   8
ENDBRANCH   6   7
ENDBRANCH   5   6
ENDBRANCH   4   5
ENDBRANCH   3   4
ENDBRANCH   2   3
ENDBRANCH   1   2
BRANCH   1  30
ATOM     30  C   UNL A   1      38.766  23.391  26.676  1.00  0.00     0.188 C 
BRANCH  30  31
ATOM     31  O   UNL A   1      40.064  23.352  26.092  1.00  0.00    -0.376 OA
BRANCH  31  32
ATOM     32  C   UNL A   1      41.031  22.448  26.603  1.00  0.00     0.202 C 
BRANCH  32  33
ATOM     33  C   UNL A   1      42.520  22.795  26.438  1.00  0.00     0.261 C 
BRANCH  33  34
ATOM     34  O   UNL A   1      43.014  23.930  27.162  1.00  0.00    -0.460 OA
BRANCH  34  35
ATOM     35  C   UNL A   1      42.947  25.151  26.591  1.00  0.00     0.338 C 
ATOM     36  O   UNL A   1      43.079  25.422  25.411  1.00  0.00    -0.246 OA
BRANCH  35  37
ATOM     37  C   UNL A   1      42.469  26.082  27.633  1.00  0.00     0.060 A 
ATOM     38  C   UNL A   1      43.125  27.309  27.817  1.00  0.00     0.016 A 
ATOM     39  C   UNL A   1      41.348  25.755  28.397  1.00  0.00     0.016 A 
ATOM     40  C   UNL A   1      42.674  28.203  28.791  1.00  0.00     0.010 A 
ATOM     41  C   UNL A   1      40.918  26.634  29.389  1.00  0.00     0.010 A 
ATOM     42  C   UNL A   1      41.600  27.844  29.612  1.00  0.00    -0.014 A 
BRANCH  42  43
ATOM     43  C   UNL A   1      41.334  28.574  30.873  1.00  0.00     0.031 A 
ATOM     44  C   UNL A   1      40.208  29.571  30.862  1.00  0.00     0.074 A 
ATOM     45  C   UNL A   1      42.098  28.411  31.966  1.00  0.00     0.049 A 
ATOM     46  N   UNL A   1      39.897  30.484  31.741  1.00  0.00    -0.248 NA
ATOM     47  C   UNL A   1      39.324  29.540  29.684  1.00  0.00     0.031 C 
ATOM     48  C   UNL A   1      43.175  27.436  32.112  1.00  0.00     0.029 A 
ATOM     49  N   UNL A   1      42.099  29.097  33.155  1.00  0.00    -0.354 N 
ATOM     50  C   UNL A   1      38.800  31.153  31.212  1.00  0.00     0.074 A 
ATOM     51  C   UNL A   1      38.508  30.554  29.930  1.00  0.00     0.031 C 
ATOM     52  C   UNL A   1      43.757  27.607  33.312  1.00  0.00     0.029 A 
ATOM     53  C   UNL A   1      43.126  28.737  33.996  1.00  0.00     0.049 A 
ATOM     54  H   UNL A   1      41.427  29.781  33.385  1.00  0.00     0.167 HD
ATOM     55  C   UNL A   1      38.102  32.180  31.748  1.00  0.00     0.037 A 
ATOM     56  C   UNL A   1      43.533  29.289  35.157  1.00  0.00     0.037 A 
ATOM     57  C   UNL A   1      38.411  32.773  33.021  1.00  0.00     0.049 A 
ATOM     58  C   UNL A   1      42.791  30.486  35.703  1.00  0.00     0.074 A 
ATOM     59  C   UNL A   1      37.770  33.816  33.661  1.00  0.00     0.029 A 
ATOM     60  N   UNL A   1      39.457  32.377  33.843  1.00  0.00    -0.354 N 
ATOM     61  N   UNL A   1      41.755  31.115  35.199  1.00  0.00    -0.248 NA
ATOM     62  C   UNL A   1      43.273  31.054  36.971  1.00  0.00     0.031 C 
ATOM     63  C   UNL A   1      38.460  34.088  34.845  1.00  0.00     0.029 A 
ATOM     64  C   UNL A   1      39.489  33.168  34.976  1.00  0.00     0.049 A 
ATOM     65  H   UNL A   1      40.083  31.642  33.647  1.00  0.00     0.167 HD
ATOM     66  C   UNL A   1      41.434  32.117  36.110  1.00  0.00     0.074 A 
ATOM     67  C   UNL A   1      42.392  32.020  37.191  1.00  0.00     0.031 C 
ATOM     68  C   UNL A   1      40.430  33.028  36.062  1.00  0.00     0.037 A 
BRANCH  55  69
ATOM     69  C   UNL A   1      36.971  32.751  30.941  1.00  0.00     0.058 A 
ATOM     70  C   UNL A   1      37.171  33.778  30.004  1.00  0.00     0.135 A 
ATOM     71  C   UNL A   1      35.669  32.247  31.091  1.00  0.00     0.135 A 
ATOM     72  F   UNL A   1      38.391  34.314  29.839  1.00  0.00    -0.206 F 
ATOM     73  C   UNL A   1      36.117  34.302  29.266  1.00  0.00     0.059 A 
ATOM     74  C   UNL A   1      34.605  32.735  30.339  1.00  0.00     0.059 A 
ATOM     75  F   UNL A   1      35.420  31.272  31.979  1.00  0.00    -0.206 F 
ATOM     76  C   UNL A   1      34.836  33.772  29.439  1.00  0.00     0.060 A 
BRANCH  76  77
ATOM     77  S   UNL A   1      33.481  34.459  28.465  1.00  0.00     0.124 S 
ATOM     78  O   UNL A   1      33.048  33.292  27.704  1.00  0.00    -0.237 OA
ATOM     79  O   UNL A   1      32.559  34.920  29.498  1.00  0.00    -0.237 OA
ATOM     80  O   UNL A   1      34.123  35.513  27.685  1.00  0.00    -0.744 OA
ENDBRANCH  76  77
ENDBRANCH  55  69
BRANCH  56  81
ATOM     81  C   UNL A   1      44.712  28.734  35.876  1.00  0.00     0.058 A 
ATOM     82  C   UNL A   1      44.563  27.718  36.832  1.00  0.00     0.135 A 
ATOM     83  C   UNL A   1      46.011  29.204  35.623  1.00  0.00     0.135 A 
ATOM     84  F   UNL A   1      43.341  27.244  37.121  1.00  0.00    -0.206 F 
ATOM     85  C   UNL A   1      45.654  27.196  37.520  1.00  0.00     0.059 A 
ATOM     86  C   UNL A   1      47.121  28.678  36.277  1.00  0.00     0.059 A 
ATOM     87  F   UNL A   1      46.212  30.170  34.713  1.00  0.00    -0.206 F 
ATOM     88  C   UNL A   1      46.931  27.679  37.230  1.00  0.00     0.060 A 
BRANCH  88  89
ATOM     89  S   UNL A   1      48.346  26.950  38.085  1.00  0.00     0.124 S 
ATOM     90  O   UNL A   1      49.361  26.961  37.038  1.00  0.00    -0.237 OA
ATOM     91  O   UNL A   1      48.552  27.888  39.185  1.00  0.00    -0.237 OA
ATOM     92  O   UNL A   1      47.857  25.633  38.480  1.00  0.00    -0.744 OA
ENDBRANCH  88  89
ENDBRANCH  56  81
BRANCH  68  93
ATOM     93  C   UNL A   1      40.244  33.947  37.238  1.00  0.00     0.058 A 
ATOM     94  C   UNL A   1      40.894  35.187  37.327  1.00  0.00     0.135 A 
ATOM     95  C   UNL A   1      39.299  33.628  38.228  1.00  0.00     0.135 A 
ATOM     96  F   UNL A   1      41.810  35.538  36.412  1.00  0.00    -0.206 F 
ATOM     97  C   UNL A   1      40.610  36.079  38.357  1.00  0.00     0.059 A 
ATOM     98  C   UNL A   1      38.979  34.516  39.248  1.00  0.00     0.059 A 
ATOM     99  F   UNL A   1      38.641  32.457  38.181  1.00  0.00    -0.206 F 
ATOM    100  C   UNL A   1      39.642  35.740  39.305  1.00  0.00     0.060 A 
BRANCH 100 101
ATOM    101  S   UNL A   1      39.220  36.945  40.582  1.00  0.00     0.124 S 
ATOM    102  O   UNL A   1      38.438  36.131  41.507  1.00  0.00    -0.237 OA
ATOM    103  O   UNL A   1      40.533  37.364  41.060  1.00  0.00    -0.237 OA
ATOM    104  O   UNL A   1      38.470  37.965  39.856  1.00  0.00    -0.744 OA
ENDBRANCH 100 101
ENDBRANCH  68  93
ENDBRANCH  42  43
ENDBRANCH  35  37
ENDBRANCH  34  35
ENDBRANCH  33  34
ENDBRANCH  32  33
ENDBRANCH  31  32
ENDBRANCH  30  31
ENDBRANCH   1  30
TORSDOF 26
ENDMDL
MODEL 2
REMARK VINA RESULT:      -9.1      1.655      3.489
REMARK SMILES CCC1(C(=O)OCCOCCOCCOCCOC(=O)c2ccc(-c3c4nc(c(-c5c(F)cc(S(=O)(=O)[O-])cc5F)c5ccc([nH]5)c(-c5c(F)cc(S(=O)(=O)[O-])cc5F)c5nc(c(-c6c(F)cc(S(=O)(=O)[O-])cc6F)c6ccc3[nH]6)C=C5)C=C4)cc2)CCN(C(=O)C[C@H]2CSCC[NH2+]2)CC1
REMARK SMILES IDX 13 1 12 2 11 3 10 4 9 5 8 6 7 7 6 8 4 9 5 10 3 11 87 12
REMARK SMILES IDX 100 13 88 14 99 15 89 16 90 17 91 18 2 19 1 20 92 21 93 22
REMARK SMILES IDX 94 23 98 24 95 25 97 26 96 29 14 30 15 31 16 32 17 33 18 34
REMARK SMILES IDX 19 35 20 36 21 37 22 38 86 39 23 40 85 41 24 42 25 43 26 44
REMARK SMILES IDX 79 45 27 46 84 47 78 48 80 49 28 50 83 51 77 52 76 53 29 55
REMARK SMILES IDX 63 56 42 57 62 58 43 59 46 60 61 61 81 62 44 63 45 64 60 66
REMARK SMILES IDX 82 67 47 68 30 69 31 70 40 71 32 72 33 73 39 74 41 75 34 76
REMARK SMILES IDX 35 77 36 78 37 79 38 80 64 81 65 82 74 83 66 84 67 85 73 86
REMARK SMILES IDX 75 87 68 88 69 89 70 90 71 91 72 92 48 93 49 94 58 95 50 96
REMARK SMILES IDX 51 97 57 98 59 99 52 100 53 101 54 102 55 103 56 104
REMARK H PARENT 98 27 98 28 80 54 46 65
REMARK Flexibility Score: inf
ROOT
ATOM      1  C   UNL A   1      42.405  19.384  26.467  1.00  0.00     0.188 C 
ENDROOT
BRANCH   1   2
ATOM      2  O   UNL A   1      41.050  19.652  26.147  1.00  0.00    -0.377 OA
BRANCH   2   3
ATOM      3  C   UNL A   1      40.384  20.605  26.945  1.00  0.00     0.188 C 
BRANCH   3   4
ATOM      4  C   UNL A   1      39.661  21.716  26.176  1.00  0.00     0.188 C 
BRANCH   4   5
ATOM      5  O   UNL A   1      38.401  21.466  25.581  1.00  0.00    -0.376 OA
BRANCH   5   6
ATOM      6  C   UNL A   1      37.508  22.541  25.327  1.00  0.00     0.202 C 
BRANCH   6   7
ATOM      7  C   UNL A   1      36.170  22.738  26.078  1.00  0.00     0.261 C 
BRANCH   7   8
ATOM      8  O   UNL A   1      35.389  21.574  26.419  1.00  0.00    -0.463 OA
BRANCH   8   9
ATOM      9  C   UNL A   1      34.748  20.943  25.405  1.00  0.00     0.312 C 
ATOM     10  O   UNL A   1      35.265  20.069  24.715  1.00  0.00    -0.252 OA
BRANCH   9  11
ATOM     11  C   UNL A   1      33.309  21.457  25.132  1.00  0.00     0.071 C 
ATOM     12  C   UNL A   1      32.533  22.075  26.344  1.00  0.00     0.040 C 
ATOM     13  C   UNL A   1      33.547  22.571  24.077  1.00  0.00     0.040 C 
ATOM     14  C   UNL A   1      31.366  23.002  25.977  1.00  0.00     0.120 C 
ATOM     15  C   UNL A   1      32.296  23.379  23.771  1.00  0.00     0.120 C 
ATOM     16  N   UNL A   1      31.791  23.978  24.994  1.00  0.00    -0.342 N 
ATOM     17  C   UNL A   1      31.783  25.328  25.325  1.00  0.00     0.228 C 
ATOM     18  O   UNL A   1      31.228  25.739  26.347  1.00  0.00    -0.275 OA
BRANCH  11  19
ATOM     19  C   UNL A   1      32.462  20.319  24.475  1.00  0.00     0.015 C 
ATOM     20  C   UNL A   1      32.142  20.457  22.991  1.00  0.00     0.005 C 
ENDBRANCH  11  19
BRANCH  17  21
ATOM     21  C   UNL A   1      32.491  26.319  24.410  1.00  0.00     0.166 C 
BRANCH  21  22
ATOM     22  C   UNL A   1      32.821  27.634  25.146  1.00  0.00     0.201 C 
ATOM     23  C   UNL A   1      31.542  28.471  25.352  1.00  0.00     0.135 C 
ATOM     24  N   UNL A   1      33.477  27.403  26.449  1.00  0.00    -0.342 N 
ATOM     25  S   UNL A   1      31.949  30.178  25.829  1.00  0.00    -0.150 SA
ATOM     26  C   UNL A   1      34.018  28.669  26.990  1.00  0.00     0.271 C 
ATOM     27  H   UNL A   1      34.239  26.737  26.328  1.00  0.00     0.346 HD
ATOM     28  H   UNL A   1      32.786  27.034  27.102  1.00  0.00     0.346 HD
ATOM     29  C   UNL A   1      32.972  29.758  27.280  1.00  0.00     0.131 C 
ENDBRANCH  21  22
ENDBRANCH  17  21
ENDBRANCH   9  11
ENDBRANCH   8   9
ENDBRANCH   7   8
ENDBRANCH   6   7
ENDBRANCH   5   6
ENDBRANCH   4   5
ENDBRANCH   3   4
ENDBRANCH   2   3
ENDBRANCH   1   2
BRANCH   1  30
ATOM     30  C   UNL A   1      43.462  19.594  25.366  1.00  0.00     0.188 C 
BRANCH  30  31
ATOM     31  O   UNL A   1      43.651  20.955  24.994  1.00  0.00    -0.376 OA
BRANCH  31  32
ATOM     32  C   UNL A   1      43.478  21.974  25.968  1.00  0.00     0.202 C 
BRANCH  32  33
ATOM     33  C   UNL A   1      43.383  23.433  25.494  1.00  0.00     0.261 C 
BRANCH  33  34
ATOM     34  O   UNL A   1      43.354  24.451  26.503  1.00  0.00    -0.460 OA
BRANCH  34  35
ATOM     35  C   UNL A   1      43.381  25.747  26.128  1.00  0.00     0.338 C 
ATOM     36  O   UNL A   1      43.657  26.192  25.028  1.00  0.00    -0.246 OA
BRANCH  35  37
ATOM     37  C   UNL A   1      42.803  26.525  27.243  1.00  0.00     0.060 A 
ATOM     38  C   UNL A   1      43.211  27.851  27.446  1.00  0.00     0.016 A 
ATOM     39  C   UNL A   1      41.827  25.950  28.059  1.00  0.00     0.016 A 
ATOM     40  C   UNL A   1      42.663  28.600  28.489  1.00  0.00     0.010 A 
ATOM     41  C   UNL A   1      41.303  26.688  29.119  1.00  0.00     0.010 A 
ATOM     42  C   UNL A   1      41.743  28.002  29.358  1.00  0.00    -0.014 A 
BRANCH  42  43
ATOM     43  C   UNL A   1      41.428  28.618  30.667  1.00  0.00     0.031 A 
ATOM     44  C   UNL A   1      40.284  29.593  30.707  1.00  0.00     0.074 A 
ATOM     45  C   UNL A   1      42.164  28.375  31.765  1.00  0.00     0.049 A 
ATOM     46  N   UNL A   1      39.931  30.422  31.651  1.00  0.00    -0.248 NA
ATOM     47  C   UNL A   1      39.434  29.647  29.505  1.00  0.00     0.031 C 
ATOM     48  C   UNL A   1      43.256  27.410  31.859  1.00  0.00     0.029 A 
ATOM     49  N   UNL A   1      42.119  28.958  33.007  1.00  0.00    -0.354 N 
ATOM     50  C   UNL A   1      38.837  31.115  31.148  1.00  0.00     0.074 A 
ATOM     51  C   UNL A   1      38.592  30.622  29.812  1.00  0.00     0.031 C 
ATOM     52  C   UNL A   1      43.801  27.488  33.087  1.00  0.00     0.029 A 
ATOM     53  C   UNL A   1      43.129  28.545  33.844  1.00  0.00     0.049 A 
ATOM     54  H   UNL A   1      41.428  29.608  33.275  1.00  0.00     0.167 HD
ATOM     55  C   UNL A   1      38.104  32.081  31.748  1.00  0.00     0.037 A 
ATOM     56  C   UNL A   1      43.492  29.004  35.059  1.00  0.00     0.037 A 
ATOM     57  C   UNL A   1      38.366  32.568  33.075  1.00  0.00     0.049 A 
ATOM     58  C   UNL A   1      42.712  30.137  35.683  1.00  0.00     0.074 A 
ATOM     59  C   UNL A   1      37.687  33.542  33.782  1.00  0.00     0.029 A 
ATOM     60  N   UNL A   1      39.396  32.123  33.891  1.00  0.00    -0.354 N 
ATOM     61  N   UNL A   1      41.679  30.789  35.203  1.00  0.00    -0.248 NA
ATOM     62  C   UNL A   1      43.147  30.603  37.008  1.00  0.00     0.031 C 
ATOM     63  C   UNL A   1      38.338  33.724  35.005  1.00  0.00     0.029 A 
ATOM     64  C   UNL A   1      39.380  32.814  35.088  1.00  0.00     0.049 A 
ATOM     65  H   UNL A   1      40.041  31.418  33.652  1.00  0.00     0.167 HD
ATOM     66  C   UNL A   1      41.313  31.704  36.185  1.00  0.00     0.074 A 
ATOM     67  C   UNL A   1      42.242  31.532  37.282  1.00  0.00     0.031 C 
ATOM     68  C   UNL A   1      40.293  32.599  36.185  1.00  0.00     0.037 A 
BRANCH  55  69
ATOM     69  C   UNL A   1      36.985  32.700  30.959  1.00  0.00     0.058 A 
ATOM     70  C   UNL A   1      37.222  33.657  29.959  1.00  0.00     0.135 A 
ATOM     71  C   UNL A   1      35.656  32.311  31.192  1.00  0.00     0.135 A 
ATOM     72  F   UNL A   1      38.471  34.083  29.713  1.00  0.00    -0.206 F 
ATOM     73  C   UNL A   1      36.178  34.226  29.238  1.00  0.00     0.059 A 
ATOM     74  C   UNL A   1      34.600  32.843  30.459  1.00  0.00     0.059 A 
ATOM     75  F   UNL A   1      35.372  31.406  32.142  1.00  0.00    -0.206 F 
ATOM     76  C   UNL A   1      34.870  33.810  29.494  1.00  0.00     0.060 A 
BRANCH  76  77
ATOM     77  S   UNL A   1      33.529  34.553  28.541  1.00  0.00     0.124 S 
ATOM     78  O   UNL A   1      34.213  35.670  27.899  1.00  0.00    -0.237 OA
ATOM     79  O   UNL A   1      33.132  33.460  27.659  1.00  0.00    -0.237 OA
ATOM     80  O   UNL A   1      32.550  34.920  29.560  1.00  0.00    -0.744 OA
ENDBRANCH  76  77
ENDBRANCH  55  69
BRANCH  56  81
ATOM     81  C   UNL A   1      44.661  28.409  35.763  1.00  0.00     0.058 A 
ATOM     82  C   UNL A   1      44.488  27.439  36.761  1.00  0.00     0.135 A 
ATOM     83  C   UNL A   1      45.975  28.796  35.454  1.00  0.00     0.135 A 
ATOM     84  F   UNL A   1      43.251  27.044  37.104  1.00  0.00    -0.206 F 
ATOM     85  C   UNL A   1      45.569  26.881  37.436  1.00  0.00     0.059 A 
ATOM     86  C   UNL A   1      47.076  28.232  36.095  1.00  0.00     0.059 A 
ATOM     87  F   UNL A   1      46.200  29.715  34.503  1.00  0.00    -0.206 F 
ATOM     88  C   UNL A   1      46.861  27.280  37.090  1.00  0.00     0.060 A 
BRANCH  88  89
ATOM     89  S   UNL A   1      48.260  26.505  37.929  1.00  0.00     0.124 S 
ATOM     90  O   UNL A   1      48.617  27.523  38.910  1.00  0.00    -0.237 OA
ATOM     91  O   UNL A   1      47.657  25.287  38.462  1.00  0.00    -0.237 OA
ATOM     92  O   UNL A   1      49.224  26.297  36.852  1.00  0.00    -0.744 OA
ENDBRANCH  88  89
ENDBRANCH  56  81
BRANCH  68  93
ATOM     93  C   UNL A   1      40.057  33.411  37.428  1.00  0.00     0.058 A 
ATOM     94  C   UNL A   1      40.744  34.607  37.681  1.00  0.00     0.135 A 
ATOM     95  C   UNL A   1      39.030  33.043  38.315  1.00  0.00     0.135 A 
ATOM     96  F   UNL A   1      41.738  35.001  36.869  1.00  0.00    -0.206 F 
ATOM     97  C   UNL A   1      40.420  35.411  38.770  1.00  0.00     0.059 A 
ATOM     98  C   UNL A   1      38.671  33.846  39.392  1.00  0.00     0.059 A 
ATOM     99  F   UNL A   1      38.334  31.912  38.111  1.00  0.00    -0.206 F 
ATOM    100  C   UNL A   1      39.373  35.028  39.612  1.00  0.00     0.060 A 
BRANCH 100 101
ATOM    101  S   UNL A   1      38.905  36.126  40.967  1.00  0.00     0.124 S 
ATOM    102  O   UNL A   1      37.798  35.392  41.571  1.00  0.00    -0.237 OA
ATOM    103  O   UNL A   1      40.131  36.187  41.755  1.00  0.00    -0.237 OA
ATOM    104  O   UNL A   1      38.540  37.367  40.291  1.00  0.00    -0.744 OA
ENDBRANCH 100 101
ENDBRANCH  68  93
ENDBRANCH  42  43
ENDBRANCH  35  37
ENDBRANCH  34  35
ENDBRANCH  33  34
ENDBRANCH  32  33
ENDBRANCH  31  32
ENDBRANCH  30  31
ENDBRANCH   1  30
TORSDOF 26
ENDMDL
MODEL 3
REMARK VINA RESULT:      -9.0      5.810      9.070
REMARK SMILES CCC1(C(=O)OCCOCCOCCOCCOC(=O)c2ccc(-c3c4nc(c(-c5c(F)cc(S(=O)(=O)[O-])cc5F)c5ccc([nH]5)c(-c5c(F)cc(S(=O)(=O)[O-])cc5F)c5nc(c(-c6c(F)cc(S(=O)(=O)[O-])cc6F)c6ccc3[nH]6)C=C5)C=C4)cc2)CCN(C(=O)C[C@H]2CSCC[NH2+]2)CC1
REMARK SMILES IDX 13 1 12 2 11 3 10 4 9 5 8 6 7 7 6 8 4 9 5 10 3 11 87 12
REMARK SMILES IDX 100 13 88 14 99 15 89 16 90 17 91 18 2 19 1 20 92 21 93 22
REMARK SMILES IDX 94 23 98 24 95 25 97 26 96 29 14 30 15 31 16 32 17 33 18 34
REMARK SMILES IDX 19 35 20 36 21 37 22 38 86 39 23 40 85 41 24 42 25 43 26 44
REMARK SMILES IDX 79 45 27 46 84 47 78 48 80 49 28 50 83 51 77 52 76 53 29 55
REMARK SMILES IDX 63 56 42 57 62 58 43 59 46 60 61 61 81 62 44 63 45 64 60 66
REMARK SMILES IDX 82 67 47 68 30 69 31 70 40 71 32 72 33 73 39 74 41 75 34 76
REMARK SMILES IDX 35 77 36 78 37 79 38 80 64 81 65 82 74 83 66 84 67 85 73 86
REMARK SMILES IDX 75 87 68 88 69 89 70 90 71 91 72 92 48 93 49 94 58 95 50 96
REMARK SMILES IDX 51 97 57 98 59 99 52 100 53 101 54 102 55 103 56 104
REMARK H PARENT 98 27 98 28 80 54 46 65
REMARK Flexibility Score: inf
ROOT
ATOM      1  C   UNL A   1      34.319  21.812  24.703  1.00  0.00     0.188 C 
ENDROOT
BRANCH   1   2
ATOM      2  O   UNL A   1      33.786  21.662  23.397  1.00  0.00    -0.377 OA
BRANCH   2   3
ATOM      3  C   UNL A   1      32.808  22.596  22.998  1.00  0.00     0.188 C 
BRANCH   3   4
ATOM      4  C   UNL A   1      32.639  23.805  23.923  1.00  0.00     0.188 C 
BRANCH   4   5
ATOM      5  O   UNL A   1      32.880  25.113  23.438  1.00  0.00    -0.376 OA
BRANCH   5   6
ATOM      6  C   UNL A   1      32.003  25.691  22.481  1.00  0.00     0.202 C 
BRANCH   6   7
ATOM      7  C   UNL A   1      31.738  27.210  22.371  1.00  0.00     0.261 C 
BRANCH   7   8
ATOM      8  O   UNL A   1      31.631  27.984  23.584  1.00  0.00    -0.463 OA
BRANCH   8   9
ATOM      9  C   UNL A   1      32.720  28.699  23.958  1.00  0.00     0.312 C 
ATOM     10  O   UNL A   1      33.510  29.199  23.162  1.00  0.00    -0.252 OA
BRANCH   9  11
ATOM     11  C   UNL A   1      32.939  28.788  25.493  1.00  0.00     0.071 C 
ATOM     12  C   UNL A   1      34.419  28.895  25.995  1.00  0.00     0.040 C 
ATOM     13  C   UNL A   1      32.194  30.099  25.861  1.00  0.00     0.040 C 
ATOM     14  C   UNL A   1      34.596  29.471  27.408  1.00  0.00     0.120 C 
ATOM     15  C   UNL A   1      32.417  30.526  27.303  1.00  0.00     0.120 C 
ATOM     16  N   UNL A   1      33.838  30.698  27.547  1.00  0.00    -0.342 N 
ATOM     17  C   UNL A   1      34.510  31.892  27.783  1.00  0.00     0.228 C 
ATOM     18  O   UNL A   1      35.705  31.911  28.089  1.00  0.00    -0.275 OA
BRANCH  11  19
ATOM     19  C   UNL A   1      32.219  27.590  26.195  1.00  0.00     0.015 C 
ATOM     20  C   UNL A   1      33.007  26.294  26.343  1.00  0.00     0.005 C 
ENDBRANCH  11  19
BRANCH  17  21
ATOM     21  C   UNL A   1      33.754  33.207  27.647  1.00  0.00     0.166 C 
BRANCH  21  22
ATOM     22  C   UNL A   1      33.965  34.112  28.877  1.00  0.00     0.201 C 
ATOM     23  C   UNL A   1      32.854  35.180  28.957  1.00  0.00     0.135 C 
ATOM     24  N   UNL A   1      34.007  33.348  30.141  1.00  0.00    -0.342 N 
ATOM     25  S   UNL A   1      33.298  36.496  30.130  1.00  0.00    -0.150 SA
ATOM     26  C   UNL A   1      34.478  34.205  31.251  1.00  0.00     0.271 C 
ATOM     27  H   UNL A   1      34.643  32.559  30.034  1.00  0.00     0.346 HD
ATOM     28  H   UNL A   1      33.066  33.018  30.356  1.00  0.00     0.346 HD
ATOM     29  C   UNL A   1      33.585  35.415  31.570  1.00  0.00     0.131 C 
ENDBRANCH  21  22
ENDBRANCH  17  21
ENDBRANCH   9  11
ENDBRANCH   8   9
ENDBRANCH   7   8
ENDBRANCH   6   7
ENDBRANCH   5   6
ENDBRANCH   4   5
ENDBRANCH   3   4
ENDBRANCH   2   3
ENDBRANCH   1   2
BRANCH   1  30
ATOM     30  C   UNL A   1      35.482  20.892  25.118  1.00  0.00     0.188 C 
BRANCH  30  31
ATOM     31  O   UNL A   1      36.745  21.273  24.581  1.00  0.00    -0.376 OA
BRANCH  31  32
ATOM     32  C   UNL A   1      37.929  20.689  25.104  1.00  0.00     0.202 C 
BRANCH  32  33
ATOM     33  C   UNL A   1      38.957  21.604  25.790  1.00  0.00     0.261 C 
BRANCH  33  34
ATOM     34  O   UNL A   1      39.860  20.994  26.721  1.00  0.00    -0.460 OA
BRANCH  34  35
ATOM     35  C   UNL A   1      41.079  20.604  26.293  1.00  0.00     0.338 C 
ATOM     36  O   UNL A   1      41.344  19.631  25.610  1.00  0.00    -0.246 OA
BRANCH  35  37
ATOM     37  C   UNL A   1      42.017  21.695  26.626  1.00  0.00     0.060 A 
ATOM     38  C   UNL A   1      42.434  21.868  27.954  1.00  0.00     0.016 A 
ATOM     39  C   UNL A   1      42.511  22.519  25.613  1.00  0.00     0.016 A 
ATOM     40  C   UNL A   1      43.330  22.889  28.278  1.00  0.00     0.010 A 
ATOM     41  C   UNL A   1      43.381  23.557  25.942  1.00  0.00     0.010 A 
ATOM     42  C   UNL A   1      43.766  23.767  27.279  1.00  0.00    -0.014 A 
BRANCH  42  43
ATOM     43  C   UNL A   1      44.400  25.058  27.630  1.00  0.00     0.031 A 
ATOM     44  C   UNL A   1      43.512  26.118  28.222  1.00  0.00     0.074 A 
ATOM     45  C   UNL A   1      45.696  25.308  27.378  1.00  0.00     0.049 A 
ATOM     46  N   UNL A   1      43.750  27.385  28.422  1.00  0.00    -0.248 NA
ATOM     47  C   UNL A   1      42.163  25.685  28.626  1.00  0.00     0.031 C 
ATOM     48  C   UNL A   1      46.662  24.342  26.863  1.00  0.00     0.029 A 
ATOM     49  N   UNL A   1      46.410  26.475  27.492  1.00  0.00    -0.354 N 
ATOM     50  C   UNL A   1      42.575  27.907  28.948  1.00  0.00     0.074 A 
ATOM     51  C   UNL A   1      41.620  26.825  29.024  1.00  0.00     0.031 C 
ATOM     52  C   UNL A   1      47.840  24.965  26.674  1.00  0.00     0.029 A 
ATOM     53  C   UNL A   1      47.694  26.382  27.006  1.00  0.00     0.049 A 
ATOM     54  H   UNL A   1      46.041  27.299  27.886  1.00  0.00     0.167 HD
ATOM     55  C   UNL A   1      42.315  29.178  29.331  1.00  0.00     0.037 A 
ATOM     56  C   UNL A   1      48.620  27.343  26.811  1.00  0.00     0.037 A 
ATOM     57  C   UNL A   1      43.274  30.246  29.241  1.00  0.00     0.049 A 
ATOM     58  C   UNL A   1      48.287  28.771  27.170  1.00  0.00     0.074 A 
ATOM     59  C   UNL A   1      43.118  31.571  29.602  1.00  0.00     0.029 A 
ATOM     60  N   UNL A   1      44.563  30.111  28.746  1.00  0.00    -0.354 N 
ATOM     61  N   UNL A   1      47.174  29.259  27.668  1.00  0.00    -0.248 NA
ATOM     62  C   UNL A   1      49.329  29.783  26.938  1.00  0.00     0.031 C 
ATOM     63  C   UNL A   1      44.296  32.250  29.276  1.00  0.00     0.029 A 
ATOM     64  C   UNL A   1      45.208  31.333  28.777  1.00  0.00     0.049 A 
ATOM     65  H   UNL A   1      44.958  29.269  28.422  1.00  0.00     0.167 HD
ATOM     66  C   UNL A   1      47.401  30.620  27.852  1.00  0.00     0.074 A 
ATOM     67  C   UNL A   1      48.751  30.882  27.402  1.00  0.00     0.031 C 
ATOM     68  C   UNL A   1      46.570  31.565  28.359  1.00  0.00     0.037 A 
BRANCH  55  69
ATOM     69  C   UNL A   1      40.935  29.486  29.837  1.00  0.00     0.058 A 
ATOM     70  C   UNL A   1      39.839  29.623  28.970  1.00  0.00     0.135 A 
ATOM     71  C   UNL A   1      40.700  29.625  31.215  1.00  0.00     0.135 A 
ATOM     72  F   UNL A   1      40.011  29.524  27.642  1.00  0.00    -0.206 F 
ATOM     73  C   UNL A   1      38.566  29.912  29.448  1.00  0.00     0.059 A 
ATOM     74  C   UNL A   1      39.429  29.883  31.718  1.00  0.00     0.059 A 
ATOM     75  F   UNL A   1      41.714  29.514  32.088  1.00  0.00    -0.206 F 
ATOM     76  C   UNL A   1      38.371  30.038  30.826  1.00  0.00     0.060 A 
BRANCH  76  77
ATOM     77  S   UNL A   1      36.710  30.405  31.429  1.00  0.00     0.124 S 
ATOM     78  O   UNL A   1      36.870  30.199  32.864  1.00  0.00    -0.237 OA
ATOM     79  O   UNL A   1      36.524  31.789  31.004  1.00  0.00    -0.237 OA
ATOM     80  O   UNL A   1      35.874  29.424  30.743  1.00  0.00    -0.744 OA
ENDBRANCH  76  77
ENDBRANCH  55  69
BRANCH  56  81
ATOM     81  C   UNL A   1      49.946  26.995  26.229  1.00  0.00     0.058 A 
ATOM     82  C   UNL A   1      51.019  26.619  27.050  1.00  0.00     0.135 A 
ATOM     83  C   UNL A   1      50.167  27.030  24.843  1.00  0.00     0.135 A 
ATOM     84  F   UNL A   1      50.863  26.583  28.383  1.00  0.00    -0.206 F 
ATOM     85  C   UNL A   1      52.267  26.301  26.523  1.00  0.00     0.059 A 
ATOM     86  C   UNL A   1      51.399  26.689  24.289  1.00  0.00     0.059 A 
ATOM     87  F   UNL A   1      49.174  27.376  24.011  1.00  0.00    -0.206 F 
ATOM     88  C   UNL A   1      52.445  26.333  25.139  1.00  0.00     0.060 A 
BRANCH  88  89
ATOM     89  S   UNL A   1      54.051  25.859  24.461  1.00  0.00     0.124 S 
ATOM     90  O   UNL A   1      54.093  24.435  24.771  1.00  0.00    -0.237 OA
ATOM     91  O   UNL A   1      53.898  26.203  23.050  1.00  0.00    -0.237 OA
ATOM     92  O   UNL A   1      54.988  26.697  25.203  1.00  0.00    -0.744 OA
ENDBRANCH  88  89
ENDBRANCH  56  81
BRANCH  68  93
ATOM     93  C   UNL A   1      47.104  32.959  28.542  1.00  0.00     0.058 A 
ATOM     94  C   UNL A   1      46.999  33.937  27.542  1.00  0.00     0.135 A 
ATOM     95  C   UNL A   1      47.614  33.350  29.792  1.00  0.00     0.135 A 
ATOM     96  F   UNL A   1      46.525  33.615  26.328  1.00  0.00    -0.206 F 
ATOM     97  C   UNL A   1      47.380  35.254  27.776  1.00  0.00     0.059 A 
ATOM     98  C   UNL A   1      47.973  34.667  30.056  1.00  0.00     0.059 A 
ATOM     99  F   UNL A   1      47.724  32.454  30.787  1.00  0.00    -0.206 F 
ATOM    100  C   UNL A   1      47.853  35.612  29.041  1.00  0.00     0.060 A 
BRANCH 100 101
ATOM    101  S   UNL A   1      48.258  37.343  29.356  1.00  0.00     0.124 S 
ATOM    102  O   UNL A   1      47.501  37.605  30.576  1.00  0.00    -0.237 OA
ATOM    103  O   UNL A   1      49.709  37.301  29.507  1.00  0.00    -0.237 OA
ATOM    104  O   UNL A   1      47.779  38.030  28.161  1.00  0.00    -0.744 OA
ENDBRANCH 100 101
ENDBRANCH  68  93
ENDBRANCH  42  43
ENDBRANCH  35  37
ENDBRANCH  34  35
ENDBRANCH  33  34
ENDBRANCH  32  33
ENDBRANCH  31  32
ENDBRANCH  30  31
ENDBRANCH   1  30
TORSDOF 26
ENDMDL
