MODEL 1
REMARK VINA RESULT:      -8.8      0.000      0.000
REMARK SMILES [NH3+][C@@H](Cc1ccc(OC(F)F)cc1)C(=O)OCCOCCOCCOCCOC(=O)c1ccc(-c2c3nc(c(-c4c(F)cc(S(=O)(=O)[O-])cc4F)c4ccc([nH]4)c(-c4c(F)cc(S(=O)(=O)[O-])cc4F)c4nc(c(-c5c(F)cc(S(=O)(=O)[O-])cc5F)c5ccc2[nH]5)C=C4)C=C3)cc1
REMARK SMILES IDX 21 1 20 2 19 3 18 4 17 5 16 6 14 7 15 8 2 9 1 10 3 14 4 15
REMARK SMILES IDX 5 16 13 17 6 18 12 19 7 20 8 21 9 22 10 23 11 24 22 25 23 26
REMARK SMILES IDX 24 27 25 28 26 29 27 30 28 31 29 32 30 33 31 34 32 35 96 36
REMARK SMILES IDX 33 37 95 38 34 39 35 40 36 41 89 42 37 43 94 44 88 45 90 46
REMARK SMILES IDX 38 47 93 48 87 49 86 50 39 52 73 53 52 54 72 55 53 56 56 57
REMARK SMILES IDX 71 58 91 59 54 60 55 61 70 63 92 64 57 65 40 66 41 67 50 68
REMARK SMILES IDX 42 69 43 70 49 71 51 72 44 73 45 74 46 75 47 76 48 77 74 78
REMARK SMILES IDX 75 79 84 80 76 81 77 82 83 83 85 84 78 85 79 86 80 87 81 88
REMARK SMILES IDX 82 89 58 90 59 91 68 92 60 93 61 94 67 95 69 96 62 97 63 98
REMARK SMILES IDX 64 99 65 100 66 101
REMARK H PARENT 1 11 1 12 1 13 90 51 56 62
REMARK Flexibility Score: inf
ROOT
ATOM      1  C   UNL A   1      34.847  20.542  25.122  1.00  0.00     0.188 C 
ENDROOT
BRANCH   1   2
ATOM      2  C   UNL A   1      34.335  20.943  26.514  1.00  0.00     0.188 C 
BRANCH   2   3
ATOM      3  O   UNL A   1      34.571  22.247  27.034  1.00  0.00    -0.376 OA
BRANCH   3   4
ATOM      4  C   UNL A   1      33.538  22.983  27.675  1.00  0.00     0.202 C 
BRANCH   4   5
ATOM      5  C   UNL A   1      32.115  23.089  27.102  1.00  0.00     0.261 C 
BRANCH   5   6
ATOM      6  O   UNL A   1      31.445  24.335  27.313  1.00  0.00    -0.459 OA
BRANCH   6   7
ATOM      7  C   UNL A   1      30.382  24.593  26.506  1.00  0.00     0.365 C 
ATOM      8  O   UNL A   1      29.204  24.487  26.832  1.00  0.00    -0.245 OA
BRANCH   7   9
ATOM      9  C   UNL A   1      30.821  25.008  25.092  1.00  0.00     0.296 C 
BRANCH   9  10
ATOM     10  N   UNL A   1      30.353  24.086  24.036  1.00  0.00    -0.346 N 
ATOM     11  H   UNL A   1      29.353  23.920  24.148  1.00  0.00     0.345 HD
ATOM     12  H   UNL A   1      30.855  23.201  24.110  1.00  0.00     0.345 HD
ATOM     13  H   UNL A   1      30.528  24.502  23.121  1.00  0.00     0.345 HD
ENDBRANCH   9  10
BRANCH   9  14
ATOM     14  C   UNL A   1      30.426  26.456  24.796  1.00  0.00     0.113 C 
BRANCH  14  15
ATOM     15  C   UNL A   1      31.290  27.533  25.413  1.00  0.00    -0.041 A 
ATOM     16  C   UNL A   1      31.448  27.683  26.798  1.00  0.00     0.008 A 
ATOM     17  C   UNL A   1      31.946  28.437  24.571  1.00  0.00     0.008 A 
ATOM     18  C   UNL A   1      32.252  28.704  27.318  1.00  0.00     0.047 A 
ATOM     19  C   UNL A   1      32.724  29.473  25.094  1.00  0.00     0.047 A 
ATOM     20  C   UNL A   1      32.880  29.618  26.470  1.00  0.00     0.126 A 
BRANCH  20  21
ATOM     21  O   UNL A   1      33.601  30.592  27.101  1.00  0.00    -0.435 OA
BRANCH  21  22
ATOM     22  C   UNL A   1      34.799  30.200  27.768  1.00  0.00     0.542 C 
ATOM     23  F   UNL A   1      35.581  29.496  26.915  1.00  0.00    -0.167 F 
ATOM     24  F   UNL A   1      35.481  31.308  28.156  1.00  0.00    -0.167 F 
ENDBRANCH  21  22
ENDBRANCH  20  21
ENDBRANCH  14  15
ENDBRANCH   9  14
ENDBRANCH   7   9
ENDBRANCH   6   7
ENDBRANCH   5   6
ENDBRANCH   4   5
ENDBRANCH   3   4
ENDBRANCH   2   3
ENDBRANCH   1   2
BRANCH   1  25
ATOM     25  O   UNL A   1      35.260  21.629  24.320  1.00  0.00    -0.377 OA
BRANCH  25  26
ATOM     26  C   UNL A   1      36.670  21.797  24.189  1.00  0.00     0.188 C 
BRANCH  26  27
ATOM     27  C   UNL A   1      37.599  20.888  25.031  1.00  0.00     0.188 C 
BRANCH  27  28
ATOM     28  O   UNL A   1      38.931  21.359  25.195  1.00  0.00    -0.376 OA
BRANCH  28  29
ATOM     29  C   UNL A   1      39.371  21.789  26.476  1.00  0.00     0.202 C 
BRANCH  29  30
ATOM     30  C   UNL A   1      40.722  22.522  26.593  1.00  0.00     0.261 C 
BRANCH  30  31
ATOM     31  O   UNL A   1      40.685  23.950  26.467  1.00  0.00    -0.460 OA
BRANCH  31  32
ATOM     32  C   UNL A   1      41.816  24.624  26.756  1.00  0.00     0.338 C 
ATOM     33  O   UNL A   1      42.904  24.486  26.221  1.00  0.00    -0.246 OA
BRANCH  32  34
ATOM     34  C   UNL A   1      41.477  25.718  27.689  1.00  0.00     0.060 A 
ATOM     35  C   UNL A   1      42.345  26.813  27.772  1.00  0.00     0.016 A 
ATOM     36  C   UNL A   1      40.327  25.666  28.481  1.00  0.00     0.016 A 
ATOM     37  C   UNL A   1      42.098  27.833  28.688  1.00  0.00     0.010 A 
ATOM     38  C   UNL A   1      40.093  26.677  29.418  1.00  0.00     0.010 A 
ATOM     39  C   UNL A   1      41.003  27.741  29.556  1.00  0.00    -0.014 A 
BRANCH  39  40
ATOM     40  C   UNL A   1      40.952  28.640  30.736  1.00  0.00     0.031 A 
ATOM     41  C   UNL A   1      39.910  29.729  30.756  1.00  0.00     0.074 A 
ATOM     42  C   UNL A   1      41.754  28.447  31.798  1.00  0.00     0.049 A 
ATOM     43  N   UNL A   1      39.665  30.626  31.675  1.00  0.00    -0.248 NA
ATOM     44  C   UNL A   1      39.026  29.813  29.582  1.00  0.00     0.031 C 
ATOM     45  C   UNL A   1      42.768  27.401  31.913  1.00  0.00     0.029 A 
ATOM     46  N   UNL A   1      41.836  29.129  32.985  1.00  0.00    -0.354 N 
ATOM     47  C   UNL A   1      38.595  31.373  31.196  1.00  0.00     0.074 A 
ATOM     48  C   UNL A   1      38.270  30.858  29.884  1.00  0.00     0.031 C 
ATOM     49  C   UNL A   1      43.381  27.519  33.104  1.00  0.00     0.029 A 
ATOM     50  C   UNL A   1      42.823  28.665  33.822  1.00  0.00     0.049 A 
ATOM     51  H   UNL A   1      41.244  29.881  33.217  1.00  0.00     0.167 HD
ATOM     52  C   UNL A   1      37.927  32.384  31.802  1.00  0.00     0.037 A 
ATOM     53  C   UNL A   1      43.240  29.127  35.017  1.00  0.00     0.037 A 
ATOM     54  C   UNL A   1      38.260  32.900  33.104  1.00  0.00     0.049 A 
ATOM     55  C   UNL A   1      42.537  30.309  35.637  1.00  0.00     0.074 A 
ATOM     56  C   UNL A   1      37.656  33.931  33.801  1.00  0.00     0.029 A 
ATOM     57  N   UNL A   1      39.288  32.426  33.905  1.00  0.00    -0.354 N 
ATOM     58  N   UNL A   1      41.521  31.002  35.177  1.00  0.00    -0.248 NA
ATOM     59  C   UNL A   1      43.029  30.766  36.944  1.00  0.00     0.031 C 
ATOM     60  C   UNL A   1      38.351  34.114  35.001  1.00  0.00     0.029 A 
ATOM     61  C   UNL A   1      39.348  33.155  35.081  1.00  0.00     0.049 A 
ATOM     62  H   UNL A   1      39.887  31.679  33.673  1.00  0.00     0.167 HD
ATOM     63  C   UNL A   1      41.234  31.953  36.152  1.00  0.00     0.074 A 
ATOM     64  C   UNL A   1      42.172  31.735  37.233  1.00  0.00     0.031 C 
ATOM     65  C   UNL A   1      40.283  32.920  36.154  1.00  0.00     0.037 A 
BRANCH  52  66
ATOM     66  C   UNL A   1      36.779  33.007  31.056  1.00  0.00     0.058 A 
ATOM     67  C   UNL A   1      35.445  32.791  31.441  1.00  0.00     0.135 A 
ATOM     68  C   UNL A   1      37.013  33.860  29.965  1.00  0.00     0.135 A 
ATOM     69  F   UNL A   1      35.161  31.967  32.462  1.00  0.00    -0.206 F 
ATOM     70  C   UNL A   1      34.386  33.383  30.759  1.00  0.00     0.059 A 
ATOM     71  C   UNL A   1      35.971  34.486  29.289  1.00  0.00     0.059 A 
ATOM     72  F   UNL A   1      38.268  34.097  29.549  1.00  0.00    -0.206 F 
ATOM     73  C   UNL A   1      34.660  34.233  29.687  1.00  0.00     0.060 A 
BRANCH  73  74
ATOM     74  S   UNL A   1      33.274  35.005  28.827  1.00  0.00     0.124 S 
ATOM     75  O   UNL A   1      32.380  35.322  29.937  1.00  0.00    -0.237 OA
ATOM     76  O   UNL A   1      33.909  36.148  28.179  1.00  0.00    -0.237 OA
ATOM     77  O   UNL A   1      32.805  33.957  27.926  1.00  0.00    -0.744 OA
ENDBRANCH  73  74
ENDBRANCH  52  66
BRANCH  53  78
ATOM     78  C   UNL A   1      44.406  28.497  35.698  1.00  0.00     0.058 A 
ATOM     79  C   UNL A   1      44.244  27.452  36.621  1.00  0.00     0.135 A 
ATOM     80  C   UNL A   1      45.711  28.956  35.456  1.00  0.00     0.135 A 
ATOM     81  F   UNL A   1      43.016  26.986  36.896  1.00  0.00    -0.206 F 
ATOM     82  C   UNL A   1      45.327  26.904  37.301  1.00  0.00     0.059 A 
ATOM     83  C   UNL A   1      46.812  28.404  36.100  1.00  0.00     0.059 A 
ATOM     84  F   UNL A   1      45.927  29.945  34.575  1.00  0.00    -0.206 F 
ATOM     85  C   UNL A   1      46.609  27.388  37.032  1.00  0.00     0.060 A 
BRANCH  85  86
ATOM     86  S   UNL A   1      48.020  26.655  37.888  1.00  0.00     0.124 S 
ATOM     87  O   UNL A   1      47.502  26.521  39.244  1.00  0.00    -0.237 OA
ATOM     88  O   UNL A   1      48.213  25.411  37.150  1.00  0.00    -0.237 OA
ATOM     89  O   UNL A   1      49.070  27.654  37.706  1.00  0.00    -0.744 OA
ENDBRANCH  85  86
ENDBRANCH  53  78
BRANCH  65  90
ATOM     90  C   UNL A   1      40.176  33.788  37.382  1.00  0.00     0.058 A 
ATOM     91  C   UNL A   1      39.344  33.452  38.461  1.00  0.00     0.135 A 
ATOM     92  C   UNL A   1      40.946  34.959  37.492  1.00  0.00     0.135 A 
ATOM     93  F   UNL A   1      38.586  32.345  38.410  1.00  0.00    -0.206 F 
ATOM     94  C   UNL A   1      39.246  34.265  39.585  1.00  0.00     0.059 A 
ATOM     95  C   UNL A   1      40.891  35.768  38.622  1.00  0.00     0.059 A 
ATOM     96  F   UNL A   1      41.772  35.322  36.498  1.00  0.00    -0.206 F 
ATOM     97  C   UNL A   1      40.023  35.423  39.656  1.00  0.00     0.060 A 
BRANCH  97  98
ATOM     98  S   UNL A   1      39.892  36.464  41.125  1.00  0.00     0.124 S 
ATOM     99  O   UNL A   1      38.732  37.288  40.798  1.00  0.00    -0.237 OA
ATOM    100  O   UNL A   1      39.694  35.483  42.187  1.00  0.00    -0.237 OA
ATOM    101  O   UNL A   1      41.171  37.167  41.160  1.00  0.00    -0.744 OA
ENDBRANCH  97  98
ENDBRANCH  65  90
ENDBRANCH  39  40
ENDBRANCH  32  34
ENDBRANCH  31  32
ENDBRANCH  30  31
ENDBRANCH  29  30
ENDBRANCH  28  29
ENDBRANCH  27  28
ENDBRANCH  26  27
ENDBRANCH  25  26
ENDBRANCH   1  25
TORSDOF 28
ENDMDL
MODEL 2
REMARK VINA RESULT:      -8.6      4.857      9.017
REMARK SMILES [NH3+][C@@H](Cc1ccc(OC(F)F)cc1)C(=O)OCCOCCOCCOCCOC(=O)c1ccc(-c2c3nc(c(-c4c(F)cc(S(=O)(=O)[O-])cc4F)c4ccc([nH]4)c(-c4c(F)cc(S(=O)(=O)[O-])cc4F)c4nc(c(-c5c(F)cc(S(=O)(=O)[O-])cc5F)c5ccc2[nH]5)C=C4)C=C3)cc1
REMARK SMILES IDX 21 1 20 2 19 3 18 4 17 5 16 6 14 7 15 8 2 9 1 10 3 14 4 15
REMARK SMILES IDX 5 16 13 17 6 18 12 19 7 20 8 21 9 22 10 23 11 24 22 25 23 26
REMARK SMILES IDX 24 27 25 28 26 29 27 30 28 31 29 32 30 33 31 34 32 35 96 36
REMARK SMILES IDX 33 37 95 38 34 39 35 40 36 41 89 42 37 43 94 44 88 45 90 46
REMARK SMILES IDX 38 47 93 48 87 49 86 50 39 52 73 53 52 54 72 55 53 56 56 57
REMARK SMILES IDX 71 58 91 59 54 60 55 61 70 63 92 64 57 65 40 66 41 67 50 68
REMARK SMILES IDX 42 69 43 70 49 71 51 72 44 73 45 74 46 75 47 76 48 77 74 78
REMARK SMILES IDX 75 79 84 80 76 81 77 82 83 83 85 84 78 85 79 86 80 87 81 88
REMARK SMILES IDX 82 89 58 90 59 91 68 92 60 93 61 94 67 95 69 96 62 97 63 98
REMARK SMILES IDX 64 99 65 100 66 101
REMARK H PARENT 1 11 1 12 1 13 90 51 56 62
REMARK Flexibility Score: inf
ROOT
ATOM      1  C   UNL A   1      32.493  21.628  24.051  1.00  0.00     0.188 C 
ENDROOT
BRANCH   1   2
ATOM      2  C   UNL A   1      31.395  22.591  24.526  1.00  0.00     0.188 C 
BRANCH   2   3
ATOM      3  O   UNL A   1      30.999  22.636  25.893  1.00  0.00    -0.376 OA
BRANCH   3   4
ATOM      4  C   UNL A   1      31.127  23.826  26.659  1.00  0.00     0.202 C 
BRANCH   4   5
ATOM      5  C   UNL A   1      31.072  25.229  26.031  1.00  0.00     0.261 C 
BRANCH   5   6
ATOM      6  O   UNL A   1      29.811  25.623  25.486  1.00  0.00    -0.459 OA
BRANCH   6   7
ATOM      7  C   UNL A   1      29.848  26.315  24.315  1.00  0.00     0.365 C 
ATOM      8  O   UNL A   1      28.912  26.949  23.839  1.00  0.00    -0.245 OA
BRANCH   7   9
ATOM      9  C   UNL A   1      31.210  26.186  23.616  1.00  0.00     0.296 C 
BRANCH   9  10
ATOM     10  N   UNL A   1      31.181  25.309  22.427  1.00  0.00    -0.346 N 
ATOM     11  H   UNL A   1      30.832  25.833  21.625  1.00  0.00     0.345 HD
ATOM     12  H   UNL A   1      30.568  24.513  22.607  1.00  0.00     0.345 HD
ATOM     13  H   UNL A   1      32.124  24.974  22.230  1.00  0.00     0.345 HD
ENDBRANCH   9  10
BRANCH   9  14
ATOM     14  C   UNL A   1      31.793  27.563  23.289  1.00  0.00     0.113 C 
BRANCH  14  15
ATOM     15  C   UNL A   1      32.340  28.361  24.452  1.00  0.00    -0.041 A 
ATOM     16  C   UNL A   1      31.683  29.478  24.986  1.00  0.00     0.008 A 
ATOM     17  C   UNL A   1      33.566  27.985  25.010  1.00  0.00     0.008 A 
ATOM     18  C   UNL A   1      32.237  30.187  26.057  1.00  0.00     0.047 A 
ATOM     19  C   UNL A   1      34.132  28.713  26.060  1.00  0.00     0.047 A 
ATOM     20  C   UNL A   1      33.476  29.821  26.588  1.00  0.00     0.126 A 
BRANCH  20  21
ATOM     21  O   UNL A   1      33.929  30.619  27.603  1.00  0.00    -0.435 OA
BRANCH  21  22
ATOM     22  C   UNL A   1      35.236  30.363  28.110  1.00  0.00     0.542 C 
ATOM     23  F   UNL A   1      36.150  31.011  27.350  1.00  0.00    -0.167 F 
ATOM     24  F   UNL A   1      35.326  30.836  29.379  1.00  0.00    -0.167 F 
ENDBRANCH  21  22
ENDBRANCH  20  21
ENDBRANCH  14  15
ENDBRANCH   9  14
ENDBRANCH   7   9
ENDBRANCH   6   7
ENDBRANCH   5   6
ENDBRANCH   4   5
ENDBRANCH   3   4
ENDBRANCH   2   3
ENDBRANCH   1   2
BRANCH   1  25
ATOM     25  O   UNL A   1      33.583  22.260  23.413  1.00  0.00    -0.377 OA
BRANCH  25  26
ATOM     26  C   UNL A   1      34.825  22.199  24.108  1.00  0.00     0.188 C 
BRANCH  26  27
ATOM     27  C   UNL A   1      35.023  21.079  25.160  1.00  0.00     0.188 C 
BRANCH  27  28
ATOM     28  O   UNL A   1      36.169  20.258  24.971  1.00  0.00    -0.376 OA
BRANCH  28  29
ATOM     29  C   UNL A   1      37.413  20.856  24.630  1.00  0.00     0.202 C 
BRANCH  29  30
ATOM     30  C   UNL A   1      38.384  21.251  25.760  1.00  0.00     0.261 C 
BRANCH  30  31
ATOM     31  O   UNL A   1      38.921  22.580  25.703  1.00  0.00    -0.460 OA
BRANCH  31  32
ATOM     32  C   UNL A   1      38.188  23.565  26.258  1.00  0.00     0.338 C 
ATOM     33  O   UNL A   1      36.982  23.556  26.452  1.00  0.00    -0.246 OA
BRANCH  32  34
ATOM     34  C   UNL A   1      39.113  24.583  26.796  1.00  0.00     0.060 A 
ATOM     35  C   UNL A   1      39.085  24.846  28.171  1.00  0.00     0.016 A 
ATOM     36  C   UNL A   1      39.989  25.281  25.960  1.00  0.00     0.016 A 
ATOM     37  C   UNL A   1      39.892  25.846  28.707  1.00  0.00     0.010 A 
ATOM     38  C   UNL A   1      40.779  26.303  26.496  1.00  0.00     0.010 A 
ATOM     39  C   UNL A   1      40.700  26.619  27.863  1.00  0.00    -0.014 A 
BRANCH  39  40
ATOM     40  C   UNL A   1      41.275  27.882  28.389  1.00  0.00     0.031 A 
ATOM     41  C   UNL A   1      42.769  28.070  28.312  1.00  0.00     0.074 A 
ATOM     42  C   UNL A   1      40.489  28.870  28.849  1.00  0.00     0.049 A 
ATOM     43  N   UNL A   1      43.498  29.085  28.695  1.00  0.00    -0.248 NA
ATOM     44  C   UNL A   1      43.540  26.963  27.721  1.00  0.00     0.031 C 
ATOM     45  C   UNL A   1      39.030  28.823  28.932  1.00  0.00     0.029 A 
ATOM     46  N   UNL A   1      40.815  30.112  29.335  1.00  0.00    -0.354 N 
ATOM     47  C   UNL A   1      44.810  28.745  28.382  1.00  0.00     0.074 A 
ATOM     48  C   UNL A   1      44.782  27.410  27.825  1.00  0.00     0.031 C 
ATOM     49  C   UNL A   1      38.586  29.981  29.450  1.00  0.00     0.029 A 
ATOM     50  C   UNL A   1      39.729  30.840  29.762  1.00  0.00     0.049 A 
ATOM     51  H   UNL A   1      41.738  30.450  29.373  1.00  0.00     0.167 HD
ATOM     52  C   UNL A   1      45.935  29.485  28.525  1.00  0.00     0.037 A 
ATOM     53  C   UNL A   1      39.670  32.048  30.356  1.00  0.00     0.037 A 
ATOM     54  C   UNL A   1      45.960  30.810  29.089  1.00  0.00     0.049 A 
ATOM     55  C   UNL A   1      40.946  32.821  30.584  1.00  0.00     0.074 A 
ATOM     56  C   UNL A   1      47.049  31.638  29.292  1.00  0.00     0.029 A 
ATOM     57  N   UNL A   1      44.844  31.499  29.541  1.00  0.00    -0.354 N 
ATOM     58  N   UNL A   1      42.179  32.492  30.277  1.00  0.00    -0.248 NA
ATOM     59  C   UNL A   1      40.821  34.135  31.230  1.00  0.00     0.031 C 
ATOM     60  C   UNL A   1      46.598  32.807  29.915  1.00  0.00     0.029 A 
ATOM     61  C   UNL A   1      45.221  32.735  30.040  1.00  0.00     0.049 A 
ATOM     62  H   UNL A   1      43.920  31.160  29.512  1.00  0.00     0.167 HD
ATOM     63  C   UNL A   1      42.970  33.570  30.662  1.00  0.00     0.074 A 
ATOM     64  C   UNL A   1      42.074  34.568  31.208  1.00  0.00     0.031 C 
ATOM     65  C   UNL A   1      44.315  33.722  30.574  1.00  0.00     0.037 A 
BRANCH  52  66
ATOM     66  C   UNL A   1      47.234  28.872  28.078  1.00  0.00     0.058 A 
ATOM     67  C   UNL A   1      48.065  28.172  28.970  1.00  0.00     0.135 A 
ATOM     68  C   UNL A   1      47.638  28.951  26.736  1.00  0.00     0.135 A 
ATOM     69  F   UNL A   1      47.740  28.085  30.270  1.00  0.00    -0.206 F 
ATOM     70  C   UNL A   1      49.258  27.591  28.550  1.00  0.00     0.059 A 
ATOM     71  C   UNL A   1      48.812  28.351  26.288  1.00  0.00     0.059 A 
ATOM     72  F   UNL A   1      46.886  29.613  25.841  1.00  0.00    -0.206 F 
ATOM     73  C   UNL A   1      49.620  27.683  27.206  1.00  0.00     0.060 A 
BRANCH  73  74
ATOM     74  S   UNL A   1      51.162  26.907  26.676  1.00  0.00     0.124 S 
ATOM     75  O   UNL A   1      51.120  27.128  25.234  1.00  0.00    -0.237 OA
ATOM     76  O   UNL A   1      52.163  27.678  27.407  1.00  0.00    -0.237 OA
ATOM     77  O   UNL A   1      51.009  25.519  27.102  1.00  0.00    -0.744 OA
ENDBRANCH  73  74
ENDBRANCH  52  66
BRANCH  53  78
ATOM     78  C   UNL A   1      38.362  32.595  30.813  1.00  0.00     0.058 A 
ATOM     79  C   UNL A   1      37.920  32.442  32.136  1.00  0.00     0.135 A 
ATOM     80  C   UNL A   1      37.511  33.259  29.915  1.00  0.00     0.135 A 
ATOM     81  F   UNL A   1      38.691  31.805  33.030  1.00  0.00    -0.206 F 
ATOM     82  C   UNL A   1      36.673  32.902  32.547  1.00  0.00     0.059 A 
ATOM     83  C   UNL A   1      36.273  33.753  30.308  1.00  0.00     0.059 A 
ATOM     84  F   UNL A   1      37.885  33.443  28.639  1.00  0.00    -0.206 F 
ATOM     85  C   UNL A   1      35.856  33.557  31.624  1.00  0.00     0.060 A 
BRANCH  85  86
ATOM     86  S   UNL A   1      34.251  34.184  32.163  1.00  0.00     0.124 S 
ATOM     87  O   UNL A   1      34.644  35.190  33.143  1.00  0.00    -0.237 OA
ATOM     88  O   UNL A   1      33.686  34.690  30.917  1.00  0.00    -0.237 OA
ATOM     89  O   UNL A   1      33.597  32.995  32.703  1.00  0.00    -0.744 OA
ENDBRANCH  85  86
ENDBRANCH  53  78
BRANCH  65  90
ATOM     90  C   UNL A   1      44.898  35.034  31.036  1.00  0.00     0.058 A 
ATOM     91  C   UNL A   1      44.988  36.148  30.188  1.00  0.00     0.135 A 
ATOM     92  C   UNL A   1      45.343  35.184  32.361  1.00  0.00     0.135 A 
ATOM     93  F   UNL A   1      44.579  36.061  28.912  1.00  0.00    -0.206 F 
ATOM     94  C   UNL A   1      45.537  37.351  30.623  1.00  0.00     0.059 A 
ATOM     95  C   UNL A   1      45.862  36.388  32.827  1.00  0.00     0.059 A 
ATOM     96  F   UNL A   1      45.267  34.156  33.222  1.00  0.00    -0.206 F 
ATOM     97  C   UNL A   1      45.973  37.460  31.944  1.00  0.00     0.060 A 
BRANCH  97  98
ATOM     98  S   UNL A   1      46.674  39.029  32.496  1.00  0.00     0.124 S 
ATOM     99  O   UNL A   1      45.710  39.986  31.964  1.00  0.00    -0.237 OA
ATOM    100  O   UNL A   1      46.680  38.874  33.948  1.00  0.00    -0.237 OA
ATOM    101  O   UNL A   1      47.992  39.052  31.870  1.00  0.00    -0.744 OA
ENDBRANCH  97  98
ENDBRANCH  65  90
ENDBRANCH  39  40
ENDBRANCH  32  34
ENDBRANCH  31  32
ENDBRANCH  30  31
ENDBRANCH  29  30
ENDBRANCH  28  29
ENDBRANCH  27  28
ENDBRANCH  26  27
ENDBRANCH  25  26
ENDBRANCH   1  25
TORSDOF 28
ENDMDL
MODEL 3
REMARK VINA RESULT:      -8.4      6.308      8.573
REMARK SMILES [NH3+][C@@H](Cc1ccc(OC(F)F)cc1)C(=O)OCCOCCOCCOCCOC(=O)c1ccc(-c2c3nc(c(-c4c(F)cc(S(=O)(=O)[O-])cc4F)c4ccc([nH]4)c(-c4c(F)cc(S(=O)(=O)[O-])cc4F)c4nc(c(-c5c(F)cc(S(=O)(=O)[O-])cc5F)c5ccc2[nH]5)C=C4)C=C3)cc1
REMARK SMILES IDX 21 1 20 2 19 3 18 4 17 5 16 6 14 7 15 8 2 9 1 10 3 14 4 15
REMARK SMILES IDX 5 16 13 17 6 18 12 19 7 20 8 21 9 22 10 23 11 24 22 25 23 26
REMARK SMILES IDX 24 27 25 28 26 29 27 30 28 31 29 32 30 33 31 34 32 35 96 36
REMARK SMILES IDX 33 37 95 38 34 39 35 40 36 41 89 42 37 43 94 44 88 45 90 46
REMARK SMILES IDX 38 47 93 48 87 49 86 50 39 52 73 53 52 54 72 55 53 56 56 57
REMARK SMILES IDX 71 58 91 59 54 60 55 61 70 63 92 64 57 65 40 66 41 67 50 68
REMARK SMILES IDX 42 69 43 70 49 71 51 72 44 73 45 74 46 75 47 76 48 77 74 78
REMARK SMILES IDX 75 79 84 80 76 81 77 82 83 83 85 84 78 85 79 86 80 87 81 88
REMARK SMILES IDX 82 89 58 90 59 91 68 92 60 93 61 94 67 95 69 96 62 97 63 98
REMARK SMILES IDX 64 99 65 100 66 101
REMARK H PARENT 1 11 1 12 1 13 90 51 56 62
REMARK Flexibility Score: inf
ROOT
ATOM      1  C   UNL A   1      37.093  22.501  25.110  1.00  0.00     0.188 C 
ENDROOT
BRANCH   1   2
ATOM      2  C   UNL A   1      35.811  23.190  25.601  1.00  0.00     0.188 C 
BRANCH   2   3
ATOM      3  O   UNL A   1      34.930  22.536  26.508  1.00  0.00    -0.376 OA
BRANCH   3   4
ATOM      4  C   UNL A   1      34.431  21.232  26.242  1.00  0.00     0.202 C 
BRANCH   4   5
ATOM      5  C   UNL A   1      33.948  20.795  24.849  1.00  0.00     0.261 C 
BRANCH   5   6
ATOM      6  O   UNL A   1      32.537  20.622  24.700  1.00  0.00    -0.459 OA
BRANCH   6   7
ATOM      7  C   UNL A   1      31.778  21.748  24.785  1.00  0.00     0.365 C 
ATOM      8  O   UNL A   1      31.076  22.057  25.743  1.00  0.00    -0.245 OA
BRANCH   7   9
ATOM      9  C   UNL A   1      31.868  22.599  23.508  1.00  0.00     0.296 C 
BRANCH   9  10
ATOM     10  N   UNL A   1      31.799  21.803  22.265  1.00  0.00    -0.346 N 
ATOM     11  H   UNL A   1      32.694  21.340  22.107  1.00  0.00     0.345 HD
ATOM     12  H   UNL A   1      31.591  22.419  21.478  1.00  0.00     0.345 HD
ATOM     13  H   UNL A   1      31.065  21.101  22.351  1.00  0.00     0.345 HD
ENDBRANCH   9  10
BRANCH   9  14
ATOM     14  C   UNL A   1      30.827  23.721  23.520  1.00  0.00     0.113 C 
BRANCH  14  15
ATOM     15  C   UNL A   1      31.261  25.040  24.120  1.00  0.00    -0.041 A 
ATOM     16  C   UNL A   1      32.535  25.247  24.666  1.00  0.00     0.008 A 
ATOM     17  C   UNL A   1      30.347  26.098  24.153  1.00  0.00     0.008 A 
ATOM     18  C   UNL A   1      32.882  26.485  25.217  1.00  0.00     0.047 A 
ATOM     19  C   UNL A   1      30.687  27.324  24.731  1.00  0.00     0.047 A 
ATOM     20  C   UNL A   1      31.954  27.526  25.272  1.00  0.00     0.126 A 
BRANCH  20  21
ATOM     21  O   UNL A   1      32.401  28.670  25.873  1.00  0.00    -0.435 OA
BRANCH  21  22
ATOM     22  C   UNL A   1      31.798  29.046  27.109  1.00  0.00     0.542 C 
ATOM     23  F   UNL A   1      31.929  28.035  28.001  1.00  0.00    -0.167 F 
ATOM     24  F   UNL A   1      32.435  30.137  27.606  1.00  0.00    -0.167 F 
ENDBRANCH  21  22
ENDBRANCH  20  21
ENDBRANCH  14  15
ENDBRANCH   9  14
ENDBRANCH   7   9
ENDBRANCH   6   7
ENDBRANCH   5   6
ENDBRANCH   4   5
ENDBRANCH   3   4
ENDBRANCH   2   3
ENDBRANCH   1   2
BRANCH   1  25
ATOM     25  O   UNL A   1      38.111  22.406  26.085  1.00  0.00    -0.377 OA
BRANCH  25  26
ATOM     26  C   UNL A   1      39.166  21.495  25.788  1.00  0.00     0.188 C 
BRANCH  26  27
ATOM     27  C   UNL A   1      40.504  21.647  26.553  1.00  0.00     0.188 C 
BRANCH  27  28
ATOM     28  O   UNL A   1      40.672  20.782  27.669  1.00  0.00    -0.376 OA
BRANCH  28  29
ATOM     29  C   UNL A   1      41.421  19.583  27.522  1.00  0.00     0.202 C 
BRANCH  29  30
ATOM     30  C   UNL A   1      41.951  19.204  26.125  1.00  0.00     0.261 C 
BRANCH  30  31
ATOM     31  O   UNL A   1      43.377  19.136  25.982  1.00  0.00    -0.460 OA
BRANCH  31  32
ATOM     32  C   UNL A   1      43.933  19.870  24.998  1.00  0.00     0.338 C 
ATOM     33  O   UNL A   1      44.183  19.498  23.862  1.00  0.00    -0.246 OA
BRANCH  32  34
ATOM     34  C   UNL A   1      43.998  21.275  25.450  1.00  0.00     0.060 A 
ATOM     35  C   UNL A   1      43.770  22.287  24.509  1.00  0.00     0.016 A 
ATOM     36  C   UNL A   1      44.290  21.598  26.778  1.00  0.00     0.016 A 
ATOM     37  C   UNL A   1      43.889  23.625  24.878  1.00  0.00     0.010 A 
ATOM     38  C   UNL A   1      44.435  22.940  27.142  1.00  0.00     0.010 A 
ATOM     39  C   UNL A   1      44.280  23.956  26.182  1.00  0.00    -0.014 A 
BRANCH  39  40
ATOM     40  C   UNL A   1      44.733  25.342  26.458  1.00  0.00     0.031 A 
ATOM     41  C   UNL A   1      43.715  26.340  26.946  1.00  0.00     0.074 A 
ATOM     42  C   UNL A   1      46.029  25.687  26.357  1.00  0.00     0.049 A 
ATOM     43  N   UNL A   1      43.872  27.599  27.262  1.00  0.00    -0.248 NA
ATOM     44  C   UNL A   1      42.335  25.848  27.101  1.00  0.00     0.031 C 
ATOM     45  C   UNL A   1      47.111  24.799  25.938  1.00  0.00     0.029 A 
ATOM     46  N   UNL A   1      46.651  26.886  26.602  1.00  0.00    -0.354 N 
ATOM     47  C   UNL A   1      42.617  28.046  27.662  1.00  0.00     0.074 A 
ATOM     48  C   UNL A   1      41.700  26.939  27.500  1.00  0.00     0.031 C 
ATOM     49  C   UNL A   1      48.266  25.488  25.944  1.00  0.00     0.029 A 
ATOM     50  C   UNL A   1      48.001  26.871  26.339  1.00  0.00     0.049 A 
ATOM     51  H   UNL A   1      46.176  27.681  26.935  1.00  0.00     0.167 HD
ATOM     52  C   UNL A   1      42.263  29.263  28.140  1.00  0.00     0.037 A 
ATOM     53  C   UNL A   1      48.908  27.866  26.389  1.00  0.00     0.037 A 
ATOM     54  C   UNL A   1      43.177  30.365  28.291  1.00  0.00     0.049 A 
ATOM     55  C   UNL A   1      48.475  29.238  26.845  1.00  0.00     0.074 A 
ATOM     56  C   UNL A   1      42.916  31.642  28.752  1.00  0.00     0.029 A 
ATOM     57  N   UNL A   1      44.529  30.321  27.981  1.00  0.00    -0.354 N 
ATOM     58  N   UNL A   1      47.287  29.645  27.227  1.00  0.00    -0.248 NA
ATOM     59  C   UNL A   1      49.507  30.282  26.887  1.00  0.00     0.031 C 
ATOM     60  C   UNL A   1      44.098  32.386  28.672  1.00  0.00     0.029 A 
ATOM     61  C   UNL A   1      45.111  31.554  28.223  1.00  0.00     0.049 A 
ATOM     62  H   UNL A   1      45.005  29.529  27.639  1.00  0.00     0.167 HD
ATOM     63  C   UNL A   1      47.438  30.982  27.584  1.00  0.00     0.074 A 
ATOM     64  C   UNL A   1      48.835  31.308  27.390  1.00  0.00     0.031 C 
ATOM     65  C   UNL A   1      46.507  31.861  28.032  1.00  0.00     0.037 A 
BRANCH  52  66
ATOM     66  C   UNL A   1      40.823  29.469  28.522  1.00  0.00     0.058 A 
ATOM     67  C   UNL A   1      39.797  29.467  27.561  1.00  0.00     0.135 A 
ATOM     68  C   UNL A   1      40.456  29.634  29.867  1.00  0.00     0.135 A 
ATOM     69  F   UNL A   1      40.092  29.337  26.258  1.00  0.00    -0.206 F 
ATOM     70  C   UNL A   1      38.464  29.641  27.919  1.00  0.00     0.059 A 
ATOM     71  C   UNL A   1      39.125  29.778  30.251  1.00  0.00     0.059 A 
ATOM     72  F   UNL A   1      41.395  29.650  30.828  1.00  0.00    -0.206 F 
ATOM     73  C   UNL A   1      38.138  29.791  29.268  1.00  0.00     0.060 A 
BRANCH  73  74
ATOM     74  S   UNL A   1      36.401  29.997  29.714  1.00  0.00     0.124 S 
ATOM     75  O   UNL A   1      36.279  31.451  29.753  1.00  0.00    -0.237 OA
ATOM     76  O   UNL A   1      35.717  29.333  28.610  1.00  0.00    -0.237 OA
ATOM     77  O   UNL A   1      36.299  29.326  31.007  1.00  0.00    -0.744 OA
ENDBRANCH  73  74
ENDBRANCH  52  66
BRANCH  53  78
ATOM     78  C   UNL A   1      50.315  27.618  25.965  1.00  0.00     0.058 A 
ATOM     79  C   UNL A   1      51.337  27.391  26.899  1.00  0.00     0.135 A 
ATOM     80  C   UNL A   1      50.666  27.636  24.606  1.00  0.00     0.135 A 
ATOM     81  F   UNL A   1      51.055  27.376  28.211  1.00  0.00    -0.206 F 
ATOM     82  C   UNL A   1      52.661  27.218  26.505  1.00  0.00     0.059 A 
ATOM     83  C   UNL A   1      51.976  27.436  24.186  1.00  0.00     0.059 A 
ATOM     84  F   UNL A   1      49.728  27.838  23.667  1.00  0.00    -0.206 F 
ATOM     85  C   UNL A   1      52.969  27.242  25.144  1.00  0.00     0.060 A 
BRANCH  85  86
ATOM     86  S   UNL A   1      54.680  26.985  24.629  1.00  0.00     0.124 S 
ATOM     87  O   UNL A   1      54.751  27.808  23.427  1.00  0.00    -0.237 OA
ATOM     88  O   UNL A   1      55.425  27.475  25.784  1.00  0.00    -0.237 OA
ATOM     89  O   UNL A   1      54.746  25.542  24.413  1.00  0.00    -0.744 OA
ENDBRANCH  85  86
ENDBRANCH  53  78
BRANCH  65  90
ATOM     90  C   UNL A   1      46.976  33.249  28.387  1.00  0.00     0.058 A 
ATOM     91  C   UNL A   1      46.977  34.297  27.452  1.00  0.00     0.135 A 
ATOM     92  C   UNL A   1      47.401  33.542  29.695  1.00  0.00     0.135 A 
ATOM     93  F   UNL A   1      46.583  34.074  26.188  1.00  0.00    -0.206 F 
ATOM     94  C   UNL A   1      47.422  35.571  27.788  1.00  0.00     0.059 A 
ATOM     95  C   UNL A   1      47.816  34.818  30.062  1.00  0.00     0.059 A 
ATOM     96  F   UNL A   1      47.406  32.583  30.635  1.00  0.00    -0.206 F 
ATOM     97  C   UNL A   1      47.841  35.822  29.096  1.00  0.00     0.060 A 
BRANCH  97  98
ATOM     98  S   UNL A   1      48.407  37.482  29.520  1.00  0.00     0.124 S 
ATOM     99  O   UNL A   1      48.248  37.485  30.971  1.00  0.00    -0.237 OA
ATOM    100  O   UNL A   1      49.782  37.477  29.032  1.00  0.00    -0.237 OA
ATOM    101  O   UNL A   1      47.492  38.352  28.788  1.00  0.00    -0.744 OA
ENDBRANCH  97  98
ENDBRANCH  65  90
ENDBRANCH  39  40
ENDBRANCH  32  34
ENDBRANCH  31  32
ENDBRANCH  30  31
ENDBRANCH  29  30
ENDBRANCH  28  29
ENDBRANCH  27  28
ENDBRANCH  26  27
ENDBRANCH  25  26
ENDBRANCH   1  25
TORSDOF 28
ENDMDL
