MODEL 1
REMARK VINA RESULT:      -7.3      0.000      0.000
REMARK SMILES Cc1sc2nc(SCc3ccc(C(=O)OCCOCCOCCOCCOC(=O)c4ccc(-c5c6nc(c(-c7c(F)cc(S(=O)(=O)[O-])cc7F)c7ccc([nH]7)c(-c7c(F)cc(S(=O)(=O)[O-])cc7F)c7nc(c(-c8c(F)cc(S(=O)(=O)[O-])cc8F)c8ccc5[nH]8)C=C7)C=C6)cc4)cc3)n(Cc3ccco3)c(=O)c2c1C
REMARK SMILES IDX 20 1 19 2 18 3 17 4 16 5 15 6 13 7 14 8 12 9 9 10 10 11
REMARK SMILES IDX 97 12 11 13 96 14 8 15 7 16 6 17 1 18 2 19 3 20 108 21 4 22
REMARK SMILES IDX 107 23 109 24 5 25 105 26 98 27 106 28 99 29 100 30 101 31
REMARK SMILES IDX 104 32 102 33 103 34 21 35 22 36 23 37 24 38 25 39 26 40
REMARK SMILES IDX 27 41 28 42 29 43 30 44 31 45 95 46 32 47 94 48 33 49 34 50
REMARK SMILES IDX 35 51 88 52 36 53 93 54 87 55 89 56 37 57 92 58 86 59 85 60
REMARK SMILES IDX 38 62 72 63 51 64 71 65 52 66 55 67 70 68 90 69 53 70 54 71
REMARK SMILES IDX 69 73 91 74 56 75 39 76 40 77 49 78 41 79 42 80 48 81 50 82
REMARK SMILES IDX 43 83 44 84 45 85 46 86 47 87 73 88 74 89 83 90 75 91 76 92
REMARK SMILES IDX 82 93 84 94 77 95 78 96 79 97 80 98 81 99 57 100 58 101
REMARK SMILES IDX 67 102 59 103 60 104 66 105 68 106 61 107 62 108 63 109
REMARK SMILES IDX 64 110 65 111
REMARK H PARENT 89 61 55 72
REMARK Flexibility Score: inf
ROOT
ATOM      1  C   UNL A   1      38.399  30.776  35.802  1.00  0.00     0.188 C 
ENDROOT
BRANCH   1   2
ATOM      2  C   UNL A   1      39.912  30.537  35.599  1.00  0.00     0.188 C 
BRANCH   2   3
ATOM      3  O   UNL A   1      40.494  29.243  35.433  1.00  0.00    -0.376 OA
BRANCH   3   4
ATOM      4  C   UNL A   1      40.897  28.755  34.163  1.00  0.00     0.202 C 
BRANCH   4   5
ATOM      5  C   UNL A   1      41.802  27.521  34.150  1.00  0.00     0.261 C 
BRANCH   5   6
ATOM      6  O   UNL A   1      42.103  27.023  35.456  1.00  0.00    -0.460 OA
BRANCH   6   7
ATOM      7  C   UNL A   1      41.588  25.802  35.730  1.00  0.00     0.338 C 
ATOM      8  O   UNL A   1      40.419  25.540  35.965  1.00  0.00    -0.246 OA
BRANCH   7   9
ATOM      9  C   UNL A   1      42.642  24.758  35.682  1.00  0.00     0.060 A 
ATOM     10  C   UNL A   1      44.919  23.191  35.339  1.00  0.00    -0.038 A 
ATOM     11  C   UNL A   1      44.855  24.102  36.396  1.00  0.00     0.005 A 
ATOM     12  C   UNL A   1      43.751  22.900  34.616  1.00  0.00     0.005 A 
ATOM     13  C   UNL A   1      43.717  24.884  36.567  1.00  0.00     0.016 A 
ATOM     14  C   UNL A   1      42.629  23.711  34.754  1.00  0.00     0.016 A 
BRANCH  10  15
ATOM     15  C   UNL A   1      46.216  22.551  34.940  1.00  0.00     0.113 C 
BRANCH  15  16
ATOM     16  S   UNL A   1      47.739  23.343  35.473  1.00  0.00    -0.083 SA
BRANCH  16  17
ATOM     17  C   UNL A   1      48.686  22.435  36.648  1.00  0.00     0.173 A 
ATOM     18  C   UNL A   1      51.742  21.772  41.948  1.00  0.00     0.057 C 
ATOM     19  C   UNL A   1      51.016  21.795  40.643  1.00  0.00     0.007 A 
ATOM     20  S   UNL A   1      50.592  23.295  39.910  1.00  0.00    -0.120 S 
ATOM     21  C   UNL A   1      50.601  20.717  39.880  1.00  0.00    -0.022 A 
ATOM     22  C   UNL A   1      49.772  22.524  38.628  1.00  0.00     0.132 A 
ATOM     23  C   UNL A   1      49.740  21.169  38.832  1.00  0.00     0.080 A 
ATOM     24  C   UNL A   1      50.967  19.283  40.102  1.00  0.00     0.046 C 
ATOM     25  N   UNL A   1      49.187  23.185  37.593  1.00  0.00    -0.213 NA
ATOM     26  C   UNL A   1      48.952  20.391  37.917  1.00  0.00     0.263 A 
ATOM     27  N   UNL A   1      48.684  21.045  36.711  1.00  0.00    -0.279 N 
ATOM     28  O   UNL A   1      48.590  19.246  38.179  1.00  0.00    -0.268 OA
BRANCH  27  29
ATOM     29  C   UNL A   1      48.644  20.099  35.616  1.00  0.00     0.203 C 
BRANCH  29  30
ATOM     30  C   UNL A   1      50.007  20.127  34.966  1.00  0.00     0.123 A 
ATOM     31  C   UNL A   1      51.160  19.376  35.134  1.00  0.00     0.047 A 
ATOM     32  O   UNL A   1      50.167  20.977  33.912  1.00  0.00    -0.467 OA
ATOM     33  C   UNL A   1      52.067  19.795  34.134  1.00  0.00     0.042 A 
ATOM     34  C   UNL A   1      51.411  20.761  33.410  1.00  0.00     0.195 A 
ENDBRANCH  29  30
ENDBRANCH  27  29
ENDBRANCH  16  17
ENDBRANCH  15  16
ENDBRANCH  10  15
ENDBRANCH   7   9
ENDBRANCH   6   7
ENDBRANCH   5   6
ENDBRANCH   4   5
ENDBRANCH   3   4
ENDBRANCH   2   3
ENDBRANCH   1   2
BRANCH   1  35
ATOM     35  O   UNL A   1      37.811  31.732  34.944  1.00  0.00    -0.377 OA
BRANCH  35  36
ATOM     36  C   UNL A   1      38.600  32.108  33.820  1.00  0.00     0.188 C 
BRANCH  36  37
ATOM     37  C   UNL A   1      38.202  31.471  32.475  1.00  0.00     0.188 C 
BRANCH  37  38
ATOM     38  O   UNL A   1      37.248  32.241  31.744  1.00  0.00    -0.376 OA
BRANCH  38  39
ATOM     39  C   UNL A   1      37.562  32.545  30.389  1.00  0.00     0.202 C 
BRANCH  39  40
ATOM     40  C   UNL A   1      36.990  31.556  29.364  1.00  0.00     0.261 C 
BRANCH  40  41
ATOM     41  O   UNL A   1      37.929  31.138  28.365  1.00  0.00    -0.460 OA
BRANCH  41  42
ATOM     42  C   UNL A   1      38.101  29.806  28.250  1.00  0.00     0.338 C 
ATOM     43  O   UNL A   1      37.245  28.963  28.070  1.00  0.00    -0.246 OA
BRANCH  42  44
ATOM     44  C   UNL A   1      39.535  29.524  28.270  1.00  0.00     0.060 A 
ATOM     45  C   UNL A   1      40.320  29.982  29.332  1.00  0.00     0.016 A 
ATOM     46  C   UNL A   1      40.106  28.962  27.135  1.00  0.00     0.016 A 
ATOM     47  C   UNL A   1      41.700  29.939  29.233  1.00  0.00     0.010 A 
ATOM     48  C   UNL A   1      41.488  28.971  27.014  1.00  0.00     0.010 A 
ATOM     49  C   UNL A   1      42.286  29.519  28.032  1.00  0.00    -0.014 A 
BRANCH  49  50
ATOM     50  C   UNL A   1      43.706  29.879  27.826  1.00  0.00     0.031 A 
ATOM     51  C   UNL A   1      43.985  31.302  27.481  1.00  0.00     0.074 A 
ATOM     52  C   UNL A   1      44.595  29.296  28.665  1.00  0.00     0.049 A 
ATOM     53  N   UNL A   1      43.879  32.257  28.358  1.00  0.00    -0.248 NA
ATOM     54  C   UNL A   1      44.122  31.778  26.107  1.00  0.00     0.031 C 
ATOM     55  C   UNL A   1      44.265  28.876  30.041  1.00  0.00     0.029 A 
ATOM     56  N   UNL A   1      45.957  29.158  28.588  1.00  0.00    -0.354 N 
ATOM     57  C   UNL A   1      43.836  33.447  27.667  1.00  0.00     0.074 A 
ATOM     58  C   UNL A   1      44.023  33.106  26.274  1.00  0.00     0.031 C 
ATOM     59  C   UNL A   1      45.406  28.689  30.728  1.00  0.00     0.029 A 
ATOM     60  C   UNL A   1      46.533  28.856  29.822  1.00  0.00     0.049 A 
ATOM     61  H   UNL A   1      46.472  29.260  27.755  1.00  0.00     0.167 HD
ATOM     62  C   UNL A   1      43.611  34.634  28.286  1.00  0.00     0.037 A 
ATOM     63  C   UNL A   1      47.793  29.214  30.190  1.00  0.00     0.037 A 
ATOM     64  C   UNL A   1      43.452  34.571  29.709  1.00  0.00     0.049 A 
ATOM     65  C   UNL A   1      47.552  30.660  30.559  1.00  0.00     0.074 A 
ATOM     66  C   UNL A   1      42.409  34.469  30.604  1.00  0.00     0.029 A 
ATOM     67  N   UNL A   1      44.589  34.524  30.483  1.00  0.00    -0.354 N 
ATOM     68  N   UNL A   1      47.027  31.087  31.682  1.00  0.00    -0.248 NA
ATOM     69  C   UNL A   1      47.528  31.646  29.476  1.00  0.00     0.031 C 
ATOM     70  C   UNL A   1      42.978  33.928  31.799  1.00  0.00     0.029 A 
ATOM     71  C   UNL A   1      44.327  33.685  31.540  1.00  0.00     0.049 A 
ATOM     72  H   UNL A   1      45.433  35.002  30.313  1.00  0.00     0.167 HD
ATOM     73  C   UNL A   1      46.335  32.255  31.347  1.00  0.00     0.074 A 
ATOM     74  C   UNL A   1      46.733  32.573  29.992  1.00  0.00     0.031 C 
ATOM     75  C   UNL A   1      45.318  32.783  32.090  1.00  0.00     0.037 A 
BRANCH  62  76
ATOM     76  C   UNL A   1      43.650  35.947  27.622  1.00  0.00     0.058 A 
ATOM     77  C   UNL A   1      44.878  36.621  27.580  1.00  0.00     0.135 A 
ATOM     78  C   UNL A   1      42.493  36.638  27.247  1.00  0.00     0.135 A 
ATOM     79  F   UNL A   1      46.006  35.983  27.937  1.00  0.00    -0.206 F 
ATOM     80  C   UNL A   1      44.956  37.961  27.240  1.00  0.00     0.059 A 
ATOM     81  C   UNL A   1      42.547  37.985  26.894  1.00  0.00     0.059 A 
ATOM     82  F   UNL A   1      41.298  36.028  27.277  1.00  0.00    -0.206 F 
ATOM     83  C   UNL A   1      43.779  38.643  26.928  1.00  0.00     0.060 A 
BRANCH  83  84
ATOM     84  S   UNL A   1      43.892  40.419  26.625  1.00  0.00     0.124 S 
ATOM     85  O   UNL A   1      43.407  40.965  27.887  1.00  0.00    -0.237 OA
ATOM     86  O   UNL A   1      45.318  40.590  26.363  1.00  0.00    -0.237 OA
ATOM     87  O   UNL A   1      43.018  40.621  25.473  1.00  0.00    -0.744 OA
ENDBRANCH  83  84
ENDBRANCH  62  76
BRANCH  63  88
ATOM     88  C   UNL A   1      48.812  28.690  29.225  1.00  0.00     0.058 A 
ATOM     89  C   UNL A   1      49.556  27.560  29.641  1.00  0.00     0.135 A 
ATOM     90  C   UNL A   1      49.011  29.110  27.906  1.00  0.00     0.135 A 
ATOM     91  F   UNL A   1      49.531  27.169  30.926  1.00  0.00    -0.206 F 
ATOM     92  C   UNL A   1      50.271  26.770  28.749  1.00  0.00     0.059 A 
ATOM     93  C   UNL A   1      49.707  28.324  26.985  1.00  0.00     0.059 A 
ATOM     94  F   UNL A   1      48.500  30.264  27.459  1.00  0.00    -0.206 F 
ATOM     95  C   UNL A   1      50.281  27.127  27.407  1.00  0.00     0.060 A 
BRANCH  95  96
ATOM     96  S   UNL A   1      50.970  25.957  26.220  1.00  0.00     0.124 S 
ATOM     97  O   UNL A   1      49.969  25.970  25.160  1.00  0.00    -0.237 OA
ATOM     98  O   UNL A   1      52.249  26.585  25.899  1.00  0.00    -0.237 OA
ATOM     99  O   UNL A   1      51.062  24.716  26.984  1.00  0.00    -0.744 OA
ENDBRANCH  95  96
ENDBRANCH  63  88
BRANCH  75 100
ATOM    100  C   UNL A   1      45.110  32.196  33.446  1.00  0.00     0.058 A 
ATOM    101  C   UNL A   1      44.189  31.156  33.624  1.00  0.00     0.135 A 
ATOM    102  C   UNL A   1      45.878  32.589  34.556  1.00  0.00     0.135 A 
ATOM    103  F   UNL A   1      43.437  30.733  32.594  1.00  0.00    -0.206 F 
ATOM    104  C   UNL A   1      44.059  30.502  34.845  1.00  0.00     0.059 A 
ATOM    105  C   UNL A   1      45.782  31.932  35.780  1.00  0.00     0.059 A 
ATOM    106  F   UNL A   1      46.765  33.593  34.454  1.00  0.00    -0.206 F 
ATOM    107  C   UNL A   1      44.874  30.884  35.913  1.00  0.00     0.060 A 
BRANCH 107 108
ATOM    108  S   UNL A   1      44.788  29.934  37.445  1.00  0.00     0.124 S 
ATOM    109  O   UNL A   1      45.963  30.414  38.167  1.00  0.00    -0.237 OA
ATOM    110  O   UNL A   1      43.499  30.343  37.995  1.00  0.00    -0.237 OA
ATOM    111  O   UNL A   1      44.853  28.547  36.994  1.00  0.00    -0.744 OA
ENDBRANCH 107 108
ENDBRANCH  75 100
ENDBRANCH  49  50
ENDBRANCH  42  44
ENDBRANCH  41  42
ENDBRANCH  40  41
ENDBRANCH  39  40
ENDBRANCH  38  39
ENDBRANCH  37  38
ENDBRANCH  36  37
ENDBRANCH  35  36
ENDBRANCH   1  35
TORSDOF 28
ENDMDL
MODEL 2
REMARK VINA RESULT:      -7.3      6.273     13.695
REMARK SMILES Cc1sc2nc(SCc3ccc(C(=O)OCCOCCOCCOCCOC(=O)c4ccc(-c5c6nc(c(-c7c(F)cc(S(=O)(=O)[O-])cc7F)c7ccc([nH]7)c(-c7c(F)cc(S(=O)(=O)[O-])cc7F)c7nc(c(-c8c(F)cc(S(=O)(=O)[O-])cc8F)c8ccc5[nH]8)C=C7)C=C6)cc4)cc3)n(Cc3ccco3)c(=O)c2c1C
REMARK SMILES IDX 20 1 19 2 18 3 17 4 16 5 15 6 13 7 14 8 12 9 9 10 10 11
REMARK SMILES IDX 97 12 11 13 96 14 8 15 7 16 6 17 1 18 2 19 3 20 108 21 4 22
REMARK SMILES IDX 107 23 109 24 5 25 105 26 98 27 106 28 99 29 100 30 101 31
REMARK SMILES IDX 104 32 102 33 103 34 21 35 22 36 23 37 24 38 25 39 26 40
REMARK SMILES IDX 27 41 28 42 29 43 30 44 31 45 95 46 32 47 94 48 33 49 34 50
REMARK SMILES IDX 35 51 88 52 36 53 93 54 87 55 89 56 37 57 92 58 86 59 85 60
REMARK SMILES IDX 38 62 72 63 51 64 71 65 52 66 55 67 70 68 90 69 53 70 54 71
REMARK SMILES IDX 69 73 91 74 56 75 39 76 40 77 49 78 41 79 42 80 48 81 50 82
REMARK SMILES IDX 43 83 44 84 45 85 46 86 47 87 73 88 74 89 83 90 75 91 76 92
REMARK SMILES IDX 82 93 84 94 77 95 78 96 79 97 80 98 81 99 57 100 58 101
REMARK SMILES IDX 67 102 59 103 60 104 66 105 68 106 61 107 62 108 63 109
REMARK SMILES IDX 64 110 65 111
REMARK H PARENT 89 61 55 72
REMARK Flexibility Score: inf
ROOT
ATOM      1  C   UNL A   1      39.859  25.963  27.615  1.00  0.00     0.188 C 
ENDROOT
BRANCH   1   2
ATOM      2  C   UNL A   1      39.115  24.610  27.666  1.00  0.00     0.188 C 
BRANCH   2   3
ATOM      3  O   UNL A   1      39.611  23.410  27.073  1.00  0.00    -0.376 OA
BRANCH   3   4
ATOM      4  C   UNL A   1      39.210  22.987  25.779  1.00  0.00     0.202 C 
BRANCH   4   5
ATOM      5  C   UNL A   1      38.537  21.617  25.676  1.00  0.00     0.261 C 
BRANCH   5   6
ATOM      6  O   UNL A   1      37.243  21.571  26.284  1.00  0.00    -0.460 OA
BRANCH   6   7
ATOM      7  C   UNL A   1      36.220  21.355  25.426  1.00  0.00     0.338 C 
ATOM      8  O   UNL A   1      35.977  20.320  24.826  1.00  0.00    -0.246 OA
BRANCH   7   9
ATOM      9  C   UNL A   1      35.361  22.561  25.310  1.00  0.00     0.060 A 
ATOM     10  C   UNL A   1      34.178  25.083  25.326  1.00  0.00    -0.038 A 
ATOM     11  C   UNL A   1      35.094  24.750  24.324  1.00  0.00     0.005 A 
ATOM     12  C   UNL A   1      33.682  24.069  26.161  1.00  0.00     0.005 A 
ATOM     13  C   UNL A   1      35.684  23.490  24.317  1.00  0.00     0.016 A 
ATOM     14  C   UNL A   1      34.302  22.824  26.185  1.00  0.00     0.016 A 
BRANCH  10  15
ATOM     15  C   UNL A   1      33.749  26.503  25.549  1.00  0.00     0.113 C 
BRANCH  15  16
ATOM     16  S   UNL A   1      32.113  26.783  26.242  1.00  0.00    -0.083 SA
BRANCH  16  17
ATOM     17  C   UNL A   1      31.057  27.813  25.279  1.00  0.00     0.173 A 
ATOM     18  C   UNL A   1      29.057  33.241  23.182  1.00  0.00     0.057 C 
ATOM     19  C   UNL A   1      29.457  31.863  23.598  1.00  0.00     0.007 A 
ATOM     20  S   UNL A   1      30.445  31.627  24.988  1.00  0.00    -0.120 S 
ATOM     21  C   UNL A   1      29.130  30.662  22.992  1.00  0.00    -0.022 A 
ATOM     22  C   UNL A   1      30.528  29.942  24.739  1.00  0.00     0.132 A 
ATOM     23  C   UNL A   1      29.905  29.606  23.565  1.00  0.00     0.080 A 
ATOM     24  C   UNL A   1      28.134  30.468  21.892  1.00  0.00     0.046 C 
ATOM     25  N   UNL A   1      31.177  29.082  25.568  1.00  0.00    -0.213 NA
ATOM     26  C   UNL A   1      30.020  28.240  23.135  1.00  0.00     0.263 A 
ATOM     27  N   UNL A   1      30.367  27.356  24.161  1.00  0.00    -0.279 N 
ATOM     28  O   UNL A   1      29.792  27.900  21.976  1.00  0.00    -0.268 OA
BRANCH  27  29
ATOM     29  C   UNL A   1      29.734  26.070  23.963  1.00  0.00     0.203 C 
BRANCH  29  30
ATOM     30  C   UNL A   1      30.803  25.130  23.460  1.00  0.00     0.123 A 
ATOM     31  C   UNL A   1      31.011  23.766  23.584  1.00  0.00     0.047 A 
ATOM     32  O   UNL A   1      31.732  25.655  22.610  1.00  0.00    -0.467 OA
ATOM     33  C   UNL A   1      32.124  23.447  22.773  1.00  0.00     0.042 A 
ATOM     34  C   UNL A   1      32.517  24.628  22.192  1.00  0.00     0.195 A 
ENDBRANCH  29  30
ENDBRANCH  27  29
ENDBRANCH  16  17
ENDBRANCH  15  16
ENDBRANCH  10  15
ENDBRANCH   7   9
ENDBRANCH   6   7
ENDBRANCH   5   6
ENDBRANCH   4   5
ENDBRANCH   3   4
ENDBRANCH   2   3
ENDBRANCH   1   2
BRANCH   1  35
ATOM     35  O   UNL A   1      40.319  26.455  28.857  1.00  0.00    -0.377 OA
BRANCH  35  36
ATOM     36  C   UNL A   1      40.059  27.833  29.100  1.00  0.00     0.188 C 
BRANCH  36  37
ATOM     37  C   UNL A   1      38.843  28.428  28.364  1.00  0.00     0.188 C 
BRANCH  37  38
ATOM     38  O   UNL A   1      37.806  28.863  29.243  1.00  0.00    -0.376 OA
BRANCH  38  39
ATOM     39  C   UNL A   1      36.666  29.473  28.648  1.00  0.00     0.202 C 
BRANCH  39  40
ATOM     40  C   UNL A   1      36.419  30.926  29.082  1.00  0.00     0.261 C 
BRANCH  40  41
ATOM     41  O   UNL A   1      36.605  31.158  30.484  1.00  0.00    -0.460 OA
BRANCH  41  42
ATOM     42  C   UNL A   1      37.319  32.256  30.802  1.00  0.00     0.338 C 
ATOM     43  O   UNL A   1      36.901  33.382  30.985  1.00  0.00    -0.246 OA
BRANCH  42  44
ATOM     44  C   UNL A   1      38.710  31.857  31.003  1.00  0.00     0.060 A 
ATOM     45  C   UNL A   1      39.177  31.580  32.292  1.00  0.00     0.016 A 
ATOM     46  C   UNL A   1      39.577  31.939  29.921  1.00  0.00     0.016 A 
ATOM     47  C   UNL A   1      40.536  31.449  32.516  1.00  0.00     0.010 A 
ATOM     48  C   UNL A   1      40.942  31.863  30.156  1.00  0.00     0.010 A 
ATOM     49  C   UNL A   1      41.428  31.685  31.462  1.00  0.00    -0.014 A 
BRANCH  49  50
ATOM     50  C   UNL A   1      42.837  31.943  31.831  1.00  0.00     0.031 A 
ATOM     51  C   UNL A   1      43.873  31.228  31.032  1.00  0.00     0.074 A 
ATOM     52  C   UNL A   1      43.139  33.219  32.169  1.00  0.00     0.049 A 
ATOM     53  N   UNL A   1      44.143  31.557  29.802  1.00  0.00    -0.248 NA
ATOM     54  C   UNL A   1      44.458  29.954  31.443  1.00  0.00     0.031 C 
ATOM     55  C   UNL A   1      42.420  34.396  31.642  1.00  0.00     0.029 A 
ATOM     56  N   UNL A   1      44.218  33.751  32.828  1.00  0.00    -0.354 N 
ATOM     57  C   UNL A   1      44.842  30.511  29.242  1.00  0.00     0.074 A 
ATOM     58  C   UNL A   1      45.046  29.551  30.305  1.00  0.00     0.031 C 
ATOM     59  C   UNL A   1      43.165  35.495  31.853  1.00  0.00     0.029 A 
ATOM     60  C   UNL A   1      44.341  35.126  32.627  1.00  0.00     0.049 A 
ATOM     61  H   UNL A   1      44.836  33.222  33.382  1.00  0.00     0.167 HD
ATOM     62  C   UNL A   1      45.176  30.489  27.927  1.00  0.00     0.037 A 
ATOM     63  C   UNL A   1      45.523  35.800  32.635  1.00  0.00     0.037 A 
ATOM     64  C   UNL A   1      44.780  31.639  27.167  1.00  0.00     0.049 A 
ATOM     65  C   UNL A   1      46.019  35.464  31.247  1.00  0.00     0.074 A 
ATOM     66  C   UNL A   1      43.710  32.008  26.382  1.00  0.00     0.029 A 
ATOM     67  N   UNL A   1      45.581  32.756  27.224  1.00  0.00    -0.354 N 
ATOM     68  N   UNL A   1      45.623  36.032  30.134  1.00  0.00    -0.248 NA
ATOM     69  C   UNL A   1      46.692  34.177  31.056  1.00  0.00     0.031 C 
ATOM     70  C   UNL A   1      43.709  33.437  26.380  1.00  0.00     0.029 A 
ATOM     71  C   UNL A   1      44.751  33.851  27.209  1.00  0.00     0.049 A 
ATOM     72  H   UNL A   1      46.564  32.770  27.267  1.00  0.00     0.167 HD
ATOM     73  C   UNL A   1      45.711  35.033  29.158  1.00  0.00     0.074 A 
ATOM     74  C   UNL A   1      46.430  33.940  29.777  1.00  0.00     0.031 C 
ATOM     75  C   UNL A   1      45.017  35.048  27.982  1.00  0.00     0.037 A 
BRANCH  62  76
ATOM     76  C   UNL A   1      46.005  29.453  27.289  1.00  0.00     0.058 A 
ATOM     77  C   UNL A   1      47.393  29.648  27.268  1.00  0.00     0.135 A 
ATOM     78  C   UNL A   1      45.462  28.422  26.516  1.00  0.00     0.135 A 
ATOM     79  F   UNL A   1      47.942  30.633  27.999  1.00  0.00    -0.206 F 
ATOM     80  C   UNL A   1      48.217  28.889  26.455  1.00  0.00     0.059 A 
ATOM     81  C   UNL A   1      46.272  27.640  25.695  1.00  0.00     0.059 A 
ATOM     82  F   UNL A   1      44.137  28.206  26.506  1.00  0.00    -0.206 F 
ATOM     83  C   UNL A   1      47.643  27.906  25.649  1.00  0.00     0.060 A 
BRANCH  83  84
ATOM     84  S   UNL A   1      48.720  27.028  24.498  1.00  0.00     0.124 S 
ATOM     85  O   UNL A   1      49.862  27.931  24.411  1.00  0.00    -0.237 OA
ATOM     86  O   UNL A   1      48.956  25.772  25.204  1.00  0.00    -0.237 OA
ATOM     87  O   UNL A   1      47.909  26.921  23.289  1.00  0.00    -0.744 OA
ENDBRANCH  83  84
ENDBRANCH  62  76
BRANCH  63  88
ATOM     88  C   UNL A   1      46.256  35.599  33.925  1.00  0.00     0.058 A 
ATOM     89  C   UNL A   1      47.613  35.999  33.952  1.00  0.00     0.135 A 
ATOM     90  C   UNL A   1      45.708  35.189  35.145  1.00  0.00     0.135 A 
ATOM     91  F   UNL A   1      48.258  36.279  32.807  1.00  0.00    -0.206 F 
ATOM     92  C   UNL A   1      48.309  36.194  35.139  1.00  0.00     0.059 A 
ATOM     93  C   UNL A   1      46.378  35.393  36.353  1.00  0.00     0.059 A 
ATOM     94  F   UNL A   1      44.495  34.625  35.209  1.00  0.00    -0.206 F 
ATOM     95  C   UNL A   1      47.655  35.951  36.339  1.00  0.00     0.060 A 
BRANCH  95  96
ATOM     96  S   UNL A   1      48.461  36.468  37.868  1.00  0.00     0.124 S 
ATOM     97  O   UNL A   1      47.330  36.896  38.682  1.00  0.00    -0.237 OA
ATOM     98  O   UNL A   1      49.116  35.231  38.285  1.00  0.00    -0.237 OA
ATOM     99  O   UNL A   1      49.362  37.531  37.432  1.00  0.00    -0.744 OA
ENDBRANCH  95  96
ENDBRANCH  63  88
BRANCH  75 100
ATOM    100  C   UNL A   1      44.316  36.320  27.638  1.00  0.00     0.058 A 
ATOM    101  C   UNL A   1      42.954  36.467  27.926  1.00  0.00     0.135 A 
ATOM    102  C   UNL A   1      44.998  37.429  27.109  1.00  0.00     0.135 A 
ATOM    103  F   UNL A   1      42.256  35.442  28.444  1.00  0.00    -0.206 F 
ATOM    104  C   UNL A   1      42.297  37.678  27.735  1.00  0.00     0.059 A 
ATOM    105  C   UNL A   1      44.368  38.658  26.933  1.00  0.00     0.059 A 
ATOM    106  F   UNL A   1      46.302  37.346  26.794  1.00  0.00    -0.206 F 
ATOM    107  C   UNL A   1      43.017  38.775  27.256  1.00  0.00     0.060 A 
BRANCH 107 108
ATOM    108  S   UNL A   1      42.184  40.372  27.146  1.00  0.00     0.124 S 
ATOM    109  O   UNL A   1      43.220  41.217  26.560  1.00  0.00    -0.237 OA
ATOM    110  O   UNL A   1      41.048  40.073  26.278  1.00  0.00    -0.237 OA
ATOM    111  O   UNL A   1      41.837  40.675  28.531  1.00  0.00    -0.744 OA
ENDBRANCH 107 108
ENDBRANCH  75 100
ENDBRANCH  49  50
ENDBRANCH  42  44
ENDBRANCH  41  42
ENDBRANCH  40  41
ENDBRANCH  39  40
ENDBRANCH  38  39
ENDBRANCH  37  38
ENDBRANCH  36  37
ENDBRANCH  35  36
ENDBRANCH   1  35
TORSDOF 28
ENDMDL
MODEL 3
REMARK VINA RESULT:      -7.1      6.392     14.906
REMARK SMILES Cc1sc2nc(SCc3ccc(C(=O)OCCOCCOCCOCCOC(=O)c4ccc(-c5c6nc(c(-c7c(F)cc(S(=O)(=O)[O-])cc7F)c7ccc([nH]7)c(-c7c(F)cc(S(=O)(=O)[O-])cc7F)c7nc(c(-c8c(F)cc(S(=O)(=O)[O-])cc8F)c8ccc5[nH]8)C=C7)C=C6)cc4)cc3)n(Cc3ccco3)c(=O)c2c1C
REMARK SMILES IDX 20 1 19 2 18 3 17 4 16 5 15 6 13 7 14 8 12 9 9 10 10 11
REMARK SMILES IDX 97 12 11 13 96 14 8 15 7 16 6 17 1 18 2 19 3 20 108 21 4 22
REMARK SMILES IDX 107 23 109 24 5 25 105 26 98 27 106 28 99 29 100 30 101 31
REMARK SMILES IDX 104 32 102 33 103 34 21 35 22 36 23 37 24 38 25 39 26 40
REMARK SMILES IDX 27 41 28 42 29 43 30 44 31 45 95 46 32 47 94 48 33 49 34 50
REMARK SMILES IDX 35 51 88 52 36 53 93 54 87 55 89 56 37 57 92 58 86 59 85 60
REMARK SMILES IDX 38 62 72 63 51 64 71 65 52 66 55 67 70 68 90 69 53 70 54 71
REMARK SMILES IDX 69 73 91 74 56 75 39 76 40 77 49 78 41 79 42 80 48 81 50 82
REMARK SMILES IDX 43 83 44 84 45 85 46 86 47 87 73 88 74 89 83 90 75 91 76 92
REMARK SMILES IDX 82 93 84 94 77 95 78 96 79 97 80 98 81 99 57 100 58 101
REMARK SMILES IDX 67 102 59 103 60 104 66 105 68 106 61 107 62 108 63 109
REMARK SMILES IDX 64 110 65 111
REMARK H PARENT 89 61 55 72
REMARK Flexibility Score: inf
ROOT
ATOM      1  C   UNL A   1      39.787  25.735  27.472  1.00  0.00     0.188 C 
ENDROOT
BRANCH   1   2
ATOM      2  C   UNL A   1      38.911  24.467  27.356  1.00  0.00     0.188 C 
BRANCH   2   3
ATOM      3  O   UNL A   1      39.327  23.276  26.685  1.00  0.00    -0.376 OA
BRANCH   3   4
ATOM      4  C   UNL A   1      38.648  22.778  25.544  1.00  0.00     0.202 C 
BRANCH   4   5
ATOM      5  C   UNL A   1      38.045  21.376  25.653  1.00  0.00     0.261 C 
BRANCH   5   6
ATOM      6  O   UNL A   1      36.743  21.362  26.245  1.00  0.00    -0.460 OA
BRANCH   6   7
ATOM      7  C   UNL A   1      35.720  21.271  25.366  1.00  0.00     0.338 C 
ATOM      8  O   UNL A   1      35.385  20.280  24.736  1.00  0.00    -0.246 OA
BRANCH   7   9
ATOM      9  C   UNL A   1      34.991  22.560  25.264  1.00  0.00     0.060 A 
ATOM     10  C   UNL A   1      34.084  25.194  25.289  1.00  0.00    -0.038 A 
ATOM     11  C   UNL A   1      34.919  24.755  24.258  1.00  0.00     0.005 A 
ATOM     12  C   UNL A   1      33.517  24.248  26.157  1.00  0.00     0.005 A 
ATOM     13  C   UNL A   1      35.370  23.439  24.246  1.00  0.00     0.016 A 
ATOM     14  C   UNL A   1      34.001  22.944  26.176  1.00  0.00     0.016 A 
BRANCH  10  15
ATOM     15  C   UNL A   1      33.817  26.654  25.507  1.00  0.00     0.113 C 
BRANCH  15  16
ATOM     16  S   UNL A   1      32.300  27.109  26.359  1.00  0.00    -0.083 SA
BRANCH  16  17
ATOM     17  C   UNL A   1      31.158  28.050  25.405  1.00  0.00     0.173 A 
ATOM     18  C   UNL A   1      28.885  33.285  23.104  1.00  0.00     0.057 C 
ATOM     19  C   UNL A   1      29.346  31.947  23.579  1.00  0.00     0.007 A 
ATOM     20  S   UNL A   1      30.428  31.824  24.913  1.00  0.00    -0.120 S 
ATOM     21  C   UNL A   1      29.013  30.702  23.074  1.00  0.00    -0.022 A 
ATOM     22  C   UNL A   1      30.539  30.128  24.767  1.00  0.00     0.132 A 
ATOM     23  C   UNL A   1      29.851  29.702  23.660  1.00  0.00     0.080 A 
ATOM     24  C   UNL A   1      27.954  30.414  22.056  1.00  0.00     0.046 C 
ATOM     25  N   UNL A   1      31.263  29.338  25.604  1.00  0.00    -0.213 NA
ATOM     26  C   UNL A   1      29.974  28.314  23.311  1.00  0.00     0.263 A 
ATOM     27  N   UNL A   1      30.410  27.507  24.365  1.00  0.00    -0.279 N 
ATOM     28  O   UNL A   1      29.680  27.895  22.194  1.00  0.00    -0.268 OA
BRANCH  27  29
ATOM     29  C   UNL A   1      29.799  26.197  24.292  1.00  0.00     0.203 C 
BRANCH  29  30
ATOM     30  C   UNL A   1      30.787  25.294  23.592  1.00  0.00     0.123 A 
ATOM     31  C   UNL A   1      30.960  23.920  23.550  1.00  0.00     0.047 A 
ATOM     32  O   UNL A   1      31.650  25.888  22.719  1.00  0.00    -0.467 OA
ATOM     33  C   UNL A   1      31.984  23.667  22.608  1.00  0.00     0.042 A 
ATOM     34  C   UNL A   1      32.360  24.895  22.122  1.00  0.00     0.195 A 
ENDBRANCH  29  30
ENDBRANCH  27  29
ENDBRANCH  16  17
ENDBRANCH  15  16
ENDBRANCH  10  15
ENDBRANCH   7   9
ENDBRANCH   6   7
ENDBRANCH   5   6
ENDBRANCH   4   5
ENDBRANCH   3   4
ENDBRANCH   2   3
ENDBRANCH   1   2
BRANCH   1  35
ATOM     35  O   UNL A   1      40.197  26.076  28.780  1.00  0.00    -0.377 OA
BRANCH  35  36
ATOM     36  C   UNL A   1      39.951  27.426  29.161  1.00  0.00     0.188 C 
BRANCH  36  37
ATOM     37  C   UNL A   1      39.097  28.256  28.184  1.00  0.00     0.188 C 
BRANCH  37  38
ATOM     38  O   UNL A   1      37.767  28.486  28.649  1.00  0.00    -0.376 OA
BRANCH  38  39
ATOM     39  C   UNL A   1      37.059  29.578  28.072  1.00  0.00     0.202 C 
BRANCH  39  40
ATOM     40  C   UNL A   1      37.459  30.957  28.614  1.00  0.00     0.261 C 
BRANCH  40  41
ATOM     41  O   UNL A   1      36.863  31.287  29.876  1.00  0.00    -0.460 OA
BRANCH  41  42
ATOM     42  C   UNL A   1      37.549  32.166  30.632  1.00  0.00     0.338 C 
ATOM     43  O   UNL A   1      37.691  33.357  30.436  1.00  0.00    -0.246 OA
BRANCH  42  44
ATOM     44  C   UNL A   1      38.030  31.470  31.823  1.00  0.00     0.060 A 
ATOM     45  C   UNL A   1      37.309  31.553  33.018  1.00  0.00     0.016 A 
ATOM     46  C   UNL A   1      39.292  30.892  31.776  1.00  0.00     0.016 A 
ATOM     47  C   UNL A   1      37.883  31.112  34.197  1.00  0.00     0.010 A 
ATOM     48  C   UNL A   1      39.888  30.502  32.967  1.00  0.00     0.010 A 
ATOM     49  C   UNL A   1      39.212  30.672  34.188  1.00  0.00    -0.014 A 
BRANCH  49  50
ATOM     50  C   UNL A   1      39.901  30.612  35.496  1.00  0.00     0.031 A 
ATOM     51  C   UNL A   1      41.066  29.686  35.588  1.00  0.00     0.074 A 
ATOM     52  C   UNL A   1      40.037  31.789  36.151  1.00  0.00     0.049 A 
ATOM     53  N   UNL A   1      42.202  29.949  35.011  1.00  0.00    -0.248 NA
ATOM     54  C   UNL A   1      40.957  28.315  36.078  1.00  0.00     0.031 C 
ATOM     55  C   UNL A   1      40.130  33.096  35.470  1.00  0.00     0.029 A 
ATOM     56  N   UNL A   1      40.335  32.069  37.460  1.00  0.00    -0.354 N 
ATOM     57  C   UNL A   1      42.921  28.775  34.968  1.00  0.00     0.074 A 
ATOM     58  C   UNL A   1      42.126  27.793  35.671  1.00  0.00     0.031 C 
ATOM     59  C   UNL A   1      40.625  34.004  36.331  1.00  0.00     0.029 A 
ATOM     60  C   UNL A   1      40.768  33.383  37.639  1.00  0.00     0.049 A 
ATOM     61  H   UNL A   1      40.252  31.416  38.192  1.00  0.00     0.167 HD
ATOM     62  C   UNL A   1      44.111  28.681  34.322  1.00  0.00     0.037 A 
ATOM     63  C   UNL A   1      41.636  33.779  38.609  1.00  0.00     0.037 A 
ATOM     64  C   UNL A   1      44.584  29.891  33.714  1.00  0.00     0.049 A 
ATOM     65  C   UNL A   1      42.940  33.343  37.979  1.00  0.00     0.074 A 
ATOM     66  C   UNL A   1      44.519  30.488  32.475  1.00  0.00     0.029 A 
ATOM     67  N   UNL A   1      45.232  30.804  34.514  1.00  0.00    -0.354 N 
ATOM     68  N   UNL A   1      43.588  33.985  37.038  1.00  0.00    -0.248 NA
ATOM     69  C   UNL A   1      43.332  31.939  38.125  1.00  0.00     0.031 C 
ATOM     70  C   UNL A   1      44.730  31.882  32.707  1.00  0.00     0.029 A 
ATOM     71  C   UNL A   1      44.860  32.055  34.085  1.00  0.00     0.049 A 
ATOM     72  H   UNL A   1      45.846  30.599  35.255  1.00  0.00     0.167 HD
ATOM     73  C   UNL A   1      44.221  32.993  36.282  1.00  0.00     0.074 A 
ATOM     74  C   UNL A   1      44.072  31.768  37.038  1.00  0.00     0.031 C 
ATOM     75  C   UNL A   1      44.640  33.162  34.993  1.00  0.00     0.037 A 
BRANCH  62  76
ATOM     76  C   UNL A   1      44.974  27.488  34.321  1.00  0.00     0.058 A 
ATOM     77  C   UNL A   1      44.617  26.425  33.481  1.00  0.00     0.135 A 
ATOM     78  C   UNL A   1      45.979  27.283  35.271  1.00  0.00     0.135 A 
ATOM     79  F   UNL A   1      43.652  26.591  32.560  1.00  0.00    -0.206 F 
ATOM     80  C   UNL A   1      45.189  25.171  33.619  1.00  0.00     0.059 A 
ATOM     81  C   UNL A   1      46.575  26.033  35.425  1.00  0.00     0.059 A 
ATOM     82  F   UNL A   1      46.347  28.277  36.096  1.00  0.00    -0.206 F 
ATOM     83  C   UNL A   1      46.147  24.978  34.615  1.00  0.00     0.060 A 
BRANCH  83  84
ATOM     84  S   UNL A   1      46.774  23.304  34.864  1.00  0.00     0.124 S 
ATOM     85  O   UNL A   1      48.153  23.434  34.408  1.00  0.00    -0.237 OA
ATOM     86  O   UNL A   1      46.594  23.125  36.301  1.00  0.00    -0.237 OA
ATOM     87  O   UNL A   1      45.906  22.488  34.020  1.00  0.00    -0.744 OA
ENDBRANCH  83  84
ENDBRANCH  62  76
BRANCH  63  88
ATOM     88  C   UNL A   1      41.131  33.420  39.972  1.00  0.00     0.058 A 
ATOM     89  C   UNL A   1      39.803  33.800  40.277  1.00  0.00     0.135 A 
ATOM     90  C   UNL A   1      41.782  32.629  40.925  1.00  0.00     0.135 A 
ATOM     91  F   UNL A   1      39.150  34.667  39.485  1.00  0.00    -0.206 F 
ATOM     92  C   UNL A   1      39.095  33.250  41.339  1.00  0.00     0.059 A 
ATOM     93  C   UNL A   1      41.089  32.048  41.989  1.00  0.00     0.059 A 
ATOM     94  F   UNL A   1      43.090  32.358  40.830  1.00  0.00    -0.206 F 
ATOM     95  C   UNL A   1      39.732  32.319  42.149  1.00  0.00     0.060 A 
BRANCH  95  96
ATOM     96  S   UNL A   1      38.735  31.407  43.344  1.00  0.00     0.124 S 
ATOM     97  O   UNL A   1      38.885  32.215  44.549  1.00  0.00    -0.237 OA
ATOM     98  O   UNL A   1      37.418  31.443  42.712  1.00  0.00    -0.237 OA
ATOM     99  O   UNL A   1      39.370  30.094  43.382  1.00  0.00    -0.744 OA
ENDBRANCH  95  96
ENDBRANCH  63  88
BRANCH  75 100
ATOM    100  C   UNL A   1      44.623  34.558  34.466  1.00  0.00     0.058 A 
ATOM    101  C   UNL A   1      43.501  35.029  33.771  1.00  0.00     0.135 A 
ATOM    102  C   UNL A   1      45.667  35.465  34.716  1.00  0.00     0.135 A 
ATOM    103  F   UNL A   1      42.468  34.208  33.515  1.00  0.00    -0.206 F 
ATOM    104  C   UNL A   1      43.398  36.358  33.374  1.00  0.00     0.059 A 
ATOM    105  C   UNL A   1      45.575  36.805  34.350  1.00  0.00     0.059 A 
ATOM    106  F   UNL A   1      46.778  35.069  35.361  1.00  0.00    -0.206 F 
ATOM    107  C   UNL A   1      44.431  37.244  33.685  1.00  0.00     0.060 A 
BRANCH 107 108
ATOM    108  S   UNL A   1      44.220  38.992  33.285  1.00  0.00     0.124 S 
ATOM    109  O   UNL A   1      45.278  39.615  34.073  1.00  0.00    -0.237 OA
ATOM    110  O   UNL A   1      44.417  39.007  31.838  1.00  0.00    -0.237 OA
ATOM    111  O   UNL A   1      42.858  39.282  33.723  1.00  0.00    -0.744 OA
ENDBRANCH 107 108
ENDBRANCH  75 100
ENDBRANCH  49  50
ENDBRANCH  42  44
ENDBRANCH  41  42
ENDBRANCH  40  41
ENDBRANCH  39  40
ENDBRANCH  38  39
ENDBRANCH  37  38
ENDBRANCH  36  37
ENDBRANCH  35  36
ENDBRANCH   1  35
TORSDOF 28
ENDMDL
