MODEL 1
REMARK VINA RESULT:      -9.2      0.000      0.000
REMARK SMILES O=C(OCCOCCOCCOCCOC(=O)c1ccc(C[NH2+][C@@H]2CCCC[C@H]2O)nc1)c1ccc(-c2c3nc(c(-c4c(F)cc(S(=O)(=O)[O-])cc4F)c4ccc([nH]4)c(-c4c(F)cc(S(=O)(=O)[O-])cc4F)c4nc(c(-c5c(F)cc(S(=O)(=O)[O-])cc5F)c5ccc2[nH]5)C=C4)C=C3)cc1
REMARK SMILES IDX 10 1 9 2 8 3 7 4 6 5 5 6 4 7 3 8 2 9 1 10 33 11 34 12 98 13
REMARK SMILES IDX 35 14 97 15 36 16 37 17 38 18 91 19 39 20 96 21 90 22 92 23
REMARK SMILES IDX 40 24 95 25 89 26 88 27 41 29 75 30 54 31 74 32 55 33 58 34
REMARK SMILES IDX 73 35 93 36 56 37 57 38 72 40 94 41 59 42 42 43 43 44 52 45
REMARK SMILES IDX 44 46 45 47 51 48 53 49 46 50 47 51 48 52 49 53 50 54 76 55
REMARK SMILES IDX 77 56 86 57 78 58 79 59 85 60 87 61 80 62 81 63 82 64 83 65
REMARK SMILES IDX 84 66 60 67 61 68 70 69 62 70 63 71 69 72 71 73 64 74 65 75
REMARK SMILES IDX 66 76 67 77 68 78 11 79 12 80 13 81 14 82 15 83 16 84 17 85
REMARK SMILES IDX 18 86 19 87 32 88 20 89 31 90 21 91 22 92 23 93 24 96 25 97
REMARK SMILES IDX 29 98 26 99 28 100 27 101 30 102
REMARK H PARENT 92 28 58 39 23 94 23 95 30 103
REMARK Flexibility Score: inf
ROOT
ATOM      1  C   UNL A   1      37.704  23.779  25.466  1.00  0.00     0.188 C 
ENDROOT
BRANCH   1   2
ATOM      2  O   UNL A   1      38.104  23.542  26.813  1.00  0.00    -0.377 OA
BRANCH   2   3
ATOM      3  C   UNL A   1      39.484  23.259  27.032  1.00  0.00     0.188 C 
BRANCH   3   4
ATOM      4  C   UNL A   1      39.943  21.862  26.613  1.00  0.00     0.188 C 
BRANCH   4   5
ATOM      5  O   UNL A   1      41.134  21.919  25.826  1.00  0.00    -0.376 OA
BRANCH   5   6
ATOM      6  C   UNL A   1      42.350  21.725  26.549  1.00  0.00     0.202 C 
BRANCH   6   7
ATOM      7  C   UNL A   1      43.205  22.986  26.698  1.00  0.00     0.261 C 
BRANCH   7   8
ATOM      8  O   UNL A   1      42.608  24.120  26.054  1.00  0.00    -0.460 OA
BRANCH   8   9
ATOM      9  C   UNL A   1      43.003  25.416  26.122  1.00  0.00     0.338 C 
ATOM     10  O   UNL A   1      43.756  25.833  25.241  1.00  0.00    -0.246 OA
BRANCH   9  11
ATOM     11  C   UNL A   1      42.578  26.380  27.192  1.00  0.00     0.060 A 
ATOM     12  C   UNL A   1      42.997  27.707  27.318  1.00  0.00     0.016 A 
ATOM     13  C   UNL A   1      41.633  25.907  28.120  1.00  0.00     0.016 A 
ATOM     14  C   UNL A   1      42.575  28.513  28.366  1.00  0.00     0.010 A 
ATOM     15  C   UNL A   1      41.184  26.715  29.170  1.00  0.00     0.010 A 
ATOM     16  C   UNL A   1      41.694  28.008  29.313  1.00  0.00    -0.014 A 
BRANCH  16  17
ATOM     17  C   UNL A   1      41.513  28.778  30.556  1.00  0.00     0.031 A 
ATOM     18  C   UNL A   1      40.355  29.729  30.610  1.00  0.00     0.074 A 
ATOM     19  C   UNL A   1      42.273  28.518  31.632  1.00  0.00     0.049 A 
ATOM     20  N   UNL A   1      40.009  30.563  31.550  1.00  0.00    -0.248 NA
ATOM     21  C   UNL A   1      39.452  29.728  29.444  1.00  0.00     0.031 C 
ATOM     22  C   UNL A   1      43.321  27.496  31.699  1.00  0.00     0.029 A 
ATOM     23  N   UNL A   1      42.264  29.070  32.884  1.00  0.00    -0.354 N 
ATOM     24  C   UNL A   1      38.873  31.207  31.075  1.00  0.00     0.074 A 
ATOM     25  C   UNL A   1      38.584  30.671  29.767  1.00  0.00     0.031 C 
ATOM     26  C   UNL A   1      43.853  27.496  32.933  1.00  0.00     0.029 A 
ATOM     27  C   UNL A   1      43.227  28.555  33.718  1.00  0.00     0.049 A 
ATOM     28  H   UNL A   1      41.628  29.770  33.161  1.00  0.00     0.167 HD
ATOM     29  C   UNL A   1      38.146  32.171  31.685  1.00  0.00     0.037 A 
ATOM     30  C   UNL A   1      43.579  28.936  34.961  1.00  0.00     0.037 A 
ATOM     31  C   UNL A   1      38.471  32.679  32.989  1.00  0.00     0.049 A 
ATOM     32  C   UNL A   1      42.819  30.079  35.584  1.00  0.00     0.074 A 
ATOM     33  C   UNL A   1      37.872  33.702  33.695  1.00  0.00     0.029 A 
ATOM     34  N   UNL A   1      39.498  32.183  33.785  1.00  0.00    -0.354 N 
ATOM     35  N   UNL A   1      41.799  30.751  35.097  1.00  0.00    -0.248 NA
ATOM     36  C   UNL A   1      43.261  30.530  36.908  1.00  0.00     0.031 C 
ATOM     37  C   UNL A   1      38.565  33.854  34.902  1.00  0.00     0.029 A 
ATOM     38  C   UNL A   1      39.562  32.890  34.970  1.00  0.00     0.049 A 
ATOM     39  H   UNL A   1      40.093  31.438  33.538  1.00  0.00     0.167 HD
ATOM     40  C   UNL A   1      41.465  31.693  36.062  1.00  0.00     0.074 A 
ATOM     41  C   UNL A   1      42.386  31.494  37.166  1.00  0.00     0.031 C 
ATOM     42  C   UNL A   1      40.494  32.641  36.044  1.00  0.00     0.037 A 
BRANCH  29  43
ATOM     43  C   UNL A   1      37.012  32.771  30.903  1.00  0.00     0.058 A 
ATOM     44  C   UNL A   1      37.219  33.728  29.897  1.00  0.00     0.135 A 
ATOM     45  C   UNL A   1      35.687  32.422  31.209  1.00  0.00     0.135 A 
ATOM     46  F   UNL A   1      38.463  34.126  29.588  1.00  0.00    -0.206 F 
ATOM     47  C   UNL A   1      36.152  34.344  29.246  1.00  0.00     0.059 A 
ATOM     48  C   UNL A   1      34.606  33.006  30.555  1.00  0.00     0.059 A 
ATOM     49  F   UNL A   1      35.430  31.526  32.174  1.00  0.00    -0.206 F 
ATOM     50  C   UNL A   1      34.848  33.980  29.588  1.00  0.00     0.060 A 
BRANCH  50  51
ATOM     51  S   UNL A   1      33.473  34.809  28.761  1.00  0.00     0.124 S 
ATOM     52  O   UNL A   1      33.079  33.805  27.777  1.00  0.00    -0.237 OA
ATOM     53  O   UNL A   1      32.534  35.026  29.856  1.00  0.00    -0.237 OA
ATOM     54  O   UNL A   1      34.085  36.017  28.215  1.00  0.00    -0.744 OA
ENDBRANCH  50  51
ENDBRANCH  29  43
BRANCH  30  55
ATOM     55  C   UNL A   1      44.720  28.279  35.656  1.00  0.00     0.058 A 
ATOM     56  C   UNL A   1      44.531  27.170  36.493  1.00  0.00     0.135 A 
ATOM     57  C   UNL A   1      46.036  28.741  35.481  1.00  0.00     0.135 A 
ATOM     58  F   UNL A   1      43.296  26.692  36.704  1.00  0.00    -0.206 F 
ATOM     59  C   UNL A   1      45.599  26.550  37.139  1.00  0.00     0.059 A 
ATOM     60  C   UNL A   1      47.122  28.122  36.093  1.00  0.00     0.059 A 
ATOM     61  F   UNL A   1      46.280  29.795  34.686  1.00  0.00    -0.206 F 
ATOM     62  C   UNL A   1      46.893  27.032  36.930  1.00  0.00     0.060 A 
BRANCH  62  63
ATOM     63  S   UNL A   1      48.278  26.195  37.733  1.00  0.00     0.124 S 
ATOM     64  O   UNL A   1      48.586  25.145  36.769  1.00  0.00    -0.237 OA
ATOM     65  O   UNL A   1      49.262  27.266  37.847  1.00  0.00    -0.237 OA
ATOM     66  O   UNL A   1      47.708  25.742  38.998  1.00  0.00    -0.744 OA
ENDBRANCH  62  63
ENDBRANCH  30  55
BRANCH  42  67
ATOM     67  C   UNL A   1      40.359  33.501  37.265  1.00  0.00     0.058 A 
ATOM     68  C   UNL A   1      41.166  34.632  37.459  1.00  0.00     0.135 A 
ATOM     69  C   UNL A   1      39.355  33.231  38.207  1.00  0.00     0.135 A 
ATOM     70  F   UNL A   1      42.142  34.925  36.586  1.00  0.00    -0.206 F 
ATOM     71  C   UNL A   1      40.990  35.461  38.560  1.00  0.00     0.059 A 
ATOM     72  C   UNL A   1      39.145  34.061  39.301  1.00  0.00     0.059 A 
ATOM     73  F   UNL A   1      38.551  32.166  38.054  1.00  0.00    -0.206 F 
ATOM     74  C   UNL A   1      39.974  35.169  39.473  1.00  0.00     0.060 A 
BRANCH  74  75
ATOM     75  S   UNL A   1      39.722  36.282  40.870  1.00  0.00     0.124 S 
ATOM     76  O   UNL A   1      40.700  35.778  41.828  1.00  0.00    -0.237 OA
ATOM     77  O   UNL A   1      40.018  37.587  40.288  1.00  0.00    -0.237 OA
ATOM     78  O   UNL A   1      38.323  36.067  41.228  1.00  0.00    -0.744 OA
ENDBRANCH  74  75
ENDBRANCH  42  67
ENDBRANCH  16  17
ENDBRANCH   9  11
ENDBRANCH   8   9
ENDBRANCH   7   8
ENDBRANCH   6   7
ENDBRANCH   5   6
ENDBRANCH   4   5
ENDBRANCH   3   4
ENDBRANCH   2   3
ENDBRANCH   1   2
BRANCH   1  79
ATOM     79  C   UNL A   1      36.254  23.454  25.040  1.00  0.00     0.188 C 
BRANCH  79  80
ATOM     80  O   UNL A   1      36.040  22.123  24.591  1.00  0.00    -0.376 OA
BRANCH  80  81
ATOM     81  C   UNL A   1      35.585  21.205  25.581  1.00  0.00     0.202 C 
BRANCH  81  82
ATOM     82  C   UNL A   1      35.031  19.893  25.008  1.00  0.00     0.261 C 
BRANCH  82  83
ATOM     83  O   UNL A   1      33.921  20.053  24.106  1.00  0.00    -0.460 OA
BRANCH  83  84
ATOM     84  C   UNL A   1      32.681  20.048  24.640  1.00  0.00     0.339 C 
ATOM     85  O   UNL A   1      32.197  19.208  25.377  1.00  0.00    -0.246 OA
BRANCH  84  86
ATOM     86  C   UNL A   1      32.070  21.359  24.372  1.00  0.00     0.078 A 
ATOM     87  C   UNL A   1      32.087  21.971  23.117  1.00  0.00     0.019 A 
ATOM     88  C   UNL A   1      31.580  22.076  25.450  1.00  0.00     0.127 A 
ATOM     89  C   UNL A   1      31.613  23.278  22.991  1.00  0.00     0.031 A 
ATOM     90  N   UNL A   1      31.111  23.341  25.349  1.00  0.00    -0.254 NA
ATOM     91  C   UNL A   1      31.130  23.934  24.122  1.00  0.00     0.094 A 
BRANCH  91  92
ATOM     92  C   UNL A   1      30.579  25.353  24.020  1.00  0.00     0.318 C 
BRANCH  92  93
ATOM     93  N   UNL A   1      31.177  26.218  25.033  1.00  0.00    -0.337 N 
ATOM     94  H   UNL A   1      31.866  25.666  25.545  1.00  0.00     0.346 HD
ATOM     95  H   UNL A   1      30.399  26.551  25.601  1.00  0.00     0.346 HD
BRANCH  93  96
ATOM     96  C   UNL A   1      31.845  27.419  24.543  1.00  0.00     0.211 C 
ATOM     97  C   UNL A   1      33.358  27.165  24.684  1.00  0.00     0.068 C 
ATOM     98  C   UNL A   1      31.456  28.710  25.314  1.00  0.00     0.172 C 
ATOM     99  C   UNL A   1      33.810  27.111  26.145  1.00  0.00     0.006 C 
ATOM    100  C   UNL A   1      31.937  28.702  26.772  1.00  0.00     0.038 C 
ATOM    101  C   UNL A   1      33.428  28.382  26.895  1.00  0.00     0.003 C 
BRANCH  98 102
ATOM    102  O   UNL A   1      32.019  29.843  24.638  1.00  0.00    -0.387 OA
ATOM    103  H   UNL A   1      31.663  30.658  25.023  1.00  0.00     0.211 HD
ENDBRANCH  98 102
ENDBRANCH  93  96
ENDBRANCH  92  93
ENDBRANCH  91  92
ENDBRANCH  84  86
ENDBRANCH  83  84
ENDBRANCH  82  83
ENDBRANCH  81  82
ENDBRANCH  80  81
ENDBRANCH  79  80
ENDBRANCH   1  79
TORSDOF 27
ENDMDL
MODEL 2
REMARK VINA RESULT:      -9.2      1.440      8.289
REMARK SMILES O=C(OCCOCCOCCOCCOC(=O)c1ccc(C[NH2+][C@@H]2CCCC[C@H]2O)nc1)c1ccc(-c2c3nc(c(-c4c(F)cc(S(=O)(=O)[O-])cc4F)c4ccc([nH]4)c(-c4c(F)cc(S(=O)(=O)[O-])cc4F)c4nc(c(-c5c(F)cc(S(=O)(=O)[O-])cc5F)c5ccc2[nH]5)C=C4)C=C3)cc1
REMARK SMILES IDX 10 1 9 2 8 3 7 4 6 5 5 6 4 7 3 8 2 9 1 10 33 11 34 12 98 13
REMARK SMILES IDX 35 14 97 15 36 16 37 17 38 18 91 19 39 20 96 21 90 22 92 23
REMARK SMILES IDX 40 24 95 25 89 26 88 27 41 29 75 30 54 31 74 32 55 33 58 34
REMARK SMILES IDX 73 35 93 36 56 37 57 38 72 40 94 41 59 42 42 43 43 44 52 45
REMARK SMILES IDX 44 46 45 47 51 48 53 49 46 50 47 51 48 52 49 53 50 54 76 55
REMARK SMILES IDX 77 56 86 57 78 58 79 59 85 60 87 61 80 62 81 63 82 64 83 65
REMARK SMILES IDX 84 66 60 67 61 68 70 69 62 70 63 71 69 72 71 73 64 74 65 75
REMARK SMILES IDX 66 76 67 77 68 78 11 79 12 80 13 81 14 82 15 83 16 84 17 85
REMARK SMILES IDX 18 86 19 87 32 88 20 89 31 90 21 91 22 92 23 93 24 96 25 97
REMARK SMILES IDX 29 98 26 99 28 100 27 101 30 102
REMARK H PARENT 92 28 58 39 23 94 23 95 30 103
REMARK Flexibility Score: inf
ROOT
ATOM      1  C   UNL A   1      40.944  20.367  27.370  1.00  0.00     0.188 C 
ENDROOT
BRANCH   1   2
ATOM      2  O   UNL A   1      42.127  19.628  27.081  1.00  0.00    -0.377 OA
BRANCH   2   3
ATOM      3  C   UNL A   1      42.424  19.402  25.704  1.00  0.00     0.188 C 
BRANCH   3   4
ATOM      4  C   UNL A   1      43.909  19.286  25.362  1.00  0.00     0.188 C 
BRANCH   4   5
ATOM      5  O   UNL A   1      44.366  20.426  24.632  1.00  0.00    -0.376 OA
BRANCH   5   6
ATOM      6  C   UNL A   1      43.706  21.653  24.945  1.00  0.00     0.202 C 
BRANCH   6   7
ATOM      7  C   UNL A   1      44.467  22.548  25.926  1.00  0.00     0.261 C 
BRANCH   7   8
ATOM      8  O   UNL A   1      43.585  23.395  26.676  1.00  0.00    -0.460 OA
BRANCH   8   9
ATOM      9  C   UNL A   1      43.022  24.564  26.282  1.00  0.00     0.338 C 
ATOM     10  O   UNL A   1      42.901  24.763  25.073  1.00  0.00    -0.246 OA
BRANCH   9  11
ATOM     11  C   UNL A   1      42.528  25.628  27.218  1.00  0.00     0.060 A 
ATOM     12  C   UNL A   1      42.904  26.974  27.208  1.00  0.00     0.016 A 
ATOM     13  C   UNL A   1      41.559  25.233  28.159  1.00  0.00     0.016 A 
ATOM     14  C   UNL A   1      42.418  27.879  28.142  1.00  0.00     0.010 A 
ATOM     15  C   UNL A   1      41.046  26.139  29.092  1.00  0.00     0.010 A 
ATOM     16  C   UNL A   1      41.513  27.456  29.107  1.00  0.00    -0.014 A 
BRANCH  16  17
ATOM     17  C   UNL A   1      41.262  28.355  30.245  1.00  0.00     0.031 A 
ATOM     18  C   UNL A   1      42.210  28.274  31.404  1.00  0.00     0.074 A 
ATOM     19  C   UNL A   1      40.310  29.300  30.168  1.00  0.00     0.049 A 
ATOM     20  N   UNL A   1      42.182  28.902  32.546  1.00  0.00    -0.248 NA
ATOM     21  C   UNL A   1      43.361  27.365  31.245  1.00  0.00     0.031 C 
ATOM     22  C   UNL A   1      39.448  29.537  29.008  1.00  0.00     0.029 A 
ATOM     23  N   UNL A   1      39.926  30.253  31.071  1.00  0.00    -0.354 N 
ATOM     24  C   UNL A   1      43.286  28.440  33.251  1.00  0.00     0.074 A 
ATOM     25  C   UNL A   1      43.967  27.482  32.415  1.00  0.00     0.031 C 
ATOM     26  C   UNL A   1      38.635  30.573  29.271  1.00  0.00     0.029 A 
ATOM     27  C   UNL A   1      38.878  31.029  30.636  1.00  0.00     0.049 A 
ATOM     28  H   UNL A   1      40.358  30.373  31.947  1.00  0.00     0.167 HD
ATOM     29  C   UNL A   1      43.683  28.787  34.497  1.00  0.00     0.037 A 
ATOM     30  C   UNL A   1      38.176  31.971  31.295  1.00  0.00     0.037 A 
ATOM     31  C   UNL A   1      42.974  29.745  35.298  1.00  0.00     0.049 A 
ATOM     32  C   UNL A   1      38.575  32.273  32.717  1.00  0.00     0.074 A 
ATOM     33  C   UNL A   1      43.215  30.137  36.599  1.00  0.00     0.029 A 
ATOM     34  N   UNL A   1      41.871  30.468  34.855  1.00  0.00    -0.354 N 
ATOM     35  N   UNL A   1      39.567  31.770  33.418  1.00  0.00    -0.248 NA
ATOM     36  C   UNL A   1      37.757  33.249  33.446  1.00  0.00     0.031 C 
ATOM     37  C   UNL A   1      42.231  31.066  36.958  1.00  0.00     0.029 A 
ATOM     38  C   UNL A   1      41.410  31.293  35.862  1.00  0.00     0.049 A 
ATOM     39  H   UNL A   1      41.478  30.400  33.955  1.00  0.00     0.167 HD
ATOM     40  C   UNL A   1      39.504  32.380  34.664  1.00  0.00     0.074 A 
ATOM     41  C   UNL A   1      38.382  33.300  34.615  1.00  0.00     0.031 C 
ATOM     42  C   UNL A   1      40.292  32.200  35.754  1.00  0.00     0.037 A 
BRANCH  29  43
ATOM     43  C   UNL A   1      44.869  28.060  35.065  1.00  0.00     0.058 A 
ATOM     44  C   UNL A   1      46.181  28.535  34.916  1.00  0.00     0.135 A 
ATOM     45  C   UNL A   1      44.690  26.832  35.723  1.00  0.00     0.135 A 
ATOM     46  F   UNL A   1      46.415  29.685  34.264  1.00  0.00    -0.206 F 
ATOM     47  C   UNL A   1      47.277  27.802  35.366  1.00  0.00     0.059 A 
ATOM     48  C   UNL A   1      45.768  26.094  36.203  1.00  0.00     0.059 A 
ATOM     49  F   UNL A   1      43.458  26.322  35.879  1.00  0.00    -0.206 F 
ATOM     50  C   UNL A   1      47.059  26.578  36.003  1.00  0.00     0.060 A 
BRANCH  50  51
ATOM     51  S   UNL A   1      48.489  25.621  36.552  1.00  0.00     0.124 S 
ATOM     52  O   UNL A   1      48.527  24.556  35.553  1.00  0.00    -0.237 OA
ATOM     53  O   UNL A   1      49.568  26.599  36.476  1.00  0.00    -0.237 OA
ATOM     54  O   UNL A   1      48.119  25.203  37.901  1.00  0.00    -0.744 OA
ENDBRANCH  50  51
ENDBRANCH  29  43
BRANCH  30  55
ATOM     55  C   UNL A   1      37.015  32.638  30.645  1.00  0.00     0.058 A 
ATOM     56  C   UNL A   1      35.695  32.263  30.933  1.00  0.00     0.135 A 
ATOM     57  C   UNL A   1      37.203  33.685  29.727  1.00  0.00     0.135 A 
ATOM     58  F   UNL A   1      35.455  31.263  31.796  1.00  0.00    -0.206 F 
ATOM     59  C   UNL A   1      34.606  32.891  30.331  1.00  0.00     0.059 A 
ATOM     60  C   UNL A   1      36.133  34.346  29.132  1.00  0.00     0.059 A 
ATOM     61  F   UNL A   1      38.444  34.093  29.415  1.00  0.00    -0.206 F 
ATOM     62  C   UNL A   1      34.836  33.935  29.432  1.00  0.00     0.060 A 
BRANCH  62  63
ATOM     63  S   UNL A   1      33.419  34.776  28.690  1.00  0.00     0.124 S 
ATOM     64  O   UNL A   1      33.001  33.810  27.680  1.00  0.00    -0.237 OA
ATOM     65  O   UNL A   1      32.523  34.935  29.831  1.00  0.00    -0.237 OA
ATOM     66  O   UNL A   1      33.995  36.015  28.178  1.00  0.00    -0.744 OA
ENDBRANCH  62  63
ENDBRANCH  30  55
BRANCH  42  67
ATOM     67  C   UNL A   1      39.988  33.039  36.960  1.00  0.00     0.058 A 
ATOM     68  C   UNL A   1      38.954  32.705  37.846  1.00  0.00     0.135 A 
ATOM     69  C   UNL A   1      40.797  34.143  37.270  1.00  0.00     0.135 A 
ATOM     70  F   UNL A   1      38.152  31.659  37.586  1.00  0.00    -0.206 F 
ATOM     71  C   UNL A   1      38.721  33.449  38.995  1.00  0.00     0.059 A 
ATOM     72  C   UNL A   1      40.599  34.886  38.427  1.00  0.00     0.059 A 
ATOM     73  F   UNL A   1      41.807  34.492  36.457  1.00  0.00    -0.206 F 
ATOM     74  C   UNL A   1      39.552  34.535  39.279  1.00  0.00     0.060 A 
BRANCH  74  75
ATOM     75  S   UNL A   1      39.273  35.462  40.801  1.00  0.00     0.124 S 
ATOM     76  O   UNL A   1      38.917  36.779  40.282  1.00  0.00    -0.237 OA
ATOM     77  O   UNL A   1      38.189  34.714  41.430  1.00  0.00    -0.237 OA
ATOM     78  O   UNL A   1      40.559  35.383  41.488  1.00  0.00    -0.744 OA
ENDBRANCH  74  75
ENDBRANCH  42  67
ENDBRANCH  16  17
ENDBRANCH   9  11
ENDBRANCH   8   9
ENDBRANCH   7   8
ENDBRANCH   6   7
ENDBRANCH   5   6
ENDBRANCH   4   5
ENDBRANCH   3   4
ENDBRANCH   2   3
ENDBRANCH   1   2
BRANCH   1  79
ATOM     79  C   UNL A   1      40.618  21.627  26.537  1.00  0.00     0.188 C 
BRANCH  79  80
ATOM     80  O   UNL A   1      39.245  21.805  26.219  1.00  0.00    -0.376 OA
BRANCH  80  81
ATOM     81  C   UNL A   1      38.659  20.776  25.426  1.00  0.00     0.202 C 
BRANCH  81  82
ATOM     82  C   UNL A   1      37.280  21.137  24.856  1.00  0.00     0.261 C 
BRANCH  82  83
ATOM     83  O   UNL A   1      36.393  21.777  25.792  1.00  0.00    -0.460 OA
BRANCH  83  84
ATOM     84  C   UNL A   1      35.075  21.776  25.499  1.00  0.00     0.339 C 
ATOM     85  O   UNL A   1      34.228  21.000  25.905  1.00  0.00    -0.246 OA
BRANCH  84  86
ATOM     86  C   UNL A   1      34.773  23.024  24.781  1.00  0.00     0.078 A 
ATOM     87  C   UNL A   1      34.375  24.199  25.419  1.00  0.00     0.019 A 
ATOM     88  C   UNL A   1      34.751  22.984  23.397  1.00  0.00     0.127 A 
ATOM     89  C   UNL A   1      33.968  25.290  24.648  1.00  0.00     0.031 A 
ATOM     90  N   UNL A   1      34.366  24.029  22.630  1.00  0.00    -0.254 NA
ATOM     91  C   UNL A   1      33.977  25.174  23.259  1.00  0.00     0.094 A 
BRANCH  91  92
ATOM     92  C   UNL A   1      33.566  26.352  22.380  1.00  0.00     0.318 C 
BRANCH  92  93
ATOM     93  N   UNL A   1      33.402  27.564  23.178  1.00  0.00    -0.337 N 
ATOM     94  H   UNL A   1      34.189  28.179  22.974  1.00  0.00     0.346 HD
ATOM     95  H   UNL A   1      33.355  27.248  24.147  1.00  0.00     0.346 HD
BRANCH  93  96
ATOM     96  C   UNL A   1      32.174  28.321  22.955  1.00  0.00     0.211 C 
ATOM     97  C   UNL A   1      31.758  28.890  24.325  1.00  0.00     0.068 C 
ATOM     98  C   UNL A   1      31.014  27.474  22.365  1.00  0.00     0.172 C 
ATOM     99  C   UNL A   1      31.300  27.801  25.298  1.00  0.00     0.006 C 
ATOM    100  C   UNL A   1      30.504  26.401  23.338  1.00  0.00     0.038 C 
ATOM    101  C   UNL A   1      30.159  26.975  24.714  1.00  0.00     0.003 C 
BRANCH  98 102
ATOM    102  O   UNL A   1      29.932  28.347  22.015  1.00  0.00    -0.387 OA
ATOM    103  H   UNL A   1      30.262  29.058  21.444  1.00  0.00     0.211 HD
ENDBRANCH  98 102
ENDBRANCH  93  96
ENDBRANCH  92  93
ENDBRANCH  91  92
ENDBRANCH  84  86
ENDBRANCH  83  84
ENDBRANCH  82  83
ENDBRANCH  81  82
ENDBRANCH  80  81
ENDBRANCH  79  80
ENDBRANCH   1  79
TORSDOF 27
ENDMDL
MODEL 3
REMARK VINA RESULT:      -9.1      1.220      2.350
REMARK SMILES O=C(OCCOCCOCCOCCOC(=O)c1ccc(C[NH2+][C@@H]2CCCC[C@H]2O)nc1)c1ccc(-c2c3nc(c(-c4c(F)cc(S(=O)(=O)[O-])cc4F)c4ccc([nH]4)c(-c4c(F)cc(S(=O)(=O)[O-])cc4F)c4nc(c(-c5c(F)cc(S(=O)(=O)[O-])cc5F)c5ccc2[nH]5)C=C4)C=C3)cc1
REMARK SMILES IDX 10 1 9 2 8 3 7 4 6 5 5 6 4 7 3 8 2 9 1 10 33 11 34 12 98 13
REMARK SMILES IDX 35 14 97 15 36 16 37 17 38 18 91 19 39 20 96 21 90 22 92 23
REMARK SMILES IDX 40 24 95 25 89 26 88 27 41 29 75 30 54 31 74 32 55 33 58 34
REMARK SMILES IDX 73 35 93 36 56 37 57 38 72 40 94 41 59 42 42 43 43 44 52 45
REMARK SMILES IDX 44 46 45 47 51 48 53 49 46 50 47 51 48 52 49 53 50 54 76 55
REMARK SMILES IDX 77 56 86 57 78 58 79 59 85 60 87 61 80 62 81 63 82 64 83 65
REMARK SMILES IDX 84 66 60 67 61 68 70 69 62 70 63 71 69 72 71 73 64 74 65 75
REMARK SMILES IDX 66 76 67 77 68 78 11 79 12 80 13 81 14 82 15 83 16 84 17 85
REMARK SMILES IDX 18 86 19 87 32 88 20 89 31 90 21 91 22 92 23 93 24 96 25 97
REMARK SMILES IDX 29 98 26 99 28 100 27 101 30 102
REMARK H PARENT 92 28 58 39 23 94 23 95 30 103
REMARK Flexibility Score: inf
ROOT
ATOM      1  C   UNL A   1      41.454  20.614  26.940  1.00  0.00     0.188 C 
ENDROOT
BRANCH   1   2
ATOM      2  O   UNL A   1      42.857  20.808  26.787  1.00  0.00    -0.377 OA
BRANCH   2   3
ATOM      3  C   UNL A   1      43.435  20.371  25.558  1.00  0.00     0.188 C 
BRANCH   3   4
ATOM      4  C   UNL A   1      44.365  21.374  24.876  1.00  0.00     0.188 C 
BRANCH   4   5
ATOM      5  O   UNL A   1      43.629  22.436  24.266  1.00  0.00    -0.376 OA
BRANCH   5   6
ATOM      6  C   UNL A   1      43.524  23.628  25.045  1.00  0.00     0.202 C 
BRANCH   6   7
ATOM      7  C   UNL A   1      44.786  23.980  25.836  1.00  0.00     0.261 C 
BRANCH   7   8
ATOM      8  O   UNL A   1      44.530  24.965  26.847  1.00  0.00    -0.460 OA
BRANCH   8   9
ATOM      9  C   UNL A   1      44.217  26.273  26.672  1.00  0.00     0.338 C 
ATOM     10  O   UNL A   1      44.460  26.779  25.576  1.00  0.00    -0.246 OA
BRANCH   9  11
ATOM     11  C   UNL A   1      43.587  27.145  27.719  1.00  0.00     0.060 A 
ATOM     12  C   UNL A   1      43.776  28.521  27.868  1.00  0.00     0.016 A 
ATOM     13  C   UNL A   1      42.686  26.515  28.598  1.00  0.00     0.016 A 
ATOM     14  C   UNL A   1      43.175  29.237  28.895  1.00  0.00     0.010 A 
ATOM     15  C   UNL A   1      42.059  27.228  29.624  1.00  0.00     0.010 A 
ATOM     16  C   UNL A   1      42.342  28.587  29.795  1.00  0.00    -0.014 A 
BRANCH  16  17
ATOM     17  C   UNL A   1      41.976  29.305  31.027  1.00  0.00     0.031 A 
ATOM     18  C   UNL A   1      40.717  30.119  30.996  1.00  0.00     0.074 A 
ATOM     19  C   UNL A   1      42.670  29.108  32.160  1.00  0.00     0.049 A 
ATOM     20  N   UNL A   1      40.203  30.888  31.915  1.00  0.00    -0.248 NA
ATOM     21  C   UNL A   1      39.918  30.042  29.759  1.00  0.00     0.031 C 
ATOM     22  C   UNL A   1      43.818  28.209  32.301  1.00  0.00     0.029 A 
ATOM     23  N   UNL A   1      42.497  29.629  33.413  1.00  0.00    -0.354 N 
ATOM     24  C   UNL A   1      39.044  31.412  31.355  1.00  0.00     0.074 A 
ATOM     25  C   UNL A   1      38.925  30.875  30.021  1.00  0.00     0.031 C 
ATOM     26  C   UNL A   1      44.245  28.242  33.574  1.00  0.00     0.029 A 
ATOM     27  C   UNL A   1      43.442  29.207  34.318  1.00  0.00     0.049 A 
ATOM     28  H   UNL A   1      41.766  30.247  33.645  1.00  0.00     0.167 HD
ATOM     29  C   UNL A   1      38.166  32.276  31.914  1.00  0.00     0.037 A 
ATOM     30  C   UNL A   1      43.647  29.599  35.590  1.00  0.00     0.037 A 
ATOM     31  C   UNL A   1      38.324  32.789  33.246  1.00  0.00     0.049 A 
ATOM     32  C   UNL A   1      42.714  30.635  36.161  1.00  0.00     0.074 A 
ATOM     33  C   UNL A   1      37.559  33.723  33.913  1.00  0.00     0.029 A 
ATOM     34  N   UNL A   1      39.334  32.394  34.118  1.00  0.00    -0.354 N 
ATOM     35  N   UNL A   1      41.668  31.200  35.600  1.00  0.00    -0.248 NA
ATOM     36  C   UNL A   1      42.993  31.105  37.523  1.00  0.00     0.031 C 
ATOM     37  C   UNL A   1      38.130  33.926  35.174  1.00  0.00     0.029 A 
ATOM     38  C   UNL A   1      39.220  33.078  35.313  1.00  0.00     0.049 A 
ATOM     39  H   UNL A   1      40.027  31.725  33.913  1.00  0.00     0.167 HD
ATOM     40  C   UNL A   1      41.152  32.078  36.545  1.00  0.00     0.074 A 
ATOM     41  C   UNL A   1      41.997  31.959  37.719  1.00  0.00     0.031 C 
ATOM     42  C   UNL A   1      40.085  32.911  36.458  1.00  0.00     0.037 A 
BRANCH  29  43
ATOM     43  C   UNL A   1      37.038  32.762  31.048  1.00  0.00     0.058 A 
ATOM     44  C   UNL A   1      35.753  32.201  31.107  1.00  0.00     0.135 A 
ATOM     45  C   UNL A   1      37.266  33.772  30.100  1.00  0.00     0.135 A 
ATOM     46  F   UNL A   1      35.488  31.206  31.970  1.00  0.00    -0.206 F 
ATOM     47  C   UNL A   1      34.743  32.597  30.233  1.00  0.00     0.059 A 
ATOM     48  C   UNL A   1      36.266  34.202  29.233  1.00  0.00     0.059 A 
ATOM     49  F   UNL A   1      38.481  34.332  29.988  1.00  0.00    -0.206 F 
ATOM     50  C   UNL A   1      35.013  33.595  29.294  1.00  0.00     0.060 A 
BRANCH  50  51
ATOM     51  S   UNL A   1      33.707  34.078  28.144  1.00  0.00     0.124 S 
ATOM     52  O   UNL A   1      33.282  32.780  27.627  1.00  0.00    -0.237 OA
ATOM     53  O   UNL A   1      32.755  34.754  29.018  1.00  0.00    -0.237 OA
ATOM     54  O   UNL A   1      34.397  34.938  27.188  1.00  0.00    -0.744 OA
ENDBRANCH  50  51
ENDBRANCH  29  43
BRANCH  30  55
ATOM     55  C   UNL A   1      44.795  29.058  36.369  1.00  0.00     0.058 A 
ATOM     56  C   UNL A   1      46.052  29.679  36.353  1.00  0.00     0.135 A 
ATOM     57  C   UNL A   1      44.651  27.909  37.164  1.00  0.00     0.135 A 
ATOM     58  F   UNL A   1      46.250  30.775  35.604  1.00  0.00    -0.206 F 
ATOM     59  C   UNL A   1      47.125  29.178  37.087  1.00  0.00     0.059 A 
ATOM     60  C   UNL A   1      45.700  27.405  37.927  1.00  0.00     0.059 A 
ATOM     61  F   UNL A   1      43.470  27.275  37.225  1.00  0.00    -0.206 F 
ATOM     62  C   UNL A   1      46.938  28.040  37.875  1.00  0.00     0.060 A 
BRANCH  62  63
ATOM     63  S   UNL A   1      48.322  27.423  38.860  1.00  0.00     0.124 S 
ATOM     64  O   UNL A   1      47.633  26.871  40.021  1.00  0.00    -0.237 OA
ATOM     65  O   UNL A   1      48.932  26.451  37.958  1.00  0.00    -0.237 OA
ATOM     66  O   UNL A   1      49.118  28.621  39.108  1.00  0.00    -0.744 OA
ENDBRANCH  62  63
ENDBRANCH  30  55
BRANCH  42  67
ATOM     67  C   UNL A   1      39.755  33.725  37.674  1.00  0.00     0.058 A 
ATOM     68  C   UNL A   1      38.785  33.306  38.596  1.00  0.00     0.135 A 
ATOM     69  C   UNL A   1      40.476  34.896  37.954  1.00  0.00     0.135 A 
ATOM     70  F   UNL A   1      38.068  32.195  38.367  1.00  0.00    -0.206 F 
ATOM     71  C   UNL A   1      38.531  34.032  39.754  1.00  0.00     0.059 A 
ATOM     72  C   UNL A   1      40.257  35.622  39.117  1.00  0.00     0.059 A 
ATOM     73  F   UNL A   1      41.422  35.327  37.104  1.00  0.00    -0.206 F 
ATOM     74  C   UNL A   1      39.276  35.186  40.007  1.00  0.00     0.060 A 
BRANCH  74  75
ATOM     75  S   UNL A   1      38.974  36.090  41.538  1.00  0.00     0.124 S 
ATOM     76  O   UNL A   1      38.784  37.450  41.043  1.00  0.00    -0.237 OA
ATOM     77  O   UNL A   1      37.781  35.432  42.060  1.00  0.00    -0.237 OA
ATOM     78  O   UNL A   1      40.192  35.867  42.311  1.00  0.00    -0.744 OA
ENDBRANCH  74  75
ENDBRANCH  42  67
ENDBRANCH  16  17
ENDBRANCH   9  11
ENDBRANCH   8   9
ENDBRANCH   7   8
ENDBRANCH   6   7
ENDBRANCH   5   6
ENDBRANCH   4   5
ENDBRANCH   3   4
ENDBRANCH   2   3
ENDBRANCH   1   2
BRANCH   1  79
ATOM     79  C   UNL A   1      40.477  21.634  26.312  1.00  0.00     0.188 C 
BRANCH  79  80
ATOM     80  O   UNL A   1      39.187  21.126  26.004  1.00  0.00    -0.376 OA
BRANCH  80  81
ATOM     81  C   UNL A   1      38.244  22.086  25.533  1.00  0.00     0.202 C 
BRANCH  81  82
ATOM     82  C   UNL A   1      36.779  21.677  25.743  1.00  0.00     0.261 C 
BRANCH  82  83
ATOM     83  O   UNL A   1      36.066  21.357  24.534  1.00  0.00    -0.460 OA
BRANCH  83  84
ATOM     84  C   UNL A   1      34.742  21.119  24.639  1.00  0.00     0.339 C 
ATOM     85  O   UNL A   1      34.202  20.155  25.153  1.00  0.00    -0.246 OA
BRANCH  84  86
ATOM     86  C   UNL A   1      34.032  22.341  24.231  1.00  0.00     0.078 A 
ATOM     87  C   UNL A   1      34.263  22.994  23.019  1.00  0.00     0.019 A 
ATOM     88  C   UNL A   1      33.196  22.943  25.156  1.00  0.00     0.127 A 
ATOM     89  C   UNL A   1      33.651  24.227  22.782  1.00  0.00     0.031 A 
ATOM     90  N   UNL A   1      32.589  24.132  24.945  1.00  0.00    -0.254 NA
ATOM     91  C   UNL A   1      32.819  24.767  23.761  1.00  0.00     0.094 A 
BRANCH  91  92
ATOM     92  C   UNL A   1      32.110  26.098  23.528  1.00  0.00     0.318 C 
BRANCH  92  93
ATOM     93  N   UNL A   1      32.076  26.890  24.754  1.00  0.00    -0.337 N 
ATOM     94  H   UNL A   1      32.787  26.518  25.384  1.00  0.00     0.346 HD
ATOM     95  H   UNL A   1      31.121  26.809  25.104  1.00  0.00     0.346 HD
BRANCH  93  96
ATOM     96  C   UNL A   1      32.317  28.322  24.604  1.00  0.00     0.211 C 
ATOM     97  C   UNL A   1      33.806  28.548  24.931  1.00  0.00     0.068 C 
ATOM     98  C   UNL A   1      31.437  29.205  25.529  1.00  0.00     0.172 C 
ATOM     99  C   UNL A   1      34.124  28.315  26.409  1.00  0.00     0.006 C 
ATOM    100  C   UNL A   1      31.766  29.024  27.018  1.00  0.00     0.038 C 
ATOM    101  C   UNL A   1      33.258  29.188  27.312  1.00  0.00     0.003 C 
BRANCH  98 102
ATOM    102  O   UNL A   1      31.620  30.581  25.170  1.00  0.00    -0.387 OA
ATOM    103  H   UNL A   1      32.285  30.981  25.751  1.00  0.00     0.211 HD
ENDBRANCH  98 102
ENDBRANCH  93  96
ENDBRANCH  92  93
ENDBRANCH  91  92
ENDBRANCH  84  86
ENDBRANCH  83  84
ENDBRANCH  82  83
ENDBRANCH  81  82
ENDBRANCH  80  81
ENDBRANCH  79  80
ENDBRANCH   1  79
TORSDOF 27
ENDMDL
