MODEL 1
REMARK VINA RESULT:      -7.4      0.000      0.000
REMARK SMILES Cc1cc(C(=O)OCCOCCOCCOCCOC(=O)c2ccc(-c3c4nc(c(-c5c(F)cc(S(=O)(=O)[O-])cc5F)c5ccc([nH]5)c(-c5c(F)cc(S(=O)(=O)[O-])cc5F)c5nc(c(-c6c(F)cc(S(=O)(=O)[O-])cc6F)c6ccc3[nH]6)C=C5)C=C4)cc2)cc(S(=O)(=O)N[C@@H](C)CC(C)C)c1C
REMARK SMILES IDX 12 1 11 2 10 3 9 4 8 5 7 6 5 7 6 8 4 9 1 10 2 11 3 12 100 13
REMARK SMILES IDX 89 14 101 15 88 16 90 17 91 18 92 19 93 20 94 22 95 23 96 24
REMARK SMILES IDX 97 25 98 26 99 27 13 28 14 29 15 30 16 31 17 32 18 33 19 34
REMARK SMILES IDX 20 35 21 36 22 37 23 38 87 39 24 40 86 41 25 42 26 43 27 44
REMARK SMILES IDX 80 45 28 46 85 47 79 48 81 49 29 50 84 51 78 52 77 53 30 55
REMARK SMILES IDX 64 56 43 57 63 58 44 59 47 60 62 61 82 62 45 63 46 64 61 66
REMARK SMILES IDX 83 67 48 68 31 69 32 70 41 71 33 72 34 73 40 74 42 75 35 76
REMARK SMILES IDX 36 77 37 78 38 79 39 80 65 81 66 82 75 83 67 84 68 85 74 86
REMARK SMILES IDX 76 87 69 88 70 89 71 90 72 91 73 92 49 93 50 94 59 95 51 96
REMARK SMILES IDX 52 97 58 98 60 99 53 100 54 101 55 102 56 103 57 104
REMARK H PARENT 93 21 81 54 47 65
REMARK Flexibility Score: inf
ROOT
ATOM      1  C   UNL A   1      37.440  31.080  29.483  1.00  0.00     0.188 C 
ENDROOT
BRANCH   1   2
ATOM      2  C   UNL A   1      37.806  30.225  28.257  1.00  0.00     0.188 C 
BRANCH   2   3
ATOM      3  O   UNL A   1      36.734  29.926  27.380  1.00  0.00    -0.376 OA
BRANCH   3   4
ATOM      4  C   UNL A   1      35.458  29.697  27.955  1.00  0.00     0.202 C 
BRANCH   4   5
ATOM      5  C   UNL A   1      34.325  30.594  27.443  1.00  0.00     0.261 C 
BRANCH   5   6
ATOM      6  O   UNL A   1      33.397  29.951  26.556  1.00  0.00    -0.460 OA
BRANCH   6   7
ATOM      7  C   UNL A   1      32.975  28.710  26.884  1.00  0.00     0.338 C 
ATOM      8  O   UNL A   1      32.532  28.348  27.961  1.00  0.00    -0.246 OA
BRANCH   7   9
ATOM      9  C   UNL A   1      32.916  27.900  25.640  1.00  0.00     0.061 A 
ATOM     10  C   UNL A   1      31.011  27.875  22.357  1.00  0.00     0.044 C 
ATOM     11  C   UNL A   1      31.963  27.444  23.444  1.00  0.00    -0.046 A 
ATOM     12  C   UNL A   1      32.035  28.229  24.606  1.00  0.00     0.019 A 
ATOM     13  C   UNL A   1      32.803  26.311  23.314  1.00  0.00    -0.028 A 
ATOM     14  C   UNL A   1      33.613  25.931  24.416  1.00  0.00     0.086 A 
ATOM     15  C   UNL A   1      32.846  25.545  22.014  1.00  0.00     0.046 C 
ATOM     16  C   UNL A   1      33.699  26.746  25.550  1.00  0.00     0.037 A 
BRANCH  14  17
ATOM     17  S   UNL A   1      34.538  24.401  24.392  1.00  0.00     0.241 S 
ATOM     18  O   UNL A   1      34.964  24.124  23.046  1.00  0.00    -0.207 OA
ATOM     19  O   UNL A   1      35.500  24.494  25.477  1.00  0.00    -0.207 OA
BRANCH  17  20
ATOM     20  N   UNL A   1      33.480  23.179  24.858  1.00  0.00    -0.208 NA
ATOM     21  H   UNL A   1      33.015  23.531  25.695  1.00  0.00     0.141 HD
BRANCH  20  22
ATOM     22  C   UNL A   1      32.405  22.615  24.021  1.00  0.00     0.067 C 
ATOM     23  C   UNL A   1      32.324  21.090  24.117  1.00  0.00     0.025 C 
BRANCH  22  24
ATOM     24  C   UNL A   1      31.042  23.181  24.502  1.00  0.00     0.022 C 
BRANCH  24  25
ATOM     25  C   UNL A   1      31.002  23.853  25.890  1.00  0.00    -0.016 C 
ATOM     26  C   UNL A   1      30.327  25.214  25.859  1.00  0.00     0.007 C 
ATOM     27  C   UNL A   1      30.261  22.954  26.884  1.00  0.00     0.007 C 
ENDBRANCH  24  25
ENDBRANCH  22  24
ENDBRANCH  20  22
ENDBRANCH  17  20
ENDBRANCH  14  17
ENDBRANCH   7   9
ENDBRANCH   6   7
ENDBRANCH   5   6
ENDBRANCH   4   5
ENDBRANCH   3   4
ENDBRANCH   2   3
ENDBRANCH   1   2
BRANCH   1  28
ATOM     28  O   UNL A   1      37.203  32.467  29.325  1.00  0.00    -0.377 OA
BRANCH  28  29
ATOM     29  C   UNL A   1      36.154  33.090  30.056  1.00  0.00     0.188 C 
BRANCH  29  30
ATOM     30  C   UNL A   1      35.396  32.322  31.165  1.00  0.00     0.188 C 
BRANCH  30  31
ATOM     31  O   UNL A   1      35.269  33.018  32.398  1.00  0.00    -0.376 OA
BRANCH  31  32
ATOM     32  C   UNL A   1      35.949  32.456  33.509  1.00  0.00     0.202 C 
BRANCH  32  33
ATOM     33  C   UNL A   1      37.358  33.010  33.751  1.00  0.00     0.261 C 
BRANCH  33  34
ATOM     34  O   UNL A   1      38.435  32.198  33.259  1.00  0.00    -0.460 OA
BRANCH  34  35
ATOM     35  C   UNL A   1      39.299  32.774  32.393  1.00  0.00     0.338 C 
ATOM     36  O   UNL A   1      39.222  33.889  31.910  1.00  0.00    -0.246 OA
BRANCH  35  37
ATOM     37  C   UNL A   1      40.471  31.882  32.280  1.00  0.00     0.060 A 
ATOM     38  C   UNL A   1      40.273  30.496  32.208  1.00  0.00     0.016 A 
ATOM     39  C   UNL A   1      41.759  32.419  32.213  1.00  0.00     0.016 A 
ATOM     40  C   UNL A   1      41.369  29.641  32.093  1.00  0.00     0.010 A 
ATOM     41  C   UNL A   1      42.856  31.561  32.123  1.00  0.00     0.010 A 
ATOM     42  C   UNL A   1      42.668  30.168  32.093  1.00  0.00    -0.014 A 
BRANCH  42  43
ATOM     43  C   UNL A   1      43.832  29.268  32.271  1.00  0.00     0.031 A 
ATOM     44  C   UNL A   1      44.258  28.936  33.675  1.00  0.00     0.074 A 
ATOM     45  C   UNL A   1      44.493  28.751  31.220  1.00  0.00     0.049 A 
ATOM     46  N   UNL A   1      45.272  28.224  34.090  1.00  0.00    -0.248 NA
ATOM     47  C   UNL A   1      43.426  29.488  34.759  1.00  0.00     0.031 C 
ATOM     48  C   UNL A   1      44.154  28.971  29.814  1.00  0.00     0.029 A 
ATOM     49  N   UNL A   1      45.601  27.942  31.176  1.00  0.00    -0.354 N 
ATOM     50  C   UNL A   1      45.204  28.246  35.478  1.00  0.00     0.074 A 
ATOM     51  C   UNL A   1      44.069  29.065  35.837  1.00  0.00     0.031 C 
ATOM     52  C   UNL A   1      45.047  28.322  29.045  1.00  0.00     0.029 A 
ATOM     53  C   UNL A   1      46.038  27.669  29.901  1.00  0.00     0.049 A 
ATOM     54  H   UNL A   1      46.041  27.588  31.983  1.00  0.00     0.167 HD
ATOM     55  C   UNL A   1      46.010  27.629  36.374  1.00  0.00     0.037 A 
ATOM     56  C   UNL A   1      47.125  26.994  29.478  1.00  0.00     0.037 A 
ATOM     57  C   UNL A   1      47.143  26.819  36.012  1.00  0.00     0.049 A 
ATOM     58  C   UNL A   1      48.053  26.377  30.498  1.00  0.00     0.074 A 
ATOM     59  C   UNL A   1      48.014  26.138  36.843  1.00  0.00     0.029 A 
ATOM     60  N   UNL A   1      47.567  26.587  34.711  1.00  0.00    -0.354 N 
ATOM     61  N   UNL A   1      47.962  26.378  31.807  1.00  0.00    -0.248 NA
ATOM     62  C   UNL A   1      49.232  25.665  29.982  1.00  0.00     0.031 C 
ATOM     63  C   UNL A   1      48.997  25.539  36.049  1.00  0.00     0.029 A 
ATOM     64  C   UNL A   1      48.703  25.797  34.719  1.00  0.00     0.049 A 
ATOM     65  H   UNL A   1      47.126  26.934  33.903  1.00  0.00     0.167 HD
ATOM     66  C   UNL A   1      49.051  25.644  32.267  1.00  0.00     0.074 A 
ATOM     67  C   UNL A   1      49.782  25.206  31.098  1.00  0.00     0.031 C 
ATOM     68  C   UNL A   1      49.415  25.359  33.544  1.00  0.00     0.037 A 
BRANCH  55  69
ATOM     69  C   UNL A   1      45.710  27.828  37.832  1.00  0.00     0.058 A 
ATOM     70  C   UNL A   1      46.166  28.956  38.535  1.00  0.00     0.135 A 
ATOM     71  C   UNL A   1      44.928  26.894  38.531  1.00  0.00     0.135 A 
ATOM     72  F   UNL A   1      46.936  29.868  37.921  1.00  0.00    -0.206 F 
ATOM     73  C   UNL A   1      45.874  29.140  39.881  1.00  0.00     0.059 A 
ATOM     74  C   UNL A   1      44.600  27.073  39.871  1.00  0.00     0.059 A 
ATOM     75  F   UNL A   1      44.473  25.795  37.910  1.00  0.00    -0.206 F 
ATOM     76  C   UNL A   1      45.087  28.193  40.541  1.00  0.00     0.060 A 
BRANCH  76  77
ATOM     77  S   UNL A   1      44.706  28.456  42.285  1.00  0.00     0.124 S 
ATOM     78  O   UNL A   1      44.404  27.098  42.726  1.00  0.00    -0.237 OA
ATOM     79  O   UNL A   1      45.950  29.026  42.793  1.00  0.00    -0.237 OA
ATOM     80  O   UNL A   1      43.569  29.372  42.251  1.00  0.00    -0.744 OA
ENDBRANCH  76  77
ENDBRANCH  55  69
BRANCH  56  81
ATOM     81  C   UNL A   1      47.415  26.873  28.023  1.00  0.00     0.058 A 
ATOM     82  C   UNL A   1      47.006  25.750  27.289  1.00  0.00     0.135 A 
ATOM     83  C   UNL A   1      48.129  27.872  27.340  1.00  0.00     0.135 A 
ATOM     84  F   UNL A   1      46.334  24.761  27.898  1.00  0.00    -0.206 F 
ATOM     85  C   UNL A   1      47.306  25.612  25.937  1.00  0.00     0.059 A 
ATOM     86  C   UNL A   1      48.417  27.769  25.983  1.00  0.00     0.059 A 
ATOM     87  F   UNL A   1      48.539  28.971  27.993  1.00  0.00    -0.206 F 
ATOM     88  C   UNL A   1      48.011  26.629  25.292  1.00  0.00     0.060 A 
BRANCH  88  89
ATOM     89  S   UNL A   1      48.358  26.460  23.528  1.00  0.00     0.124 S 
ATOM     90  O   UNL A   1      49.799  26.675  23.489  1.00  0.00    -0.237 OA
ATOM     91  O   UNL A   1      47.908  25.098  23.257  1.00  0.00    -0.237 OA
ATOM     92  O   UNL A   1      47.546  27.512  22.924  1.00  0.00    -0.744 OA
ENDBRANCH  88  89
ENDBRANCH  56  81
BRANCH  68  93
ATOM     93  C   UNL A   1      50.634  24.501  33.749  1.00  0.00     0.058 A 
ATOM     94  C   UNL A   1      51.916  25.057  33.891  1.00  0.00     0.135 A 
ATOM     95  C   UNL A   1      50.508  23.107  33.875  1.00  0.00     0.135 A 
ATOM     96  F   UNL A   1      52.093  26.382  33.775  1.00  0.00    -0.206 F 
ATOM     97  C   UNL A   1      53.031  24.259  34.128  1.00  0.00     0.059 A 
ATOM     98  C   UNL A   1      51.605  22.294  34.142  1.00  0.00     0.059 A 
ATOM     99  F   UNL A   1      49.304  22.524  33.761  1.00  0.00    -0.206 F 
ATOM    100  C   UNL A   1      52.865  22.879  34.256  1.00  0.00     0.060 A 
BRANCH 100 101
ATOM    101  S   UNL A   1      54.316  21.862  34.604  1.00  0.00     0.124 S 
ATOM    102  O   UNL A   1      54.417  21.979  36.055  1.00  0.00    -0.237 OA
ATOM    103  O   UNL A   1      53.908  20.554  34.100  1.00  0.00    -0.237 OA
ATOM    104  O   UNL A   1      55.379  22.515  33.846  1.00  0.00    -0.744 OA
ENDBRANCH 100 101
ENDBRANCH  68  93
ENDBRANCH  42  43
ENDBRANCH  35  37
ENDBRANCH  34  35
ENDBRANCH  33  34
ENDBRANCH  32  33
ENDBRANCH  31  32
ENDBRANCH  30  31
ENDBRANCH  29  30
ENDBRANCH  28  29
ENDBRANCH   1  28
TORSDOF 28
ENDMDL
MODEL 2
REMARK VINA RESULT:      -7.0      3.791      9.197
REMARK SMILES Cc1cc(C(=O)OCCOCCOCCOCCOC(=O)c2ccc(-c3c4nc(c(-c5c(F)cc(S(=O)(=O)[O-])cc5F)c5ccc([nH]5)c(-c5c(F)cc(S(=O)(=O)[O-])cc5F)c5nc(c(-c6c(F)cc(S(=O)(=O)[O-])cc6F)c6ccc3[nH]6)C=C5)C=C4)cc2)cc(S(=O)(=O)N[C@@H](C)CC(C)C)c1C
REMARK SMILES IDX 12 1 11 2 10 3 9 4 8 5 7 6 5 7 6 8 4 9 1 10 2 11 3 12 100 13
REMARK SMILES IDX 89 14 101 15 88 16 90 17 91 18 92 19 93 20 94 22 95 23 96 24
REMARK SMILES IDX 97 25 98 26 99 27 13 28 14 29 15 30 16 31 17 32 18 33 19 34
REMARK SMILES IDX 20 35 21 36 22 37 23 38 87 39 24 40 86 41 25 42 26 43 27 44
REMARK SMILES IDX 80 45 28 46 85 47 79 48 81 49 29 50 84 51 78 52 77 53 30 55
REMARK SMILES IDX 64 56 43 57 63 58 44 59 47 60 62 61 82 62 45 63 46 64 61 66
REMARK SMILES IDX 83 67 48 68 31 69 32 70 41 71 33 72 34 73 40 74 42 75 35 76
REMARK SMILES IDX 36 77 37 78 38 79 39 80 65 81 66 82 75 83 67 84 68 85 74 86
REMARK SMILES IDX 76 87 69 88 70 89 71 90 72 91 73 92 49 93 50 94 59 95 51 96
REMARK SMILES IDX 52 97 58 98 60 99 53 100 54 101 55 102 56 103 57 104
REMARK H PARENT 93 21 81 54 47 65
REMARK Flexibility Score: inf
ROOT
ATOM      1  C   UNL A   1      35.666  22.954  25.957  1.00  0.00     0.188 C 
ENDROOT
BRANCH   1   2
ATOM      2  C   UNL A   1      34.613  21.995  26.537  1.00  0.00     0.188 C 
BRANCH   2   3
ATOM      3  O   UNL A   1      33.280  22.476  26.526  1.00  0.00    -0.376 OA
BRANCH   3   4
ATOM      4  C   UNL A   1      32.253  21.560  26.181  1.00  0.00     0.202 C 
BRANCH   4   5
ATOM      5  C   UNL A   1      31.091  22.138  25.365  1.00  0.00     0.261 C 
BRANCH   5   6
ATOM      6  O   UNL A   1      31.250  23.510  24.973  1.00  0.00    -0.460 OA
BRANCH   6   7
ATOM      7  C   UNL A   1      30.436  24.424  25.547  1.00  0.00     0.338 C 
ATOM      8  O   UNL A   1      29.923  24.356  26.651  1.00  0.00    -0.246 OA
BRANCH   7   9
ATOM      9  C   UNL A   1      30.453  25.648  24.707  1.00  0.00     0.061 A 
ATOM     10  C   UNL A   1      27.968  28.076  23.177  1.00  0.00     0.044 C 
ATOM     11  C   UNL A   1      29.285  27.425  23.516  1.00  0.00    -0.046 A 
ATOM     12  C   UNL A   1      29.266  26.284  24.334  1.00  0.00     0.019 A 
ATOM     13  C   UNL A   1      30.526  27.945  23.072  1.00  0.00    -0.028 A 
ATOM     14  C   UNL A   1      31.713  27.226  23.371  1.00  0.00     0.086 A 
ATOM     15  C   UNL A   1      30.575  29.252  22.319  1.00  0.00     0.046 C 
ATOM     16  C   UNL A   1      31.677  26.113  24.218  1.00  0.00     0.037 A 
BRANCH  14  17
ATOM     17  S   UNL A   1      33.284  27.716  22.670  1.00  0.00     0.241 S 
ATOM     18  O   UNL A   1      34.006  26.543  22.255  1.00  0.00    -0.207 OA
ATOM     19  O   UNL A   1      32.991  28.785  21.731  1.00  0.00    -0.207 OA
BRANCH  17  20
ATOM     20  N   UNL A   1      34.163  28.452  23.901  1.00  0.00    -0.208 NA
ATOM     21  H   UNL A   1      34.344  29.401  23.571  1.00  0.00     0.141 HD
BRANCH  20  22
ATOM     22  C   UNL A   1      33.716  28.602  25.298  1.00  0.00     0.067 C 
ATOM     23  C   UNL A   1      34.884  28.699  26.281  1.00  0.00     0.025 C 
BRANCH  22  24
ATOM     24  C   UNL A   1      32.892  29.911  25.427  1.00  0.00     0.022 C 
BRANCH  24  25
ATOM     25  C   UNL A   1      32.136  30.146  26.750  1.00  0.00    -0.016 C 
ATOM     26  C   UNL A   1      31.732  28.847  27.428  1.00  0.00     0.007 C 
ATOM     27  C   UNL A   1      33.007  30.959  27.713  1.00  0.00     0.007 C 
ENDBRANCH  24  25
ENDBRANCH  22  24
ENDBRANCH  20  22
ENDBRANCH  17  20
ENDBRANCH  14  17
ENDBRANCH   7   9
ENDBRANCH   6   7
ENDBRANCH   5   6
ENDBRANCH   4   5
ENDBRANCH   3   4
ENDBRANCH   2   3
ENDBRANCH   1   2
BRANCH   1  28
ATOM     28  O   UNL A   1      36.544  22.502  24.941  1.00  0.00    -0.377 OA
BRANCH  28  29
ATOM     29  C   UNL A   1      37.790  21.915  25.297  1.00  0.00     0.188 C 
BRANCH  29  30
ATOM     30  C   UNL A   1      38.790  22.668  26.206  1.00  0.00     0.188 C 
BRANCH  30  31
ATOM     31  O   UNL A   1      38.660  24.084  26.198  1.00  0.00    -0.376 OA
BRANCH  31  32
ATOM     32  C   UNL A   1      39.821  24.823  26.543  1.00  0.00     0.202 C 
BRANCH  32  33
ATOM     33  C   UNL A   1      39.573  26.020  27.469  1.00  0.00     0.261 C 
BRANCH  33  34
ATOM     34  O   UNL A   1      40.272  25.987  28.722  1.00  0.00    -0.460 OA
BRANCH  34  35
ATOM     35  C   UNL A   1      40.685  27.170  29.231  1.00  0.00     0.338 C 
ATOM     36  O   UNL A   1      39.988  28.114  29.555  1.00  0.00    -0.246 OA
BRANCH  35  37
ATOM     37  C   UNL A   1      42.130  27.048  29.515  1.00  0.00     0.060 A 
ATOM     38  C   UNL A   1      42.818  25.905  29.084  1.00  0.00     0.016 A 
ATOM     39  C   UNL A   1      42.805  28.076  30.178  1.00  0.00     0.016 A 
ATOM     40  C   UNL A   1      44.184  25.779  29.338  1.00  0.00     0.010 A 
ATOM     41  C   UNL A   1      44.166  27.936  30.452  1.00  0.00     0.010 A 
ATOM     42  C   UNL A   1      44.855  26.775  30.060  1.00  0.00    -0.014 A 
BRANCH  42  43
ATOM     43  C   UNL A   1      46.216  26.518  30.588  1.00  0.00     0.031 A 
ATOM     44  C   UNL A   1      47.390  26.955  29.754  1.00  0.00     0.074 A 
ATOM     45  C   UNL A   1      46.411  25.918  31.776  1.00  0.00     0.049 A 
ATOM     46  N   UNL A   1      48.668  26.792  29.969  1.00  0.00    -0.248 NA
ATOM     47  C   UNL A   1      47.075  27.671  28.506  1.00  0.00     0.031 C 
ATOM     48  C   UNL A   1      45.355  25.480  32.688  1.00  0.00     0.029 A 
ATOM     49  N   UNL A   1      47.574  25.562  32.412  1.00  0.00    -0.354 N 
ATOM     50  C   UNL A   1      49.309  27.379  28.884  1.00  0.00     0.074 A 
ATOM     51  C   UNL A   1      48.281  27.874  27.998  1.00  0.00     0.031 C 
ATOM     52  C   UNL A   1      45.921  24.900  33.762  1.00  0.00     0.029 A 
ATOM     53  C   UNL A   1      47.375  24.896  33.598  1.00  0.00     0.049 A 
ATOM     54  H   UNL A   1      48.469  25.765  32.052  1.00  0.00     0.167 HD
ATOM     55  C   UNL A   1      50.637  27.503  28.653  1.00  0.00     0.037 A 
ATOM     56  C   UNL A   1      48.264  24.328  34.439  1.00  0.00     0.037 A 
ATOM     57  C   UNL A   1      51.657  27.003  29.535  1.00  0.00     0.049 A 
ATOM     58  C   UNL A   1      49.738  24.413  34.122  1.00  0.00     0.074 A 
ATOM     59  C   UNL A   1      53.031  27.092  29.399  1.00  0.00     0.029 A 
ATOM     60  N   UNL A   1      51.415  26.314  30.715  1.00  0.00    -0.354 N 
ATOM     61  N   UNL A   1      50.334  24.998  33.109  1.00  0.00    -0.248 NA
ATOM     62  C   UNL A   1      50.661  23.763  35.064  1.00  0.00     0.031 C 
ATOM     63  C   UNL A   1      53.620  26.408  30.468  1.00  0.00     0.029 A 
ATOM     64  C   UNL A   1      52.614  25.946  31.301  1.00  0.00     0.049 A 
ATOM     65  H   UNL A   1      50.523  26.115  31.080  1.00  0.00     0.167 HD
ATOM     66  C   UNL A   1      51.699  24.811  33.308  1.00  0.00     0.074 A 
ATOM     67  C   UNL A   1      51.841  24.069  34.543  1.00  0.00     0.031 C 
ATOM     68  C   UNL A   1      52.740  25.217  32.538  1.00  0.00     0.037 A 
BRANCH  55  69
ATOM     69  C   UNL A   1      51.061  28.184  27.383  1.00  0.00     0.058 A 
ATOM     70  C   UNL A   1      51.186  27.482  26.172  1.00  0.00     0.135 A 
ATOM     71  C   UNL A   1      51.315  29.565  27.367  1.00  0.00     0.135 A 
ATOM     72  F   UNL A   1      50.976  26.157  26.135  1.00  0.00    -0.206 F 
ATOM     73  C   UNL A   1      51.566  28.122  24.998  1.00  0.00     0.059 A 
ATOM     74  C   UNL A   1      51.670  30.230  26.198  1.00  0.00     0.059 A 
ATOM     75  F   UNL A   1      51.218  30.283  28.497  1.00  0.00    -0.206 F 
ATOM     76  C   UNL A   1      51.804  29.497  25.020  1.00  0.00     0.060 A 
BRANCH  76  77
ATOM     77  S   UNL A   1      52.283  30.313  23.483  1.00  0.00     0.124 S 
ATOM     78  O   UNL A   1      53.728  30.109  23.482  1.00  0.00    -0.237 OA
ATOM     79  O   UNL A   1      51.535  29.556  22.484  1.00  0.00    -0.237 OA
ATOM     80  O   UNL A   1      51.845  31.692  23.678  1.00  0.00    -0.744 OA
ENDBRANCH  76  77
ENDBRANCH  55  69
BRANCH  56  81
ATOM     81  C   UNL A   1      47.793  23.611  35.656  1.00  0.00     0.058 A 
ATOM     82  C   UNL A   1      47.692  24.264  36.893  1.00  0.00     0.135 A 
ATOM     83  C   UNL A   1      47.455  22.249  35.609  1.00  0.00     0.135 A 
ATOM     84  F   UNL A   1      48.018  25.561  36.994  1.00  0.00    -0.206 F 
ATOM     85  C   UNL A   1      47.290  23.591  38.043  1.00  0.00     0.059 A 
ATOM     86  C   UNL A   1      47.023  21.561  36.740  1.00  0.00     0.059 A 
ATOM     87  F   UNL A   1      47.527  21.576  34.449  1.00  0.00    -0.206 F 
ATOM     88  C   UNL A   1      46.955  22.239  37.955  1.00  0.00     0.060 A 
BRANCH  88  89
ATOM     89  S   UNL A   1      46.393  21.387  39.445  1.00  0.00     0.124 S 
ATOM     90  O   UNL A   1      45.955  20.106  38.904  1.00  0.00    -0.237 OA
ATOM     91  O   UNL A   1      47.607  21.356  40.256  1.00  0.00    -0.237 OA
ATOM     92  O   UNL A   1      45.334  22.256  39.949  1.00  0.00    -0.744 OA
ENDBRANCH  88  89
ENDBRANCH  56  81
BRANCH  68  93
ATOM     93  C   UNL A   1      54.131  24.906  33.023  1.00  0.00     0.058 A 
ATOM     94  C   UNL A   1      54.866  25.816  33.799  1.00  0.00     0.135 A 
ATOM     95  C   UNL A   1      54.709  23.651  32.764  1.00  0.00     0.135 A 
ATOM     96  F   UNL A   1      54.364  27.030  34.071  1.00  0.00    -0.206 F 
ATOM     97  C   UNL A   1      56.133  25.501  34.283  1.00  0.00     0.059 A 
ATOM     98  C   UNL A   1      55.960  23.304  33.262  1.00  0.00     0.059 A 
ATOM     99  F   UNL A   1      54.044  22.738  32.038  1.00  0.00    -0.206 F 
ATOM    100  C   UNL A   1      56.670  24.241  34.013  1.00  0.00     0.060 A 
BRANCH 100 101
ATOM    101  S   UNL A   1      58.296  23.833  34.681  1.00  0.00     0.124 S 
ATOM    102  O   UNL A   1      58.439  24.827  35.738  1.00  0.00    -0.237 OA
ATOM    103  O   UNL A   1      58.114  22.454  35.126  1.00  0.00    -0.237 OA
ATOM    104  O   UNL A   1      59.186  24.002  33.536  1.00  0.00    -0.744 OA
ENDBRANCH 100 101
ENDBRANCH  68  93
ENDBRANCH  42  43
ENDBRANCH  35  37
ENDBRANCH  34  35
ENDBRANCH  33  34
ENDBRANCH  32  33
ENDBRANCH  31  32
ENDBRANCH  30  31
ENDBRANCH  29  30
ENDBRANCH  28  29
ENDBRANCH   1  28
TORSDOF 28
ENDMDL
MODEL 3
REMARK VINA RESULT:      -6.9      5.915     11.903
REMARK SMILES Cc1cc(C(=O)OCCOCCOCCOCCOC(=O)c2ccc(-c3c4nc(c(-c5c(F)cc(S(=O)(=O)[O-])cc5F)c5ccc([nH]5)c(-c5c(F)cc(S(=O)(=O)[O-])cc5F)c5nc(c(-c6c(F)cc(S(=O)(=O)[O-])cc6F)c6ccc3[nH]6)C=C5)C=C4)cc2)cc(S(=O)(=O)N[C@@H](C)CC(C)C)c1C
REMARK SMILES IDX 12 1 11 2 10 3 9 4 8 5 7 6 5 7 6 8 4 9 1 10 2 11 3 12 100 13
REMARK SMILES IDX 89 14 101 15 88 16 90 17 91 18 92 19 93 20 94 22 95 23 96 24
REMARK SMILES IDX 97 25 98 26 99 27 13 28 14 29 15 30 16 31 17 32 18 33 19 34
REMARK SMILES IDX 20 35 21 36 22 37 23 38 87 39 24 40 86 41 25 42 26 43 27 44
REMARK SMILES IDX 80 45 28 46 85 47 79 48 81 49 29 50 84 51 78 52 77 53 30 55
REMARK SMILES IDX 64 56 43 57 63 58 44 59 47 60 62 61 82 62 45 63 46 64 61 66
REMARK SMILES IDX 83 67 48 68 31 69 32 70 41 71 33 72 34 73 40 74 42 75 35 76
REMARK SMILES IDX 36 77 37 78 38 79 39 80 65 81 66 82 75 83 67 84 68 85 74 86
REMARK SMILES IDX 76 87 69 88 70 89 71 90 72 91 73 92 49 93 50 94 59 95 51 96
REMARK SMILES IDX 52 97 58 98 60 99 53 100 54 101 55 102 56 103 57 104
REMARK H PARENT 93 21 81 54 47 65
REMARK Flexibility Score: inf
ROOT
ATOM      1  C   UNL A   1      44.542  26.700  26.738  1.00  0.00     0.188 C 
ENDROOT
BRANCH   1   2
ATOM      2  C   UNL A   1      44.463  26.448  28.254  1.00  0.00     0.188 C 
BRANCH   2   3
ATOM      3  O   UNL A   1      43.647  27.351  28.979  1.00  0.00    -0.376 OA
BRANCH   3   4
ATOM      4  C   UNL A   1      42.394  26.877  29.445  1.00  0.00     0.202 C 
BRANCH   4   5
ATOM      5  C   UNL A   1      41.336  26.620  28.366  1.00  0.00     0.261 C 
BRANCH   5   6
ATOM      6  O   UNL A   1      40.126  27.380  28.512  1.00  0.00    -0.460 OA
BRANCH   6   7
ATOM      7  C   UNL A   1      40.035  28.549  27.840  1.00  0.00     0.338 C 
ATOM      8  O   UNL A   1      40.556  28.821  26.772  1.00  0.00    -0.246 OA
BRANCH   7   9
ATOM      9  C   UNL A   1      38.998  29.381  28.501  1.00  0.00     0.061 A 
ATOM     10  C   UNL A   1      35.583  30.830  27.695  1.00  0.00     0.044 C 
ATOM     11  C   UNL A   1      36.849  30.529  28.458  1.00  0.00    -0.046 A 
ATOM     12  C   UNL A   1      37.814  29.719  27.839  1.00  0.00     0.019 A 
ATOM     13  C   UNL A   1      37.073  30.999  29.776  1.00  0.00    -0.028 A 
ATOM     14  C   UNL A   1      38.324  30.735  30.392  1.00  0.00     0.086 A 
ATOM     15  C   UNL A   1      35.984  31.744  30.510  1.00  0.00     0.046 C 
ATOM     16  C   UNL A   1      39.258  29.895  29.774  1.00  0.00     0.037 A 
BRANCH  14  17
ATOM     17  S   UNL A   1      38.746  31.470  31.967  1.00  0.00     0.241 S 
ATOM     18  O   UNL A   1      37.611  31.394  32.847  1.00  0.00    -0.207 OA
ATOM     19  O   UNL A   1      40.027  30.900  32.347  1.00  0.00    -0.207 OA
BRANCH  17  20
ATOM     20  N   UNL A   1      39.066  33.096  31.679  1.00  0.00    -0.208 NA
ATOM     21  H   UNL A   1      39.638  33.401  32.467  1.00  0.00     0.141 HD
BRANCH  20  22
ATOM     22  C   UNL A   1      39.732  33.637  30.480  1.00  0.00     0.067 C 
ATOM     23  C   UNL A   1      38.875  34.670  29.747  1.00  0.00     0.025 C 
BRANCH  22  24
ATOM     24  C   UNL A   1      41.045  34.345  30.908  1.00  0.00     0.022 C 
BRANCH  24  25
ATOM     25  C   UNL A   1      42.354  33.878  30.237  1.00  0.00    -0.016 C 
ATOM     26  C   UNL A   1      42.376  32.380  29.984  1.00  0.00     0.007 C 
ATOM     27  C   UNL A   1      42.549  34.610  28.907  1.00  0.00     0.007 C 
ENDBRANCH  24  25
ENDBRANCH  22  24
ENDBRANCH  20  22
ENDBRANCH  17  20
ENDBRANCH  14  17
ENDBRANCH   7   9
ENDBRANCH   6   7
ENDBRANCH   5   6
ENDBRANCH   4   5
ENDBRANCH   3   4
ENDBRANCH   2   3
ENDBRANCH   1   2
BRANCH   1  28
ATOM     28  O   UNL A   1      44.198  25.665  25.835  1.00  0.00    -0.377 OA
BRANCH  28  29
ATOM     29  C   UNL A   1      44.917  24.438  25.863  1.00  0.00     0.188 C 
BRANCH  29  30
ATOM     30  C   UNL A   1      46.307  24.318  25.194  1.00  0.00     0.188 C 
BRANCH  30  31
ATOM     31  O   UNL A   1      46.707  25.452  24.435  1.00  0.00    -0.376 OA
BRANCH  31  32
ATOM     32  C   UNL A   1      47.828  26.171  24.925  1.00  0.00     0.202 C 
BRANCH  32  33
ATOM     33  C   UNL A   1      47.563  27.651  25.225  1.00  0.00     0.261 C 
BRANCH  33  34
ATOM     34  O   UNL A   1      47.887  28.080  26.556  1.00  0.00    -0.460 OA
BRANCH  34  35
ATOM     35  C   UNL A   1      48.676  29.172  26.680  1.00  0.00     0.338 C 
ATOM     36  O   UNL A   1      49.660  29.446  26.017  1.00  0.00    -0.246 OA
BRANCH  35  37
ATOM     37  C   UNL A   1      48.020  30.084  27.639  1.00  0.00     0.060 A 
ATOM     38  C   UNL A   1      48.781  30.669  28.660  1.00  0.00     0.016 A 
ATOM     39  C   UNL A   1      46.661  30.383  27.506  1.00  0.00     0.016 A 
ATOM     40  C   UNL A   1      48.178  31.538  29.568  1.00  0.00     0.010 A 
ATOM     41  C   UNL A   1      46.054  31.234  28.431  1.00  0.00     0.010 A 
ATOM     42  C   UNL A   1      46.802  31.792  29.482  1.00  0.00    -0.014 A 
BRANCH  42  43
ATOM     43  C   UNL A   1      46.102  32.465  30.603  1.00  0.00     0.031 A 
ATOM     44  C   UNL A   1      45.565  31.608  31.716  1.00  0.00     0.074 A 
ATOM     45  C   UNL A   1      45.950  33.801  30.639  1.00  0.00     0.049 A 
ATOM     46  N   UNL A   1      44.871  31.950  32.768  1.00  0.00    -0.248 NA
ATOM     47  C   UNL A   1      45.848  30.165  31.624  1.00  0.00     0.031 C 
ATOM     48  C   UNL A   1      46.455  34.740  29.638  1.00  0.00     0.029 A 
ATOM     49  N   UNL A   1      45.310  34.598  31.555  1.00  0.00    -0.354 N 
ATOM     50  C   UNL A   1      44.630  30.769  33.461  1.00  0.00     0.074 A 
ATOM     51  C   UNL A   1      45.225  29.697  32.695  1.00  0.00     0.031 C 
ATOM     52  C   UNL A   1      46.093  35.987  29.988  1.00  0.00     0.029 A 
ATOM     53  C   UNL A   1      45.303  35.932  31.219  1.00  0.00     0.049 A 
ATOM     54  H   UNL A   1      44.895  34.249  32.377  1.00  0.00     0.167 HD
ATOM     55  C   UNL A   1      43.981  30.596  34.636  1.00  0.00     0.037 A 
ATOM     56  C   UNL A   1      44.705  36.980  31.822  1.00  0.00     0.037 A 
ATOM     57  C   UNL A   1      43.386  31.666  35.391  1.00  0.00     0.049 A 
ATOM     58  C   UNL A   1      43.921  36.751  33.092  1.00  0.00     0.074 A 
ATOM     59  C   UNL A   1      42.719  31.596  36.601  1.00  0.00     0.029 A 
ATOM     60  N   UNL A   1      43.379  32.998  35.005  1.00  0.00    -0.354 N 
ATOM     61  N   UNL A   1      43.726  35.634  33.754  1.00  0.00    -0.248 NA
ATOM     62  C   UNL A   1      43.277  37.925  33.699  1.00  0.00     0.031 C 
ATOM     63  C   UNL A   1      42.261  32.878  36.921  1.00  0.00     0.029 A 
ATOM     64  C   UNL A   1      42.694  33.756  35.940  1.00  0.00     0.049 A 
ATOM     65  H   UNL A   1      43.797  33.352  34.189  1.00  0.00     0.167 HD
ATOM     66  C   UNL A   1      42.965  35.977  34.868  1.00  0.00     0.074 A 
ATOM     67  C   UNL A   1      42.743  37.406  34.796  1.00  0.00     0.031 C 
ATOM     68  C   UNL A   1      42.491  35.182  35.860  1.00  0.00     0.037 A 
BRANCH  55  69
ATOM     69  C   UNL A   1      43.858  29.194  35.162  1.00  0.00     0.058 A 
ATOM     70  C   UNL A   1      44.775  28.668  36.088  1.00  0.00     0.135 A 
ATOM     71  C   UNL A   1      42.791  28.375  34.761  1.00  0.00     0.135 A 
ATOM     72  F   UNL A   1      45.826  29.401  36.488  1.00  0.00    -0.206 F 
ATOM     73  C   UNL A   1      44.648  27.375  36.580  1.00  0.00     0.059 A 
ATOM     74  C   UNL A   1      42.629  27.087  35.263  1.00  0.00     0.059 A 
ATOM     75  F   UNL A   1      41.891  28.824  33.873  1.00  0.00    -0.206 F 
ATOM     76  C   UNL A   1      43.570  26.592  36.164  1.00  0.00     0.060 A 
BRANCH  76  77
ATOM     77  S   UNL A   1      43.413  24.920  36.825  1.00  0.00     0.124 S 
ATOM     78  O   UNL A   1      44.085  24.134  35.795  1.00  0.00    -0.237 OA
ATOM     79  O   UNL A   1      44.114  25.024  38.101  1.00  0.00    -0.237 OA
ATOM     80  O   UNL A   1      41.970  24.725  36.921  1.00  0.00    -0.744 OA
ENDBRANCH  76  77
ENDBRANCH  55  69
BRANCH  56  81
ATOM     81  C   UNL A   1      44.803  38.343  31.230  1.00  0.00     0.058 A 
ATOM     82  C   UNL A   1      43.957  38.747  30.187  1.00  0.00     0.135 A 
ATOM     83  C   UNL A   1      45.763  39.262  31.684  1.00  0.00     0.135 A 
ATOM     84  F   UNL A   1      43.034  37.900  29.708  1.00  0.00    -0.206 F 
ATOM     85  C   UNL A   1      44.068  40.005  29.604  1.00  0.00     0.059 A 
ATOM     86  C   UNL A   1      45.875  40.536  31.134  1.00  0.00     0.059 A 
ATOM     87  F   UNL A   1      46.594  38.929  32.684  1.00  0.00    -0.206 F 
ATOM     88  C   UNL A   1      45.030  40.894  30.086  1.00  0.00     0.060 A 
BRANCH  88  89
ATOM     89  S   UNL A   1      45.136  42.540  29.350  1.00  0.00     0.124 S 
ATOM     90  O   UNL A   1      46.579  42.718  29.235  1.00  0.00    -0.237 OA
ATOM     91  O   UNL A   1      44.413  42.360  28.095  1.00  0.00    -0.237 OA
ATOM     92  O   UNL A   1      44.471  43.390  30.332  1.00  0.00    -0.744 OA
ENDBRANCH  88  89
ENDBRANCH  56  81
BRANCH  68  93
ATOM     93  C   UNL A   1      41.719  35.837  36.974  1.00  0.00     0.058 A 
ATOM     94  C   UNL A   1      42.360  36.395  38.092  1.00  0.00     0.135 A 
ATOM     95  C   UNL A   1      40.323  35.968  36.888  1.00  0.00     0.135 A 
ATOM     96  F   UNL A   1      43.691  36.294  38.227  1.00  0.00    -0.206 F 
ATOM     97  C   UNL A   1      41.642  37.041  39.094  1.00  0.00     0.059 A 
ATOM     98  C   UNL A   1      39.588  36.635  37.863  1.00  0.00     0.059 A 
ATOM     99  F   UNL A   1      39.660  35.463  35.834  1.00  0.00    -0.206 F 
ATOM    100  C   UNL A   1      40.256  37.160  38.968  1.00  0.00     0.060 A 
BRANCH 100 101
ATOM    101  S   UNL A   1      39.343  38.036  40.256  1.00  0.00     0.124 S 
ATOM    102  O   UNL A   1      40.308  39.051  40.664  1.00  0.00    -0.237 OA
ATOM    103  O   UNL A   1      38.174  38.525  39.531  1.00  0.00    -0.237 OA
ATOM    104  O   UNL A   1      39.069  36.997  41.245  1.00  0.00    -0.744 OA
ENDBRANCH 100 101
ENDBRANCH  68  93
ENDBRANCH  42  43
ENDBRANCH  35  37
ENDBRANCH  34  35
ENDBRANCH  33  34
ENDBRANCH  32  33
ENDBRANCH  31  32
ENDBRANCH  30  31
ENDBRANCH  29  30
ENDBRANCH  28  29
ENDBRANCH   1  28
TORSDOF 28
ENDMDL
