MODEL 1
REMARK VINA RESULT:      -9.3      0.000      0.000
REMARK SMILES Cc1ccc(C(=O)[C@@H]2CCC[C@H]2C(=O)OCCOCCOCCOCCOC(=O)c2ccc(-c3c4nc(c(-c5c(F)cc(S(=O)(=O)[O-])cc5F)c5ccc([nH]5)c(-c5c(F)cc(S(=O)(=O)[O-])cc5F)c5nc(c(-c6c(F)cc(S(=O)(=O)[O-])cc6F)c6ccc3[nH]6)C=C5)C=C4)cc2)c(C)c1
REMARK SMILES IDX 22 1 21 2 20 3 19 4 18 5 17 6 16 7 15 8 13 9 14 10 12 11
REMARK SMILES IDX 8 12 9 13 10 14 11 15 6 16 7 17 5 18 1 19 2 20 3 21 98 22
REMARK SMILES IDX 4 23 96 24 97 25 23 26 24 27 25 28 26 29 27 30 28 31 29 32
REMARK SMILES IDX 30 33 31 34 95 35 32 36 94 37 33 38 34 39 35 40 88 41 36 42
REMARK SMILES IDX 93 43 87 44 89 45 37 46 92 47 86 48 85 49 38 51 72 52 51 53
REMARK SMILES IDX 71 54 52 55 55 56 70 57 90 58 53 59 54 60 69 62 91 63 56 64
REMARK SMILES IDX 39 65 40 66 49 67 41 68 42 69 48 70 50 71 43 72 44 73 45 74
REMARK SMILES IDX 46 75 47 76 73 77 74 78 83 79 75 80 76 81 82 82 84 83 77 84
REMARK SMILES IDX 78 85 79 86 80 87 81 88 57 89 58 90 67 91 59 92 60 93 66 94
REMARK SMILES IDX 68 95 61 96 62 97 63 98 64 99 65 100
REMARK H PARENT 89 50 55 61
REMARK Flexibility Score: inf
ROOT
ATOM      1  C   UNL A   1      42.485  18.472  26.300  1.00  0.00     0.188 C 
ENDROOT
BRANCH   1   2
ATOM      2  O   UNL A   1      43.816  18.484  25.848  1.00  0.00    -0.377 OA
BRANCH   2   3
ATOM      3  C   UNL A   1      44.135  19.097  24.619  1.00  0.00     0.188 C 
BRANCH   3   4
ATOM      4  C   UNL A   1      44.990  20.348  24.451  1.00  0.00     0.188 C 
BRANCH   4   5
ATOM      5  O   UNL A   1      44.337  21.553  24.741  1.00  0.00    -0.376 OA
BRANCH   5   6
ATOM      6  C   UNL A   1      44.706  22.792  24.184  1.00  0.00     0.202 C 
BRANCH   6   7
ATOM      7  C   UNL A   1      45.912  23.664  24.596  1.00  0.00     0.261 C 
BRANCH   7   8
ATOM      8  O   UNL A   1      45.744  25.067  24.862  1.00  0.00    -0.463 OA
BRANCH   8   9
ATOM      9  C   UNL A   1      46.879  25.811  24.852  1.00  0.00     0.309 C 
ATOM     10  O   UNL A   1      47.384  26.259  23.825  1.00  0.00    -0.252 OA
BRANCH   9  11
ATOM     11  C   UNL A   1      47.563  26.019  26.211  1.00  0.00     0.110 C 
ATOM     12  C   UNL A   1      47.102  25.375  27.539  1.00  0.00     0.075 C 
ATOM     13  C   UNL A   1      48.400  25.260  28.362  1.00  0.00     0.013 C 
ATOM     14  C   UNL A   1      49.558  25.198  27.392  1.00  0.00     0.002 C 
ATOM     15  C   UNL A   1      48.983  25.466  26.017  1.00  0.00     0.016 C 
BRANCH  12  16
ATOM     16  C   UNL A   1      46.095  25.985  28.562  1.00  0.00     0.167 C 
ATOM     17  O   UNL A   1      45.641  27.111  28.325  1.00  0.00    -0.294 OA
BRANCH  16  18
ATOM     18  C   UNL A   1      45.521  25.267  29.753  1.00  0.00     0.021 A 
ATOM     19  C   UNL A   1      43.904  23.249  33.239  1.00  0.00     0.044 C 
ATOM     20  C   UNL A   1      44.478  23.949  32.043  1.00  0.00    -0.051 A 
ATOM     21  C   UNL A   1      45.354  25.023  32.176  1.00  0.00     0.004 A 
ATOM     22  C   UNL A   1      44.156  23.505  30.760  1.00  0.00     0.007 A 
ATOM     23  C   UNL A   1      45.886  25.657  31.046  1.00  0.00     0.012 A 
ATOM     24  C   UNL A   1      44.675  24.136  29.609  1.00  0.00    -0.040 A 
ATOM     25  C   UNL A   1      44.322  23.483  28.295  1.00  0.00     0.045 C 
ENDBRANCH  16  18
ENDBRANCH  12  16
ENDBRANCH   9  11
ENDBRANCH   8   9
ENDBRANCH   7   8
ENDBRANCH   6   7
ENDBRANCH   5   6
ENDBRANCH   4   5
ENDBRANCH   3   4
ENDBRANCH   2   3
ENDBRANCH   1   2
BRANCH   1  26
ATOM     26  C   UNL A   1      41.750  19.816  26.161  1.00  0.00     0.188 C 
BRANCH  26  27
ATOM     27  O   UNL A   1      41.011  20.389  27.239  1.00  0.00    -0.376 OA
BRANCH  27  28
ATOM     28  C   UNL A   1      41.173  21.748  27.607  1.00  0.00     0.202 C 
BRANCH  28  29
ATOM     29  C   UNL A   1      40.794  22.864  26.631  1.00  0.00     0.261 C 
BRANCH  29  30
ATOM     30  O   UNL A   1      41.699  23.968  26.592  1.00  0.00    -0.460 OA
BRANCH  30  31
ATOM     31  C   UNL A   1      41.098  25.167  26.439  1.00  0.00     0.338 C 
ATOM     32  O   UNL A   1      40.507  25.584  25.450  1.00  0.00    -0.246 OA
BRANCH  31  33
ATOM     33  C   UNL A   1      41.108  25.874  27.725  1.00  0.00     0.060 A 
ATOM     34  C   UNL A   1      39.921  25.881  28.469  1.00  0.00     0.016 A 
ATOM     35  C   UNL A   1      42.241  26.558  28.169  1.00  0.00     0.016 A 
ATOM     36  C   UNL A   1      39.847  26.607  29.645  1.00  0.00     0.010 A 
ATOM     37  C   UNL A   1      42.158  27.316  29.335  1.00  0.00     0.010 A 
ATOM     38  C   UNL A   1      40.947  27.375  30.045  1.00  0.00    -0.014 A 
BRANCH  38  39
ATOM     39  C   UNL A   1      40.726  28.424  31.057  1.00  0.00     0.031 A 
ATOM     40  C   UNL A   1      41.604  28.415  32.275  1.00  0.00     0.074 A 
ATOM     41  C   UNL A   1      39.823  29.395  30.844  1.00  0.00     0.049 A 
ATOM     42  N   UNL A   1      41.611  29.224  33.300  1.00  0.00    -0.248 NA
ATOM     43  C   UNL A   1      42.616  27.346  32.347  1.00  0.00     0.031 C 
ATOM     44  C   UNL A   1      38.981  29.517  29.655  1.00  0.00     0.029 A 
ATOM     45  N   UNL A   1      39.474  30.466  31.621  1.00  0.00    -0.354 N 
ATOM     46  C   UNL A   1      42.621  28.761  34.136  1.00  0.00     0.074 A 
ATOM     47  C   UNL A   1      43.180  27.580  33.520  1.00  0.00     0.031 C 
ATOM     48  C   UNL A   1      38.204  30.606  29.784  1.00  0.00     0.029 A 
ATOM     49  C   UNL A   1      38.472  31.232  31.077  1.00  0.00     0.049 A 
ATOM     50  H   UNL A   1      39.899  30.669  32.484  1.00  0.00     0.167 HD
ATOM     51  C   UNL A   1      43.047  29.287  35.307  1.00  0.00     0.037 A 
ATOM     52  C   UNL A   1      37.836  32.304  31.587  1.00  0.00     0.037 A 
ATOM     53  C   UNL A   1      42.462  30.459  35.902  1.00  0.00     0.049 A 
ATOM     54  C   UNL A   1      38.263  32.815  32.939  1.00  0.00     0.074 A 
ATOM     55  C   UNL A   1      42.796  31.083  37.089  1.00  0.00     0.029 A 
ATOM     56  N   UNL A   1      41.409  31.179  35.352  1.00  0.00    -0.354 N 
ATOM     57  N   UNL A   1      39.221  32.375  33.723  1.00  0.00    -0.248 NA
ATOM     58  C   UNL A   1      37.528  33.967  33.474  1.00  0.00     0.031 C 
ATOM     59  C   UNL A   1      41.907  32.144  37.285  1.00  0.00     0.029 A 
ATOM     60  C   UNL A   1      41.062  32.225  36.189  1.00  0.00     0.049 A 
ATOM     61  H   UNL A   1      40.973  30.974  34.493  1.00  0.00     0.167 HD
ATOM     62  C   UNL A   1      39.224  33.217  34.831  1.00  0.00     0.074 A 
ATOM     63  C   UNL A   1      38.179  34.197  34.605  1.00  0.00     0.031 C 
ATOM     64  C   UNL A   1      40.018  33.188  35.931  1.00  0.00     0.037 A 
BRANCH  51  65
ATOM     65  C   UNL A   1      44.159  28.574  36.026  1.00  0.00     0.058 A 
ATOM     66  C   UNL A   1      45.509  28.910  35.833  1.00  0.00     0.135 A 
ATOM     67  C   UNL A   1      43.871  27.532  36.925  1.00  0.00     0.135 A 
ATOM     68  F   UNL A   1      45.847  29.881  34.968  1.00  0.00    -0.206 F 
ATOM     69  C   UNL A   1      46.533  28.221  36.476  1.00  0.00     0.059 A 
ATOM     70  C   UNL A   1      44.877  26.851  37.603  1.00  0.00     0.059 A 
ATOM     71  F   UNL A   1      42.600  27.160  37.143  1.00  0.00    -0.206 F 
ATOM     72  C   UNL A   1      46.206  27.192  37.360  1.00  0.00     0.060 A 
BRANCH  72  73
ATOM     73  S   UNL A   1      47.545  26.307  38.187  1.00  0.00     0.124 S 
ATOM     74  O   UNL A   1      47.543  25.037  37.468  1.00  0.00    -0.237 OA
ATOM     75  O   UNL A   1      48.692  27.175  37.937  1.00  0.00    -0.237 OA
ATOM     76  O   UNL A   1      47.104  26.242  39.577  1.00  0.00    -0.744 OA
ENDBRANCH  72  73
ENDBRANCH  51  65
BRANCH  52  77
ATOM     77  C   UNL A   1      36.740  32.954  30.822  1.00  0.00     0.058 A 
ATOM     78  C   UNL A   1      37.016  33.841  29.771  1.00  0.00     0.135 A 
ATOM     79  C   UNL A   1      35.392  32.693  31.117  1.00  0.00     0.135 A 
ATOM     80  F   UNL A   1      38.287  34.130  29.454  1.00  0.00    -0.206 F 
ATOM     81  C   UNL A   1      35.998  34.455  29.049  1.00  0.00     0.059 A 
ATOM     82  C   UNL A   1      34.357  33.272  30.390  1.00  0.00     0.059 A 
ATOM     83  F   UNL A   1      35.071  31.842  32.105  1.00  0.00    -0.206 F 
ATOM     84  C   UNL A   1      34.671  34.160  29.362  1.00  0.00     0.060 A 
BRANCH  84  85
ATOM     85  S   UNL A   1      33.360  34.925  28.384  1.00  0.00     0.124 S 
ATOM     86  O   UNL A   1      32.712  33.759  27.796  1.00  0.00    -0.237 OA
ATOM     87  O   UNL A   1      32.595  35.634  29.405  1.00  0.00    -0.237 OA
ATOM     88  O   UNL A   1      34.089  35.780  27.453  1.00  0.00    -0.744 OA
ENDBRANCH  84  85
ENDBRANCH  52  77
BRANCH  64  89
ATOM     89  C   UNL A   1      39.816  34.272  36.954  1.00  0.00     0.058 A 
ATOM     90  C   UNL A   1      38.964  34.102  38.057  1.00  0.00     0.135 A 
ATOM     91  C   UNL A   1      40.529  35.479  36.856  1.00  0.00     0.135 A 
ATOM     92  F   UNL A   1      38.255  32.970  38.194  1.00  0.00    -0.206 F 
ATOM     93  C   UNL A   1      38.807  35.100  39.012  1.00  0.00     0.059 A 
ATOM     94  C   UNL A   1      40.413  36.476  37.817  1.00  0.00     0.059 A 
ATOM     95  F   UNL A   1      41.366  35.688  35.826  1.00  0.00    -0.206 F 
ATOM     96  C   UNL A   1      39.539  36.282  38.885  1.00  0.00     0.060 A 
BRANCH  96  97
ATOM     97  S   UNL A   1      39.351  37.553  40.151  1.00  0.00     0.124 S 
ATOM     98  O   UNL A   1      40.660  38.199  40.117  1.00  0.00    -0.237 OA
ATOM     99  O   UNL A   1      38.240  38.346  39.633  1.00  0.00    -0.237 OA
ATOM    100  O   UNL A   1      39.059  36.790  41.360  1.00  0.00    -0.744 OA
ENDBRANCH  96  97
ENDBRANCH  64  89
ENDBRANCH  38  39
ENDBRANCH  31  33
ENDBRANCH  30  31
ENDBRANCH  29  30
ENDBRANCH  28  29
ENDBRANCH  27  28
ENDBRANCH  26  27
ENDBRANCH   1  26
TORSDOF 25
ENDMDL
MODEL 2
REMARK VINA RESULT:      -9.1      6.945     13.669
REMARK SMILES Cc1ccc(C(=O)[C@@H]2CCC[C@H]2C(=O)OCCOCCOCCOCCOC(=O)c2ccc(-c3c4nc(c(-c5c(F)cc(S(=O)(=O)[O-])cc5F)c5ccc([nH]5)c(-c5c(F)cc(S(=O)(=O)[O-])cc5F)c5nc(c(-c6c(F)cc(S(=O)(=O)[O-])cc6F)c6ccc3[nH]6)C=C5)C=C4)cc2)c(C)c1
REMARK SMILES IDX 22 1 21 2 20 3 19 4 18 5 17 6 16 7 15 8 13 9 14 10 12 11
REMARK SMILES IDX 8 12 9 13 10 14 11 15 6 16 7 17 5 18 1 19 2 20 3 21 98 22
REMARK SMILES IDX 4 23 96 24 97 25 23 26 24 27 25 28 26 29 27 30 28 31 29 32
REMARK SMILES IDX 30 33 31 34 95 35 32 36 94 37 33 38 34 39 35 40 88 41 36 42
REMARK SMILES IDX 93 43 87 44 89 45 37 46 92 47 86 48 85 49 38 51 72 52 51 53
REMARK SMILES IDX 71 54 52 55 55 56 70 57 90 58 53 59 54 60 69 62 91 63 56 64
REMARK SMILES IDX 39 65 40 66 49 67 41 68 42 69 48 70 50 71 43 72 44 73 45 74
REMARK SMILES IDX 46 75 47 76 73 77 74 78 83 79 75 80 76 81 82 82 84 83 77 84
REMARK SMILES IDX 78 85 79 86 80 87 81 88 57 89 58 90 67 91 59 92 60 93 66 94
REMARK SMILES IDX 68 95 61 96 62 97 63 98 64 99 65 100
REMARK H PARENT 89 50 55 61
REMARK Flexibility Score: inf
ROOT
ATOM      1  C   UNL A   1      33.196  27.487  26.484  1.00  0.00     0.188 C 
ENDROOT
BRANCH   1   2
ATOM      2  O   UNL A   1      33.068  26.791  25.270  1.00  0.00    -0.377 OA
BRANCH   2   3
ATOM      3  C   UNL A   1      34.188  26.140  24.712  1.00  0.00     0.188 C 
BRANCH   3   4
ATOM      4  C   UNL A   1      34.646  24.726  25.047  1.00  0.00     0.188 C 
BRANCH   4   5
ATOM      5  O   UNL A   1      34.579  24.389  26.405  1.00  0.00    -0.376 OA
BRANCH   5   6
ATOM      6  C   UNL A   1      34.521  23.064  26.876  1.00  0.00     0.202 C 
BRANCH   6   7
ATOM      7  C   UNL A   1      33.269  22.328  27.403  1.00  0.00     0.261 C 
BRANCH   7   8
ATOM      8  O   UNL A   1      32.143  23.066  27.904  1.00  0.00    -0.463 OA
BRANCH   8   9
ATOM      9  C   UNL A   1      31.088  23.184  27.058  1.00  0.00     0.309 C 
ATOM     10  O   UNL A   1      29.923  23.001  27.402  1.00  0.00    -0.252 OA
BRANCH   9  11
ATOM     11  C   UNL A   1      31.428  23.499  25.594  1.00  0.00     0.110 C 
ATOM     12  C   UNL A   1      31.298  22.498  24.424  1.00  0.00     0.075 C 
ATOM     13  C   UNL A   1      31.029  23.396  23.200  1.00  0.00     0.013 C 
ATOM     14  C   UNL A   1      30.397  24.677  23.696  1.00  0.00     0.002 C 
ATOM     15  C   UNL A   1      30.463  24.631  25.209  1.00  0.00     0.016 C 
BRANCH  12  16
ATOM     16  C   UNL A   1      32.407  21.530  23.907  1.00  0.00     0.167 C 
ATOM     17  O   UNL A   1      33.355  22.018  23.281  1.00  0.00    -0.294 OA
BRANCH  16  18
ATOM     18  C   UNL A   1      32.493  20.060  24.218  1.00  0.00     0.021 A 
ATOM     19  C   UNL A   1      32.757  15.839  25.195  1.00  0.00     0.044 C 
ATOM     20  C   UNL A   1      32.679  17.301  24.868  1.00  0.00    -0.051 A 
ATOM     21  C   UNL A   1      32.903  18.278  25.836  1.00  0.00     0.004 A 
ATOM     22  C   UNL A   1      32.405  17.705  23.562  1.00  0.00     0.007 A 
ATOM     23  C   UNL A   1      32.834  19.638  25.507  1.00  0.00     0.012 A 
ATOM     24  C   UNL A   1      32.322  19.071  23.214  1.00  0.00    -0.040 A 
ATOM     25  C   UNL A   1      32.120  19.357  21.745  1.00  0.00     0.045 C 
ENDBRANCH  16  18
ENDBRANCH  12  16
ENDBRANCH   9  11
ENDBRANCH   8   9
ENDBRANCH   7   8
ENDBRANCH   6   7
ENDBRANCH   5   6
ENDBRANCH   4   5
ENDBRANCH   3   4
ENDBRANCH   2   3
ENDBRANCH   1   2
BRANCH   1  26
ATOM     26  C   UNL A   1      34.028  28.777  26.398  1.00  0.00     0.188 C 
BRANCH  26  27
ATOM     27  O   UNL A   1      34.777  29.270  27.508  1.00  0.00    -0.376 OA
BRANCH  27  28
ATOM     28  C   UNL A   1      34.974  30.658  27.711  1.00  0.00     0.202 C 
BRANCH  28  29
ATOM     29  C   UNL A   1      34.935  31.247  29.123  1.00  0.00     0.261 C 
BRANCH  29  30
ATOM     30  O   UNL A   1      36.209  31.425  29.741  1.00  0.00    -0.460 OA
BRANCH  30  31
ATOM     31  C   UNL A   1      36.765  30.283  30.195  1.00  0.00     0.338 C 
ATOM     32  O   UNL A   1      36.199  29.347  30.748  1.00  0.00    -0.246 OA
BRANCH  31  33
ATOM     33  C   UNL A   1      38.172  30.236  29.779  1.00  0.00     0.060 A 
ATOM     34  C   UNL A   1      38.440  29.931  28.439  1.00  0.00     0.016 A 
ATOM     35  C   UNL A   1      39.207  30.439  30.694  1.00  0.00     0.016 A 
ATOM     36  C   UNL A   1      39.749  29.786  28.013  1.00  0.00     0.010 A 
ATOM     37  C   UNL A   1      40.523  30.261  30.274  1.00  0.00     0.010 A 
ATOM     38  C   UNL A   1      40.788  29.890  28.945  1.00  0.00    -0.014 A 
BRANCH  38  39
ATOM     39  C   UNL A   1      42.110  29.357  28.568  1.00  0.00     0.031 A 
ATOM     40  C   UNL A   1      43.277  30.302  28.597  1.00  0.00     0.074 A 
ATOM     41  C   UNL A   1      42.265  28.052  28.293  1.00  0.00     0.049 A 
ATOM     42  N   UNL A   1      44.532  30.081  28.315  1.00  0.00    -0.248 NA
ATOM     43  C   UNL A   1      42.988  31.689  29.003  1.00  0.00     0.031 C 
ATOM     44  C   UNL A   1      41.196  27.054  28.313  1.00  0.00     0.029 A 
ATOM     45  N   UNL A   1      43.384  27.345  27.950  1.00  0.00    -0.354 N 
ATOM     46  C   UNL A   1      45.179  31.296  28.504  1.00  0.00     0.074 A 
ATOM     47  C   UNL A   1      44.175  32.261  28.889  1.00  0.00     0.031 C 
ATOM     48  C   UNL A   1      41.714  25.857  27.989  1.00  0.00     0.029 A 
ATOM     49  C   UNL A   1      43.139  26.016  27.707  1.00  0.00     0.049 A 
ATOM     50  H   UNL A   1      44.279  27.750  27.884  1.00  0.00     0.167 HD
ATOM     51  C   UNL A   1      46.498  31.573  28.378  1.00  0.00     0.037 A 
ATOM     52  C   UNL A   1      43.977  25.050  27.284  1.00  0.00     0.037 A 
ATOM     53  C   UNL A   1      47.473  30.592  27.981  1.00  0.00     0.049 A 
ATOM     54  C   UNL A   1      45.424  25.405  27.057  1.00  0.00     0.074 A 
ATOM     55  C   UNL A   1      48.834  30.751  27.806  1.00  0.00     0.029 A 
ATOM     56  N   UNL A   1      47.181  29.267  27.687  1.00  0.00    -0.354 N 
ATOM     57  N   UNL A   1      46.031  26.555  27.241  1.00  0.00    -0.248 NA
ATOM     58  C   UNL A   1      46.300  24.333  26.569  1.00  0.00     0.031 C 
ATOM     59  C   UNL A   1      49.356  29.536  27.351  1.00  0.00     0.029 A 
ATOM     60  C   UNL A   1      48.333  28.602  27.306  1.00  0.00     0.049 A 
ATOM     61  H   UNL A   1      46.286  28.860  27.743  1.00  0.00     0.167 HD
ATOM     62  C   UNL A   1      47.367  26.338  26.922  1.00  0.00     0.074 A 
ATOM     63  C   UNL A   1      47.478  24.941  26.545  1.00  0.00     0.031 C 
ATOM     64  C   UNL A   1      48.410  27.207  26.941  1.00  0.00     0.037 A 
BRANCH  51  65
ATOM     65  C   UNL A   1      46.938  32.989  28.629  1.00  0.00     0.058 A 
ATOM     66  C   UNL A   1      46.982  33.949  27.604  1.00  0.00     0.135 A 
ATOM     67  C   UNL A   1      47.324  33.396  29.918  1.00  0.00     0.135 A 
ATOM     68  F   UNL A   1      46.647  33.613  26.347  1.00  0.00    -0.206 F 
ATOM     69  C   UNL A   1      47.424  35.248  27.839  1.00  0.00     0.059 A 
ATOM     70  C   UNL A   1      47.738  34.697  30.182  1.00  0.00     0.059 A 
ATOM     71  F   UNL A   1      47.310  32.520  30.935  1.00  0.00    -0.206 F 
ATOM     72  C   UNL A   1      47.800  35.613  29.132  1.00  0.00     0.060 A 
BRANCH  72  73
ATOM     73  S   UNL A   1      48.371  37.301  29.421  1.00  0.00     0.124 S 
ATOM     74  O   UNL A   1      49.657  37.296  28.730  1.00  0.00    -0.237 OA
ATOM     75  O   UNL A   1      47.319  38.096  28.796  1.00  0.00    -0.237 OA
ATOM     76  O   UNL A   1      48.442  37.393  30.876  1.00  0.00    -0.744 OA
ENDBRANCH  72  73
ENDBRANCH  51  65
BRANCH  52  77
ATOM     77  C   UNL A   1      43.469  23.673  27.050  1.00  0.00     0.058 A 
ATOM     78  C   UNL A   1      43.283  22.778  28.113  1.00  0.00     0.135 A 
ATOM     79  C   UNL A   1      43.147  23.226  25.758  1.00  0.00     0.135 A 
ATOM     80  F   UNL A   1      43.583  23.153  29.366  1.00  0.00    -0.206 F 
ATOM     81  C   UNL A   1      42.809  21.487  27.905  1.00  0.00     0.059 A 
ATOM     82  C   UNL A   1      42.643  21.949  25.528  1.00  0.00     0.059 A 
ATOM     83  F   UNL A   1      43.294  24.046  24.705  1.00  0.00    -0.206 F 
ATOM     84  C   UNL A   1      42.487  21.083  26.609  1.00  0.00     0.060 A 
BRANCH  84  85
ATOM     85  S   UNL A   1      41.824  19.422  26.359  1.00  0.00     0.124 S 
ATOM     86  O   UNL A   1      40.395  19.687  26.251  1.00  0.00    -0.237 OA
ATOM     87  O   UNL A   1      42.493  19.012  25.128  1.00  0.00    -0.237 OA
ATOM     88  O   UNL A   1      42.246  18.707  27.560  1.00  0.00    -0.744 OA
ENDBRANCH  84  85
ENDBRANCH  52  77
BRANCH  64  89
ATOM     89  C   UNL A   1      49.766  26.663  26.585  1.00  0.00     0.058 A 
ATOM     90  C   UNL A   1      50.620  26.110  27.551  1.00  0.00     0.135 A 
ATOM     91  C   UNL A   1      50.190  26.646  25.246  1.00  0.00     0.135 A 
ATOM     92  F   UNL A   1      50.265  26.107  28.846  1.00  0.00    -0.206 F 
ATOM     93  C   UNL A   1      51.860  25.583  27.205  1.00  0.00     0.059 A 
ATOM     94  C   UNL A   1      51.410  26.093  24.873  1.00  0.00     0.059 A 
ATOM     95  F   UNL A   1      49.406  27.152  24.280  1.00  0.00    -0.206 F 
ATOM     96  C   UNL A   1      52.244  25.576  25.863  1.00  0.00     0.060 A 
BRANCH  96  97
ATOM     97  S   UNL A   1      53.840  24.857  25.426  1.00  0.00     0.124 S 
ATOM     98  O   UNL A   1      54.575  24.990  26.680  1.00  0.00    -0.237 OA
ATOM     99  O   UNL A   1      53.475  23.495  25.047  1.00  0.00    -0.237 OA
ATOM    100  O   UNL A   1      54.306  25.702  24.332  1.00  0.00    -0.744 OA
ENDBRANCH  96  97
ENDBRANCH  64  89
ENDBRANCH  38  39
ENDBRANCH  31  33
ENDBRANCH  30  31
ENDBRANCH  29  30
ENDBRANCH  28  29
ENDBRANCH  27  28
ENDBRANCH  26  27
ENDBRANCH   1  26
TORSDOF 25
ENDMDL
MODEL 3
REMARK VINA RESULT:      -8.6      4.359      5.813
REMARK SMILES Cc1ccc(C(=O)[C@@H]2CCC[C@H]2C(=O)OCCOCCOCCOCCOC(=O)c2ccc(-c3c4nc(c(-c5c(F)cc(S(=O)(=O)[O-])cc5F)c5ccc([nH]5)c(-c5c(F)cc(S(=O)(=O)[O-])cc5F)c5nc(c(-c6c(F)cc(S(=O)(=O)[O-])cc6F)c6ccc3[nH]6)C=C5)C=C4)cc2)c(C)c1
REMARK SMILES IDX 22 1 21 2 20 3 19 4 18 5 17 6 16 7 15 8 13 9 14 10 12 11
REMARK SMILES IDX 8 12 9 13 10 14 11 15 6 16 7 17 5 18 1 19 2 20 3 21 98 22
REMARK SMILES IDX 4 23 96 24 97 25 23 26 24 27 25 28 26 29 27 30 28 31 29 32
REMARK SMILES IDX 30 33 31 34 95 35 32 36 94 37 33 38 34 39 35 40 88 41 36 42
REMARK SMILES IDX 93 43 87 44 89 45 37 46 92 47 86 48 85 49 38 51 72 52 51 53
REMARK SMILES IDX 71 54 52 55 55 56 70 57 90 58 53 59 54 60 69 62 91 63 56 64
REMARK SMILES IDX 39 65 40 66 49 67 41 68 42 69 48 70 50 71 43 72 44 73 45 74
REMARK SMILES IDX 46 75 47 76 73 77 74 78 83 79 75 80 76 81 82 82 84 83 77 84
REMARK SMILES IDX 78 85 79 86 80 87 81 88 57 89 58 90 67 91 59 92 60 93 66 94
REMARK SMILES IDX 68 95 61 96 62 97 63 98 64 99 65 100
REMARK H PARENT 89 50 55 61
REMARK Flexibility Score: inf
ROOT
ATOM      1  C   UNL A   1      42.983  18.099  25.959  1.00  0.00     0.188 C 
ENDROOT
BRANCH   1   2
ATOM      2  O   UNL A   1      44.263  18.149  25.382  1.00  0.00    -0.377 OA
BRANCH   2   3
ATOM      3  C   UNL A   1      44.767  19.373  24.893  1.00  0.00     0.188 C 
BRANCH   3   4
ATOM      4  C   UNL A   1      46.204  19.860  25.041  1.00  0.00     0.188 C 
BRANCH   4   5
ATOM      5  O   UNL A   1      46.364  21.250  24.986  1.00  0.00    -0.376 OA
BRANCH   5   6
ATOM      6  C   UNL A   1      45.325  22.165  25.241  1.00  0.00     0.202 C 
BRANCH   6   7
ATOM      7  C   UNL A   1      45.196  23.595  24.672  1.00  0.00     0.261 C 
BRANCH   7   8
ATOM      8  O   UNL A   1      46.366  24.395  24.434  1.00  0.00    -0.463 OA
BRANCH   8   9
ATOM      9  C   UNL A   1      46.307  25.677  24.875  1.00  0.00     0.309 C 
ATOM     10  O   UNL A   1      45.338  26.411  24.690  1.00  0.00    -0.252 OA
BRANCH   9  11
ATOM     11  C   UNL A   1      47.564  26.210  25.577  1.00  0.00     0.110 C 
ATOM     12  C   UNL A   1      48.385  25.429  26.629  1.00  0.00     0.075 C 
ATOM     13  C   UNL A   1      49.812  25.990  26.471  1.00  0.00     0.013 C 
ATOM     14  C   UNL A   1      49.950  26.514  25.060  1.00  0.00     0.002 C 
ATOM     15  C   UNL A   1      48.570  26.448  24.440  1.00  0.00     0.016 C 
BRANCH  12  16
ATOM     16  C   UNL A   1      48.171  25.454  28.174  1.00  0.00     0.167 C 
ATOM     17  O   UNL A   1      49.037  25.996  28.869  1.00  0.00    -0.294 OA
BRANCH  16  18
ATOM     18  C   UNL A   1      46.930  24.990  28.889  1.00  0.00     0.021 A 
ATOM     19  C   UNL A   1      43.336  23.599  30.886  1.00  0.00     0.044 C 
ATOM     20  C   UNL A   1      44.569  24.080  30.180  1.00  0.00    -0.051 A 
ATOM     21  C   UNL A   1      44.896  23.640  28.899  1.00  0.00     0.004 A 
ATOM     22  C   UNL A   1      45.404  25.010  30.800  1.00  0.00     0.007 A 
ATOM     23  C   UNL A   1      46.048  24.108  28.255  1.00  0.00     0.012 A 
ATOM     24  C   UNL A   1      46.574  25.487  30.170  1.00  0.00    -0.040 A 
ATOM     25  C   UNL A   1      47.321  26.565  30.916  1.00  0.00     0.045 C 
ENDBRANCH  16  18
ENDBRANCH  12  16
ENDBRANCH   9  11
ENDBRANCH   8   9
ENDBRANCH   7   8
ENDBRANCH   6   7
ENDBRANCH   5   6
ENDBRANCH   4   5
ENDBRANCH   3   4
ENDBRANCH   2   3
ENDBRANCH   1   2
BRANCH   1  26
ATOM     26  C   UNL A   1      42.692  19.220  26.970  1.00  0.00     0.188 C 
BRANCH  26  27
ATOM     27  O   UNL A   1      41.367  19.522  27.406  1.00  0.00    -0.376 OA
BRANCH  27  28
ATOM     28  C   UNL A   1      40.921  20.859  27.548  1.00  0.00     0.202 C 
BRANCH  28  29
ATOM     29  C   UNL A   1      40.142  21.540  26.421  1.00  0.00     0.261 C 
BRANCH  29  30
ATOM     30  O   UNL A   1      40.577  22.859  26.093  1.00  0.00    -0.460 OA
BRANCH  30  31
ATOM     31  C   UNL A   1      39.769  23.836  26.553  1.00  0.00     0.338 C 
ATOM     32  O   UNL A   1      38.561  23.773  26.751  1.00  0.00    -0.246 OA
BRANCH  31  33
ATOM     33  C   UNL A   1      40.588  24.985  26.957  1.00  0.00     0.060 A 
ATOM     34  C   UNL A   1      41.090  24.995  28.264  1.00  0.00     0.016 A 
ATOM     35  C   UNL A   1      40.819  26.053  26.087  1.00  0.00     0.016 A 
ATOM     36  C   UNL A   1      41.794  26.095  28.725  1.00  0.00     0.010 A 
ATOM     37  C   UNL A   1      41.498  27.174  26.560  1.00  0.00     0.010 A 
ATOM     38  C   UNL A   1      41.943  27.210  27.893  1.00  0.00    -0.014 A 
BRANCH  38  39
ATOM     39  C   UNL A   1      42.337  28.488  28.513  1.00  0.00     0.031 A 
ATOM     40  C   UNL A   1      43.798  28.834  28.530  1.00  0.00     0.074 A 
ATOM     41  C   UNL A   1      41.404  29.339  28.969  1.00  0.00     0.049 A 
ATOM     42  N   UNL A   1      44.395  29.891  29.010  1.00  0.00    -0.248 NA
ATOM     43  C   UNL A   1      44.712  27.854  27.917  1.00  0.00     0.031 C 
ATOM     44  C   UNL A   1      39.960  29.110  28.925  1.00  0.00     0.029 A 
ATOM     45  N   UNL A   1      41.536  30.570  29.550  1.00  0.00    -0.354 N 
ATOM     46  C   UNL A   1      45.750  29.702  28.762  1.00  0.00     0.074 A 
ATOM     47  C   UNL A   1      45.893  28.413  28.124  1.00  0.00     0.031 C 
ATOM     48  C   UNL A   1      39.336  30.170  29.465  1.00  0.00     0.029 A 
ATOM     49  C   UNL A   1      40.338  31.131  29.921  1.00  0.00     0.049 A 
ATOM     50  H   UNL A   1      42.404  31.012  29.690  1.00  0.00     0.167 HD
ATOM     51  C   UNL A   1      46.778  30.538  29.035  1.00  0.00     0.037 A 
ATOM     52  C   UNL A   1      40.094  32.283  30.574  1.00  0.00     0.037 A 
ATOM     53  C   UNL A   1      46.605  31.811  29.684  1.00  0.00     0.049 A 
ATOM     54  C   UNL A   1      41.263  33.154  30.955  1.00  0.00     0.074 A 
ATOM     55  C   UNL A   1      47.567  32.742  30.025  1.00  0.00     0.029 A 
ATOM     56  N   UNL A   1      45.383  32.323  30.097  1.00  0.00    -0.354 N 
ATOM     57  N   UNL A   1      42.542  32.971  30.715  1.00  0.00    -0.248 NA
ATOM     58  C   UNL A   1      40.959  34.387  31.690  1.00  0.00     0.031 C 
ATOM     59  C   UNL A   1      46.932  33.792  30.698  1.00  0.00     0.029 A 
ATOM     60  C   UNL A   1      45.568  33.548  30.716  1.00  0.00     0.049 A 
ATOM     61  H   UNL A   1      44.512  31.881  29.969  1.00  0.00     0.167 HD
ATOM     62  C   UNL A   1      43.193  34.081  31.242  1.00  0.00     0.074 A 
ATOM     63  C   UNL A   1      42.161  34.934  31.802  1.00  0.00     0.031 C 
ATOM     64  C   UNL A   1      44.517  34.375  31.259  1.00  0.00     0.037 A 
BRANCH  51  65
ATOM     65  C   UNL A   1      48.163  30.078  28.673  1.00  0.00     0.058 A 
ATOM     66  C   UNL A   1      49.052  29.561  29.630  1.00  0.00     0.135 A 
ATOM     67  C   UNL A   1      48.614  30.156  27.344  1.00  0.00     0.135 A 
ATOM     68  F   UNL A   1      48.686  29.484  30.921  1.00  0.00    -0.206 F 
ATOM     69  C   UNL A   1      50.344  29.170  29.292  1.00  0.00     0.059 A 
ATOM     70  C   UNL A   1      49.890  29.741  26.977  1.00  0.00     0.059 A 
ATOM     71  F   UNL A   1      47.812  30.650  26.387  1.00  0.00    -0.206 F 
ATOM     72  C   UNL A   1      50.754  29.264  27.961  1.00  0.00     0.060 A 
BRANCH  72  73
ATOM     73  S   UNL A   1      52.433  28.755  27.537  1.00  0.00     0.124 S 
ATOM     74  O   UNL A   1      52.480  27.407  28.096  1.00  0.00    -0.237 OA
ATOM     75  O   UNL A   1      52.424  28.836  26.080  1.00  0.00    -0.237 OA
ATOM     76  O   UNL A   1      53.270  29.742  28.212  1.00  0.00    -0.744 OA
ENDBRANCH  72  73
ENDBRANCH  51  65
BRANCH  52  77
ATOM     77  C   UNL A   1      38.697  32.670  30.906  1.00  0.00     0.058 A 
ATOM     78  C   UNL A   1      38.123  32.328  32.139  1.00  0.00     0.135 A 
ATOM     79  C   UNL A   1      37.911  33.401  30.001  1.00  0.00     0.135 A 
ATOM     80  F   UNL A   1      38.830  31.624  33.035  1.00  0.00    -0.206 F 
ATOM     81  C   UNL A   1      36.817  32.685  32.459  1.00  0.00     0.059 A 
ATOM     82  C   UNL A   1      36.612  33.795  30.310  1.00  0.00     0.059 A 
ATOM     83  F   UNL A   1      38.414  33.765  28.811  1.00  0.00    -0.206 F 
ATOM     84  C   UNL A   1      36.071  33.423  31.540  1.00  0.00     0.060 A 
BRANCH  84  85
ATOM     85  S   UNL A   1      34.395  33.924  31.988  1.00  0.00     0.124 S 
ATOM     86  O   UNL A   1      33.853  34.330  30.697  1.00  0.00    -0.237 OA
ATOM     87  O   UNL A   1      33.851  32.691  32.550  1.00  0.00    -0.237 OA
ATOM     88  O   UNL A   1      34.610  35.000  32.950  1.00  0.00    -0.744 OA
ENDBRANCH  84  85
ENDBRANCH  52  77
BRANCH  64  89
ATOM     89  C   UNL A   1      44.923  35.690  31.867  1.00  0.00     0.058 A 
ATOM     90  C   UNL A   1      45.009  36.864  31.103  1.00  0.00     0.135 A 
ATOM     91  C   UNL A   1      45.174  35.784  33.246  1.00  0.00     0.135 A 
ATOM     92  F   UNL A   1      44.785  36.829  29.780  1.00  0.00    -0.206 F 
ATOM     93  C   UNL A   1      45.356  38.081  31.681  1.00  0.00     0.059 A 
ATOM     94  C   UNL A   1      45.489  36.995  33.850  1.00  0.00     0.059 A 
ATOM     95  F   UNL A   1      45.094  34.692  34.024  1.00  0.00    -0.206 F 
ATOM     96  C   UNL A   1      45.590  38.136  33.057  1.00  0.00     0.060 A 
BRANCH  96  97
ATOM     97  S   UNL A   1      46.005  39.727  33.797  1.00  0.00     0.124 S 
ATOM     98  O   UNL A   1      45.236  40.649  32.967  1.00  0.00    -0.237 OA
ATOM     99  O   UNL A   1      45.533  39.565  35.169  1.00  0.00    -0.237 OA
ATOM    100  O   UNL A   1      47.455  39.807  33.645  1.00  0.00    -0.744 OA
ENDBRANCH  96  97
ENDBRANCH  64  89
ENDBRANCH  38  39
ENDBRANCH  31  33
ENDBRANCH  30  31
ENDBRANCH  29  30
ENDBRANCH  28  29
ENDBRANCH  27  28
ENDBRANCH  26  27
ENDBRANCH   1  26
TORSDOF 25
ENDMDL
