MODEL 1
REMARK VINA RESULT:     -11.4      0.000      0.000
REMARK SMILES O=C(OCCOCCOCCOCCOC(=O)c1ccc(-c2c3nc(c(-c4c(F)cc(S(=O)(=O)[O-])cc4F)c4ccc([nH]4)c(-c4c(F)cc(S(=O)(=O)[O-])cc4F)c4nc(c(-c5c(F)cc(S(=O)(=O)[O-])cc5F)c5ccc2[nH]5)C=C4)C=C3)cc1)C1=Cc2cc(Cl)c(Cl)cc2O[C@@H]1C(F)(F)F
REMARK SMILES IDX 10 1 9 2 8 3 7 4 6 5 5 6 4 7 3 8 2 9 1 10 84 11 85 12 95 13
REMARK SMILES IDX 86 14 94 15 87 16 93 17 88 18 92 19 89 20 90 21 91 22 96 23
REMARK SMILES IDX 97 24 98 25 99 26 11 27 12 28 13 29 14 30 15 31 16 32 17 33
REMARK SMILES IDX 18 34 19 35 83 36 20 37 82 38 21 39 22 40 23 41 76 42 24 43
REMARK SMILES IDX 81 44 75 45 77 46 25 47 80 48 74 49 73 50 26 52 60 53 39 54
REMARK SMILES IDX 59 55 40 56 43 57 58 58 78 59 41 60 42 61 57 63 79 64 44 65
REMARK SMILES IDX 27 66 28 67 37 68 29 69 30 70 36 71 38 72 31 73 32 74 33 75
REMARK SMILES IDX 34 76 35 77 61 78 62 79 71 80 63 81 64 82 70 83 72 84 65 85
REMARK SMILES IDX 66 86 67 87 68 88 69 89 45 90 46 91 55 92 47 93 48 94 54 95
REMARK SMILES IDX 56 96 49 97 50 98 51 99 52 100 53 101
REMARK H PARENT 77 51 43 62
REMARK Flexibility Score: inf
ROOT
ATOM      1  C   UNL A   1      40.213  21.162  26.752  1.00  0.00     0.188 C 
ENDROOT
BRANCH   1   2
ATOM      2  O   UNL A   1      39.548  21.652  25.612  1.00  0.00    -0.377 OA
BRANCH   2   3
ATOM      3  C   UNL A   1      38.151  21.631  25.778  1.00  0.00     0.188 C 
BRANCH   3   4
ATOM      4  C   UNL A   1      37.445  22.991  25.652  1.00  0.00     0.188 C 
BRANCH   4   5
ATOM      5  O   UNL A   1      36.950  23.579  24.393  1.00  0.00    -0.376 OA
BRANCH   5   6
ATOM      6  C   UNL A   1      36.068  22.962  23.114  1.00  0.00     0.202 C 
BRANCH   6   7
ATOM      7  C   UNL A   1      33.921  23.187  22.791  1.00  0.00     0.261 C 
BRANCH   7   8
ATOM      8  O   UNL A   1      33.068  24.361  23.215  1.00  0.00    -0.460 OA
BRANCH   8   9
ATOM      9  C   UNL A   1      31.924  23.971  23.786  1.00  0.00     0.338 C 
ATOM     10  O   UNL A   1      30.815  23.978  23.314  1.00  0.00    -0.246 OA
BRANCH   9  11
ATOM     11  C   UNL A   1      32.367  24.053  25.171  1.00  0.00     0.087 C 
ATOM     12  C   UNL A   1      33.495  24.966  25.394  1.00  0.00     0.027 C 
ATOM     13  C   UNL A   1      30.583  24.348  25.817  1.00  0.00     0.316 C 
ATOM     14  C   UNL A   1      33.350  26.616  26.096  1.00  0.00     0.019 A 
ATOM     15  O   UNL A   1      30.356  26.178  26.454  1.00  0.00    -0.475 OA
ATOM     16  C   UNL A   1      34.460  27.408  26.193  1.00  0.00     0.034 A 
ATOM     17  C   UNL A   1      31.822  27.290  26.545  1.00  0.00     0.129 A 
ATOM     18  C   UNL A   1      34.240  28.714  26.687  1.00  0.00     0.060 A 
ATOM     19  C   UNL A   1      31.688  28.575  27.002  1.00  0.00     0.069 A 
ATOM     20  Cl  UNL A   1      35.685  29.687  26.798  1.00  0.00    -0.083 Cl
ATOM     21  C   UNL A   1      32.933  29.262  27.077  1.00  0.00     0.063 A 
ATOM     22  Cl  UNL A   1      32.858  30.888  27.704  1.00  0.00    -0.083 Cl
BRANCH  13  23
ATOM     23  C   UNL A   1      30.534  22.868  26.605  1.00  0.00     0.430 C 
ATOM     24  F   UNL A   1      31.338  22.679  27.666  1.00  0.00    -0.167 F 
ATOM     25  F   UNL A   1      29.273  22.752  27.128  1.00  0.00    -0.167 F 
ATOM     26  F   UNL A   1      30.658  21.781  25.802  1.00  0.00    -0.167 F 
ENDBRANCH  13  23
ENDBRANCH   9  11
ENDBRANCH   8   9
ENDBRANCH   7   8
ENDBRANCH   6   7
ENDBRANCH   5   6
ENDBRANCH   4   5
ENDBRANCH   3   4
ENDBRANCH   2   3
ENDBRANCH   1   2
BRANCH   1  27
ATOM     27  C   UNL A   1      41.550  20.451  26.505  1.00  0.00     0.188 C 
BRANCH  27  28
ATOM     28  O   UNL A   1      42.794  21.132  26.444  1.00  0.00    -0.376 OA
BRANCH  28  29
ATOM     29  C   UNL A   1      43.019  22.200  25.544  1.00  0.00     0.202 C 
BRANCH  29  30
ATOM     30  C   UNL A   1      42.922  23.671  25.969  1.00  0.00     0.261 C 
BRANCH  30  31
ATOM     31  O   UNL A   1      41.629  24.136  26.368  1.00  0.00    -0.460 OA
BRANCH  31  32
ATOM     32  C   UNL A   1      41.414  25.456  26.183  1.00  0.00     0.338 C 
ATOM     33  O   UNL A   1      41.071  26.003  25.149  1.00  0.00    -0.246 OA
BRANCH  32  34
ATOM     34  C   UNL A   1      41.462  26.146  27.491  1.00  0.00     0.060 A 
ATOM     35  C   UNL A   1      40.311  26.116  28.296  1.00  0.00     0.016 A 
ATOM     36  C   UNL A   1      42.606  26.818  27.922  1.00  0.00     0.016 A 
ATOM     37  C   UNL A   1      40.277  26.800  29.505  1.00  0.00     0.010 A 
ATOM     38  C   UNL A   1      42.556  27.550  29.111  1.00  0.00     0.010 A 
ATOM     39  C   UNL A   1      41.373  27.584  29.873  1.00  0.00    -0.014 A 
BRANCH  39  40
ATOM     40  C   UNL A   1      41.176  28.656  30.873  1.00  0.00     0.031 A 
ATOM     41  C   UNL A   1      42.066  28.646  32.087  1.00  0.00     0.074 A 
ATOM     42  C   UNL A   1      40.265  29.627  30.695  1.00  0.00     0.049 A 
ATOM     43  N   UNL A   1      42.037  29.408  33.146  1.00  0.00    -0.248 NA
ATOM     44  C   UNL A   1      43.130  27.625  32.108  1.00  0.00     0.031 C 
ATOM     45  C   UNL A   1      39.405  29.776  29.524  1.00  0.00     0.029 A 
ATOM     46  N   UNL A   1      39.908  30.665  31.515  1.00  0.00    -0.354 N 
ATOM     47  C   UNL A   1      43.060  28.947  33.967  1.00  0.00     0.074 A 
ATOM     48  C   UNL A   1      43.669  27.819  33.301  1.00  0.00     0.031 C 
ATOM     49  C   UNL A   1      38.597  30.834  29.712  1.00  0.00     0.029 A 
ATOM     50  C   UNL A   1      38.856  31.406  31.033  1.00  0.00     0.049 A 
ATOM     51  H   UNL A   1      40.360  30.862  32.367  1.00  0.00     0.167 HD
ATOM     52  C   UNL A   1      43.455  29.428  35.169  1.00  0.00     0.037 A 
ATOM     53  C   UNL A   1      38.163  32.406  31.612  1.00  0.00     0.037 A 
ATOM     54  C   UNL A   1      42.834  30.552  35.818  1.00  0.00     0.049 A 
ATOM     55  C   UNL A   1      38.563  32.870  32.991  1.00  0.00     0.074 A 
ATOM     56  C   UNL A   1      43.160  31.133  37.029  1.00  0.00     0.029 A 
ATOM     57  N   UNL A   1      41.750  31.259  35.313  1.00  0.00    -0.354 N 
ATOM     58  N   UNL A   1      39.534  32.436  33.760  1.00  0.00    -0.248 NA
ATOM     59  C   UNL A   1      37.776  33.962  33.580  1.00  0.00     0.031 C 
ATOM     60  C   UNL A   1      42.226  32.138  37.295  1.00  0.00     0.029 A 
ATOM     61  C   UNL A   1      41.372  32.245  36.208  1.00  0.00     0.049 A 
ATOM     62  H   UNL A   1      41.315  31.083  34.448  1.00  0.00     0.167 HD
ATOM     63  C   UNL A   1      39.498  33.228  34.906  1.00  0.00     0.074 A 
ATOM     64  C   UNL A   1      38.416  34.171  34.723  1.00  0.00     0.031 C 
ATOM     65  C   UNL A   1      40.294  33.183  36.005  1.00  0.00     0.037 A 
BRANCH  52  66
ATOM     66  C   UNL A   1      44.576  28.714  35.875  1.00  0.00     0.058 A 
ATOM     67  C   UNL A   1      45.926  29.036  35.657  1.00  0.00     0.135 A 
ATOM     68  C   UNL A   1      44.292  27.703  36.808  1.00  0.00     0.135 A 
ATOM     69  F   UNL A   1      46.262  29.978  34.761  1.00  0.00    -0.206 F 
ATOM     70  C   UNL A   1      46.952  28.363  36.315  1.00  0.00     0.059 A 
ATOM     71  C   UNL A   1      45.298  27.043  37.505  1.00  0.00     0.059 A 
ATOM     72  F   UNL A   1      43.020  27.346  37.053  1.00  0.00    -0.206 F 
ATOM     73  C   UNL A   1      46.627  27.371  37.242  1.00  0.00     0.060 A 
BRANCH  73  74
ATOM     74  S   UNL A   1      47.969  26.520  38.097  1.00  0.00     0.124 S 
ATOM     75  O   UNL A   1      49.074  26.700  37.162  1.00  0.00    -0.237 OA
ATOM     76  O   UNL A   1      48.065  27.271  39.345  1.00  0.00    -0.237 OA
ATOM     77  O   UNL A   1      47.477  25.152  38.229  1.00  0.00    -0.744 OA
ENDBRANCH  73  74
ENDBRANCH  52  66
BRANCH  53  78
ATOM     78  C   UNL A   1      37.012  33.023  30.900  1.00  0.00     0.058 A 
ATOM     79  C   UNL A   1      35.690  32.747  31.277  1.00  0.00     0.135 A 
ATOM     80  C   UNL A   1      37.211  33.908  29.826  1.00  0.00     0.135 A 
ATOM     81  F   UNL A   1      35.445  31.897  32.287  1.00  0.00    -0.206 F 
ATOM     82  C   UNL A   1      34.607  33.311  30.611  1.00  0.00     0.059 A 
ATOM     83  C   UNL A   1      36.146  34.511  29.167  1.00  0.00     0.059 A 
ATOM     84  F   UNL A   1      38.456  34.214  29.428  1.00  0.00    -0.206 F 
ATOM     85  C   UNL A   1      34.847  34.201  29.562  1.00  0.00     0.060 A 
BRANCH  85  86
ATOM     86  S   UNL A   1      33.434  34.976  28.748  1.00  0.00     0.124 S 
ATOM     87  O   UNL A   1      32.452  35.009  29.825  1.00  0.00    -0.237 OA
ATOM     88  O   UNL A   1      33.986  36.265  28.345  1.00  0.00    -0.237 OA
ATOM     89  O   UNL A   1      33.134  34.060  27.649  1.00  0.00    -0.744 OA
ENDBRANCH  85  86
ENDBRANCH  53  78
BRANCH  65  90
ATOM     90  C   UNL A   1      40.063  34.217  37.078  1.00  0.00     0.058 A 
ATOM     91  C   UNL A   1      40.571  35.520  36.984  1.00  0.00     0.135 A 
ATOM     92  C   UNL A   1      39.262  33.907  38.191  1.00  0.00     0.135 A 
ATOM     93  F   UNL A   1      41.346  35.871  35.945  1.00  0.00    -0.206 F 
ATOM     94  C   UNL A   1      40.320  36.472  37.967  1.00  0.00     0.059 A 
ATOM     95  C   UNL A   1      38.964  34.854  39.166  1.00  0.00     0.059 A 
ATOM     96  F   UNL A   1      38.737  32.679  38.328  1.00  0.00    -0.206 F 
ATOM     97  C   UNL A   1      39.509  36.131  39.051  1.00  0.00     0.060 A 
BRANCH  97  98
ATOM     98  S   UNL A   1      39.161  37.388  40.299  1.00  0.00     0.124 S 
ATOM     99  O   UNL A   1      38.586  36.585  41.374  1.00  0.00    -0.237 OA
ATOM    100  O   UNL A   1      40.486  37.940  40.560  1.00  0.00    -0.237 OA
ATOM    101  O   UNL A   1      38.232  38.291  39.626  1.00  0.00    -0.744 OA
ENDBRANCH  97  98
ENDBRANCH  65  90
ENDBRANCH  39  40
ENDBRANCH  32  34
ENDBRANCH  31  32
ENDBRANCH  30  31
ENDBRANCH  29  30
ENDBRANCH  28  29
ENDBRANCH  27  28
ENDBRANCH   1  27
TORSDOF 24
ENDMDL
MODEL 2
REMARK VINA RESULT:     -10.9      4.698      6.039
REMARK SMILES O=C(OCCOCCOCCOCCOC(=O)c1ccc(-c2c3nc(c(-c4c(F)cc(S(=O)(=O)[O-])cc4F)c4ccc([nH]4)c(-c4c(F)cc(S(=O)(=O)[O-])cc4F)c4nc(c(-c5c(F)cc(S(=O)(=O)[O-])cc5F)c5ccc2[nH]5)C=C4)C=C3)cc1)C1=Cc2cc(Cl)c(Cl)cc2O[C@@H]1C(F)(F)F
REMARK SMILES IDX 10 1 9 2 8 3 7 4 6 5 5 6 4 7 3 8 2 9 1 10 84 11 85 12 95 13
REMARK SMILES IDX 86 14 94 15 87 16 93 17 88 18 92 19 89 20 90 21 91 22 96 23
REMARK SMILES IDX 97 24 98 25 99 26 11 27 12 28 13 29 14 30 15 31 16 32 17 33
REMARK SMILES IDX 18 34 19 35 83 36 20 37 82 38 21 39 22 40 23 41 76 42 24 43
REMARK SMILES IDX 81 44 75 45 77 46 25 47 80 48 74 49 73 50 26 52 60 53 39 54
REMARK SMILES IDX 59 55 40 56 43 57 58 58 78 59 41 60 42 61 57 63 79 64 44 65
REMARK SMILES IDX 27 66 28 67 37 68 29 69 30 70 36 71 38 72 31 73 32 74 33 75
REMARK SMILES IDX 34 76 35 77 61 78 62 79 71 80 63 81 64 82 70 83 72 84 65 85
REMARK SMILES IDX 66 86 67 87 68 88 69 89 45 90 46 91 55 92 47 93 48 94 54 95
REMARK SMILES IDX 56 96 49 97 50 98 51 99 52 100 53 101
REMARK H PARENT 77 51 43 62
REMARK Flexibility Score: inf
ROOT
ATOM      1  C   UNL A   1      34.219  19.219  24.792  1.00  0.00     0.188 C 
ENDROOT
BRANCH   1   2
ATOM      2  O   UNL A   1      32.833  19.296  25.024  1.00  0.00    -0.377 OA
BRANCH   2   3
ATOM      3  C   UNL A   1      32.366  20.621  24.944  1.00  0.00     0.188 C 
BRANCH   3   4
ATOM      4  C   UNL A   1      32.202  21.184  23.523  1.00  0.00     0.188 C 
BRANCH   4   5
ATOM      5  O   UNL A   1      33.176  22.050  22.834  1.00  0.00    -0.376 OA
BRANCH   5   6
ATOM      6  C   UNL A   1      33.041  23.153  21.584  1.00  0.00     0.202 C 
BRANCH   6   7
ATOM      7  C   UNL A   1      32.924  25.324  21.778  1.00  0.00     0.261 C 
BRANCH   7   8
ATOM      8  O   UNL A   1      33.568  26.164  22.857  1.00  0.00    -0.460 OA
BRANCH   8   9
ATOM      9  C   UNL A   1      33.008  27.375  22.953  1.00  0.00     0.338 C 
ATOM     10  O   UNL A   1      33.234  28.355  22.288  1.00  0.00    -0.246 OA
BRANCH   9  11
ATOM     11  C   UNL A   1      32.510  27.245  24.315  1.00  0.00     0.087 C 
ATOM     12  C   UNL A   1      33.414  27.773  25.345  1.00  0.00     0.027 C 
ATOM     13  C   UNL A   1      30.810  28.012  23.860  1.00  0.00     0.316 C 
ATOM     14  C   UNL A   1      33.197  29.352  26.181  1.00  0.00     0.019 A 
ATOM     15  O   UNL A   1      30.605  29.789  24.639  1.00  0.00    -0.475 OA
ATOM     16  C   UNL A   1      34.141  29.778  27.074  1.00  0.00     0.034 A 
ATOM     17  C   UNL A   1      31.887  30.416  25.804  1.00  0.00     0.129 A 
ATOM     18  C   UNL A   1      33.927  31.060  27.627  1.00  0.00     0.060 A 
ATOM     19  C   UNL A   1      31.757  31.657  26.372  1.00  0.00     0.069 A 
ATOM     20  Cl  UNL A   1      35.152  31.560  28.765  1.00  0.00    -0.083 Cl
ATOM     21  C   UNL A   1      32.797  31.943  27.303  1.00  0.00     0.063 A 
ATOM     22  Cl  UNL A   1      32.675  33.482  28.115  1.00  0.00    -0.083 Cl
BRANCH  13  23
ATOM     23  C   UNL A   1      29.995  26.569  24.121  1.00  0.00     0.430 C 
ATOM     24  F   UNL A   1      30.110  25.975  25.322  1.00  0.00    -0.167 F 
ATOM     25  F   UNL A   1      28.659  26.859  24.028  1.00  0.00    -0.167 F 
ATOM     26  F   UNL A   1      30.191  25.616  23.175  1.00  0.00    -0.167 F 
ENDBRANCH  13  23
ENDBRANCH   9  11
ENDBRANCH   8   9
ENDBRANCH   7   8
ENDBRANCH   6   7
ENDBRANCH   5   6
ENDBRANCH   4   5
ENDBRANCH   3   4
ENDBRANCH   2   3
ENDBRANCH   1   2
BRANCH   1  27
ATOM     27  C   UNL A   1      35.049  20.434  25.227  1.00  0.00     0.188 C 
BRANCH  27  28
ATOM     28  O   UNL A   1      36.445  20.544  25.000  1.00  0.00    -0.376 OA
BRANCH  28  29
ATOM     29  C   UNL A   1      37.019  21.692  24.402  1.00  0.00     0.202 C 
BRANCH  29  30
ATOM     30  C   UNL A   1      37.748  22.768  25.217  1.00  0.00     0.261 C 
BRANCH  30  31
ATOM     31  O   UNL A   1      38.452  22.321  26.379  1.00  0.00    -0.460 OA
BRANCH  31  32
ATOM     32  C   UNL A   1      39.744  22.707  26.449  1.00  0.00     0.338 C 
ATOM     33  O   UNL A   1      40.713  22.095  26.035  1.00  0.00    -0.246 OA
BRANCH  32  34
ATOM     34  C   UNL A   1      39.811  24.103  26.934  1.00  0.00     0.060 A 
ATOM     35  C   UNL A   1      40.196  25.102  26.024  1.00  0.00     0.016 A 
ATOM     36  C   UNL A   1      39.511  24.433  28.256  1.00  0.00     0.016 A 
ATOM     37  C   UNL A   1      40.338  26.419  26.440  1.00  0.00     0.010 A 
ATOM     38  C   UNL A   1      39.705  25.747  28.688  1.00  0.00     0.010 A 
ATOM     39  C   UNL A   1      40.171  26.727  27.792  1.00  0.00    -0.014 A 
BRANCH  39  40
ATOM     40  C   UNL A   1      40.765  27.977  28.315  1.00  0.00     0.031 A 
ATOM     41  C   UNL A   1      42.257  28.137  28.202  1.00  0.00     0.074 A 
ATOM     42  C   UNL A   1      40.004  28.954  28.837  1.00  0.00     0.049 A 
ATOM     43  N   UNL A   1      43.029  29.085  28.662  1.00  0.00    -0.248 NA
ATOM     44  C   UNL A   1      42.975  27.073  27.478  1.00  0.00     0.031 C 
ATOM     45  C   UNL A   1      38.546  28.935  28.925  1.00  0.00     0.029 A 
ATOM     46  N   UNL A   1      40.365  30.147  29.405  1.00  0.00    -0.354 N 
ATOM     47  C   UNL A   1      44.322  28.721  28.303  1.00  0.00     0.074 A 
ATOM     48  C   UNL A   1      44.235  27.452  27.618  1.00  0.00     0.031 C 
ATOM     49  C   UNL A   1      38.135  30.059  29.539  1.00  0.00     0.029 A 
ATOM     50  C   UNL A   1      39.304  30.850  29.922  1.00  0.00     0.049 A 
ATOM     51  H   UNL A   1      41.294  30.470  29.440  1.00  0.00     0.167 HD
ATOM     52  C   UNL A   1      45.476  29.392  28.525  1.00  0.00     0.037 A 
ATOM     53  C   UNL A   1      39.288  31.983  30.652  1.00  0.00     0.037 A 
ATOM     54  C   UNL A   1      45.541  30.654  29.212  1.00  0.00     0.049 A 
ATOM     55  C   UNL A   1      40.594  32.670  30.965  1.00  0.00     0.074 A 
ATOM     56  C   UNL A   1      46.654  31.429  29.481  1.00  0.00     0.029 A 
ATOM     57  N   UNL A   1      44.448  31.322  29.749  1.00  0.00    -0.354 N 
ATOM     58  N   UNL A   1      41.813  32.326  30.617  1.00  0.00    -0.248 NA
ATOM     59  C   UNL A   1      40.524  33.900  31.764  1.00  0.00     0.031 C 
ATOM     60  C   UNL A   1      46.246  32.524  30.249  1.00  0.00     0.029 A 
ATOM     61  C   UNL A   1      44.867  32.480  30.382  1.00  0.00     0.049 A 
ATOM     62  H   UNL A   1      43.515  31.016  29.690  1.00  0.00     0.167 HD
ATOM     63  C   UNL A   1      42.649  33.319  31.124  1.00  0.00     0.074 A 
ATOM     64  C   UNL A   1      41.795  34.278  31.792  1.00  0.00     0.031 C 
ATOM     65  C   UNL A   1      44.000  33.430  31.036  1.00  0.00     0.037 A 
BRANCH  52  66
ATOM     66  C   UNL A   1      46.758  28.753  28.062  1.00  0.00     0.058 A 
ATOM     67  C   UNL A   1      47.494  27.875  28.875  1.00  0.00     0.135 A 
ATOM     68  C   UNL A   1      47.246  29.006  26.769  1.00  0.00     0.135 A 
ATOM     69  F   UNL A   1      47.089  27.611  30.127  1.00  0.00    -0.206 F 
ATOM     70  C   UNL A   1      48.680  27.295  28.434  1.00  0.00     0.059 A 
ATOM     71  C   UNL A   1      48.409  28.409  26.294  1.00  0.00     0.059 A 
ATOM     72  F   UNL A   1      46.590  29.843  25.950  1.00  0.00    -0.206 F 
ATOM     73  C   UNL A   1      49.127  27.564  27.139  1.00  0.00     0.060 A 
BRANCH  73  74
ATOM     74  S   UNL A   1      50.658  26.792  26.578  1.00  0.00     0.124 S 
ATOM     75  O   UNL A   1      51.199  27.820  25.695  1.00  0.00    -0.237 OA
ATOM     76  O   UNL A   1      51.378  26.589  27.832  1.00  0.00    -0.237 OA
ATOM     77  O   UNL A   1      50.204  25.573  25.916  1.00  0.00    -0.744 OA
ENDBRANCH  73  74
ENDBRANCH  52  66
BRANCH  53  78
ATOM     78  C   UNL A   1      37.997  32.528  31.151  1.00  0.00     0.058 A 
ATOM     79  C   UNL A   1      37.418  32.055  32.338  1.00  0.00     0.135 A 
ATOM     80  C   UNL A   1      37.316  33.538  30.452  1.00  0.00     0.135 A 
ATOM     81  F   UNL A   1      38.021  31.080  33.036  1.00  0.00    -0.206 F 
ATOM     82  C   UNL A   1      36.207  32.551  32.808  1.00  0.00     0.059 A 
ATOM     83  C   UNL A   1      36.121  34.075  30.919  1.00  0.00     0.059 A 
ATOM     84  F   UNL A   1      37.828  34.033  29.315  1.00  0.00    -0.206 F 
ATOM     85  C   UNL A   1      35.570  33.569  32.095  1.00  0.00     0.060 A 
BRANCH  85  86
ATOM     86  S   UNL A   1      34.031  34.249  32.750  1.00  0.00     0.124 S 
ATOM     87  O   UNL A   1      34.519  35.109  33.821  1.00  0.00    -0.237 OA
ATOM     88  O   UNL A   1      33.480  34.929  31.583  1.00  0.00    -0.237 OA
ATOM     89  O   UNL A   1      33.295  33.062  33.179  1.00  0.00    -0.744 OA
ENDBRANCH  85  86
ENDBRANCH  53  78
BRANCH  65  90
ATOM     90  C   UNL A   1      44.640  34.658  31.631  1.00  0.00     0.058 A 
ATOM     91  C   UNL A   1      44.794  35.848  30.906  1.00  0.00     0.135 A 
ATOM     92  C   UNL A   1      45.049  34.656  32.976  1.00  0.00     0.135 A 
ATOM     93  F   UNL A   1      44.425  35.907  29.615  1.00  0.00    -0.206 F 
ATOM     94  C   UNL A   1      45.357  36.984  31.480  1.00  0.00     0.059 A 
ATOM     95  C   UNL A   1      45.577  35.791  33.584  1.00  0.00     0.059 A 
ATOM     96  F   UNL A   1      44.915  33.550  33.724  1.00  0.00    -0.206 F 
ATOM     97  C   UNL A   1      45.739  36.947  32.823  1.00  0.00     0.060 A 
BRANCH  97  98
ATOM     98  S   UNL A   1      46.432  38.440  33.565  1.00  0.00     0.124 S 
ATOM     99  O   UNL A   1      47.777  38.451  33.001  1.00  0.00    -0.237 OA
ATOM    100  O   UNL A   1      45.529  39.476  33.075  1.00  0.00    -0.237 OA
ATOM    101  O   UNL A   1      46.355  38.175  34.999  1.00  0.00    -0.744 OA
ENDBRANCH  97  98
ENDBRANCH  65  90
ENDBRANCH  39  40
ENDBRANCH  32  34
ENDBRANCH  31  32
ENDBRANCH  30  31
ENDBRANCH  29  30
ENDBRANCH  28  29
ENDBRANCH  27  28
ENDBRANCH   1  27
TORSDOF 24
ENDMDL
MODEL 3
REMARK VINA RESULT:     -10.9      1.473      8.250
REMARK SMILES O=C(OCCOCCOCCOCCOC(=O)c1ccc(-c2c3nc(c(-c4c(F)cc(S(=O)(=O)[O-])cc4F)c4ccc([nH]4)c(-c4c(F)cc(S(=O)(=O)[O-])cc4F)c4nc(c(-c5c(F)cc(S(=O)(=O)[O-])cc5F)c5ccc2[nH]5)C=C4)C=C3)cc1)C1=Cc2cc(Cl)c(Cl)cc2O[C@@H]1C(F)(F)F
REMARK SMILES IDX 10 1 9 2 8 3 7 4 6 5 5 6 4 7 3 8 2 9 1 10 84 11 85 12 95 13
REMARK SMILES IDX 86 14 94 15 87 16 93 17 88 18 92 19 89 20 90 21 91 22 96 23
REMARK SMILES IDX 97 24 98 25 99 26 11 27 12 28 13 29 14 30 15 31 16 32 17 33
REMARK SMILES IDX 18 34 19 35 83 36 20 37 82 38 21 39 22 40 23 41 76 42 24 43
REMARK SMILES IDX 81 44 75 45 77 46 25 47 80 48 74 49 73 50 26 52 60 53 39 54
REMARK SMILES IDX 59 55 40 56 43 57 58 58 78 59 41 60 42 61 57 63 79 64 44 65
REMARK SMILES IDX 27 66 28 67 37 68 29 69 30 70 36 71 38 72 31 73 32 74 33 75
REMARK SMILES IDX 34 76 35 77 61 78 62 79 71 80 63 81 64 82 70 83 72 84 65 85
REMARK SMILES IDX 66 86 67 87 68 88 69 89 45 90 46 91 55 92 47 93 48 94 54 95
REMARK SMILES IDX 56 96 49 97 50 98 51 99 52 100 53 101
REMARK H PARENT 77 51 43 62
REMARK Flexibility Score: inf
ROOT
ATOM      1  C   UNL A   1      42.057  21.542  27.481  1.00  0.00     0.188 C 
ENDROOT
BRANCH   1   2
ATOM      2  O   UNL A   1      40.651  21.597  27.443  1.00  0.00    -0.377 OA
BRANCH   2   3
ATOM      3  C   UNL A   1      40.166  21.556  26.122  1.00  0.00     0.188 C 
BRANCH   3   4
ATOM      4  C   UNL A   1      38.637  21.476  25.978  1.00  0.00     0.188 C 
BRANCH   4   5
ATOM      5  O   UNL A   1      37.796  22.465  25.279  1.00  0.00    -0.376 OA
BRANCH   5   6
ATOM      6  C   UNL A   1      36.240  23.024  25.530  1.00  0.00     0.202 C 
BRANCH   6   7
ATOM      7  C   UNL A   1      34.789  22.225  26.950  1.00  0.00     0.261 C 
BRANCH   7   8
ATOM      8  O   UNL A   1      33.345  21.883  26.661  1.00  0.00    -0.460 OA
BRANCH   8   9
ATOM      9  C   UNL A   1      33.211  21.179  25.532  1.00  0.00     0.338 C 
ATOM     10  O   UNL A   1      33.994  20.405  25.039  1.00  0.00    -0.246 OA
BRANCH   9  11
ATOM     11  C   UNL A   1      32.171  21.996  24.922  1.00  0.00     0.087 C 
ATOM     12  C   UNL A   1      31.655  23.065  25.786  1.00  0.00     0.027 C 
ATOM     13  C   UNL A   1      33.206  22.284  23.331  1.00  0.00     0.316 C 
ATOM     14  C   UNL A   1      32.103  24.802  25.638  1.00  0.00     0.019 A 
ATOM     15  O   UNL A   1      33.827  24.131  23.217  1.00  0.00    -0.475 OA
ATOM     16  C   UNL A   1      31.617  25.704  26.544  1.00  0.00     0.034 A 
ATOM     17  C   UNL A   1      33.234  25.360  24.455  1.00  0.00     0.129 A 
ATOM     18  C   UNL A   1      32.078  27.031  26.396  1.00  0.00     0.060 A 
ATOM     19  C   UNL A   1      33.647  26.665  24.386  1.00  0.00     0.069 A 
ATOM     20  Cl  UNL A   1      31.427  28.148  27.569  1.00  0.00    -0.083 Cl
ATOM     21  C   UNL A   1      33.030  27.486  25.372  1.00  0.00     0.063 A 
ATOM     22  Cl  UNL A   1      33.458  29.176  25.317  1.00  0.00    -0.083 Cl
BRANCH  13  23
ATOM     23  C   UNL A   1      32.150  21.392  22.382  1.00  0.00     0.430 C 
ATOM     24  F   UNL A   1      31.958  20.095  22.680  1.00  0.00    -0.167 F 
ATOM     25  F   UNL A   1      30.911  21.952  22.554  1.00  0.00    -0.167 F 
ATOM     26  F   UNL A   1      32.365  21.474  21.044  1.00  0.00    -0.167 F 
ENDBRANCH  13  23
ENDBRANCH   9  11
ENDBRANCH   8   9
ENDBRANCH   7   8
ENDBRANCH   6   7
ENDBRANCH   5   6
ENDBRANCH   4   5
ENDBRANCH   3   4
ENDBRANCH   2   3
ENDBRANCH   1   2
BRANCH   1  27
ATOM     27  C   UNL A   1      42.755  21.115  26.184  1.00  0.00     0.188 C 
BRANCH  27  28
ATOM     28  O   UNL A   1      43.742  21.902  25.536  1.00  0.00    -0.376 OA
BRANCH  28  29
ATOM     29  C   UNL A   1      43.401  22.923  24.616  1.00  0.00     0.202 C 
BRANCH  29  30
ATOM     30  C   UNL A   1      43.454  24.412  24.980  1.00  0.00     0.261 C 
BRANCH  30  31
ATOM     31  O   UNL A   1      42.722  24.812  26.143  1.00  0.00    -0.460 OA
BRANCH  31  32
ATOM     32  C   UNL A   1      43.468  24.990  27.254  1.00  0.00     0.338 C 
ATOM     33  O   UNL A   1      44.578  24.535  27.471  1.00  0.00    -0.246 OA
BRANCH  32  34
ATOM     34  C   UNL A   1      42.821  26.002  28.118  1.00  0.00     0.060 A 
ATOM     35  C   UNL A   1      43.458  27.245  28.272  1.00  0.00     0.016 A 
ATOM     36  C   UNL A   1      41.618  25.741  28.775  1.00  0.00     0.016 A 
ATOM     37  C   UNL A   1      42.929  28.209  29.121  1.00  0.00     0.010 A 
ATOM     38  C   UNL A   1      41.114  26.688  29.669  1.00  0.00     0.010 A 
ATOM     39  C   UNL A   1      41.800  27.898  29.882  1.00  0.00    -0.014 A 
BRANCH  39  40
ATOM     40  C   UNL A   1      41.518  28.698  31.095  1.00  0.00     0.031 A 
ATOM     41  C   UNL A   1      40.368  29.667  31.036  1.00  0.00     0.074 A 
ATOM     42  C   UNL A   1      42.232  28.543  32.222  1.00  0.00     0.049 A 
ATOM     43  N   UNL A   1      39.974  30.544  31.920  1.00  0.00    -0.248 NA
ATOM     44  C   UNL A   1      39.559  29.647  29.805  1.00  0.00     0.031 C 
ATOM     45  C   UNL A   1      43.316  27.581  32.412  1.00  0.00     0.029 A 
ATOM     46  N   UNL A   1      42.156  29.211  33.416  1.00  0.00    -0.354 N 
ATOM     47  C   UNL A   1      38.889  31.193  31.343  1.00  0.00     0.074 A 
ATOM     48  C   UNL A   1      38.707  30.634  30.023  1.00  0.00     0.031 C 
ATOM     49  C   UNL A   1      43.823  27.739  33.648  1.00  0.00     0.029 A 
ATOM     50  C   UNL A   1      43.127  28.839  34.314  1.00  0.00     0.049 A 
ATOM     51  H   UNL A   1      41.472  29.890  33.612  1.00  0.00     0.167 HD
ATOM     52  C   UNL A   1      38.113  32.167  31.874  1.00  0.00     0.037 A 
ATOM     53  C   UNL A   1      43.436  29.358  35.519  1.00  0.00     0.037 A 
ATOM     54  C   UNL A   1      38.312  32.713  33.189  1.00  0.00     0.049 A 
ATOM     55  C   UNL A   1      42.614  30.503  36.056  1.00  0.00     0.074 A 
ATOM     56  C   UNL A   1      37.579  33.692  33.834  1.00  0.00     0.029 A 
ATOM     57  N   UNL A   1      39.326  32.333  34.059  1.00  0.00    -0.354 N 
ATOM     58  N   UNL A   1      41.585  31.109  35.511  1.00  0.00    -0.248 NA
ATOM     59  C   UNL A   1      42.992  31.033  37.373  1.00  0.00     0.031 C 
ATOM     60  C   UNL A   1      38.196  33.962  35.059  1.00  0.00     0.029 A 
ATOM     61  C   UNL A   1      39.260  33.087  35.219  1.00  0.00     0.049 A 
ATOM     62  H   UNL A   1      39.993  31.633  33.878  1.00  0.00     0.167 HD
ATOM     63  C   UNL A   1      41.170  32.065  36.435  1.00  0.00     0.074 A 
ATOM     64  C   UNL A   1      42.054  31.949  37.575  1.00  0.00     0.031 C 
ATOM     65  C   UNL A   1      40.145  32.952  36.350  1.00  0.00     0.037 A 
BRANCH  52  66
ATOM     66  C   UNL A   1      37.013  32.733  31.015  1.00  0.00     0.058 A 
ATOM     67  C   UNL A   1      35.661  32.414  31.220  1.00  0.00     0.135 A 
ATOM     68  C   UNL A   1      37.319  33.632  29.979  1.00  0.00     0.135 A 
ATOM     69  F   UNL A   1      35.309  31.544  32.180  1.00  0.00    -0.206 F 
ATOM     70  C   UNL A   1      34.656  32.942  30.415  1.00  0.00     0.059 A 
ATOM     71  C   UNL A   1      36.329  34.202  29.186  1.00  0.00     0.059 A 
ATOM     72  F   UNL A   1      38.595  33.969  29.730  1.00  0.00    -0.206 F 
ATOM     73  C   UNL A   1      35.000  33.841  29.403  1.00  0.00     0.060 A 
BRANCH  73  74
ATOM     74  S   UNL A   1      33.684  34.528  28.378  1.00  0.00     0.124 S 
ATOM     75  O   UNL A   1      34.258  35.811  27.984  1.00  0.00    -0.237 OA
ATOM     76  O   UNL A   1      33.568  33.532  27.316  1.00  0.00    -0.237 OA
ATOM     77  O   UNL A   1      32.546  34.604  29.288  1.00  0.00    -0.744 OA
ENDBRANCH  73  74
ENDBRANCH  52  66
BRANCH  53  78
ATOM     78  C   UNL A   1      44.584  28.811  36.291  1.00  0.00     0.058 A 
ATOM     79  C   UNL A   1      44.429  27.710  37.145  1.00  0.00     0.135 A 
ATOM     80  C   UNL A   1      45.866  29.378  36.187  1.00  0.00     0.135 A 
ATOM     81  F   UNL A   1      43.223  27.140  37.292  1.00  0.00    -0.206 F 
ATOM     82  C   UNL A   1      45.495  27.198  37.878  1.00  0.00     0.059 A 
ATOM     83  C   UNL A   1      46.954  28.863  36.883  1.00  0.00     0.059 A 
ATOM     84  F   UNL A   1      46.073  30.429  35.378  1.00  0.00    -0.206 F 
ATOM     85  C   UNL A   1      46.757  27.777  37.732  1.00  0.00     0.060 A 
BRANCH  85  86
ATOM     86  S   UNL A   1      48.144  27.063  38.640  1.00  0.00     0.124 S 
ATOM     87  O   UNL A   1      49.055  28.198  38.732  1.00  0.00    -0.237 OA
ATOM     88  O   UNL A   1      47.509  26.650  39.887  1.00  0.00    -0.237 OA
ATOM     89  O   UNL A   1      48.584  25.969  37.778  1.00  0.00    -0.744 OA
ENDBRANCH  85  86
ENDBRANCH  53  78
BRANCH  65  90
ATOM     90  C   UNL A   1      39.885  33.836  37.544  1.00  0.00     0.058 A 
ATOM     91  C   UNL A   1      38.973  33.485  38.550  1.00  0.00     0.135 A 
ATOM     92  C   UNL A   1      40.614  35.026  37.710  1.00  0.00     0.135 A 
ATOM     93  F   UNL A   1      38.245  32.361  38.443  1.00  0.00    -0.206 F 
ATOM     94  C   UNL A   1      38.769  34.296  39.662  1.00  0.00     0.059 A 
ATOM     95  C   UNL A   1      40.457  35.832  38.832  1.00  0.00     0.059 A 
ATOM     96  F   UNL A   1      41.510  35.406  36.785  1.00  0.00    -0.206 F 
ATOM     97  C   UNL A   1      39.522  35.464  39.798  1.00  0.00     0.060 A 
BRANCH  97  98
ATOM     98  S   UNL A   1      39.275  36.486  41.265  1.00  0.00     0.124 S 
ATOM     99  O   UNL A   1      38.671  37.684  40.691  1.00  0.00    -0.237 OA
ATOM    100  O   UNL A   1      38.390  35.655  42.074  1.00  0.00    -0.237 OA
ATOM    101  O   UNL A   1      40.624  36.657  41.795  1.00  0.00    -0.744 OA
ENDBRANCH  97  98
ENDBRANCH  65  90
ENDBRANCH  39  40
ENDBRANCH  32  34
ENDBRANCH  31  32
ENDBRANCH  30  31
ENDBRANCH  29  30
ENDBRANCH  28  29
ENDBRANCH  27  28
ENDBRANCH   1  27
TORSDOF 24
ENDMDL
