MODEL 1
REMARK VINA RESULT:      -9.8      0.000      0.000
REMARK SMILES O=C(CSc1ccc(NC(=O)c2cccc3ccccc23)cc1)OCCOCCOCCOCCOC(=O)c1ccc(-c2c3nc(c(-c4c(F)cc(S(=O)(=O)[O-])cc4F)c4ccc([nH]4)c(-c4c(F)cc(S(=O)(=O)[O-])cc4F)c4nc(c(-c5c(F)cc(S(=O)(=O)[O-])cc5F)c5ccc2[nH]5)C=C4)C=C3)cc1
REMARK SMILES IDX 29 1 28 2 27 3 26 4 25 5 24 6 2 7 1 8 3 9 4 10 5 11 6 12
REMARK SMILES IDX 23 13 7 14 22 15 8 16 9 17 10 18 11 20 12 21 13 22 21 23
REMARK SMILES IDX 14 24 16 25 20 26 15 27 17 28 19 29 18 30 30 31 31 32 32 33
REMARK SMILES IDX 33 34 34 35 35 36 36 37 37 38 38 39 39 40 40 41 104 42 41 43
REMARK SMILES IDX 103 44 42 45 43 46 44 47 97 48 45 49 102 50 96 51 98 52
REMARK SMILES IDX 46 53 101 54 95 55 94 56 47 58 81 59 60 60 80 61 61 62 64 63
REMARK SMILES IDX 79 64 99 65 62 66 63 67 78 69 100 70 65 71 48 72 49 73 58 74
REMARK SMILES IDX 50 75 51 76 57 77 59 78 52 79 53 80 54 81 55 82 56 83 82 84
REMARK SMILES IDX 83 85 92 86 84 87 85 88 91 89 93 90 86 91 87 92 88 93 89 94
REMARK SMILES IDX 90 95 66 96 67 97 76 98 68 99 69 100 75 101 77 102 70 103
REMARK SMILES IDX 71 104 72 105 73 106 74 107
REMARK H PARENT 9 19 98 57 64 68
REMARK Flexibility Score: inf
ROOT
ATOM      1  C   UNL A   1      31.856  29.808  26.867  1.00  0.00     0.188 C 
ENDROOT
BRANCH   1   2
ATOM      2  C   UNL A   1      31.681  30.069  25.375  1.00  0.00     0.188 C 
BRANCH   2   3
ATOM      3  O   UNL A   1      30.579  30.884  24.981  1.00  0.00    -0.376 OA
BRANCH   3   4
ATOM      4  C   UNL A   1      29.754  30.544  23.863  1.00  0.00     0.202 C 
BRANCH   4   5
ATOM      5  C   UNL A   1      30.152  29.405  22.928  1.00  0.00     0.261 C 
BRANCH   5   6
ATOM      6  O   UNL A   1      29.660  28.076  23.185  1.00  0.00    -0.463 OA
BRANCH   6   7
ATOM      7  C   UNL A   1      30.425  27.075  23.663  1.00  0.00     0.316 C 
ATOM      8  O   UNL A   1      31.525  26.837  23.161  1.00  0.00    -0.251 OA
BRANCH   7   9
ATOM      9  C   UNL A   1      29.921  26.286  24.858  1.00  0.00     0.197 C 
BRANCH   9  10
ATOM     10  S   UNL A   1      31.097  26.250  26.238  1.00  0.00    -0.114 SA
BRANCH  10  11
ATOM     11  C   UNL A   1      31.329  24.494  26.444  1.00  0.00     0.008 A 
ATOM     12  C   UNL A   1      30.389  23.537  26.058  1.00  0.00     0.017 A 
ATOM     13  C   UNL A   1      32.544  24.057  26.966  1.00  0.00     0.017 A 
ATOM     14  C   UNL A   1      30.720  22.195  25.981  1.00  0.00     0.027 A 
ATOM     15  C   UNL A   1      32.860  22.697  26.950  1.00  0.00     0.027 A 
ATOM     16  C   UNL A   1      31.989  21.786  26.343  1.00  0.00     0.041 A 
BRANCH  16  17
ATOM     17  N   UNL A   1      32.474  20.510  26.076  1.00  0.00    -0.322 N 
ATOM     18  C   UNL A   1      33.521  20.070  25.304  1.00  0.00     0.256 C 
ATOM     19  H   UNL A   1      31.973  19.788  26.522  1.00  0.00     0.170 HD
ATOM     20  O   UNL A   1      33.638  18.850  25.152  1.00  0.00    -0.269 OA
BRANCH  18  21
ATOM     21  C   UNL A   1      34.518  20.940  24.621  1.00  0.00     0.048 A 
ATOM     22  C   UNL A   1      35.845  20.654  24.992  1.00  0.00     0.014 A 
ATOM     23  C   UNL A   1      34.224  22.079  23.803  1.00  0.00    -0.006 A 
ATOM     24  C   UNL A   1      36.882  21.507  24.642  1.00  0.00     0.001 A 
ATOM     25  C   UNL A   1      35.298  22.968  23.516  1.00  0.00    -0.018 A 
ATOM     26  C   UNL A   1      32.967  22.409  23.230  1.00  0.00     0.009 A 
ATOM     27  C   UNL A   1      36.599  22.680  23.952  1.00  0.00     0.009 A 
ATOM     28  C   UNL A   1      35.086  24.145  22.781  1.00  0.00     0.009 A 
ATOM     29  C   UNL A   1      32.800  23.528  22.402  1.00  0.00     0.001 A 
ATOM     30  C   UNL A   1      33.850  24.414  22.204  1.00  0.00     0.001 A 
ENDBRANCH  18  21
ENDBRANCH  16  17
ENDBRANCH  10  11
ENDBRANCH   9  10
ENDBRANCH   7   9
ENDBRANCH   6   7
ENDBRANCH   5   6
ENDBRANCH   4   5
ENDBRANCH   3   4
ENDBRANCH   2   3
ENDBRANCH   1   2
BRANCH   1  31
ATOM     31  O   UNL A   1      33.113  29.301  27.292  1.00  0.00    -0.377 OA
BRANCH  31  32
ATOM     32  C   UNL A   1      34.212  30.197  27.229  1.00  0.00     0.188 C 
BRANCH  32  33
ATOM     33  C   UNL A   1      34.091  31.543  27.982  1.00  0.00     0.188 C 
BRANCH  33  34
ATOM     34  O   UNL A   1      35.274  32.021  28.584  1.00  0.00    -0.376 OA
BRANCH  34  35
ATOM     35  C   UNL A   1      35.338  32.291  29.974  1.00  0.00     0.202 C 
BRANCH  35  36
ATOM     36  C   UNL A   1      36.522  32.951  30.716  1.00  0.00     0.261 C 
BRANCH  36  37
ATOM     37  O   UNL A   1      37.353  32.145  31.549  1.00  0.00    -0.460 OA
BRANCH  37  38
ATOM     38  C   UNL A   1      37.224  30.806  31.461  1.00  0.00     0.338 C 
ATOM     39  O   UNL A   1      36.222  30.148  31.703  1.00  0.00    -0.246 OA
BRANCH  38  40
ATOM     40  C   UNL A   1      38.429  30.301  30.767  1.00  0.00     0.060 A 
ATOM     41  C   UNL A   1      39.485  29.773  31.529  1.00  0.00     0.016 A 
ATOM     42  C   UNL A   1      38.478  30.271  29.372  1.00  0.00     0.016 A 
ATOM     43  C   UNL A   1      40.595  29.213  30.897  1.00  0.00     0.010 A 
ATOM     44  C   UNL A   1      39.613  29.764  28.741  1.00  0.00     0.010 A 
ATOM     45  C   UNL A   1      40.685  29.259  29.502  1.00  0.00    -0.014 A 
BRANCH  45  46
ATOM     46  C   UNL A   1      41.995  29.072  28.842  1.00  0.00     0.031 A 
ATOM     47  C   UNL A   1      42.292  27.702  28.306  1.00  0.00     0.074 A 
ATOM     48  C   UNL A   1      42.907  30.055  28.769  1.00  0.00     0.049 A 
ATOM     49  N   UNL A   1      43.412  27.211  27.851  1.00  0.00    -0.248 NA
ATOM     50  C   UNL A   1      41.168  26.751  28.303  1.00  0.00     0.031 C 
ATOM     51  C   UNL A   1      42.707  31.431  29.213  1.00  0.00     0.029 A 
ATOM     52  N   UNL A   1      44.205  30.024  28.323  1.00  0.00    -0.354 N 
ATOM     53  C   UNL A   1      43.137  25.885  27.540  1.00  0.00     0.074 A 
ATOM     54  C   UNL A   1      41.751  25.645  27.870  1.00  0.00     0.031 C 
ATOM     55  C   UNL A   1      43.860  32.106  29.063  1.00  0.00     0.029 A 
ATOM     56  C   UNL A   1      44.887  31.194  28.556  1.00  0.00     0.049 A 
ATOM     57  H   UNL A   1      44.606  29.242  27.881  1.00  0.00     0.167 HD
ATOM     58  C   UNL A   1      43.972  24.948  27.036  1.00  0.00     0.037 A 
ATOM     59  C   UNL A   1      46.201  31.473  28.426  1.00  0.00     0.037 A 
ATOM     60  C   UNL A   1      45.353  25.201  26.733  1.00  0.00     0.049 A 
ATOM     61  C   UNL A   1      47.135  30.404  27.918  1.00  0.00     0.074 A 
ATOM     62  C   UNL A   1      46.286  24.336  26.191  1.00  0.00     0.029 A 
ATOM     63  N   UNL A   1      46.007  26.402  26.968  1.00  0.00    -0.354 N 
ATOM     64  N   UNL A   1      46.866  29.160  27.597  1.00  0.00    -0.248 NA
ATOM     65  C   UNL A   1      48.548  30.773  27.753  1.00  0.00     0.031 C 
ATOM     66  C   UNL A   1      47.519  24.993  26.163  1.00  0.00     0.029 A 
ATOM     67  C   UNL A   1      47.339  26.293  26.614  1.00  0.00     0.049 A 
ATOM     68  H   UNL A   1      45.584  27.214  27.334  1.00  0.00     0.167 HD
ATOM     69  C   UNL A   1      48.068  28.606  27.164  1.00  0.00     0.074 A 
ATOM     70  C   UNL A   1      49.065  29.651  27.266  1.00  0.00     0.031 C 
ATOM     71  C   UNL A   1      48.318  27.350  26.712  1.00  0.00     0.037 A 
BRANCH  58  72
ATOM     72  C   UNL A   1      43.420  23.561  26.851  1.00  0.00     0.058 A 
ATOM     73  C   UNL A   1      43.201  22.691  27.932  1.00  0.00     0.135 A 
ATOM     74  C   UNL A   1      43.132  23.086  25.562  1.00  0.00     0.135 A 
ATOM     75  F   UNL A   1      43.481  23.085  29.185  1.00  0.00    -0.206 F 
ATOM     76  C   UNL A   1      42.764  21.386  27.738  1.00  0.00     0.059 A 
ATOM     77  C   UNL A   1      42.659  21.795  25.346  1.00  0.00     0.059 A 
ATOM     78  F   UNL A   1      43.328  23.870  24.491  1.00  0.00    -0.206 F 
ATOM     79  C   UNL A   1      42.501  20.945  26.440  1.00  0.00     0.060 A 
BRANCH  79  80
ATOM     80  S   UNL A   1      41.966  19.239  26.200  1.00  0.00     0.124 S 
ATOM     81  O   UNL A   1      40.536  19.414  25.961  1.00  0.00    -0.237 OA
ATOM     82  O   UNL A   1      42.754  18.824  25.044  1.00  0.00    -0.237 OA
ATOM     83  O   UNL A   1      42.315  18.590  27.460  1.00  0.00    -0.744 OA
ENDBRANCH  79  80
ENDBRANCH  58  72
BRANCH  59  84
ATOM     84  C   UNL A   1      46.701  32.817  28.818  1.00  0.00     0.058 A 
ATOM     85  C   UNL A   1      47.112  33.088  30.131  1.00  0.00     0.135 A 
ATOM     86  C   UNL A   1      46.834  33.844  27.868  1.00  0.00     0.135 A 
ATOM     87  F   UNL A   1      46.991  32.146  31.079  1.00  0.00    -0.206 F 
ATOM     88  C   UNL A   1      47.649  34.321  30.487  1.00  0.00     0.059 A 
ATOM     89  C   UNL A   1      47.389  35.077  28.194  1.00  0.00     0.059 A 
ATOM     90  F   UNL A   1      46.461  33.634  26.596  1.00  0.00    -0.206 F 
ATOM     91  C   UNL A   1      47.797  35.305  29.506  1.00  0.00     0.060 A 
BRANCH  91  92
ATOM     92  S   UNL A   1      48.594  36.862  29.958  1.00  0.00     0.124 S 
ATOM     93  O   UNL A   1      49.911  36.706  29.354  1.00  0.00    -0.237 OA
ATOM     94  O   UNL A   1      47.713  37.843  29.331  1.00  0.00    -0.237 OA
ATOM     95  O   UNL A   1      48.561  36.844  31.417  1.00  0.00    -0.744 OA
ENDBRANCH  91  92
ENDBRANCH  59  84
BRANCH  71  96
ATOM     96  C   UNL A   1      49.711  27.033  26.238  1.00  0.00     0.058 A 
ATOM     97  C   UNL A   1      50.676  26.467  27.084  1.00  0.00     0.135 A 
ATOM     98  C   UNL A   1      50.042  27.195  24.882  1.00  0.00     0.135 A 
ATOM     99  F   UNL A   1      50.415  26.297  28.390  1.00  0.00    -0.206 F 
ATOM    100  C   UNL A   1      51.922  26.075  26.603  1.00  0.00     0.059 A 
ATOM    101  C   UNL A   1      51.268  26.782  24.373  1.00  0.00     0.059 A 
ATOM    102  F   UNL A   1      49.151  27.722  24.027  1.00  0.00    -0.206 F 
ATOM    103  C   UNL A   1      52.204  26.226  25.243  1.00  0.00     0.060 A 
BRANCH 103 104
ATOM    104  S   UNL A   1      53.795  25.643  24.618  1.00  0.00     0.124 S 
ATOM    105  O   UNL A   1      54.723  26.247  25.569  1.00  0.00    -0.237 OA
ATOM    106  O   UNL A   1      53.652  24.193  24.706  1.00  0.00    -0.237 OA
ATOM    107  O   UNL A   1      53.847  26.181  23.263  1.00  0.00    -0.744 OA
ENDBRANCH 103 104
ENDBRANCH  71  96
ENDBRANCH  45  46
ENDBRANCH  38  40
ENDBRANCH  37  38
ENDBRANCH  36  37
ENDBRANCH  35  36
ENDBRANCH  34  35
ENDBRANCH  33  34
ENDBRANCH  32  33
ENDBRANCH  31  32
ENDBRANCH   1  31
TORSDOF 27
ENDMDL
MODEL 2
REMARK VINA RESULT:      -9.6      4.030     10.756
REMARK SMILES O=C(CSc1ccc(NC(=O)c2cccc3ccccc23)cc1)OCCOCCOCCOCCOC(=O)c1ccc(-c2c3nc(c(-c4c(F)cc(S(=O)(=O)[O-])cc4F)c4ccc([nH]4)c(-c4c(F)cc(S(=O)(=O)[O-])cc4F)c4nc(c(-c5c(F)cc(S(=O)(=O)[O-])cc5F)c5ccc2[nH]5)C=C4)C=C3)cc1
REMARK SMILES IDX 29 1 28 2 27 3 26 4 25 5 24 6 2 7 1 8 3 9 4 10 5 11 6 12
REMARK SMILES IDX 23 13 7 14 22 15 8 16 9 17 10 18 11 20 12 21 13 22 21 23
REMARK SMILES IDX 14 24 16 25 20 26 15 27 17 28 19 29 18 30 30 31 31 32 32 33
REMARK SMILES IDX 33 34 34 35 35 36 36 37 37 38 38 39 39 40 40 41 104 42 41 43
REMARK SMILES IDX 103 44 42 45 43 46 44 47 97 48 45 49 102 50 96 51 98 52
REMARK SMILES IDX 46 53 101 54 95 55 94 56 47 58 81 59 60 60 80 61 61 62 64 63
REMARK SMILES IDX 79 64 99 65 62 66 63 67 78 69 100 70 65 71 48 72 49 73 58 74
REMARK SMILES IDX 50 75 51 76 57 77 59 78 52 79 53 80 54 81 55 82 56 83 82 84
REMARK SMILES IDX 83 85 92 86 84 87 85 88 91 89 93 90 86 91 87 92 88 93 89 94
REMARK SMILES IDX 90 95 66 96 67 97 76 98 68 99 69 100 75 101 77 102 70 103
REMARK SMILES IDX 71 104 72 105 73 106 74 107
REMARK H PARENT 9 19 98 57 64 68
REMARK Flexibility Score: inf
ROOT
ATOM      1  C   UNL A   1      36.469  21.009  25.125  1.00  0.00     0.188 C 
ENDROOT
BRANCH   1   2
ATOM      2  C   UNL A   1      36.178  22.263  24.308  1.00  0.00     0.188 C 
BRANCH   2   3
ATOM      3  O   UNL A   1      35.977  23.477  25.029  1.00  0.00    -0.376 OA
BRANCH   3   4
ATOM      4  C   UNL A   1      34.736  23.770  25.678  1.00  0.00     0.202 C 
BRANCH   4   5
ATOM      5  C   UNL A   1      34.070  25.130  25.491  1.00  0.00     0.261 C 
BRANCH   5   6
ATOM      6  O   UNL A   1      32.647  25.196  25.280  1.00  0.00    -0.463 OA
BRANCH   6   7
ATOM      7  C   UNL A   1      31.744  25.234  26.280  1.00  0.00     0.316 C 
ATOM      8  O   UNL A   1      31.537  24.235  26.972  1.00  0.00    -0.251 OA
BRANCH   7   9
ATOM      9  C   UNL A   1      31.031  26.544  26.563  1.00  0.00     0.197 C 
BRANCH   9  10
ATOM     10  S   UNL A   1      31.453  27.856  25.385  1.00  0.00    -0.114 SA
BRANCH  10  11
ATOM     11  C   UNL A   1      32.666  28.775  26.315  1.00  0.00     0.008 A 
ATOM     12  C   UNL A   1      33.985  28.354  26.496  1.00  0.00     0.017 A 
ATOM     13  C   UNL A   1      32.285  30.009  26.837  1.00  0.00     0.017 A 
ATOM     14  C   UNL A   1      34.953  29.218  26.980  1.00  0.00     0.027 A 
ATOM     15  C   UNL A   1      33.247  30.859  27.385  1.00  0.00     0.027 A 
ATOM     16  C   UNL A   1      34.599  30.503  27.341  1.00  0.00     0.041 A 
BRANCH  16  17
ATOM     17  N   UNL A   1      35.537  31.495  27.610  1.00  0.00    -0.322 N 
ATOM     18  C   UNL A   1      36.424  31.659  28.646  1.00  0.00     0.256 C 
ATOM     19  H   UNL A   1      35.571  32.211  26.935  1.00  0.00     0.170 HD
ATOM     20  O   UNL A   1      37.055  32.720  28.686  1.00  0.00    -0.269 OA
BRANCH  18  21
ATOM     21  C   UNL A   1      36.677  30.674  29.734  1.00  0.00     0.048 A 
ATOM     22  C   UNL A   1      36.175  31.091  30.981  1.00  0.00     0.014 A 
ATOM     23  C   UNL A   1      37.488  29.497  29.636  1.00  0.00    -0.006 A 
ATOM     24  C   UNL A   1      36.518  30.421  32.146  1.00  0.00     0.001 A 
ATOM     25  C   UNL A   1      37.875  28.872  30.855  1.00  0.00    -0.018 A 
ATOM     26  C   UNL A   1      37.939  28.876  28.442  1.00  0.00     0.009 A 
ATOM     27  C   UNL A   1      37.402  29.350  32.084  1.00  0.00     0.009 A 
ATOM     28  C   UNL A   1      38.727  27.755  30.856  1.00  0.00     0.009 A 
ATOM     29  C   UNL A   1      38.693  27.694  28.459  1.00  0.00     0.001 A 
ATOM     30  C   UNL A   1      39.115  27.152  29.665  1.00  0.00     0.001 A 
ENDBRANCH  18  21
ENDBRANCH  16  17
ENDBRANCH  10  11
ENDBRANCH   9  10
ENDBRANCH   7   9
ENDBRANCH   6   7
ENDBRANCH   5   6
ENDBRANCH   4   5
ENDBRANCH   3   4
ENDBRANCH   2   3
ENDBRANCH   1   2
BRANCH   1  31
ATOM     31  O   UNL A   1      37.475  20.135  24.632  1.00  0.00    -0.377 OA
BRANCH  31  32
ATOM     32  C   UNL A   1      38.720  20.153  25.312  1.00  0.00     0.188 C 
BRANCH  32  33
ATOM     33  C   UNL A   1      39.192  21.496  25.919  1.00  0.00     0.188 C 
BRANCH  33  34
ATOM     34  O   UNL A   1      39.779  21.421  27.200  1.00  0.00    -0.376 OA
BRANCH  34  35
ATOM     35  C   UNL A   1      40.935  22.172  27.529  1.00  0.00     0.202 C 
BRANCH  35  36
ATOM     36  C   UNL A   1      41.726  23.087  26.567  1.00  0.00     0.261 C 
BRANCH  36  37
ATOM     37  O   UNL A   1      42.053  24.412  26.983  1.00  0.00    -0.460 OA
BRANCH  37  38
ATOM     38  C   UNL A   1      41.244  25.414  26.585  1.00  0.00     0.338 C 
ATOM     39  O   UNL A   1      40.135  25.306  26.081  1.00  0.00    -0.246 OA
BRANCH  38  40
ATOM     40  C   UNL A   1      41.824  26.670  27.109  1.00  0.00     0.060 A 
ATOM     41  C   UNL A   1      42.467  26.656  28.359  1.00  0.00     0.016 A 
ATOM     42  C   UNL A   1      41.808  27.831  26.334  1.00  0.00     0.016 A 
ATOM     43  C   UNL A   1      43.096  27.804  28.838  1.00  0.00     0.010 A 
ATOM     44  C   UNL A   1      42.387  28.995  26.839  1.00  0.00     0.010 A 
ATOM     45  C   UNL A   1      43.007  28.991  28.103  1.00  0.00    -0.014 A 
BRANCH  45  46
ATOM     46  C   UNL A   1      43.282  30.286  28.761  1.00  0.00     0.031 A 
ATOM     47  C   UNL A   1      44.698  30.781  28.718  1.00  0.00     0.074 A 
ATOM     48  C   UNL A   1      42.331  30.971  29.418  1.00  0.00     0.049 A 
ATOM     49  N   UNL A   1      45.253  31.775  29.355  1.00  0.00    -0.248 NA
ATOM     50  C   UNL A   1      45.618  30.032  27.844  1.00  0.00     0.031 C 
ATOM     51  C   UNL A   1      40.919  30.609  29.484  1.00  0.00     0.029 A 
ATOM     52  N   UNL A   1      42.432  32.102  30.190  1.00  0.00    -0.354 N 
ATOM     53  C   UNL A   1      46.593  31.749  28.988  1.00  0.00     0.074 A 
ATOM     54  C   UNL A   1      46.770  30.637  28.083  1.00  0.00     0.031 C 
ATOM     55  C   UNL A   1      40.288  31.475  30.296  1.00  0.00     0.029 A 
ATOM     56  C   UNL A   1      41.265  32.420  30.841  1.00  0.00     0.049 A 
ATOM     57  H   UNL A   1      43.258  32.631  30.269  1.00  0.00     0.167 HD
ATOM     58  C   UNL A   1      47.589  32.576  29.381  1.00  0.00     0.037 A 
ATOM     59  C   UNL A   1      41.031  33.334  31.806  1.00  0.00     0.037 A 
ATOM     60  C   UNL A   1      47.397  33.666  30.297  1.00  0.00     0.049 A 
ATOM     61  C   UNL A   1      42.160  34.212  32.280  1.00  0.00     0.074 A 
ATOM     62  C   UNL A   1      48.327  34.586  30.744  1.00  0.00     0.029 A 
ATOM     63  N   UNL A   1      46.197  33.967  30.925  1.00  0.00    -0.354 N 
ATOM     64  N   UNL A   1      43.420  34.206  31.909  1.00  0.00    -0.248 NA
ATOM     65  C   UNL A   1      41.842  35.220  33.301  1.00  0.00     0.031 C 
ATOM     66  C   UNL A   1      47.705  35.400  31.694  1.00  0.00     0.029 A 
ATOM     67  C   UNL A   1      46.369  35.039  31.782  1.00  0.00     0.049 A 
ATOM     68  H   UNL A   1      45.348  33.488  30.783  1.00  0.00     0.167 HD
ATOM     69  C   UNL A   1      44.038  35.226  32.627  1.00  0.00     0.074 A 
ATOM     70  C   UNL A   1      43.013  35.827  33.455  1.00  0.00     0.031 C 
ATOM     71  C   UNL A   1      45.332  35.634  32.593  1.00  0.00     0.037 A 
BRANCH  58  72
ATOM     72  C   UNL A   1      48.972  32.279  28.870  1.00  0.00     0.058 A 
ATOM     73  C   UNL A   1      49.482  32.870  27.701  1.00  0.00     0.135 A 
ATOM     74  C   UNL A   1      49.791  31.363  29.549  1.00  0.00     0.135 A 
ATOM     75  F   UNL A   1      48.734  33.735  26.998  1.00  0.00    -0.206 F 
ATOM     76  C   UNL A   1      50.733  32.527  27.200  1.00  0.00     0.059 A 
ATOM     77  C   UNL A   1      51.060  31.032  29.086  1.00  0.00     0.059 A 
ATOM     78  F   UNL A   1      49.354  30.764  30.667  1.00  0.00    -0.206 F 
ATOM     79  C   UNL A   1      51.512  31.601  27.896  1.00  0.00     0.060 A 
BRANCH  79  80
ATOM     80  S   UNL A   1      53.119  31.141  27.216  1.00  0.00     0.124 S 
ATOM     81  O   UNL A   1      52.772  29.967  26.420  1.00  0.00    -0.237 OA
ATOM     82  O   UNL A   1      53.489  32.332  26.458  1.00  0.00    -0.237 OA
ATOM     83  O   UNL A   1      53.929  30.878  28.401  1.00  0.00    -0.744 OA
ENDBRANCH  79  80
ENDBRANCH  58  72
BRANCH  59  84
ATOM     84  C   UNL A   1      39.671  33.431  32.402  1.00  0.00     0.058 A 
ATOM     85  C   UNL A   1      39.323  32.698  33.545  1.00  0.00     0.135 A 
ATOM     86  C   UNL A   1      38.711  34.308  31.870  1.00  0.00     0.135 A 
ATOM     87  F   UNL A   1      40.199  31.836  34.082  1.00  0.00    -0.206 F 
ATOM     88  C   UNL A   1      38.077  32.839  34.149  1.00  0.00     0.059 A 
ATOM     89  C   UNL A   1      37.468  34.484  32.470  1.00  0.00     0.059 A 
ATOM     90  F   UNL A   1      38.996  35.037  30.780  1.00  0.00    -0.206 F 
ATOM     91  C   UNL A   1      37.162  33.747  33.612  1.00  0.00     0.060 A 
BRANCH  91  92
ATOM     92  S   UNL A   1      35.591  33.999  34.468  1.00  0.00     0.124 S 
ATOM     93  O   UNL A   1      35.291  35.385  34.133  1.00  0.00    -0.237 OA
ATOM     94  O   UNL A   1      34.742  32.990  33.841  1.00  0.00    -0.237 OA
ATOM     95  O   UNL A   1      35.927  33.744  35.865  1.00  0.00    -0.744 OA
ENDBRANCH  91  92
ENDBRANCH  59  84
BRANCH  71  96
ATOM     96  C   UNL A   1      45.723  36.820  33.433  1.00  0.00     0.058 A 
ATOM     97  C   UNL A   1      46.286  36.678  34.710  1.00  0.00     0.135 A 
ATOM     98  C   UNL A   1      45.634  38.116  32.896  1.00  0.00     0.135 A 
ATOM     99  F   UNL A   1      46.388  35.464  35.272  1.00  0.00    -0.206 F 
ATOM    100  C   UNL A   1      46.746  37.779  35.426  1.00  0.00     0.059 A 
ATOM    101  C   UNL A   1      46.115  39.227  33.580  1.00  0.00     0.059 A 
ATOM    102  F   UNL A   1      45.112  38.307  31.674  1.00  0.00    -0.206 F 
ATOM    103  C   UNL A   1      46.667  39.049  34.847  1.00  0.00     0.060 A 
BRANCH 103 104
ATOM    104  S   UNL A   1      47.336  40.458  35.756  1.00  0.00     0.124 S 
ATOM    105  O   UNL A   1      46.142  41.272  35.959  1.00  0.00    -0.237 OA
ATOM    106  O   UNL A   1      47.884  39.826  36.952  1.00  0.00    -0.237 OA
ATOM    107  O   UNL A   1      48.326  41.016  34.840  1.00  0.00    -0.744 OA
ENDBRANCH 103 104
ENDBRANCH  71  96
ENDBRANCH  45  46
ENDBRANCH  38  40
ENDBRANCH  37  38
ENDBRANCH  36  37
ENDBRANCH  35  36
ENDBRANCH  34  35
ENDBRANCH  33  34
ENDBRANCH  32  33
ENDBRANCH  31  32
ENDBRANCH   1  31
TORSDOF 27
ENDMDL
MODEL 3
REMARK VINA RESULT:      -9.4      1.054      2.317
REMARK SMILES O=C(CSc1ccc(NC(=O)c2cccc3ccccc23)cc1)OCCOCCOCCOCCOC(=O)c1ccc(-c2c3nc(c(-c4c(F)cc(S(=O)(=O)[O-])cc4F)c4ccc([nH]4)c(-c4c(F)cc(S(=O)(=O)[O-])cc4F)c4nc(c(-c5c(F)cc(S(=O)(=O)[O-])cc5F)c5ccc2[nH]5)C=C4)C=C3)cc1
REMARK SMILES IDX 29 1 28 2 27 3 26 4 25 5 24 6 2 7 1 8 3 9 4 10 5 11 6 12
REMARK SMILES IDX 23 13 7 14 22 15 8 16 9 17 10 18 11 20 12 21 13 22 21 23
REMARK SMILES IDX 14 24 16 25 20 26 15 27 17 28 19 29 18 30 30 31 31 32 32 33
REMARK SMILES IDX 33 34 34 35 35 36 36 37 37 38 38 39 39 40 40 41 104 42 41 43
REMARK SMILES IDX 103 44 42 45 43 46 44 47 97 48 45 49 102 50 96 51 98 52
REMARK SMILES IDX 46 53 101 54 95 55 94 56 47 58 81 59 60 60 80 61 61 62 64 63
REMARK SMILES IDX 79 64 99 65 62 66 63 67 78 69 100 70 65 71 48 72 49 73 58 74
REMARK SMILES IDX 50 75 51 76 57 77 59 78 52 79 53 80 54 81 55 82 56 83 82 84
REMARK SMILES IDX 83 85 92 86 84 87 85 88 91 89 93 90 86 91 87 92 88 93 89 94
REMARK SMILES IDX 90 95 66 96 67 97 76 98 68 99 69 100 75 101 77 102 70 103
REMARK SMILES IDX 71 104 72 105 73 106 74 107
REMARK H PARENT 9 19 98 57 64 68
REMARK Flexibility Score: inf
ROOT
ATOM      1  C   UNL A   1      31.797  29.336  26.714  1.00  0.00     0.188 C 
ENDROOT
BRANCH   1   2
ATOM      2  C   UNL A   1      31.714  29.397  25.193  1.00  0.00     0.188 C 
BRANCH   2   3
ATOM      3  O   UNL A   1      30.635  30.138  24.628  1.00  0.00    -0.376 OA
BRANCH   3   4
ATOM      4  C   UNL A   1      29.904  29.658  23.496  1.00  0.00     0.202 C 
BRANCH   4   5
ATOM      5  C   UNL A   1      30.536  28.649  22.542  1.00  0.00     0.261 C 
BRANCH   5   6
ATOM      6  O   UNL A   1      30.594  27.260  22.921  1.00  0.00    -0.463 OA
BRANCH   6   7
ATOM      7  C   UNL A   1      31.400  26.357  22.329  1.00  0.00     0.316 C 
ATOM      8  O   UNL A   1      31.515  26.333  21.102  1.00  0.00    -0.251 OA
BRANCH   7   9
ATOM      9  C   UNL A   1      32.195  25.410  23.209  1.00  0.00     0.197 C 
BRANCH   9  10
ATOM     10  S   UNL A   1      33.467  26.246  24.194  1.00  0.00    -0.114 SA
BRANCH  10  11
ATOM     11  C   UNL A   1      34.729  24.989  24.262  1.00  0.00     0.008 A 
ATOM     12  C   UNL A   1      35.620  24.843  25.327  1.00  0.00     0.017 A 
ATOM     13  C   UNL A   1      34.785  24.067  23.219  1.00  0.00     0.017 A 
ATOM     14  C   UNL A   1      36.389  23.700  25.468  1.00  0.00     0.027 A 
ATOM     15  C   UNL A   1      35.607  22.944  23.327  1.00  0.00     0.027 A 
ATOM     16  C   UNL A   1      36.314  22.707  24.509  1.00  0.00     0.041 A 
BRANCH  16  17
ATOM     17  N   UNL A   1      36.866  21.443  24.690  1.00  0.00    -0.322 N 
ATOM     18  C   UNL A   1      36.293  20.220  24.936  1.00  0.00     0.256 C 
ATOM     19  H   UNL A   1      37.850  21.421  24.631  1.00  0.00     0.170 HD
ATOM     20  O   UNL A   1      37.054  19.278  25.180  1.00  0.00    -0.269 OA
BRANCH  18  21
ATOM     21  C   UNL A   1      34.831  19.936  24.950  1.00  0.00     0.048 A 
ATOM     22  C   UNL A   1      34.484  18.798  24.200  1.00  0.00     0.014 A 
ATOM     23  C   UNL A   1      33.812  20.783  25.495  1.00  0.00    -0.006 A 
ATOM     24  C   UNL A   1      33.158  18.515  23.906  1.00  0.00     0.001 A 
ATOM     25  C   UNL A   1      32.467  20.504  25.121  1.00  0.00    -0.018 A 
ATOM     26  C   UNL A   1      34.002  21.871  26.387  1.00  0.00     0.009 A 
ATOM     27  C   UNL A   1      32.164  19.392  24.323  1.00  0.00     0.009 A 
ATOM     28  C   UNL A   1      31.412  21.325  25.552  1.00  0.00     0.009 A 
ATOM     29  C   UNL A   1      32.925  22.609  26.899  1.00  0.00     0.001 A 
ATOM     30  C   UNL A   1      31.634  22.357  26.456  1.00  0.00     0.001 A 
ENDBRANCH  18  21
ENDBRANCH  16  17
ENDBRANCH  10  11
ENDBRANCH   9  10
ENDBRANCH   7   9
ENDBRANCH   6   7
ENDBRANCH   5   6
ENDBRANCH   4   5
ENDBRANCH   3   4
ENDBRANCH   2   3
ENDBRANCH   1   2
BRANCH   1  31
ATOM     31  O   UNL A   1      33.026  28.901  27.278  1.00  0.00    -0.377 OA
BRANCH  31  32
ATOM     32  C   UNL A   1      34.127  29.790  27.164  1.00  0.00     0.188 C 
BRANCH  32  33
ATOM     33  C   UNL A   1      33.933  31.245  27.652  1.00  0.00     0.188 C 
BRANCH  33  34
ATOM     34  O   UNL A   1      35.094  31.901  28.112  1.00  0.00    -0.376 OA
BRANCH  34  35
ATOM     35  C   UNL A   1      35.158  32.468  29.410  1.00  0.00     0.202 C 
BRANCH  35  36
ATOM     36  C   UNL A   1      36.319  33.315  29.974  1.00  0.00     0.261 C 
BRANCH  36  37
ATOM     37  O   UNL A   1      37.203  32.732  30.928  1.00  0.00    -0.460 OA
BRANCH  37  38
ATOM     38  C   UNL A   1      37.150  31.396  31.102  1.00  0.00     0.338 C 
ATOM     39  O   UNL A   1      36.189  30.744  31.486  1.00  0.00    -0.246 OA
BRANCH  38  40
ATOM     40  C   UNL A   1      38.375  30.832  30.495  1.00  0.00     0.060 A 
ATOM     41  C   UNL A   1      39.452  30.484  31.328  1.00  0.00     0.016 A 
ATOM     42  C   UNL A   1      38.426  30.570  29.125  1.00  0.00     0.016 A 
ATOM     43  C   UNL A   1      40.585  29.873  30.793  1.00  0.00     0.010 A 
ATOM     44  C   UNL A   1      39.583  30.011  28.581  1.00  0.00     0.010 A 
ATOM     45  C   UNL A   1      40.674  29.688  29.409  1.00  0.00    -0.014 A 
BRANCH  45  46
ATOM     46  C   UNL A   1      41.991  29.447  28.782  1.00  0.00     0.031 A 
ATOM     47  C   UNL A   1      42.260  28.056  28.286  1.00  0.00     0.074 A 
ATOM     48  C   UNL A   1      42.932  30.402  28.704  1.00  0.00     0.049 A 
ATOM     49  N   UNL A   1      43.375  27.522  27.867  1.00  0.00    -0.248 NA
ATOM     50  C   UNL A   1      41.109  27.137  28.282  1.00  0.00     0.031 C 
ATOM     51  C   UNL A   1      42.763  31.794  29.109  1.00  0.00     0.029 A 
ATOM     52  N   UNL A   1      44.238  30.323  28.286  1.00  0.00    -0.354 N 
ATOM     53  C   UNL A   1      43.068  26.197  27.583  1.00  0.00     0.074 A 
ATOM     54  C   UNL A   1      41.669  26.005  27.889  1.00  0.00     0.031 C 
ATOM     55  C   UNL A   1      43.938  32.432  28.966  1.00  0.00     0.029 A 
ATOM     56  C   UNL A   1      44.949  31.478  28.504  1.00  0.00     0.049 A 
ATOM     57  H   UNL A   1      44.625  29.519  27.872  1.00  0.00     0.167 HD
ATOM     58  C   UNL A   1      43.886  25.225  27.120  1.00  0.00     0.037 A 
ATOM     59  C   UNL A   1      46.272  31.717  28.395  1.00  0.00     0.037 A 
ATOM     60  C   UNL A   1      45.280  25.430  26.840  1.00  0.00     0.049 A 
ATOM     61  C   UNL A   1      47.186  30.610  27.934  1.00  0.00     0.074 A 
ATOM     62  C   UNL A   1      46.198  24.526  26.340  1.00  0.00     0.029 A 
ATOM     63  N   UNL A   1      45.962  26.619  27.059  1.00  0.00    -0.354 N 
ATOM     64  N   UNL A   1      46.888  29.366  27.638  1.00  0.00    -0.248 NA
ATOM     65  C   UNL A   1      48.612  30.934  27.790  1.00  0.00     0.031 C 
ATOM     66  C   UNL A   1      47.449  25.148  26.321  1.00  0.00     0.029 A 
ATOM     67  C   UNL A   1      47.298  26.463  26.736  1.00  0.00     0.049 A 
ATOM     68  H   UNL A   1      45.556  27.451  27.396  1.00  0.00     0.167 HD
ATOM     69  C   UNL A   1      48.081  28.768  27.244  1.00  0.00     0.074 A 
ATOM     70  C   UNL A   1      49.106  29.787  27.341  1.00  0.00     0.031 C 
ATOM     71  C   UNL A   1      48.304  27.495  26.829  1.00  0.00     0.037 A 
BRANCH  58  72
ATOM     72  C   UNL A   1      43.298  23.849  26.958  1.00  0.00     0.058 A 
ATOM     73  C   UNL A   1      43.102  22.985  28.048  1.00  0.00     0.135 A 
ATOM     74  C   UNL A   1      42.952  23.380  25.681  1.00  0.00     0.135 A 
ATOM     75  F   UNL A   1      43.438  23.373  29.288  1.00  0.00    -0.206 F 
ATOM     76  C   UNL A   1      42.630  21.689  27.871  1.00  0.00     0.059 A 
ATOM     77  C   UNL A   1      42.443  22.099  25.485  1.00  0.00     0.059 A 
ATOM     78  F   UNL A   1      43.123  24.160  24.603  1.00  0.00    -0.206 F 
ATOM     79  C   UNL A   1      42.310  21.253  26.585  1.00  0.00     0.060 A 
BRANCH  79  80
ATOM     80  S   UNL A   1      41.729  19.559  26.368  1.00  0.00     0.124 S 
ATOM     81  O   UNL A   1      40.304  19.767  26.129  1.00  0.00    -0.237 OA
ATOM     82  O   UNL A   1      42.504  19.109  25.216  1.00  0.00    -0.237 OA
ATOM     83  O   UNL A   1      42.064  18.917  27.635  1.00  0.00    -0.744 OA
ENDBRANCH  79  80
ENDBRANCH  58  72
BRANCH  59  84
ATOM     84  C   UNL A   1      46.803  33.056  28.765  1.00  0.00     0.058 A 
ATOM     85  C   UNL A   1      46.959  34.068  27.808  1.00  0.00     0.135 A 
ATOM     86  C   UNL A   1      47.109  33.368  30.101  1.00  0.00     0.135 A 
ATOM     87  F   UNL A   1      46.695  33.815  26.516  1.00  0.00    -0.206 F 
ATOM     88  C   UNL A   1      47.387  35.344  28.159  1.00  0.00     0.059 A 
ATOM     89  C   UNL A   1      47.515  34.643  30.481  1.00  0.00     0.059 A 
ATOM     90  F   UNL A   1      46.971  32.437  31.057  1.00  0.00    -0.206 F 
ATOM     91  C   UNL A   1      47.648  35.626  29.502  1.00  0.00     0.060 A 
BRANCH  91  92
ATOM     92  S   UNL A   1      48.098  37.315  29.959  1.00  0.00     0.124 S 
ATOM     93  O   UNL A   1      49.485  37.149  30.375  1.00  0.00    -0.237 OA
ATOM     94  O   UNL A   1      47.886  38.032  28.705  1.00  0.00    -0.237 OA
ATOM     95  O   UNL A   1      47.153  37.637  31.023  1.00  0.00    -0.744 OA
ENDBRANCH  91  92
ENDBRANCH  59  84
BRANCH  71  96
ATOM     96  C   UNL A   1      49.697  27.126  26.392  1.00  0.00     0.058 A 
ATOM     97  C   UNL A   1      50.135  27.294  25.070  1.00  0.00     0.135 A 
ATOM     98  C   UNL A   1      50.640  26.705  27.346  1.00  0.00     0.135 A 
ATOM     99  F   UNL A   1      49.274  27.687  24.118  1.00  0.00    -0.206 F 
ATOM    100  C   UNL A   1      51.457  27.056  24.709  1.00  0.00     0.059 A 
ATOM    101  C   UNL A   1      51.973  26.490  27.014  1.00  0.00     0.059 A 
ATOM    102  F   UNL A   1      50.276  26.538  28.628  1.00  0.00    -0.206 F 
ATOM    103  C   UNL A   1      52.372  26.666  25.690  1.00  0.00     0.060 A 
BRANCH 103 104
ATOM    104  S   UNL A   1      54.100  26.433  25.221  1.00  0.00     0.124 S 
ATOM    105  O   UNL A   1      54.303  27.538  24.290  1.00  0.00    -0.237 OA
ATOM    106  O   UNL A   1      54.789  26.550  26.503  1.00  0.00    -0.237 OA
ATOM    107  O   UNL A   1      54.116  25.100  24.627  1.00  0.00    -0.744 OA
ENDBRANCH 103 104
ENDBRANCH  71  96
ENDBRANCH  45  46
ENDBRANCH  38  40
ENDBRANCH  37  38
ENDBRANCH  36  37
ENDBRANCH  35  36
ENDBRANCH  34  35
ENDBRANCH  33  34
ENDBRANCH  32  33
ENDBRANCH  31  32
ENDBRANCH   1  31
TORSDOF 27
ENDMDL
