MODEL 1
REMARK VINA RESULT:      -9.0      0.000      0.000
REMARK SMILES C[C@H]1CCCC[C@H]1[N@@H+]1[C@@H](C(=O)OCCOCCOCCOCCOC(=O)c2ccc(-c3c4nc(c(-c5c(F)cc(S(=O)(=O)[O-])cc5F)c5ccc([nH]5)c(-c5c(F)cc(S(=O)(=O)[O-])cc5F)c5nc(c(-c6c(F)cc(S(=O)(=O)[O-])cc6F)c6ccc3[nH]6)C=C5)C=C4)cc2)CC[C@@H]2CCCC[C@@H]21
REMARK SMILES IDX 19 1 18 2 17 3 16 4 15 5 14 6 13 7 12 8 10 9 11 10 9 11 8 12
REMARK SMILES IDX 100 13 93 15 95 16 99 17 94 18 96 19 98 20 97 21 7 22 1 23
REMARK SMILES IDX 2 24 3 25 4 26 6 27 5 28 20 29 21 30 22 31 23 32 24 33 25 34
REMARK SMILES IDX 26 35 27 36 28 37 92 38 29 39 91 40 30 41 31 42 32 43 85 44
REMARK SMILES IDX 33 45 90 46 84 47 86 48 34 49 89 50 83 51 82 52 35 54 69 55
REMARK SMILES IDX 48 56 68 57 49 58 52 59 67 60 87 61 50 62 51 63 66 65 88 66
REMARK SMILES IDX 53 67 36 68 37 69 46 70 38 71 39 72 45 73 47 74 40 75 41 76
REMARK SMILES IDX 42 77 43 78 44 79 70 80 71 81 80 82 72 83 73 84 79 85 81 86
REMARK SMILES IDX 74 87 75 88 76 89 77 90 78 91 54 92 55 93 64 94 56 95 57 96
REMARK SMILES IDX 63 97 65 98 58 99 59 100 60 101 61 102 62 103
REMARK H PARENT 8 14 86 53 52 64
REMARK Flexibility Score: inf
ROOT
ATOM      1  C   UNL A   1      45.393  40.650  27.361  1.00  0.00     0.188 C 
ENDROOT
BRANCH   1   2
ATOM      2  O   UNL A   1      44.067  41.154  27.293  1.00  0.00    -0.377 OA
BRANCH   2   3
ATOM      3  C   UNL A   1      43.114  40.373  26.577  1.00  0.00     0.188 C 
BRANCH   3   4
ATOM      4  C   UNL A   1      42.343  41.266  25.591  1.00  0.00     0.188 C 
BRANCH   4   5
ATOM      5  O   UNL A   1      43.018  41.516  24.363  1.00  0.00    -0.376 OA
BRANCH   5   6
ATOM      6  C   UNL A   1      42.408  42.463  23.482  1.00  0.00     0.202 C 
BRANCH   6   7
ATOM      7  C   UNL A   1      43.092  42.720  22.117  1.00  0.00     0.261 C 
BRANCH   7   8
ATOM      8  O   UNL A   1      43.450  44.082  21.724  1.00  0.00    -0.459 OA
BRANCH   8   9
ATOM      9  C   UNL A   1      44.751  44.479  21.968  1.00  0.00     0.365 C 
ATOM     10  O   UNL A   1      45.279  44.322  23.069  1.00  0.00    -0.245 OA
BRANCH   9  11
ATOM     11  C   UNL A   1      45.395  45.308  20.800  1.00  0.00     0.295 C 
ATOM     12  N   UNL A   1      46.728  45.021  20.127  1.00  0.00    -0.318 N 
ATOM     13  C   UNL A   1      47.280  46.181  19.336  1.00  0.00     0.188 C 
ATOM     14  H   UNL A   1      47.112  44.843  21.057  1.00  0.00     0.349 HD
ATOM     15  C   UNL A   1      45.608  46.690  21.489  1.00  0.00     0.078 C 
ATOM     16  C   UNL A   1      46.312  47.378  19.179  1.00  0.00     0.048 C 
ATOM     17  C   UNL A   1      47.918  45.986  17.918  1.00  0.00     0.065 C 
ATOM     18  C   UNL A   1      45.822  47.849  20.536  1.00  0.00     0.016 C 
ATOM     19  C   UNL A   1      45.160  47.113  18.182  1.00  0.00     0.010 C 
ATOM     20  C   UNL A   1      46.994  46.242  16.723  1.00  0.00     0.006 C 
ATOM     21  C   UNL A   1      45.531  46.105  17.095  1.00  0.00     0.001 C 
BRANCH  12  22
ATOM     22  C   UNL A   1      47.260  43.715  19.715  1.00  0.00     0.187 C 
ATOM     23  C   UNL A   1      49.892  44.071  20.146  1.00  0.00     0.014 C 
ATOM     24  C   UNL A   1      48.620  43.274  20.402  1.00  0.00     0.044 C 
ATOM     25  C   UNL A   1      48.427  43.115  21.913  1.00  0.00     0.009 C 
ATOM     26  C   UNL A   1      47.487  41.963  22.175  1.00  0.00     0.001 C 
ATOM     27  C   UNL A   1      46.341  42.519  19.882  1.00  0.00     0.065 C 
ATOM     28  C   UNL A   1      46.252  42.029  21.312  1.00  0.00     0.006 C 
ENDBRANCH  12  22
ENDBRANCH   9  11
ENDBRANCH   8   9
ENDBRANCH   7   8
ENDBRANCH   6   7
ENDBRANCH   5   6
ENDBRANCH   4   5
ENDBRANCH   3   4
ENDBRANCH   2   3
ENDBRANCH   1   2
BRANCH   1  29
ATOM     29  C   UNL A   1      45.851  39.753  26.198  1.00  0.00     0.188 C 
BRANCH  29  30
ATOM     30  O   UNL A   1      46.752  38.680  26.472  1.00  0.00    -0.376 OA
BRANCH  30  31
ATOM     31  C   UNL A   1      47.884  38.949  27.288  1.00  0.00     0.202 C 
BRANCH  31  32
ATOM     32  C   UNL A   1      47.934  38.301  28.669  1.00  0.00     0.261 C 
BRANCH  32  33
ATOM     33  O   UNL A   1      46.687  37.658  28.976  1.00  0.00    -0.460 OA
BRANCH  33  34
ATOM     34  C   UNL A   1      46.705  36.852  30.051  1.00  0.00     0.338 C 
ATOM     35  O   UNL A   1      46.512  37.161  31.225  1.00  0.00    -0.246 OA
BRANCH  34  36
ATOM     36  C   UNL A   1      46.834  35.467  29.598  1.00  0.00     0.060 A 
ATOM     37  C   UNL A   1      46.781  35.202  28.222  1.00  0.00     0.016 A 
ATOM     38  C   UNL A   1      46.898  34.433  30.531  1.00  0.00     0.016 A 
ATOM     39  C   UNL A   1      46.740  33.890  27.770  1.00  0.00     0.010 A 
ATOM     40  C   UNL A   1      46.824  33.119  30.081  1.00  0.00     0.010 A 
ATOM     41  C   UNL A   1      46.693  32.853  28.706  1.00  0.00    -0.014 A 
BRANCH  41  42
ATOM     42  C   UNL A   1      46.218  31.523  28.283  1.00  0.00     0.031 A 
ATOM     43  C   UNL A   1      44.800  31.162  28.621  1.00  0.00     0.074 A 
ATOM     44  C   UNL A   1      47.031  30.672  27.640  1.00  0.00     0.049 A 
ATOM     45  N   UNL A   1      44.195  30.009  28.536  1.00  0.00    -0.248 NA
ATOM     46  C   UNL A   1      43.952  32.250  29.142  1.00  0.00     0.031 C 
ATOM     47  C   UNL A   1      48.392  30.972  27.201  1.00  0.00     0.029 A 
ATOM     48  N   UNL A   1      46.831  29.370  27.269  1.00  0.00    -0.354 N 
ATOM     49  C   UNL A   1      42.910  30.226  29.021  1.00  0.00     0.074 A 
ATOM     50  C   UNL A   1      42.823  31.615  29.408  1.00  0.00     0.031 C 
ATOM     51  C   UNL A   1      48.922  29.868  26.647  1.00  0.00     0.029 A 
ATOM     52  C   UNL A   1      47.953  28.778  26.741  1.00  0.00     0.049 A 
ATOM     53  H   UNL A   1      45.970  28.904  27.370  1.00  0.00     0.167 HD
ATOM     54  C   UNL A   1      41.900  29.334  29.136  1.00  0.00     0.037 A 
ATOM     55  C   UNL A   1      48.172  27.490  26.418  1.00  0.00     0.037 A 
ATOM     56  C   UNL A   1      42.022  27.957  28.744  1.00  0.00     0.049 A 
ATOM     57  C   UNL A   1      47.058  26.495  26.624  1.00  0.00     0.074 A 
ATOM     58  C   UNL A   1      41.072  26.955  28.808  1.00  0.00     0.029 A 
ATOM     59  N   UNL A   1      43.174  27.389  28.215  1.00  0.00    -0.354 N 
ATOM     60  N   UNL A   1      45.849  26.698  27.096  1.00  0.00    -0.248 NA
ATOM     61  C   UNL A   1      47.333  25.100  26.257  1.00  0.00     0.031 C 
ATOM     62  C   UNL A   1      41.668  25.768  28.369  1.00  0.00     0.029 A 
ATOM     63  C   UNL A   1      42.966  26.045  27.967  1.00  0.00     0.049 A 
ATOM     64  H   UNL A   1      44.015  27.873  28.044  1.00  0.00     0.167 HD
ATOM     65  C   UNL A   1      45.205  25.466  27.041  1.00  0.00     0.074 A 
ATOM     66  C   UNL A   1      46.162  24.524  26.496  1.00  0.00     0.031 C 
ATOM     67  C   UNL A   1      43.937  25.142  27.396  1.00  0.00     0.037 A 
BRANCH  54  68
ATOM     68  C   UNL A   1      40.612  29.808  29.751  1.00  0.00     0.058 A 
ATOM     69  C   UNL A   1      40.488  30.054  31.128  1.00  0.00     0.135 A 
ATOM     70  C   UNL A   1      39.485  30.032  28.943  1.00  0.00     0.135 A 
ATOM     71  F   UNL A   1      41.523  29.831  31.952  1.00  0.00    -0.206 F 
ATOM     72  C   UNL A   1      39.286  30.483  31.684  1.00  0.00     0.059 A 
ATOM     73  C   UNL A   1      38.283  30.490  29.473  1.00  0.00     0.059 A 
ATOM     74  F   UNL A   1      39.543  29.801  27.622  1.00  0.00    -0.206 F 
ATOM     75  C   UNL A   1      38.190  30.702  30.847  1.00  0.00     0.060 A 
BRANCH  75  76
ATOM     76  S   UNL A   1      36.642  31.272  31.582  1.00  0.00     0.124 S 
ATOM     77  O   UNL A   1      35.953  31.823  30.419  1.00  0.00    -0.237 OA
ATOM     78  O   UNL A   1      36.083  30.037  32.122  1.00  0.00    -0.237 OA
ATOM     79  O   UNL A   1      37.076  32.249  32.575  1.00  0.00    -0.744 OA
ENDBRANCH  75  76
ENDBRANCH  54  68
BRANCH  55  80
ATOM     80  C   UNL A   1      49.496  27.070  25.887  1.00  0.00     0.058 A 
ATOM     81  C   UNL A   1      50.484  26.555  26.739  1.00  0.00     0.135 A 
ATOM     82  C   UNL A   1      49.796  27.157  24.517  1.00  0.00     0.135 A 
ATOM     83  F   UNL A   1      50.248  26.458  28.056  1.00  0.00    -0.206 F 
ATOM     84  C   UNL A   1      51.726  26.154  26.256  1.00  0.00     0.059 A 
ATOM     85  C   UNL A   1      51.020  26.736  24.007  1.00  0.00     0.059 A 
ATOM     86  F   UNL A   1      48.881  27.630  23.657  1.00  0.00    -0.206 F 
ATOM     87  C   UNL A   1      51.983  26.245  24.888  1.00  0.00     0.060 A 
BRANCH  87  88
ATOM     88  S   UNL A   1      53.580  25.675  24.269  1.00  0.00     0.124 S 
ATOM     89  O   UNL A   1      53.449  25.928  22.839  1.00  0.00    -0.237 OA
ATOM     90  O   UNL A   1      54.511  26.538  24.989  1.00  0.00    -0.237 OA
ATOM     91  O   UNL A   1      53.611  24.269  24.661  1.00  0.00    -0.744 OA
ENDBRANCH  87  88
ENDBRANCH  55  80
BRANCH  67  92
ATOM     92  C   UNL A   1      43.480  23.734  27.140  1.00  0.00     0.058 A 
ATOM     93  C   UNL A   1      43.413  22.776  28.160  1.00  0.00     0.135 A 
ATOM     94  C   UNL A   1      43.011  23.374  25.865  1.00  0.00     0.135 A 
ATOM     95  F   UNL A   1      43.854  23.069  29.394  1.00  0.00    -0.206 F 
ATOM     96  C   UNL A   1      42.907  21.502  27.924  1.00  0.00     0.059 A 
ATOM     97  C   UNL A   1      42.474  22.117  25.613  1.00  0.00     0.059 A 
ATOM     98  F   UNL A   1      43.043  24.261  24.857  1.00  0.00    -0.206 F 
ATOM     99  C   UNL A   1      42.432  21.185  26.649  1.00  0.00     0.060 A 
BRANCH  99 100
ATOM    100  S   UNL A   1      41.719  19.551  26.372  1.00  0.00     0.124 S 
ATOM    101  O   UNL A   1      42.410  19.131  25.158  1.00  0.00    -0.237 OA
ATOM    102  O   UNL A   1      42.089  18.840  27.592  1.00  0.00    -0.237 OA
ATOM    103  O   UNL A   1      40.292  19.822  26.220  1.00  0.00    -0.744 OA
ENDBRANCH  99 100
ENDBRANCH  67  92
ENDBRANCH  41  42
ENDBRANCH  34  36
ENDBRANCH  33  34
ENDBRANCH  32  33
ENDBRANCH  31  32
ENDBRANCH  30  31
ENDBRANCH  29  30
ENDBRANCH   1  29
TORSDOF 24
ENDMDL
MODEL 2
REMARK VINA RESULT:      -9.0      3.624      7.551
REMARK SMILES C[C@H]1CCCC[C@H]1[N@@H+]1[C@@H](C(=O)OCCOCCOCCOCCOC(=O)c2ccc(-c3c4nc(c(-c5c(F)cc(S(=O)(=O)[O-])cc5F)c5ccc([nH]5)c(-c5c(F)cc(S(=O)(=O)[O-])cc5F)c5nc(c(-c6c(F)cc(S(=O)(=O)[O-])cc6F)c6ccc3[nH]6)C=C5)C=C4)cc2)CC[C@@H]2CCCC[C@@H]21
REMARK SMILES IDX 19 1 18 2 17 3 16 4 15 5 14 6 13 7 12 8 10 9 11 10 9 11 8 12
REMARK SMILES IDX 100 13 93 15 95 16 99 17 94 18 96 19 98 20 97 21 7 22 1 23
REMARK SMILES IDX 2 24 3 25 4 26 6 27 5 28 20 29 21 30 22 31 23 32 24 33 25 34
REMARK SMILES IDX 26 35 27 36 28 37 92 38 29 39 91 40 30 41 31 42 32 43 85 44
REMARK SMILES IDX 33 45 90 46 84 47 86 48 34 49 89 50 83 51 82 52 35 54 69 55
REMARK SMILES IDX 48 56 68 57 49 58 52 59 67 60 87 61 50 62 51 63 66 65 88 66
REMARK SMILES IDX 53 67 36 68 37 69 46 70 38 71 39 72 45 73 47 74 40 75 41 76
REMARK SMILES IDX 42 77 43 78 44 79 70 80 71 81 80 82 72 83 73 84 79 85 81 86
REMARK SMILES IDX 74 87 75 88 76 89 77 90 78 91 54 92 55 93 64 94 56 95 57 96
REMARK SMILES IDX 63 97 65 98 58 99 59 100 60 101 61 102 62 103
REMARK H PARENT 8 14 86 53 52 64
REMARK Flexibility Score: inf
ROOT
ATOM      1  C   UNL A   1      43.163  42.790  23.998  1.00  0.00     0.188 C 
ENDROOT
BRANCH   1   2
ATOM      2  O   UNL A   1      42.446  41.772  23.313  1.00  0.00    -0.377 OA
BRANCH   2   3
ATOM      3  C   UNL A   1      41.552  42.190  22.285  1.00  0.00     0.188 C 
BRANCH   3   4
ATOM      4  C   UNL A   1      42.203  43.305  21.450  1.00  0.00     0.188 C 
BRANCH   4   5
ATOM      5  O   UNL A   1      42.131  43.110  20.041  1.00  0.00    -0.376 OA
BRANCH   5   6
ATOM      6  C   UNL A   1      40.962  43.610  19.387  1.00  0.00     0.202 C 
BRANCH   6   7
ATOM      7  C   UNL A   1      41.148  44.735  18.340  1.00  0.00     0.261 C 
BRANCH   7   8
ATOM      8  O   UNL A   1      42.085  45.826  18.598  1.00  0.00    -0.459 OA
BRANCH   8   9
ATOM      9  C   UNL A   1      43.323  45.741  17.989  1.00  0.00     0.365 C 
ATOM     10  O   UNL A   1      43.438  45.681  16.764  1.00  0.00    -0.245 OA
BRANCH   9  11
ATOM     11  C   UNL A   1      44.514  45.527  18.990  1.00  0.00     0.295 C 
ATOM     12  N   UNL A   1      45.734  46.423  19.135  1.00  0.00    -0.318 N 
ATOM     13  C   UNL A   1      46.887  45.778  19.865  1.00  0.00     0.188 C 
ATOM     14  H   UNL A   1      45.772  46.467  18.115  1.00  0.00     0.349 HD
ATOM     15  C   UNL A   1      45.096  44.172  18.485  1.00  0.00     0.078 C 
ATOM     16  C   UNL A   1      46.562  44.410  20.510  1.00  0.00     0.048 C 
ATOM     17  C   UNL A   1      47.715  46.552  20.948  1.00  0.00     0.065 C 
ATOM     18  C   UNL A   1      45.991  43.456  19.478  1.00  0.00     0.016 C 
ATOM     19  C   UNL A   1      45.686  44.519  21.779  1.00  0.00     0.010 C 
ATOM     20  C   UNL A   1      47.300  46.322  22.404  1.00  0.00     0.006 C 
ATOM     21  C   UNL A   1      45.867  45.844  22.518  1.00  0.00     0.001 C 
BRANCH  12  22
ATOM     22  C   UNL A   1      45.770  47.892  19.148  1.00  0.00     0.187 C 
ATOM     23  C   UNL A   1      47.970  48.367  17.674  1.00  0.00     0.014 C 
ATOM     24  C   UNL A   1      46.480  48.577  17.906  1.00  0.00     0.044 C 
ATOM     25  C   UNL A   1      45.724  48.254  16.614  1.00  0.00     0.009 C 
ATOM     26  C   UNL A   1      44.359  48.897  16.664  1.00  0.00     0.001 C 
ATOM     27  C   UNL A   1      44.437  48.606  19.270  1.00  0.00     0.065 C 
ATOM     28  C   UNL A   1      43.655  48.639  17.972  1.00  0.00     0.006 C 
ENDBRANCH  12  22
ENDBRANCH   9  11
ENDBRANCH   8   9
ENDBRANCH   7   8
ENDBRANCH   6   7
ENDBRANCH   5   6
ENDBRANCH   4   5
ENDBRANCH   3   4
ENDBRANCH   2   3
ENDBRANCH   1   2
BRANCH   1  29
ATOM     29  C   UNL A   1      44.274  42.326  24.955  1.00  0.00     0.188 C 
BRANCH  29  30
ATOM     30  O   UNL A   1      43.934  42.027  26.308  1.00  0.00    -0.376 OA
BRANCH  30  31
ATOM     31  C   UNL A   1      43.126  40.885  26.559  1.00  0.00     0.202 C 
BRANCH  31  32
ATOM     32  C   UNL A   1      43.826  39.535  26.688  1.00  0.00     0.261 C 
BRANCH  32  33
ATOM     33  O   UNL A   1      43.223  38.745  27.725  1.00  0.00    -0.460 OA
BRANCH  33  34
ATOM     34  C   UNL A   1      42.347  37.817  27.304  1.00  0.00     0.338 C 
ATOM     35  O   UNL A   1      41.195  37.995  26.912  1.00  0.00    -0.246 OA
BRANCH  34  36
ATOM     36  C   UNL A   1      43.031  36.527  27.222  1.00  0.00     0.060 A 
ATOM     37  C   UNL A   1      43.831  36.120  28.299  1.00  0.00     0.016 A 
ATOM     38  C   UNL A   1      42.966  35.779  26.046  1.00  0.00     0.016 A 
ATOM     39  C   UNL A   1      44.616  34.981  28.187  1.00  0.00     0.010 A 
ATOM     40  C   UNL A   1      43.778  34.656  25.921  1.00  0.00     0.010 A 
ATOM     41  C   UNL A   1      44.639  34.291  26.972  1.00  0.00    -0.014 A 
BRANCH  41  42
ATOM     42  C   UNL A   1      45.756  33.373  26.685  1.00  0.00     0.031 A 
ATOM     43  C   UNL A   1      45.471  31.900  26.760  1.00  0.00     0.074 A 
ATOM     44  C   UNL A   1      46.977  33.843  26.388  1.00  0.00     0.049 A 
ATOM     45  N   UNL A   1      46.299  30.893  26.738  1.00  0.00    -0.248 NA
ATOM     46  C   UNL A   1      44.054  31.513  26.891  1.00  0.00     0.031 C 
ATOM     47  C   UNL A   1      47.320  35.253  26.214  1.00  0.00     0.029 A 
ATOM     48  N   UNL A   1      48.159  33.178  26.206  1.00  0.00    -0.354 N 
ATOM     49  C   UNL A   1      45.510  29.757  26.886  1.00  0.00     0.074 A 
ATOM     50  C   UNL A   1      44.139  30.197  27.006  1.00  0.00     0.031 C 
ATOM     51  C   UNL A   1      48.640  35.352  25.983  1.00  0.00     0.029 A 
ATOM     52  C   UNL A   1      49.234  34.018  26.044  1.00  0.00     0.049 A 
ATOM     53  H   UNL A   1      48.232  32.197  26.192  1.00  0.00     0.167 HD
ATOM     54  C   UNL A   1      45.906  28.466  26.925  1.00  0.00     0.037 A 
ATOM     55  C   UNL A   1      50.549  33.730  25.998  1.00  0.00     0.037 A 
ATOM     56  C   UNL A   1      47.280  28.062  26.806  1.00  0.00     0.049 A 
ATOM     57  C   UNL A   1      50.976  32.289  26.118  1.00  0.00     0.074 A 
ATOM     58  C   UNL A   1      47.810  26.786  26.828  1.00  0.00     0.029 A 
ATOM     59  N   UNL A   1      48.345  28.939  26.645  1.00  0.00    -0.354 N 
ATOM     60  N   UNL A   1      50.230  31.218  26.273  1.00  0.00    -0.248 NA
ATOM     61  C   UNL A   1      52.417  32.013  26.060  1.00  0.00     0.031 C 
ATOM     62  C   UNL A   1      49.201  26.895  26.736  1.00  0.00     0.029 A 
ATOM     63  C   UNL A   1      49.533  28.233  26.587  1.00  0.00     0.049 A 
ATOM     64  H   UNL A   1      48.266  29.919  26.584  1.00  0.00     0.167 HD
ATOM     65  C   UNL A   1      51.108  30.140  26.285  1.00  0.00     0.074 A 
ATOM     66  C   UNL A   1      52.440  30.689  26.130  1.00  0.00     0.031 C 
ATOM     67  C   UNL A   1      50.841  28.815  26.403  1.00  0.00     0.037 A 
BRANCH  54  68
ATOM     68  C   UNL A   1      44.854  27.416  27.154  1.00  0.00     0.058 A 
ATOM     69  C   UNL A   1      44.263  26.708  26.094  1.00  0.00     0.135 A 
ATOM     70  C   UNL A   1      44.439  27.104  28.459  1.00  0.00     0.135 A 
ATOM     71  F   UNL A   1      44.601  26.982  24.824  1.00  0.00    -0.206 F 
ATOM     72  C   UNL A   1      43.283  25.745  26.320  1.00  0.00     0.059 A 
ATOM     73  C   UNL A   1      43.482  26.125  28.710  1.00  0.00     0.059 A 
ATOM     74  F   UNL A   1      44.960  27.759  29.509  1.00  0.00    -0.206 F 
ATOM     75  C   UNL A   1      42.902  25.458  27.632  1.00  0.00     0.060 A 
BRANCH  75  76
ATOM     76  S   UNL A   1      41.639  24.198  27.909  1.00  0.00     0.124 S 
ATOM     77  O   UNL A   1      41.474  23.651  26.566  1.00  0.00    -0.237 OA
ATOM     78  O   UNL A   1      42.288  23.317  28.876  1.00  0.00    -0.237 OA
ATOM     79  O   UNL A   1      40.504  24.959  28.420  1.00  0.00    -0.744 OA
ENDBRANCH  75  76
ENDBRANCH  54  68
BRANCH  55  80
ATOM     80  C   UNL A   1      51.545  34.823  25.848  1.00  0.00     0.058 A 
ATOM     81  C   UNL A   1      52.042  35.504  26.969  1.00  0.00     0.135 A 
ATOM     82  C   UNL A   1      52.036  35.198  24.587  1.00  0.00     0.135 A 
ATOM     83  F   UNL A   1      51.599  35.187  28.195  1.00  0.00    -0.206 F 
ATOM     84  C   UNL A   1      52.978  36.525  26.846  1.00  0.00     0.059 A 
ATOM     85  C   UNL A   1      52.993  36.198  24.440  1.00  0.00     0.059 A 
ATOM     86  F   UNL A   1      51.604  34.569  23.482  1.00  0.00    -0.206 F 
ATOM     87  C   UNL A   1      53.451  36.862  25.577  1.00  0.00     0.060 A 
BRANCH  87  88
ATOM     88  S   UNL A   1      54.702  38.156  25.436  1.00  0.00     0.124 S 
ATOM     89  O   UNL A   1      55.543  37.637  24.364  1.00  0.00    -0.237 OA
ATOM     90  O   UNL A   1      53.894  39.326  25.106  1.00  0.00    -0.237 OA
ATOM     91  O   UNL A   1      55.312  38.180  26.762  1.00  0.00    -0.744 OA
ENDBRANCH  87  88
ENDBRANCH  55  80
BRANCH  67  92
ATOM     92  C   UNL A   1      51.995  27.859  26.293  1.00  0.00     0.058 A 
ATOM     93  C   UNL A   1      52.743  27.463  27.409  1.00  0.00     0.135 A 
ATOM     94  C   UNL A   1      52.288  27.259  25.056  1.00  0.00     0.135 A 
ATOM     95  F   UNL A   1      52.505  28.011  28.612  1.00  0.00    -0.206 F 
ATOM     96  C   UNL A   1      53.753  26.512  27.303  1.00  0.00     0.059 A 
ATOM     97  C   UNL A   1      53.272  26.285  24.932  1.00  0.00     0.059 A 
ATOM     98  F   UNL A   1      51.590  27.596  23.958  1.00  0.00    -0.206 F 
ATOM     99  C   UNL A   1      54.003  25.923  26.062  1.00  0.00     0.060 A 
BRANCH  99 100
ATOM    100  S   UNL A   1      55.273  24.645  25.951  1.00  0.00     0.124 S 
ATOM    101  O   UNL A   1      56.111  25.156  24.873  1.00  0.00    -0.237 OA
ATOM    102  O   UNL A   1      55.864  24.678  27.286  1.00  0.00    -0.237 OA
ATOM    103  O   UNL A   1      54.514  23.437  25.638  1.00  0.00    -0.744 OA
ENDBRANCH  99 100
ENDBRANCH  67  92
ENDBRANCH  41  42
ENDBRANCH  34  36
ENDBRANCH  33  34
ENDBRANCH  32  33
ENDBRANCH  31  32
ENDBRANCH  30  31
ENDBRANCH  29  30
ENDBRANCH   1  29
TORSDOF 24
ENDMDL
MODEL 3
REMARK VINA RESULT:      -8.9      7.542     14.528
REMARK SMILES C[C@H]1CCCC[C@H]1[N@@H+]1[C@@H](C(=O)OCCOCCOCCOCCOC(=O)c2ccc(-c3c4nc(c(-c5c(F)cc(S(=O)(=O)[O-])cc5F)c5ccc([nH]5)c(-c5c(F)cc(S(=O)(=O)[O-])cc5F)c5nc(c(-c6c(F)cc(S(=O)(=O)[O-])cc6F)c6ccc3[nH]6)C=C5)C=C4)cc2)CC[C@@H]2CCCC[C@@H]21
REMARK SMILES IDX 19 1 18 2 17 3 16 4 15 5 14 6 13 7 12 8 10 9 11 10 9 11 8 12
REMARK SMILES IDX 100 13 93 15 95 16 99 17 94 18 96 19 98 20 97 21 7 22 1 23
REMARK SMILES IDX 2 24 3 25 4 26 6 27 5 28 20 29 21 30 22 31 23 32 24 33 25 34
REMARK SMILES IDX 26 35 27 36 28 37 92 38 29 39 91 40 30 41 31 42 32 43 85 44
REMARK SMILES IDX 33 45 90 46 84 47 86 48 34 49 89 50 83 51 82 52 35 54 69 55
REMARK SMILES IDX 48 56 68 57 49 58 52 59 67 60 87 61 50 62 51 63 66 65 88 66
REMARK SMILES IDX 53 67 36 68 37 69 46 70 38 71 39 72 45 73 47 74 40 75 41 76
REMARK SMILES IDX 42 77 43 78 44 79 70 80 71 81 80 82 72 83 73 84 79 85 81 86
REMARK SMILES IDX 74 87 75 88 76 89 77 90 78 91 54 92 55 93 64 94 56 95 57 96
REMARK SMILES IDX 63 97 65 98 58 99 59 100 60 101 61 102 62 103
REMARK H PARENT 8 14 86 53 52 64
REMARK Flexibility Score: inf
ROOT
ATOM      1  C   UNL A   1      37.836  34.025  33.083  1.00  0.00     0.188 C 
ENDROOT
BRANCH   1   2
ATOM      2  O   UNL A   1      38.221  32.710  33.459  1.00  0.00    -0.377 OA
BRANCH   2   3
ATOM      3  C   UNL A   1      39.591  32.510  33.796  1.00  0.00     0.188 C 
BRANCH   3   4
ATOM      4  C   UNL A   1      40.076  31.167  33.226  1.00  0.00     0.188 C 
BRANCH   4   5
ATOM      5  O   UNL A   1      41.283  30.677  33.803  1.00  0.00    -0.376 OA
BRANCH   5   6
ATOM      6  C   UNL A   1      41.939  29.617  33.103  1.00  0.00     0.202 C 
BRANCH   6   7
ATOM      7  C   UNL A   1      41.604  28.164  33.519  1.00  0.00     0.261 C 
BRANCH   7   8
ATOM      8  O   UNL A   1      41.861  27.718  34.887  1.00  0.00    -0.459 OA
BRANCH   8   9
ATOM      9  C   UNL A   1      42.591  26.555  35.037  1.00  0.00     0.365 C 
ATOM     10  O   UNL A   1      42.176  25.473  34.621  1.00  0.00    -0.245 OA
BRANCH   9  11
ATOM     11  C   UNL A   1      43.865  26.713  35.943  1.00  0.00     0.295 C 
ATOM     12  N   UNL A   1      45.261  26.205  35.620  1.00  0.00    -0.318 N 
ATOM     13  C   UNL A   1      46.181  26.136  36.815  1.00  0.00     0.188 C 
ATOM     14  H   UNL A   1      44.827  25.341  35.294  1.00  0.00     0.349 HD
ATOM     15  C   UNL A   1      43.445  25.896  37.202  1.00  0.00     0.078 C 
ATOM     16  C   UNL A   1      45.617  26.776  38.105  1.00  0.00     0.048 C 
ATOM     17  C   UNL A   1      47.671  26.617  36.740  1.00  0.00     0.065 C 
ATOM     18  C   UNL A   1      44.262  26.183  38.447  1.00  0.00     0.016 C 
ATOM     19  C   UNL A   1      45.607  28.322  38.074  1.00  0.00     0.010 C 
ATOM     20  C   UNL A   1      47.943  28.044  37.227  1.00  0.00     0.006 C 
ATOM     21  C   UNL A   1      46.699  28.908  37.179  1.00  0.00     0.001 C 
BRANCH  12  22
ATOM     22  C   UNL A   1      45.965  26.278  34.333  1.00  0.00     0.187 C 
ATOM     23  C   UNL A   1      47.383  23.992  34.392  1.00  0.00     0.014 C 
ATOM     24  C   UNL A   1      46.371  24.887  33.688  1.00  0.00     0.044 C 
ATOM     25  C   UNL A   1      45.121  24.064  33.362  1.00  0.00     0.009 C 
ATOM     26  C   UNL A   1      44.338  24.762  32.276  1.00  0.00     0.001 C 
ATOM     27  C   UNL A   1      45.268  27.029  33.214  1.00  0.00     0.065 C 
ATOM     28  C   UNL A   1      44.157  26.232  32.560  1.00  0.00     0.006 C 
ENDBRANCH  12  22
ENDBRANCH   9  11
ENDBRANCH   8   9
ENDBRANCH   7   8
ENDBRANCH   6   7
ENDBRANCH   5   6
ENDBRANCH   4   5
ENDBRANCH   3   4
ENDBRANCH   2   3
ENDBRANCH   1   2
BRANCH   1  29
ATOM     29  C   UNL A   1      37.201  34.186  31.691  1.00  0.00     0.188 C 
BRANCH  29  30
ATOM     30  O   UNL A   1      35.778  34.194  31.581  1.00  0.00    -0.376 OA
BRANCH  30  31
ATOM     31  C   UNL A   1      35.204  33.978  30.299  1.00  0.00     0.202 C 
BRANCH  31  32
ATOM     32  C   UNL A   1      34.525  32.635  30.042  1.00  0.00     0.261 C 
BRANCH  32  33
ATOM     33  O   UNL A   1      35.479  31.563  30.091  1.00  0.00    -0.460 OA
BRANCH  33  34
ATOM     34  C   UNL A   1      35.441  30.712  29.051  1.00  0.00     0.338 C 
ATOM     35  O   UNL A   1      34.554  30.597  28.207  1.00  0.00    -0.246 OA
BRANCH  34  36
ATOM     36  C   UNL A   1      36.726  30.019  28.963  1.00  0.00     0.060 A 
ATOM     37  C   UNL A   1      37.305  29.523  30.140  1.00  0.00     0.016 A 
ATOM     38  C   UNL A   1      37.400  29.956  27.744  1.00  0.00     0.016 A 
ATOM     39  C   UNL A   1      38.591  29.004  30.114  1.00  0.00     0.010 A 
ATOM     40  C   UNL A   1      38.702  29.466  27.723  1.00  0.00     0.010 A 
ATOM     41  C   UNL A   1      39.312  29.040  28.917  1.00  0.00    -0.014 A 
BRANCH  41  42
ATOM     42  C   UNL A   1      40.780  28.911  28.956  1.00  0.00     0.031 A 
ATOM     43  C   UNL A   1      41.363  27.588  28.548  1.00  0.00     0.074 A 
ATOM     44  C   UNL A   1      41.552  29.932  29.355  1.00  0.00     0.049 A 
ATOM     45  N   UNL A   1      42.586  27.150  28.665  1.00  0.00    -0.248 NA
ATOM     46  C   UNL A   1      40.432  26.622  27.937  1.00  0.00     0.031 C 
ATOM     47  C   UNL A   1      41.075  31.273  29.688  1.00  0.00     0.029 A 
ATOM     48  N   UNL A   1      42.902  29.986  29.572  1.00  0.00    -0.354 N 
ATOM     49  C   UNL A   1      42.565  25.850  28.173  1.00  0.00     0.074 A 
ATOM     50  C   UNL A   1      41.209  25.564  27.766  1.00  0.00     0.031 C 
ATOM     51  C   UNL A   1      42.117  32.013  30.103  1.00  0.00     0.029 A 
ATOM     52  C   UNL A   1      43.318  31.180  30.110  1.00  0.00     0.049 A 
ATOM     53  H   UNL A   1      43.514  29.244  29.363  1.00  0.00     0.167 HD
ATOM     54  C   UNL A   1      43.592  24.975  28.083  1.00  0.00     0.037 A 
ATOM     55  C   UNL A   1      44.526  31.530  30.591  1.00  0.00     0.037 A 
ATOM     56  C   UNL A   1      44.930  25.291  28.501  1.00  0.00     0.049 A 
ATOM     57  C   UNL A   1      45.640  30.515  30.549  1.00  0.00     0.074 A 
ATOM     58  C   UNL A   1      46.058  24.493  28.459  1.00  0.00     0.029 A 
ATOM     59  N   UNL A   1      45.317  26.509  29.044  1.00  0.00    -0.354 N 
ATOM     60  N   UNL A   1      45.616  29.281  30.099  1.00  0.00    -0.248 NA
ATOM     61  C   UNL A   1      46.944  30.934  31.080  1.00  0.00     0.031 C 
ATOM     62  C   UNL A   1      47.115  25.211  29.027  1.00  0.00     0.029 A 
ATOM     63  C   UNL A   1      46.662  26.479  29.360  1.00  0.00     0.049 A 
ATOM     64  H   UNL A   1      44.720  27.280  29.185  1.00  0.00     0.167 HD
ATOM     65  C   UNL A   1      46.909  28.793  30.251  1.00  0.00     0.074 A 
ATOM     66  C   UNL A   1      47.688  29.862  30.841  1.00  0.00     0.031 C 
ATOM     67  C   UNL A   1      47.412  27.577  29.923  1.00  0.00     0.037 A 
BRANCH  54  68
ATOM     68  C   UNL A   1      43.295  23.595  27.563  1.00  0.00     0.058 A 
ATOM     69  C   UNL A   1      42.722  22.601  28.372  1.00  0.00     0.135 A 
ATOM     70  C   UNL A   1      43.579  23.268  26.227  1.00  0.00     0.135 A 
ATOM     71  F   UNL A   1      42.454  22.848  29.663  1.00  0.00    -0.206 F 
ATOM     72  C   UNL A   1      42.461  21.325  27.880  1.00  0.00     0.059 A 
ATOM     73  C   UNL A   1      43.300  22.008  25.706  1.00  0.00     0.059 A 
ATOM     74  F   UNL A   1      44.140  24.176  25.413  1.00  0.00    -0.206 F 
ATOM     75  C   UNL A   1      42.751  21.039  26.544  1.00  0.00     0.060 A 
BRANCH  75  76
ATOM     76  S   UNL A   1      42.395  19.384  25.917  1.00  0.00     0.124 S 
ATOM     77  O   UNL A   1      42.906  18.547  26.999  1.00  0.00    -0.237 OA
ATOM     78  O   UNL A   1      40.943  19.413  25.772  1.00  0.00    -0.237 OA
ATOM     79  O   UNL A   1      43.147  19.323  24.668  1.00  0.00    -0.744 OA
ENDBRANCH  75  76
ENDBRANCH  54  68
BRANCH  55  80
ATOM     80  C   UNL A   1      44.734  32.886  31.164  1.00  0.00     0.058 A 
ATOM     81  C   UNL A   1      45.161  33.951  30.356  1.00  0.00     0.135 A 
ATOM     82  C   UNL A   1      44.495  33.152  32.522  1.00  0.00     0.135 A 
ATOM     83  F   UNL A   1      45.409  33.746  29.054  1.00  0.00    -0.206 F 
ATOM     84  C   UNL A   1      45.355  35.227  30.875  1.00  0.00     0.059 A 
ATOM     85  C   UNL A   1      44.656  34.426  33.058  1.00  0.00     0.059 A 
ATOM     86  F   UNL A   1      44.072  32.172  33.335  1.00  0.00    -0.206 F 
ATOM     87  C   UNL A   1      45.097  35.455  32.227  1.00  0.00     0.060 A 
BRANCH  87  88
ATOM     88  S   UNL A   1      45.307  37.127  32.876  1.00  0.00     0.124 S 
ATOM     89  O   UNL A   1      43.924  37.575  32.987  1.00  0.00    -0.237 OA
ATOM     90  O   UNL A   1      46.002  36.878  34.135  1.00  0.00    -0.237 OA
ATOM     91  O   UNL A   1      46.105  37.789  31.849  1.00  0.00    -0.744 OA
ENDBRANCH  87  88
ENDBRANCH  55  80
BRANCH  67  92
ATOM     92  C   UNL A   1      48.885  27.356  30.121  1.00  0.00     0.058 A 
ATOM     93  C   UNL A   1      49.395  26.706  31.253  1.00  0.00     0.135 A 
ATOM     94  C   UNL A   1      49.788  27.723  29.108  1.00  0.00     0.135 A 
ATOM     95  F   UNL A   1      48.574  26.341  32.251  1.00  0.00    -0.206 F 
ATOM     96  C   UNL A   1      50.753  26.434  31.380  1.00  0.00     0.059 A 
ATOM     97  C   UNL A   1      51.144  27.434  29.200  1.00  0.00     0.059 A 
ATOM     98  F   UNL A   1      49.346  28.338  27.999  1.00  0.00    -0.206 F 
ATOM     99  C   UNL A   1      51.618  26.794  30.344  1.00  0.00     0.060 A 
BRANCH  99 100
ATOM    100  S   UNL A   1      53.368  26.378  30.494  1.00  0.00     0.124 S 
ATOM    101  O   UNL A   1      53.692  25.977  29.129  1.00  0.00    -0.237 OA
ATOM    102  O   UNL A   1      53.950  27.641  30.940  1.00  0.00    -0.237 OA
ATOM    103  O   UNL A   1      53.379  25.305  31.484  1.00  0.00    -0.744 OA
ENDBRANCH  99 100
ENDBRANCH  67  92
ENDBRANCH  41  42
ENDBRANCH  34  36
ENDBRANCH  33  34
ENDBRANCH  32  33
ENDBRANCH  31  32
ENDBRANCH  30  31
ENDBRANCH  29  30
ENDBRANCH   1  29
TORSDOF 24
ENDMDL
