MODEL 1
REMARK VINA RESULT:      -7.3      0.000      0.000
REMARK SMILES CCc1nn2c(C)c(CCC(=O)OCCOCCOCCOCCOC(=O)c3ccc(-c4c5nc(c(-c6c(F)cc(S(=O)(=O)[O-])cc6F)c6ccc([nH]6)c(-c6c(F)cc(S(=O)(=O)[O-])cc6F)c6nc(c(-c7c(F)cc(S(=O)(=O)[O-])cc7F)c7ccc4[nH]7)C=C6)C=C5)cc3)c(C)nc2c1-c1ccccc1
REMARK SMILES IDX 19 1 18 2 17 3 16 4 15 5 14 6 13 7 11 8 12 9 10 10 9 11 8 12
REMARK SMILES IDX 3 13 4 14 98 15 5 16 97 17 6 18 96 19 7 20 94 21 95 22 2 23
REMARK SMILES IDX 1 24 99 25 100 26 104 27 101 28 103 29 102 30 20 31 21 32
REMARK SMILES IDX 22 33 23 34 24 35 25 36 26 37 27 38 28 39 29 40 93 41 30 42
REMARK SMILES IDX 92 43 31 44 32 45 33 46 86 47 34 48 91 49 85 50 87 51 35 52
REMARK SMILES IDX 90 53 84 54 83 55 36 57 70 58 49 59 69 60 50 61 53 62 68 63
REMARK SMILES IDX 88 64 51 65 52 66 67 68 89 69 54 70 37 71 38 72 47 73 39 74
REMARK SMILES IDX 40 75 46 76 48 77 41 78 42 79 43 80 44 81 45 82 71 83 72 84
REMARK SMILES IDX 81 85 73 86 74 87 80 88 82 89 75 90 76 91 77 92 78 93 79 94
REMARK SMILES IDX 55 95 56 96 65 97 57 98 58 99 64 100 66 101 59 102 60 103
REMARK SMILES IDX 61 104 62 105 63 106
REMARK H PARENT 87 56 53 67
REMARK Flexibility Score: inf
ROOT
ATOM      1  O   UNL A   1      47.404  39.447  27.691  1.00  0.00    -0.377 OA
ENDROOT
BRANCH   1   2
ATOM      2  C   UNL A   1      46.508  38.499  27.149  1.00  0.00     0.188 C 
BRANCH   2   3
ATOM      3  C   UNL A   1      46.986  37.427  26.175  1.00  0.00     0.188 C 
BRANCH   3   4
ATOM      4  O   UNL A   1      48.274  37.558  25.595  1.00  0.00    -0.376 OA
BRANCH   4   5
ATOM      5  C   UNL A   1      48.953  36.455  25.006  1.00  0.00     0.202 C 
BRANCH   5   6
ATOM      6  C   UNL A   1      49.273  35.235  25.872  1.00  0.00     0.261 C 
BRANCH   6   7
ATOM      7  O   UNL A   1      48.534  34.072  25.433  1.00  0.00    -0.463 OA
BRANCH   7   8
ATOM      8  C   UNL A   1      48.210  33.127  26.340  1.00  0.00     0.306 C 
ATOM      9  O   UNL A   1      48.879  32.126  26.563  1.00  0.00    -0.252 OA
BRANCH   8  10
ATOM     10  C   UNL A   1      46.862  33.389  26.993  1.00  0.00     0.127 C 
BRANCH  10  11
ATOM     11  C   UNL A   1      46.448  32.563  28.226  1.00  0.00     0.051 C 
BRANCH  11  12
ATOM     12  C   UNL A   1      45.256  31.615  28.134  1.00  0.00    -0.005 A 
ATOM     13  C   UNL A   1      42.629  28.067  27.217  1.00  0.00     0.073 A 
ATOM     14  N   UNL A   1      43.818  28.509  26.818  1.00  0.00    -0.171 NA
ATOM     15  C   UNL A   1      42.055  28.946  28.170  1.00  0.00     0.050 A 
ATOM     16  N   UNL A   1      44.004  29.680  27.473  1.00  0.00    -0.219 N 
ATOM     17  C   UNL A   1      42.941  30.001  28.292  1.00  0.00     0.163 A 
ATOM     18  C   UNL A   1      45.141  30.488  27.385  1.00  0.00     0.046 A 
ATOM     19  N   UNL A   1      42.911  31.181  28.973  1.00  0.00    -0.233 NA
ATOM     20  C   UNL A   1      46.109  29.954  26.391  1.00  0.00     0.067 C 
ATOM     21  C   UNL A   1      43.948  31.963  28.858  1.00  0.00     0.045 A 
ATOM     22  C   UNL A   1      43.771  33.350  29.450  1.00  0.00     0.067 C 
BRANCH  13  23
ATOM     23  C   UNL A   1      42.063  26.807  26.639  1.00  0.00     0.055 C 
ATOM     24  C   UNL A   1      42.133  25.596  27.566  1.00  0.00     0.011 C 
ENDBRANCH  13  23
BRANCH  15  25
ATOM     25  C   UNL A   1      40.810  28.839  28.889  1.00  0.00    -0.013 A 
ATOM     26  C   UNL A   1      40.775  28.123  30.090  1.00  0.00     0.009 A 
ATOM     27  C   UNL A   1      39.643  29.418  28.386  1.00  0.00     0.009 A 
ATOM     28  C   UNL A   1      39.576  27.982  30.784  1.00  0.00     0.001 A 
ATOM     29  C   UNL A   1      38.443  29.272  29.081  1.00  0.00     0.001 A 
ATOM     30  C   UNL A   1      38.410  28.555  30.277  1.00  0.00     0.000 A 
ENDBRANCH  15  25
ENDBRANCH  11  12
ENDBRANCH  10  11
ENDBRANCH   8  10
ENDBRANCH   7   8
ENDBRANCH   6   7
ENDBRANCH   5   6
ENDBRANCH   4   5
ENDBRANCH   3   4
ENDBRANCH   2   3
ENDBRANCH   1   2
BRANCH   1  31
ATOM     31  C   UNL A   1      46.997  40.269  28.772  1.00  0.00     0.188 C 
BRANCH  31  32
ATOM     32  C   UNL A   1      45.487  40.254  29.063  1.00  0.00     0.188 C 
BRANCH  32  33
ATOM     33  O   UNL A   1      44.914  41.075  30.078  1.00  0.00    -0.376 OA
BRANCH  33  34
ATOM     34  C   UNL A   1      44.515  40.500  31.309  1.00  0.00     0.202 C 
BRANCH  34  35
ATOM     35  C   UNL A   1      45.671  39.961  32.154  1.00  0.00     0.261 C 
BRANCH  35  36
ATOM     36  O   UNL A   1      45.413  39.884  33.553  1.00  0.00    -0.460 OA
BRANCH  36  37
ATOM     37  C   UNL A   1      45.580  38.655  34.081  1.00  0.00     0.338 C 
ATOM     38  O   UNL A   1      46.595  37.955  34.038  1.00  0.00    -0.246 OA
BRANCH  37  39
ATOM     39  C   UNL A   1      44.300  38.137  34.567  1.00  0.00     0.060 A 
ATOM     40  C   UNL A   1      44.312  37.636  35.870  1.00  0.00     0.016 A 
ATOM     41  C   UNL A   1      43.249  37.858  33.677  1.00  0.00     0.016 A 
ATOM     42  C   UNL A   1      43.415  36.647  36.192  1.00  0.00     0.010 A 
ATOM     43  C   UNL A   1      42.342  36.870  34.008  1.00  0.00     0.010 A 
ATOM     44  C   UNL A   1      42.506  36.208  35.220  1.00  0.00    -0.014 A 
BRANCH  44  45
ATOM     45  C   UNL A   1      41.785  34.993  35.543  1.00  0.00     0.031 A 
ATOM     46  C   UNL A   1      42.368  33.768  34.968  1.00  0.00     0.074 A 
ATOM     47  C   UNL A   1      40.645  34.983  36.255  1.00  0.00     0.049 A 
ATOM     48  N   UNL A   1      41.902  33.046  34.006  1.00  0.00    -0.248 NA
ATOM     49  C   UNL A   1      43.704  33.380  35.437  1.00  0.00     0.031 C 
ATOM     50  C   UNL A   1      40.083  36.051  37.085  1.00  0.00     0.029 A 
ATOM     51  N   UNL A   1      39.776  33.950  36.437  1.00  0.00    -0.354 N 
ATOM     52  C   UNL A   1      42.784  31.982  33.882  1.00  0.00     0.074 A 
ATOM     53  C   UNL A   1      43.944  32.318  34.671  1.00  0.00     0.031 C 
ATOM     54  C   UNL A   1      39.085  35.540  37.841  1.00  0.00     0.029 A 
ATOM     55  C   UNL A   1      38.854  34.158  37.450  1.00  0.00     0.049 A 
ATOM     56  H   UNL A   1      39.801  33.127  35.896  1.00  0.00     0.167 HD
ATOM     57  C   UNL A   1      42.399  30.801  33.334  1.00  0.00     0.037 A 
ATOM     58  C   UNL A   1      38.019  33.229  37.973  1.00  0.00     0.037 A 
ATOM     59  C   UNL A   1      41.213  30.938  32.531  1.00  0.00     0.049 A 
ATOM     60  C   UNL A   1      37.850  32.155  36.960  1.00  0.00     0.074 A 
ATOM     61  C   UNL A   1      40.881  31.659  31.402  1.00  0.00     0.029 A 
ATOM     62  N   UNL A   1      40.027  30.493  33.061  1.00  0.00    -0.354 N 
ATOM     63  N   UNL A   1      37.224  32.302  35.822  1.00  0.00    -0.248 NA
ATOM     64  C   UNL A   1      38.700  30.977  37.050  1.00  0.00     0.031 C 
ATOM     65  C   UNL A   1      39.495  31.962  31.536  1.00  0.00     0.029 A 
ATOM     66  C   UNL A   1      39.052  31.401  32.736  1.00  0.00     0.049 A 
ATOM     67  H   UNL A   1      39.899  29.668  33.584  1.00  0.00     0.167 HD
ATOM     68  C   UNL A   1      37.896  31.475  34.934  1.00  0.00     0.074 A 
ATOM     69  C   UNL A   1      38.703  30.598  35.770  1.00  0.00     0.031 C 
ATOM     70  C   UNL A   1      37.944  31.755  33.600  1.00  0.00     0.037 A 
BRANCH  57  71
ATOM     71  C   UNL A   1      42.886  29.468  33.839  1.00  0.00     0.058 A 
ATOM     72  C   UNL A   1      43.326  28.498  32.918  1.00  0.00     0.135 A 
ATOM     73  C   UNL A   1      42.653  29.008  35.155  1.00  0.00     0.135 A 
ATOM     74  F   UNL A   1      43.564  28.827  31.639  1.00  0.00    -0.206 F 
ATOM     75  C   UNL A   1      43.448  27.152  33.262  1.00  0.00     0.059 A 
ATOM     76  C   UNL A   1      42.826  27.685  35.533  1.00  0.00     0.059 A 
ATOM     77  F   UNL A   1      42.145  29.795  36.111  1.00  0.00    -0.206 F 
ATOM     78  C   UNL A   1      43.173  26.754  34.568  1.00  0.00     0.060 A 
BRANCH  78  79
ATOM     79  S   UNL A   1      43.175  25.003  34.983  1.00  0.00     0.124 S 
ATOM     80  O   UNL A   1      41.768  24.781  35.293  1.00  0.00    -0.237 OA
ATOM     81  O   UNL A   1      43.664  24.398  33.747  1.00  0.00    -0.237 OA
ATOM     82  O   UNL A   1      44.094  24.929  36.115  1.00  0.00    -0.744 OA
ENDBRANCH  78  79
ENDBRANCH  57  71
BRANCH  58  83
ATOM     83  C   UNL A   1      37.623  33.071  39.397  1.00  0.00     0.058 A 
ATOM     84  C   UNL A   1      36.293  32.786  39.753  1.00  0.00     0.135 A 
ATOM     85  C   UNL A   1      38.584  32.926  40.420  1.00  0.00     0.135 A 
ATOM     86  F   UNL A   1      35.317  32.872  38.837  1.00  0.00    -0.206 F 
ATOM     87  C   UNL A   1      35.944  32.340  41.031  1.00  0.00     0.059 A 
ATOM     88  C   UNL A   1      38.256  32.501  41.705  1.00  0.00     0.059 A 
ATOM     89  F   UNL A   1      39.891  33.106  40.179  1.00  0.00    -0.206 F 
ATOM     90  C   UNL A   1      36.937  32.181  41.996  1.00  0.00     0.060 A 
BRANCH  90  91
ATOM     91  S   UNL A   1      36.516  31.451  43.594  1.00  0.00     0.124 S 
ATOM     92  O   UNL A   1      37.359  30.260  43.613  1.00  0.00    -0.237 OA
ATOM     93  O   UNL A   1      36.890  32.513  44.523  1.00  0.00    -0.237 OA
ATOM     94  O   UNL A   1      35.082  31.198  43.485  1.00  0.00    -0.744 OA
ENDBRANCH  90  91
ENDBRANCH  58  83
BRANCH  70  95
ATOM     95  C   UNL A   1      36.940  32.719  33.029  1.00  0.00     0.058 A 
ATOM     96  C   UNL A   1      35.727  32.332  32.439  1.00  0.00     0.135 A 
ATOM     97  C   UNL A   1      37.131  34.088  33.278  1.00  0.00     0.135 A 
ATOM     98  F   UNL A   1      35.435  31.037  32.248  1.00  0.00    -0.206 F 
ATOM     99  C   UNL A   1      34.746  33.270  32.104  1.00  0.00     0.059 A 
ATOM    100  C   UNL A   1      36.157  35.036  32.978  1.00  0.00     0.059 A 
ATOM    101  F   UNL A   1      38.251  34.511  33.889  1.00  0.00    -0.206 F 
ATOM    102  C   UNL A   1      34.965  34.619  32.392  1.00  0.00     0.060 A 
BRANCH 102 103
ATOM    103  S   UNL A   1      33.636  35.808  32.097  1.00  0.00     0.124 S 
ATOM    104  O   UNL A   1      34.020  36.920  32.958  1.00  0.00    -0.237 OA
ATOM    105  O   UNL A   1      33.739  36.050  30.660  1.00  0.00    -0.237 OA
ATOM    106  O   UNL A   1      32.434  35.085  32.510  1.00  0.00    -0.744 OA
ENDBRANCH 102 103
ENDBRANCH  70  95
ENDBRANCH  44  45
ENDBRANCH  37  39
ENDBRANCH  36  37
ENDBRANCH  35  36
ENDBRANCH  34  35
ENDBRANCH  33  34
ENDBRANCH  32  33
ENDBRANCH  31  32
ENDBRANCH   1  31
TORSDOF 27
ENDMDL
MODEL 2
REMARK VINA RESULT:      -6.9      3.760      6.295
REMARK SMILES CCc1nn2c(C)c(CCC(=O)OCCOCCOCCOCCOC(=O)c3ccc(-c4c5nc(c(-c6c(F)cc(S(=O)(=O)[O-])cc6F)c6ccc([nH]6)c(-c6c(F)cc(S(=O)(=O)[O-])cc6F)c6nc(c(-c7c(F)cc(S(=O)(=O)[O-])cc7F)c7ccc4[nH]7)C=C6)C=C5)cc3)c(C)nc2c1-c1ccccc1
REMARK SMILES IDX 19 1 18 2 17 3 16 4 15 5 14 6 13 7 11 8 12 9 10 10 9 11 8 12
REMARK SMILES IDX 3 13 4 14 98 15 5 16 97 17 6 18 96 19 7 20 94 21 95 22 2 23
REMARK SMILES IDX 1 24 99 25 100 26 104 27 101 28 103 29 102 30 20 31 21 32
REMARK SMILES IDX 22 33 23 34 24 35 25 36 26 37 27 38 28 39 29 40 93 41 30 42
REMARK SMILES IDX 92 43 31 44 32 45 33 46 86 47 34 48 91 49 85 50 87 51 35 52
REMARK SMILES IDX 90 53 84 54 83 55 36 57 70 58 49 59 69 60 50 61 53 62 68 63
REMARK SMILES IDX 88 64 51 65 52 66 67 68 89 69 54 70 37 71 38 72 47 73 39 74
REMARK SMILES IDX 40 75 46 76 48 77 41 78 42 79 43 80 44 81 45 82 71 83 72 84
REMARK SMILES IDX 81 85 73 86 74 87 80 88 82 89 75 90 76 91 77 92 78 93 79 94
REMARK SMILES IDX 55 95 56 96 65 97 57 98 58 99 64 100 66 101 59 102 60 103
REMARK SMILES IDX 61 104 62 105 63 106
REMARK H PARENT 87 56 53 67
REMARK Flexibility Score: inf
ROOT
ATOM      1  O   UNL A   1      53.268  35.757  26.508  1.00  0.00    -0.377 OA
ENDROOT
BRANCH   1   2
ATOM      2  C   UNL A   1      53.846  34.945  25.507  1.00  0.00     0.188 C 
BRANCH   2   3
ATOM      3  C   UNL A   1      53.122  33.715  24.970  1.00  0.00     0.188 C 
BRANCH   3   4
ATOM      4  O   UNL A   1      53.386  33.294  23.641  1.00  0.00    -0.376 OA
BRANCH   4   5
ATOM      5  C   UNL A   1      53.120  31.967  23.203  1.00  0.00     0.202 C 
BRANCH   5   6
ATOM      6  C   UNL A   1      52.477  31.756  21.830  1.00  0.00     0.261 C 
BRANCH   6   7
ATOM      7  O   UNL A   1      52.403  30.351  21.496  1.00  0.00    -0.463 OA
BRANCH   7   8
ATOM      8  C   UNL A   1      51.308  29.891  20.856  1.00  0.00     0.306 C 
ATOM      9  O   UNL A   1      50.269  30.526  20.721  1.00  0.00    -0.252 OA
BRANCH   8  10
ATOM     10  C   UNL A   1      51.467  28.450  20.400  1.00  0.00     0.127 C 
BRANCH  10  11
ATOM     11  C   UNL A   1      51.458  27.321  21.450  1.00  0.00     0.051 C 
BRANCH  11  12
ATOM     12  C   UNL A   1      50.440  27.355  22.585  1.00  0.00    -0.005 A 
ATOM     13  C   UNL A   1      46.586  27.277  24.924  1.00  0.00     0.073 A 
ATOM     14  N   UNL A   1      46.930  27.384  23.644  1.00  0.00    -0.171 NA
ATOM     15  C   UNL A   1      47.734  27.160  25.749  1.00  0.00     0.050 A 
ATOM     16  N   UNL A   1      48.283  27.375  23.633  1.00  0.00    -0.219 N 
ATOM     17  C   UNL A   1      48.820  27.265  24.900  1.00  0.00     0.163 A 
ATOM     18  C   UNL A   1      49.087  27.436  22.492  1.00  0.00     0.046 A 
ATOM     19  N   UNL A   1      50.168  27.317  25.098  1.00  0.00    -0.233 NA
ATOM     20  C   UNL A   1      48.269  27.613  21.263  1.00  0.00     0.067 C 
ATOM     21  C   UNL A   1      50.923  27.422  24.040  1.00  0.00     0.045 A 
ATOM     22  C   UNL A   1      52.388  27.699  24.327  1.00  0.00     0.067 C 
BRANCH  13  23
ATOM     23  C   UNL A   1      45.143  27.318  25.322  1.00  0.00     0.055 C 
ATOM     24  C   UNL A   1      44.845  28.183  26.544  1.00  0.00     0.011 C 
ENDBRANCH  13  23
BRANCH  15  25
ATOM     25  C   UNL A   1      47.828  26.984  27.176  1.00  0.00    -0.013 A 
ATOM     26  C   UNL A   1      47.492  25.746  27.735  1.00  0.00     0.009 A 
ATOM     27  C   UNL A   1      48.224  28.039  28.002  1.00  0.00     0.009 A 
ATOM     28  C   UNL A   1      47.547  25.565  29.115  1.00  0.00     0.001 A 
ATOM     29  C   UNL A   1      48.274  27.856  29.384  1.00  0.00     0.001 A 
ATOM     30  C   UNL A   1      47.936  26.622  29.938  1.00  0.00     0.000 A 
ENDBRANCH  15  25
ENDBRANCH  11  12
ENDBRANCH  10  11
ENDBRANCH   8  10
ENDBRANCH   7   8
ENDBRANCH   6   7
ENDBRANCH   5   6
ENDBRANCH   4   5
ENDBRANCH   3   4
ENDBRANCH   2   3
ENDBRANCH   1   2
BRANCH   1  31
ATOM     31  C   UNL A   1      52.327  36.756  26.155  1.00  0.00     0.188 C 
BRANCH  31  32
ATOM     32  C   UNL A   1      50.987  36.676  26.905  1.00  0.00     0.188 C 
BRANCH  32  33
ATOM     33  O   UNL A   1      49.898  37.538  26.582  1.00  0.00    -0.376 OA
BRANCH  33  34
ATOM     34  C   UNL A   1      48.908  37.111  25.665  1.00  0.00     0.202 C 
BRANCH  34  35
ATOM     35  C   UNL A   1      48.737  35.592  25.588  1.00  0.00     0.261 C 
BRANCH  35  36
ATOM     36  O   UNL A   1      47.889  35.028  26.584  1.00  0.00    -0.460 OA
BRANCH  36  37
ATOM     37  C   UNL A   1      46.685  34.630  26.127  1.00  0.00     0.338 C 
ATOM     38  O   UNL A   1      46.361  34.424  24.955  1.00  0.00    -0.246 OA
BRANCH  37  39
ATOM     39  C   UNL A   1      45.700  34.659  27.211  1.00  0.00     0.060 A 
ATOM     40  C   UNL A   1      46.227  34.572  28.500  1.00  0.00     0.016 A 
ATOM     41  C   UNL A   1      44.336  34.445  26.952  1.00  0.00     0.016 A 
ATOM     42  C   UNL A   1      45.446  34.015  29.483  1.00  0.00     0.010 A 
ATOM     43  C   UNL A   1      43.550  33.893  27.946  1.00  0.00     0.010 A 
ATOM     44  C   UNL A   1      44.149  33.590  29.164  1.00  0.00    -0.014 A 
BRANCH  44  45
ATOM     45  C   UNL A   1      43.494  32.776  30.168  1.00  0.00     0.031 A 
ATOM     46  C   UNL A   1      43.888  31.356  30.153  1.00  0.00     0.074 A 
ATOM     47  C   UNL A   1      42.559  33.255  31.007  1.00  0.00     0.049 A 
ATOM     48  N   UNL A   1      43.184  30.344  29.772  1.00  0.00    -0.248 NA
ATOM     49  C   UNL A   1      45.286  31.047  30.475  1.00  0.00     0.031 C 
ATOM     50  C   UNL A   1      42.243  34.653  31.312  1.00  0.00     0.029 A 
ATOM     51  N   UNL A   1      41.731  32.556  31.833  1.00  0.00    -0.354 N 
ATOM     52  C   UNL A   1      43.982  29.233  30.005  1.00  0.00     0.074 A 
ATOM     53  C   UNL A   1      45.306  29.729  30.286  1.00  0.00     0.031 C 
ATOM     54  C   UNL A   1      41.442  34.694  32.401  1.00  0.00     0.029 A 
ATOM     55  C   UNL A   1      41.087  33.335  32.779  1.00  0.00     0.049 A 
ATOM     56  H   UNL A   1      41.603  31.582  31.763  1.00  0.00     0.167 HD
ATOM     57  C   UNL A   1      43.444  27.999  30.182  1.00  0.00     0.037 A 
ATOM     58  C   UNL A   1      40.377  32.880  33.839  1.00  0.00     0.037 A 
ATOM     59  C   UNL A   1      42.104  27.913  29.666  1.00  0.00     0.049 A 
ATOM     60  C   UNL A   1      39.940  31.495  33.525  1.00  0.00     0.074 A 
ATOM     61  C   UNL A   1      41.529  28.068  28.421  1.00  0.00     0.029 A 
ATOM     62  N   UNL A   1      41.068  27.934  30.568  1.00  0.00    -0.354 N 
ATOM     63  N   UNL A   1      39.063  31.184  32.607  1.00  0.00    -0.248 NA
ATOM     64  C   UNL A   1      40.754  30.386  34.002  1.00  0.00     0.031 C 
ATOM     65  C   UNL A   1      40.225  28.588  28.664  1.00  0.00     0.029 A 
ATOM     66  C   UNL A   1      40.069  28.714  30.046  1.00  0.00     0.049 A 
ATOM     67  H   UNL A   1      41.048  27.471  31.438  1.00  0.00     0.167 HD
ATOM     68  C   UNL A   1      39.478  29.956  32.115  1.00  0.00     0.074 A 
ATOM     69  C   UNL A   1      40.439  29.462  33.092  1.00  0.00     0.031 C 
ATOM     70  C   UNL A   1      39.212  29.577  30.832  1.00  0.00     0.037 A 
BRANCH  57  71
ATOM     71  C   UNL A   1      44.001  26.997  31.160  1.00  0.00     0.058 A 
ATOM     72  C   UNL A   1      44.276  25.685  30.726  1.00  0.00     0.135 A 
ATOM     73  C   UNL A   1      43.990  27.193  32.560  1.00  0.00     0.135 A 
ATOM     74  F   UNL A   1      44.297  25.389  29.418  1.00  0.00    -0.206 F 
ATOM     75  C   UNL A   1      44.446  24.630  31.621  1.00  0.00     0.059 A 
ATOM     76  C   UNL A   1      44.217  26.169  33.467  1.00  0.00     0.059 A 
ATOM     77  F   UNL A   1      43.653  28.363  33.117  1.00  0.00    -0.206 F 
ATOM     78  C   UNL A   1      44.392  24.881  32.990  1.00  0.00     0.060 A 
BRANCH  78  79
ATOM     79  S   UNL A   1      44.454  23.505  34.149  1.00  0.00     0.124 S 
ATOM     80  O   UNL A   1      44.858  24.183  35.374  1.00  0.00    -0.237 OA
ATOM     81  O   UNL A   1      43.081  23.012  34.109  1.00  0.00    -0.237 OA
ATOM     82  O   UNL A   1      45.450  22.616  33.558  1.00  0.00    -0.744 OA
ENDBRANCH  78  79
ENDBRANCH  57  71
BRANCH  58  83
ATOM     83  C   UNL A   1      40.332  33.455  35.209  1.00  0.00     0.058 A 
ATOM     84  C   UNL A   1      41.419  33.318  36.089  1.00  0.00     0.135 A 
ATOM     85  C   UNL A   1      39.336  34.378  35.591  1.00  0.00     0.135 A 
ATOM     86  F   UNL A   1      42.425  32.481  35.794  1.00  0.00    -0.206 F 
ATOM     87  C   UNL A   1      41.536  34.084  37.253  1.00  0.00     0.059 A 
ATOM     88  C   UNL A   1      39.422  35.139  36.755  1.00  0.00     0.059 A 
ATOM     89  F   UNL A   1      38.287  34.640  34.798  1.00  0.00    -0.206 F 
ATOM     90  C   UNL A   1      40.540  35.007  37.568  1.00  0.00     0.060 A 
BRANCH  90  91
ATOM     91  S   UNL A   1      40.765  36.113  38.979  1.00  0.00     0.124 S 
ATOM     92  O   UNL A   1      42.189  35.957  39.260  1.00  0.00    -0.237 OA
ATOM     93  O   UNL A   1      40.361  37.400  38.424  1.00  0.00    -0.237 OA
ATOM     94  O   UNL A   1      39.866  35.562  39.990  1.00  0.00    -0.744 OA
ENDBRANCH  90  91
ENDBRANCH  58  83
BRANCH  70  95
ATOM     95  C   UNL A   1      38.126  30.298  30.079  1.00  0.00     0.058 A 
ATOM     96  C   UNL A   1      36.786  29.882  30.043  1.00  0.00     0.135 A 
ATOM     97  C   UNL A   1      38.426  31.563  29.548  1.00  0.00     0.135 A 
ATOM     98  F   UNL A   1      36.408  28.726  30.607  1.00  0.00    -0.206 F 
ATOM     99  C   UNL A   1      35.786  30.690  29.496  1.00  0.00     0.059 A 
ATOM    100  C   UNL A   1      37.442  32.395  29.022  1.00  0.00     0.059 A 
ATOM    101  F   UNL A   1      39.684  32.035  29.603  1.00  0.00    -0.206 F 
ATOM    102  C   UNL A   1      36.122  31.952  29.001  1.00  0.00     0.060 A 
BRANCH 102 103
ATOM    103  S   UNL A   1      34.806  33.053  28.433  1.00  0.00     0.124 S 
ATOM    104  O   UNL A   1      35.503  33.896  27.469  1.00  0.00    -0.237 OA
ATOM    105  O   UNL A   1      33.831  32.121  27.874  1.00  0.00    -0.237 OA
ATOM    106  O   UNL A   1      34.375  33.729  29.655  1.00  0.00    -0.744 OA
ENDBRANCH 102 103
ENDBRANCH  70  95
ENDBRANCH  44  45
ENDBRANCH  37  39
ENDBRANCH  36  37
ENDBRANCH  35  36
ENDBRANCH  34  35
ENDBRANCH  33  34
ENDBRANCH  32  33
ENDBRANCH  31  32
ENDBRANCH   1  31
TORSDOF 27
ENDMDL
MODEL 3
REMARK VINA RESULT:      -6.7      6.543     14.140
REMARK SMILES CCc1nn2c(C)c(CCC(=O)OCCOCCOCCOCCOC(=O)c3ccc(-c4c5nc(c(-c6c(F)cc(S(=O)(=O)[O-])cc6F)c6ccc([nH]6)c(-c6c(F)cc(S(=O)(=O)[O-])cc6F)c6nc(c(-c7c(F)cc(S(=O)(=O)[O-])cc7F)c7ccc4[nH]7)C=C6)C=C5)cc3)c(C)nc2c1-c1ccccc1
REMARK SMILES IDX 19 1 18 2 17 3 16 4 15 5 14 6 13 7 11 8 12 9 10 10 9 11 8 12
REMARK SMILES IDX 3 13 4 14 98 15 5 16 97 17 6 18 96 19 7 20 94 21 95 22 2 23
REMARK SMILES IDX 1 24 99 25 100 26 104 27 101 28 103 29 102 30 20 31 21 32
REMARK SMILES IDX 22 33 23 34 24 35 25 36 26 37 27 38 28 39 29 40 93 41 30 42
REMARK SMILES IDX 92 43 31 44 32 45 33 46 86 47 34 48 91 49 85 50 87 51 35 52
REMARK SMILES IDX 90 53 84 54 83 55 36 57 70 58 49 59 69 60 50 61 53 62 68 63
REMARK SMILES IDX 88 64 51 65 52 66 67 68 89 69 54 70 37 71 38 72 47 73 39 74
REMARK SMILES IDX 40 75 46 76 48 77 41 78 42 79 43 80 44 81 45 82 71 83 72 84
REMARK SMILES IDX 81 85 73 86 74 87 80 88 82 89 75 90 76 91 77 92 78 93 79 94
REMARK SMILES IDX 55 95 56 96 65 97 57 98 58 99 64 100 66 101 59 102 60 103
REMARK SMILES IDX 61 104 62 105 63 106
REMARK H PARENT 87 56 53 67
REMARK Flexibility Score: inf
ROOT
ATOM      1  O   UNL A   1      37.565  34.450  34.855  1.00  0.00    -0.377 OA
ENDROOT
BRANCH   1   2
ATOM      2  C   UNL A   1      36.248  34.198  35.300  1.00  0.00     0.188 C 
BRANCH   2   3
ATOM      3  C   UNL A   1      35.154  33.766  34.328  1.00  0.00     0.188 C 
BRANCH   3   4
ATOM      4  O   UNL A   1      34.346  34.763  33.724  1.00  0.00    -0.376 OA
BRANCH   4   5
ATOM      5  C   UNL A   1      34.058  34.760  32.331  1.00  0.00     0.202 C 
BRANCH   5   6
ATOM      6  C   UNL A   1      35.143  34.307  31.352  1.00  0.00     0.261 C 
BRANCH   6   7
ATOM      7  O   UNL A   1      34.907  32.954  30.897  1.00  0.00    -0.463 OA
BRANCH   7   8
ATOM      8  C   UNL A   1      35.829  32.007  31.166  1.00  0.00     0.306 C 
ATOM      9  O   UNL A   1      35.734  31.188  32.072  1.00  0.00    -0.252 OA
BRANCH   8  10
ATOM     10  C   UNL A   1      37.057  32.127  30.279  1.00  0.00     0.127 C 
BRANCH  10  11
ATOM     11  C   UNL A   1      36.878  32.229  28.751  1.00  0.00     0.051 C 
BRANCH  11  12
ATOM     12  C   UNL A   1      35.895  31.301  28.043  1.00  0.00    -0.005 A 
ATOM     13  C   UNL A   1      32.325  29.703  25.800  1.00  0.00     0.073 A 
ATOM     14  N   UNL A   1      32.639  30.834  26.425  1.00  0.00    -0.171 NA
ATOM     15  C   UNL A   1      33.395  28.774  25.867  1.00  0.00     0.050 A 
ATOM     16  N   UNL A   1      33.881  30.637  26.926  1.00  0.00    -0.219 N 
ATOM     17  C   UNL A   1      34.375  29.382  26.632  1.00  0.00     0.163 A 
ATOM     18  C   UNL A   1      34.629  31.578  27.638  1.00  0.00     0.046 A 
ATOM     19  N   UNL A   1      35.580  28.970  27.118  1.00  0.00    -0.233 NA
ATOM     20  C   UNL A   1      33.850  32.822  27.874  1.00  0.00     0.067 C 
ATOM     21  C   UNL A   1      36.262  29.827  27.824  1.00  0.00     0.045 A 
ATOM     22  C   UNL A   1      37.481  29.252  28.523  1.00  0.00     0.067 C 
BRANCH  13  23
ATOM     23  C   UNL A   1      30.976  29.539  25.172  1.00  0.00     0.055 C 
ATOM     24  C   UNL A   1      31.005  29.079  23.717  1.00  0.00     0.011 C 
ENDBRANCH  13  23
BRANCH  15  25
ATOM     25  C   UNL A   1      33.505  27.454  25.300  1.00  0.00    -0.013 A 
ATOM     26  C   UNL A   1      33.272  26.340  26.114  1.00  0.00     0.009 A 
ATOM     27  C   UNL A   1      33.865  27.278  23.962  1.00  0.00     0.009 A 
ATOM     28  C   UNL A   1      33.402  25.055  25.593  1.00  0.00     0.001 A 
ATOM     29  C   UNL A   1      33.999  25.991  23.444  1.00  0.00     0.001 A 
ATOM     30  C   UNL A   1      33.769  24.882  24.258  1.00  0.00     0.000 A 
ENDBRANCH  15  25
ENDBRANCH  11  12
ENDBRANCH  10  11
ENDBRANCH   8  10
ENDBRANCH   7   8
ENDBRANCH   6   7
ENDBRANCH   5   6
ENDBRANCH   4   5
ENDBRANCH   3   4
ENDBRANCH   2   3
ENDBRANCH   1   2
BRANCH   1  31
ATOM     31  C   UNL A   1      38.438  33.369  34.575  1.00  0.00     0.188 C 
BRANCH  31  32
ATOM     32  C   UNL A   1      39.157  33.454  33.219  1.00  0.00     0.188 C 
BRANCH  32  33
ATOM     33  O   UNL A   1      40.295  32.646  32.926  1.00  0.00    -0.376 OA
BRANCH  33  34
ATOM     34  C   UNL A   1      41.595  33.203  33.005  1.00  0.00     0.202 C 
BRANCH  34  35
ATOM     35  C   UNL A   1      42.078  33.857  31.709  1.00  0.00     0.261 C 
BRANCH  35  36
ATOM     36  O   UNL A   1      41.409  33.423  30.527  1.00  0.00    -0.460 OA
BRANCH  36  37
ATOM     37  C   UNL A   1      40.756  34.401  29.869  1.00  0.00     0.338 C 
ATOM     38  O   UNL A   1      39.560  34.687  29.952  1.00  0.00    -0.246 OA
BRANCH  37  39
ATOM     39  C   UNL A   1      41.626  34.988  28.847  1.00  0.00     0.060 A 
ATOM     40  C   UNL A   1      42.964  34.596  28.904  1.00  0.00     0.016 A 
ATOM     41  C   UNL A   1      41.213  36.105  28.103  1.00  0.00     0.016 A 
ATOM     42  C   UNL A   1      43.916  35.470  28.437  1.00  0.00     0.010 A 
ATOM     43  C   UNL A   1      42.172  36.978  27.625  1.00  0.00     0.010 A 
ATOM     44  C   UNL A   1      43.508  36.695  27.894  1.00  0.00    -0.014 A 
BRANCH  44  45
ATOM     45  C   UNL A   1      44.563  37.664  27.676  1.00  0.00     0.031 A 
ATOM     46  C   UNL A   1      45.922  37.150  27.920  1.00  0.00     0.074 A 
ATOM     47  C   UNL A   1      44.327  38.945  27.340  1.00  0.00     0.049 A 
ATOM     48  N   UNL A   1      46.714  37.438  28.897  1.00  0.00    -0.248 NA
ATOM     49  C   UNL A   1      46.399  36.080  27.036  1.00  0.00     0.031 C 
ATOM     50  C   UNL A   1      43.087  39.536  26.832  1.00  0.00     0.029 A 
ATOM     51  N   UNL A   1      45.206  39.985  27.319  1.00  0.00    -0.354 N 
ATOM     52  C   UNL A   1      47.885  36.739  28.640  1.00  0.00     0.074 A 
ATOM     53  C   UNL A   1      47.584  35.809  27.580  1.00  0.00     0.031 C 
ATOM     54  C   UNL A   1      43.354  40.775  26.359  1.00  0.00     0.029 A 
ATOM     55  C   UNL A   1      44.739  41.107  26.655  1.00  0.00     0.049 A 
ATOM     56  H   UNL A   1      46.096  39.942  27.739  1.00  0.00     0.167 HD
ATOM     57  C   UNL A   1      49.077  37.141  29.151  1.00  0.00     0.037 A 
ATOM     58  C   UNL A   1      45.470  42.194  26.311  1.00  0.00     0.037 A 
ATOM     59  C   UNL A   1      48.913  38.016  30.281  1.00  0.00     0.049 A 
ATOM     60  C   UNL A   1      46.652  42.243  27.211  1.00  0.00     0.074 A 
ATOM     61  C   UNL A   1      48.331  37.898  31.527  1.00  0.00     0.029 A 
ATOM     62  N   UNL A   1      49.125  39.359  30.086  1.00  0.00    -0.354 N 
ATOM     63  N   UNL A   1      46.598  42.493  28.493  1.00  0.00    -0.248 NA
ATOM     64  C   UNL A   1      47.901  41.654  26.748  1.00  0.00     0.031 C 
ATOM     65  C   UNL A   1      47.842  39.198  31.845  1.00  0.00     0.029 A 
ATOM     66  C   UNL A   1      48.161  40.044  30.781  1.00  0.00     0.049 A 
ATOM     67  H   UNL A   1      49.842  39.759  29.542  1.00  0.00     0.167 HD
ATOM     68  C   UNL A   1      47.622  41.742  29.048  1.00  0.00     0.074 A 
ATOM     69  C   UNL A   1      48.461  41.354  27.922  1.00  0.00     0.031 C 
ATOM     70  C   UNL A   1      47.550  41.277  30.329  1.00  0.00     0.037 A 
BRANCH  57  71
ATOM     71  C   UNL A   1      50.372  37.037  28.388  1.00  0.00     0.058 A 
ATOM     72  C   UNL A   1      51.488  36.433  28.997  1.00  0.00     0.135 A 
ATOM     73  C   UNL A   1      50.635  37.771  27.209  1.00  0.00     0.135 A 
ATOM     74  F   UNL A   1      51.349  35.724  30.128  1.00  0.00    -0.206 F 
ATOM     75  C   UNL A   1      52.784  36.613  28.514  1.00  0.00     0.059 A 
ATOM     76  C   UNL A   1      51.908  37.913  26.677  1.00  0.00     0.059 A 
ATOM     77  F   UNL A   1      49.689  38.475  26.575  1.00  0.00    -0.206 F 
ATOM     78  C   UNL A   1      52.983  37.375  27.365  1.00  0.00     0.060 A 
BRANCH  78  79
ATOM     79  S   UNL A   1      54.659  37.743  26.823  1.00  0.00     0.124 S 
ATOM     80  O   UNL A   1      54.420  38.813  25.863  1.00  0.00    -0.237 OA
ATOM     81  O   UNL A   1      55.304  38.134  28.073  1.00  0.00    -0.237 OA
ATOM     82  O   UNL A   1      55.114  36.475  26.260  1.00  0.00    -0.744 OA
ENDBRANCH  78  79
ENDBRANCH  57  71
BRANCH  58  83
ATOM     83  C   UNL A   1      45.368  42.992  25.062  1.00  0.00     0.058 A 
ATOM     84  C   UNL A   1      45.060  44.364  25.101  1.00  0.00     0.135 A 
ATOM     85  C   UNL A   1      45.833  42.495  23.826  1.00  0.00     0.135 A 
ATOM     86  F   UNL A   1      44.636  44.928  26.242  1.00  0.00    -0.206 F 
ATOM     87  C   UNL A   1      45.247  45.200  23.996  1.00  0.00     0.059 A 
ATOM     88  C   UNL A   1      46.009  43.306  22.708  1.00  0.00     0.059 A 
ATOM     89  F   UNL A   1      46.219  41.219  23.689  1.00  0.00    -0.206 F 
ATOM     90  C   UNL A   1      45.741  44.665  22.808  1.00  0.00     0.060 A 
BRANCH  90  91
ATOM     91  S   UNL A   1      46.138  45.767  21.433  1.00  0.00     0.124 S 
ATOM     92  O   UNL A   1      47.457  46.262  21.814  1.00  0.00    -0.237 OA
ATOM     93  O   UNL A   1      46.101  44.858  20.293  1.00  0.00    -0.237 OA
ATOM     94  O   UNL A   1      45.066  46.759  21.472  1.00  0.00    -0.744 OA
ENDBRANCH  90  91
ENDBRANCH  58  83
BRANCH  70  95
ATOM     95  C   UNL A   1      46.564  41.912  31.271  1.00  0.00     0.058 A 
ATOM     96  C   UNL A   1      46.882  42.951  32.160  1.00  0.00     0.135 A 
ATOM     97  C   UNL A   1      45.206  41.588  31.114  1.00  0.00     0.135 A 
ATOM     98  F   UNL A   1      48.146  43.375  32.299  1.00  0.00    -0.206 F 
ATOM     99  C   UNL A   1      45.890  43.635  32.867  1.00  0.00     0.059 A 
ATOM    100  C   UNL A   1      44.200  42.274  31.788  1.00  0.00     0.059 A 
ATOM    101  F   UNL A   1      44.838  40.637  30.237  1.00  0.00    -0.206 F 
ATOM    102  C   UNL A   1      44.550  43.299  32.664  1.00  0.00     0.060 A 
BRANCH 102 103
ATOM    103  S   UNL A   1      43.264  44.285  33.465  1.00  0.00     0.124 S 
ATOM    104  O   UNL A   1      44.009  45.453  33.919  1.00  0.00    -0.237 OA
ATOM    105  O   UNL A   1      42.318  44.517  32.378  1.00  0.00    -0.237 OA
ATOM    106  O   UNL A   1      42.773  43.407  34.526  1.00  0.00    -0.744 OA
ENDBRANCH 102 103
ENDBRANCH  70  95
ENDBRANCH  44  45
ENDBRANCH  37  39
ENDBRANCH  36  37
ENDBRANCH  35  36
ENDBRANCH  34  35
ENDBRANCH  33  34
ENDBRANCH  32  33
ENDBRANCH  31  32
ENDBRANCH   1  31
TORSDOF 27
ENDMDL
