MODEL 1
REMARK VINA RESULT:      -9.1      0.000      0.000
REMARK SMILES [NH3+][C@@H]1C=C[C@H](C(=O)N(CC(=O)OCCOCCOCCOCCOC(=O)c2ccc(-c3c4nc(c(-c5c(F)cc(S(=O)(=O)[O-])cc5F)c5ccc([nH]5)c(-c5c(F)cc(S(=O)(=O)[O-])cc5F)c5nc(c(-c6c(F)cc(S(=O)(=O)[O-])cc6F)c6ccc3[nH]6)C=C5)C=C4)cc2)c2ccccc2)C1
REMARK SMILES IDX 17 1 16 2 15 3 14 4 13 5 12 6 10 7 11 8 9 9 8 10 6 11 7 12
REMARK SMILES IDX 5 13 2 14 3 15 99 16 4 17 1 18 93 22 94 23 98 24 95 25 97 26
REMARK SMILES IDX 96 27 18 28 19 29 20 30 21 31 22 32 23 33 24 34 25 35 26 36
REMARK SMILES IDX 27 37 28 38 92 39 29 40 91 41 30 42 31 43 32 44 85 45 33 46
REMARK SMILES IDX 90 47 84 48 86 49 34 50 89 51 83 52 82 53 35 55 69 56 48 57
REMARK SMILES IDX 68 58 49 59 52 60 67 61 87 62 50 63 51 64 66 66 88 67 53 68
REMARK SMILES IDX 36 69 37 70 46 71 38 72 39 73 45 74 47 75 40 76 41 77 42 78
REMARK SMILES IDX 43 79 44 80 70 81 71 82 80 83 72 84 73 85 79 86 81 87 74 88
REMARK SMILES IDX 75 89 76 90 77 91 78 92 54 93 55 94 64 95 56 96 57 97 63 98
REMARK SMILES IDX 65 99 58 100 59 101 60 102 61 103 62 104
REMARK H PARENT 1 19 1 20 1 21 86 54 52 65
REMARK Flexibility Score: inf
ROOT
ATOM      1  C   UNL A   1      31.056  28.910  24.619  1.00  0.00     0.188 C 
ENDROOT
BRANCH   1   2
ATOM      2  C   UNL A   1      32.340  28.305  24.054  1.00  0.00     0.188 C 
BRANCH   2   3
ATOM      3  O   UNL A   1      32.685  27.022  24.557  1.00  0.00    -0.376 OA
BRANCH   3   4
ATOM      4  C   UNL A   1      32.176  26.652  25.842  1.00  0.00     0.202 C 
BRANCH   4   5
ATOM      5  C   UNL A   1      31.318  25.365  25.949  1.00  0.00     0.261 C 
BRANCH   5   6
ATOM      6  O   UNL A   1      31.828  24.331  26.852  1.00  0.00    -0.462 OA
BRANCH   6   7
ATOM      7  C   UNL A   1      31.166  23.146  26.855  1.00  0.00     0.326 C 
ATOM      8  O   UNL A   1      30.237  22.906  27.629  1.00  0.00    -0.250 OA
BRANCH   7   9
ATOM      9  C   UNL A   1      31.411  22.180  25.665  1.00  0.00     0.248 C 
BRANCH   9  10
ATOM     10  N   UNL A   1      32.663  21.687  25.023  1.00  0.00    -0.301 N 
BRANCH  10  11
ATOM     11  C   UNL A   1      33.944  22.112  25.408  1.00  0.00     0.234 C 
ATOM     12  O   UNL A   1      34.575  21.510  26.290  1.00  0.00    -0.274 OA
BRANCH  11  13
ATOM     13  C   UNL A   1      34.611  23.328  24.721  1.00  0.00     0.108 C 
ATOM     14  C   UNL A   1      36.969  22.677  24.417  1.00  0.00     0.205 C 
ATOM     15  C   UNL A   1      36.832  23.766  25.429  1.00  0.00     0.033 C 
ATOM     16  C   UNL A   1      35.632  22.833  23.664  1.00  0.00     0.087 C 
ATOM     17  C   UNL A   1      35.553  24.133  25.585  1.00  0.00    -0.012 C 
BRANCH  14  18
ATOM     18  N   UNL A   1      37.154  21.399  25.096  1.00  0.00    -0.352 N 
ATOM     19  H   UNL A   1      36.243  20.969  25.264  1.00  0.00     0.345 HD
ATOM     20  H   UNL A   1      37.627  21.552  25.987  1.00  0.00     0.345 HD
ATOM     21  H   UNL A   1      37.719  20.783  24.512  1.00  0.00     0.345 HD
ENDBRANCH  14  18
ENDBRANCH  11  13
ENDBRANCH  10  11
BRANCH  10  22
ATOM     22  C   UNL A   1      32.576  20.415  24.307  1.00  0.00     0.044 A 
ATOM     23  C   UNL A   1      32.874  19.214  24.942  1.00  0.00     0.026 A 
ATOM     24  C   UNL A   1      32.257  20.322  22.940  1.00  0.00     0.026 A 
ATOM     25  C   UNL A   1      32.879  17.981  24.279  1.00  0.00     0.002 A 
ATOM     26  C   UNL A   1      32.245  19.089  22.265  1.00  0.00     0.002 A 
ATOM     27  C   UNL A   1      32.556  17.914  22.936  1.00  0.00     0.000 A 
ENDBRANCH  10  22
ENDBRANCH   9  10
ENDBRANCH   7   9
ENDBRANCH   6   7
ENDBRANCH   5   6
ENDBRANCH   4   5
ENDBRANCH   3   4
ENDBRANCH   2   3
ENDBRANCH   1   2
BRANCH   1  28
ATOM     28  O   UNL A   1      31.183  30.315  24.771  1.00  0.00    -0.377 OA
BRANCH  28  29
ATOM     29  C   UNL A   1      31.495  30.914  26.028  1.00  0.00     0.188 C 
BRANCH  29  30
ATOM     30  C   UNL A   1      31.993  30.001  27.148  1.00  0.00     0.188 C 
BRANCH  30  31
ATOM     31  O   UNL A   1      33.304  30.244  27.671  1.00  0.00    -0.376 OA
BRANCH  31  32
ATOM     32  C   UNL A   1      34.419  29.771  26.925  1.00  0.00     0.202 C 
BRANCH  32  33
ATOM     33  C   UNL A   1      35.749  29.683  27.669  1.00  0.00     0.261 C 
BRANCH  33  34
ATOM     34  O   UNL A   1      35.562  29.596  29.084  1.00  0.00    -0.460 OA
BRANCH  34  35
ATOM     35  C   UNL A   1      36.208  30.549  29.791  1.00  0.00     0.338 C 
ATOM     36  O   UNL A   1      35.709  31.453  30.447  1.00  0.00    -0.246 OA
BRANCH  35  37
ATOM     37  C   UNL A   1      37.644  30.241  29.808  1.00  0.00     0.060 A 
ATOM     38  C   UNL A   1      38.498  31.084  29.085  1.00  0.00     0.016 A 
ATOM     39  C   UNL A   1      38.135  29.115  30.471  1.00  0.00     0.016 A 
ATOM     40  C   UNL A   1      39.848  30.781  28.985  1.00  0.00     0.010 A 
ATOM     41  C   UNL A   1      39.484  28.795  30.349  1.00  0.00     0.010 A 
ATOM     42  C   UNL A   1      40.329  29.605  29.570  1.00  0.00    -0.014 A 
BRANCH  42  43
ATOM     43  C   UNL A   1      41.659  29.107  29.171  1.00  0.00     0.031 A 
ATOM     44  C   UNL A   1      42.791  30.093  29.137  1.00  0.00     0.074 A 
ATOM     45  C   UNL A   1      41.840  27.811  28.872  1.00  0.00     0.049 A 
ATOM     46  N   UNL A   1      44.020  29.927  28.734  1.00  0.00    -0.248 NA
ATOM     47  C   UNL A   1      42.494  31.455  29.619  1.00  0.00     0.031 C 
ATOM     48  C   UNL A   1      40.806  26.778  28.930  1.00  0.00     0.029 A 
ATOM     49  N   UNL A   1      42.958  27.148  28.438  1.00  0.00    -0.354 N 
ATOM     50  C   UNL A   1      44.635  31.163  28.887  1.00  0.00     0.074 A 
ATOM     51  C   UNL A   1      43.645  32.076  29.409  1.00  0.00     0.031 C 
ATOM     52  C   UNL A   1      41.332  25.613  28.514  1.00  0.00     0.029 A 
ATOM     53  C   UNL A   1      42.722  25.832  28.122  1.00  0.00     0.049 A 
ATOM     54  H   UNL A   1      43.843  27.573  28.361  1.00  0.00     0.167 HD
ATOM     55  C   UNL A   1      45.915  31.499  28.611  1.00  0.00     0.037 A 
ATOM     56  C   UNL A   1      43.533  24.928  27.538  1.00  0.00     0.037 A 
ATOM     57  C   UNL A   1      46.882  30.564  28.100  1.00  0.00     0.049 A 
ATOM     58  C   UNL A   1      44.940  25.342  27.189  1.00  0.00     0.074 A 
ATOM     59  C   UNL A   1      48.216  30.780  27.811  1.00  0.00     0.029 A 
ATOM     60  N   UNL A   1      46.611  29.239  27.790  1.00  0.00    -0.354 N 
ATOM     61  N   UNL A   1      45.524  26.505  27.364  1.00  0.00    -0.248 NA
ATOM     62  C   UNL A   1      45.799  24.326  26.568  1.00  0.00     0.031 C 
ATOM     63  C   UNL A   1      48.736  29.603  27.267  1.00  0.00     0.029 A 
ATOM     64  C   UNL A   1      47.745  28.633  27.283  1.00  0.00     0.049 A 
ATOM     65  H   UNL A   1      45.739  28.797  27.913  1.00  0.00     0.167 HD
ATOM     66  C   UNL A   1      46.827  26.350  26.904  1.00  0.00     0.074 A 
ATOM     67  C   UNL A   1      46.948  24.980  26.453  1.00  0.00     0.031 C 
ATOM     68  C   UNL A   1      47.836  27.256  26.861  1.00  0.00     0.037 A 
BRANCH  55  69
ATOM     69  C   UNL A   1      46.334  32.928  28.811  1.00  0.00     0.058 A 
ATOM     70  C   UNL A   1      46.902  33.380  30.012  1.00  0.00     0.135 A 
ATOM     71  C   UNL A   1      46.220  33.848  27.755  1.00  0.00     0.135 A 
ATOM     72  F   UNL A   1      47.011  32.553  31.063  1.00  0.00    -0.206 F 
ATOM     73  C   UNL A   1      47.334  34.695  30.161  1.00  0.00     0.059 A 
ATOM     74  C   UNL A   1      46.672  35.158  27.872  1.00  0.00     0.059 A 
ATOM     75  F   UNL A   1      45.671  33.471  26.588  1.00  0.00    -0.206 F 
ATOM     76  C   UNL A   1      47.225  35.573  29.081  1.00  0.00     0.060 A 
BRANCH  76  77
ATOM     77  S   UNL A   1      47.837  37.260  29.277  1.00  0.00     0.124 S 
ATOM     78  O   UNL A   1      49.142  37.174  28.628  1.00  0.00    -0.237 OA
ATOM     79  O   UNL A   1      46.828  38.040  28.569  1.00  0.00    -0.237 OA
ATOM     80  O   UNL A   1      47.870  37.446  30.724  1.00  0.00    -0.744 OA
ENDBRANCH  76  77
ENDBRANCH  55  69
BRANCH  56  81
ATOM     81  C   UNL A   1      43.023  23.568  27.212  1.00  0.00     0.058 A 
ATOM     82  C   UNL A   1      42.651  23.220  25.906  1.00  0.00     0.135 A 
ATOM     83  C   UNL A   1      42.891  22.588  28.210  1.00  0.00     0.135 A 
ATOM     84  F   UNL A   1      42.753  24.120  24.917  1.00  0.00    -0.206 F 
ATOM     85  C   UNL A   1      42.143  21.960  25.604  1.00  0.00     0.059 A 
ATOM     86  C   UNL A   1      42.416  21.312  27.928  1.00  0.00     0.059 A 
ATOM     87  F   UNL A   1      43.246  22.862  29.476  1.00  0.00    -0.206 F 
ATOM     88  C   UNL A   1      42.029  21.012  26.623  1.00  0.00     0.060 A 
BRANCH  88  89
ATOM     89  S   UNL A   1      41.397  19.371  26.214  1.00  0.00     0.124 S 
ATOM     90  O   UNL A   1      42.547  18.771  25.548  1.00  0.00    -0.237 OA
ATOM     91  O   UNL A   1      41.068  18.835  27.530  1.00  0.00    -0.237 OA
ATOM     92  O   UNL A   1      40.249  19.657  25.358  1.00  0.00    -0.744 OA
ENDBRANCH  88  89
ENDBRANCH  56  81
BRANCH  68  93
ATOM     93  C   UNL A   1      49.173  26.787  26.359  1.00  0.00     0.058 A 
ATOM     94  C   UNL A   1      49.550  26.922  25.015  1.00  0.00     0.135 A 
ATOM     95  C   UNL A   1      50.122  26.276  27.260  1.00  0.00     0.135 A 
ATOM     96  F   UNL A   1      48.677  27.398  24.112  1.00  0.00    -0.206 F 
ATOM     97  C   UNL A   1      50.817  26.553  24.577  1.00  0.00     0.059 A 
ATOM     98  C   UNL A   1      51.405  25.933  26.852  1.00  0.00     0.059 A 
ATOM     99  F   UNL A   1      49.814  26.138  28.560  1.00  0.00    -0.206 F 
ATOM    100  C   UNL A   1      51.741  26.068  25.506  1.00  0.00     0.060 A 
BRANCH 100 101
ATOM    101  S   UNL A   1      53.401  25.649  24.935  1.00  0.00     0.124 S 
ATOM    102  O   UNL A   1      54.208  26.653  25.621  1.00  0.00    -0.237 OA
ATOM    103  O   UNL A   1      53.557  24.278  25.410  1.00  0.00    -0.237 OA
ATOM    104  O   UNL A   1      53.311  25.800  23.487  1.00  0.00    -0.744 OA
ENDBRANCH 100 101
ENDBRANCH  68  93
ENDBRANCH  42  43
ENDBRANCH  35  37
ENDBRANCH  34  35
ENDBRANCH  33  34
ENDBRANCH  32  33
ENDBRANCH  31  32
ENDBRANCH  30  31
ENDBRANCH  29  30
ENDBRANCH  28  29
ENDBRANCH   1  28
TORSDOF 28
ENDMDL
MODEL 2
REMARK VINA RESULT:      -9.0      5.634     12.436
REMARK SMILES [NH3+][C@@H]1C=C[C@H](C(=O)N(CC(=O)OCCOCCOCCOCCOC(=O)c2ccc(-c3c4nc(c(-c5c(F)cc(S(=O)(=O)[O-])cc5F)c5ccc([nH]5)c(-c5c(F)cc(S(=O)(=O)[O-])cc5F)c5nc(c(-c6c(F)cc(S(=O)(=O)[O-])cc6F)c6ccc3[nH]6)C=C5)C=C4)cc2)c2ccccc2)C1
REMARK SMILES IDX 17 1 16 2 15 3 14 4 13 5 12 6 10 7 11 8 9 9 8 10 6 11 7 12
REMARK SMILES IDX 5 13 2 14 3 15 99 16 4 17 1 18 93 22 94 23 98 24 95 25 97 26
REMARK SMILES IDX 96 27 18 28 19 29 20 30 21 31 22 32 23 33 24 34 25 35 26 36
REMARK SMILES IDX 27 37 28 38 92 39 29 40 91 41 30 42 31 43 32 44 85 45 33 46
REMARK SMILES IDX 90 47 84 48 86 49 34 50 89 51 83 52 82 53 35 55 69 56 48 57
REMARK SMILES IDX 68 58 49 59 52 60 67 61 87 62 50 63 51 64 66 66 88 67 53 68
REMARK SMILES IDX 36 69 37 70 46 71 38 72 39 73 45 74 47 75 40 76 41 77 42 78
REMARK SMILES IDX 43 79 44 80 70 81 71 82 80 83 72 84 73 85 79 86 81 87 74 88
REMARK SMILES IDX 75 89 76 90 77 91 78 92 54 93 55 94 64 95 56 96 57 97 63 98
REMARK SMILES IDX 65 99 58 100 59 101 60 102 61 103 62 104
REMARK H PARENT 1 19 1 20 1 21 86 54 52 65
REMARK Flexibility Score: inf
ROOT
ATOM      1  C   UNL A   1      45.193  18.851  25.185  1.00  0.00     0.188 C 
ENDROOT
BRANCH   1   2
ATOM      2  C   UNL A   1      45.186  20.346  24.873  1.00  0.00     0.188 C 
BRANCH   2   3
ATOM      3  O   UNL A   1      43.905  20.920  24.653  1.00  0.00    -0.376 OA
BRANCH   3   4
ATOM      4  C   UNL A   1      43.842  22.325  24.393  1.00  0.00     0.202 C 
BRANCH   4   5
ATOM      5  C   UNL A   1      44.813  23.259  25.161  1.00  0.00     0.261 C 
BRANCH   5   6
ATOM      6  O   UNL A   1      44.185  24.295  25.984  1.00  0.00    -0.462 OA
BRANCH   6   7
ATOM      7  C   UNL A   1      44.686  24.465  27.234  1.00  0.00     0.326 C 
ATOM      8  O   UNL A   1      45.103  23.526  27.916  1.00  0.00    -0.250 OA
BRANCH   7   9
ATOM      9  C   UNL A   1      44.992  25.914  27.698  1.00  0.00     0.248 C 
BRANCH   9  10
ATOM     10  N   UNL A   1      45.749  27.026  27.056  1.00  0.00    -0.301 N 
BRANCH  10  11
ATOM     11  C   UNL A   1      45.153  28.228  26.648  1.00  0.00     0.234 C 
ATOM     12  O   UNL A   1      45.383  28.703  25.525  1.00  0.00    -0.274 OA
BRANCH  11  13
ATOM     13  C   UNL A   1      44.171  28.979  27.581  1.00  0.00     0.108 C 
ATOM     14  C   UNL A   1      44.351  31.349  26.923  1.00  0.00     0.205 C 
ATOM     15  C   UNL A   1      44.919  31.118  28.284  1.00  0.00     0.033 C 
ATOM     16  C   UNL A   1      43.454  30.101  26.786  1.00  0.00     0.087 C 
ATOM     17  C   UNL A   1      44.809  29.833  28.650  1.00  0.00    -0.012 C 
BRANCH  14  18
ATOM     18  N   UNL A   1      45.433  31.445  25.950  1.00  0.00    -0.352 N 
ATOM     19  H   UNL A   1      45.612  30.523  25.549  1.00  0.00     0.345 HD
ATOM     20  H   UNL A   1      46.277  31.783  26.413  1.00  0.00     0.345 HD
ATOM     21  H   UNL A   1      45.168  32.093  25.210  1.00  0.00     0.345 HD
ENDBRANCH  14  18
ENDBRANCH  11  13
ENDBRANCH  10  11
BRANCH  10  22
ATOM     22  C   UNL A   1      47.195  27.048  27.276  1.00  0.00     0.044 A 
ATOM     23  C   UNL A   1      47.763  27.899  28.218  1.00  0.00     0.026 A 
ATOM     24  C   UNL A   1      48.099  26.277  26.525  1.00  0.00     0.026 A 
ATOM     25  C   UNL A   1      49.145  28.010  28.411  1.00  0.00     0.002 A 
ATOM     26  C   UNL A   1      49.489  26.368  26.717  1.00  0.00     0.002 A 
ATOM     27  C   UNL A   1      50.014  27.238  27.663  1.00  0.00     0.000 A 
ENDBRANCH  10  22
ENDBRANCH   9  10
ENDBRANCH   7   9
ENDBRANCH   6   7
ENDBRANCH   5   6
ENDBRANCH   4   5
ENDBRANCH   3   4
ENDBRANCH   2   3
ENDBRANCH   1   2
BRANCH   1  28
ATOM     28  O   UNL A   1      43.874  18.370  25.387  1.00  0.00    -0.377 OA
BRANCH  28  29
ATOM     29  C   UNL A   1      43.282  18.310  26.684  1.00  0.00     0.188 C 
BRANCH  29  30
ATOM     30  C   UNL A   1      42.017  19.133  26.928  1.00  0.00     0.188 C 
BRANCH  30  31
ATOM     31  O   UNL A   1      42.164  20.397  27.586  1.00  0.00    -0.376 OA
BRANCH  31  32
ATOM     32  C   UNL A   1      41.023  21.242  27.671  1.00  0.00     0.202 C 
BRANCH  32  33
ATOM     33  C   UNL A   1      40.766  22.162  26.480  1.00  0.00     0.261 C 
BRANCH  33  34
ATOM     34  O   UNL A   1      40.915  23.540  26.832  1.00  0.00    -0.460 OA
BRANCH  34  35
ATOM     35  C   UNL A   1      39.840  24.307  26.545  1.00  0.00     0.338 C 
ATOM     36  O   UNL A   1      38.923  24.043  25.778  1.00  0.00    -0.246 OA
BRANCH  35  37
ATOM     37  C   UNL A   1      39.830  25.472  27.438  1.00  0.00     0.060 A 
ATOM     38  C   UNL A   1      40.503  26.624  27.012  1.00  0.00     0.016 A 
ATOM     39  C   UNL A   1      39.222  25.415  28.694  1.00  0.00     0.016 A 
ATOM     40  C   UNL A   1      40.610  27.717  27.860  1.00  0.00     0.010 A 
ATOM     41  C   UNL A   1      39.352  26.501  29.556  1.00  0.00     0.010 A 
ATOM     42  C   UNL A   1      40.082  27.633  29.152  1.00  0.00    -0.014 A 
BRANCH  42  43
ATOM     43  C   UNL A   1      40.498  28.632  30.154  1.00  0.00     0.031 A 
ATOM     44  C   UNL A   1      39.542  29.749  30.462  1.00  0.00     0.074 A 
ATOM     45  C   UNL A   1      41.682  28.523  30.776  1.00  0.00     0.049 A 
ATOM     46  N   UNL A   1      39.710  30.792  31.227  1.00  0.00    -0.248 NA
ATOM     47  C   UNL A   1      38.219  29.682  29.815  1.00  0.00     0.031 C 
ATOM     48  C   UNL A   1      42.646  27.441  30.574  1.00  0.00     0.029 A 
ATOM     49  N   UNL A   1      42.284  29.346  31.691  1.00  0.00    -0.354 N 
ATOM     50  C   UNL A   1      38.528  31.518  31.133  1.00  0.00     0.074 A 
ATOM     51  C   UNL A   1      37.654  30.806  30.230  1.00  0.00     0.031 C 
ATOM     52  C   UNL A   1      43.737  27.685  31.321  1.00  0.00     0.029 A 
ATOM     53  C   UNL A   1      43.562  28.958  32.016  1.00  0.00     0.049 A 
ATOM     54  H   UNL A   1      41.845  30.137  32.078  1.00  0.00     0.167 HD
ATOM     55  C   UNL A   1      38.211  32.679  31.749  1.00  0.00     0.037 A 
ATOM     56  C   UNL A   1      44.493  29.592  32.755  1.00  0.00     0.037 A 
ATOM     57  C   UNL A   1      39.100  33.361  32.651  1.00  0.00     0.049 A 
ATOM     58  C   UNL A   1      44.134  30.913  33.387  1.00  0.00     0.074 A 
ATOM     59  C   UNL A   1      38.877  34.527  33.358  1.00  0.00     0.029 A 
ATOM     60  N   UNL A   1      40.387  32.942  32.958  1.00  0.00    -0.354 N 
ATOM     61  N   UNL A   1      43.004  31.579  33.318  1.00  0.00    -0.248 NA
ATOM     62  C   UNL A   1      45.168  31.567  34.199  1.00  0.00     0.031 C 
ATOM     63  C   UNL A   1      40.052  34.848  34.043  1.00  0.00     0.029 A 
ATOM     64  C   UNL A   1      40.982  33.844  33.820  1.00  0.00     0.049 A 
ATOM     65  H   UNL A   1      40.812  32.123  32.613  1.00  0.00     0.167 HD
ATOM     66  C   UNL A   1      43.182  32.714  34.102  1.00  0.00     0.074 A 
ATOM     67  C   UNL A   1      44.523  32.638  34.643  1.00  0.00     0.031 C 
ATOM     68  C   UNL A   1      42.316  33.727  34.357  1.00  0.00     0.037 A 
BRANCH  55  69
ATOM     69  C   UNL A   1      36.879  33.305  31.442  1.00  0.00     0.058 A 
ATOM     70  C   UNL A   1      35.785  33.201  32.315  1.00  0.00     0.135 A 
ATOM     71  C   UNL A   1      36.717  34.076  30.279  1.00  0.00     0.135 A 
ATOM     72  F   UNL A   1      35.875  32.455  33.428  1.00  0.00    -0.206 F 
ATOM     73  C   UNL A   1      34.576  33.832  32.041  1.00  0.00     0.059 A 
ATOM     74  C   UNL A   1      35.527  34.740  30.001  1.00  0.00     0.059 A 
ATOM     75  F   UNL A   1      37.728  34.198  29.404  1.00  0.00    -0.206 F 
ATOM     76  C   UNL A   1      34.460  34.609  30.887  1.00  0.00     0.060 A 
BRANCH  76  77
ATOM     77  S   UNL A   1      32.900  35.462  30.574  1.00  0.00     0.124 S 
ATOM     78  O   UNL A   1      33.349  36.841  30.408  1.00  0.00    -0.237 OA
ATOM     79  O   UNL A   1      32.422  34.800  29.364  1.00  0.00    -0.237 OA
ATOM     80  O   UNL A   1      32.120  35.200  31.779  1.00  0.00    -0.744 OA
ENDBRANCH  76  77
ENDBRANCH  55  69
BRANCH  56  81
ATOM     81  C   UNL A   1      45.855  29.010  32.900  1.00  0.00     0.058 A 
ATOM     82  C   UNL A   1      46.911  29.405  32.067  1.00  0.00     0.135 A 
ATOM     83  C   UNL A   1      46.124  28.036  33.877  1.00  0.00     0.135 A 
ATOM     84  F   UNL A   1      46.707  30.327  31.115  1.00  0.00    -0.206 F 
ATOM     85  C   UNL A   1      48.178  28.838  32.179  1.00  0.00     0.059 A 
ATOM     86  C   UNL A   1      47.389  27.478  34.029  1.00  0.00     0.059 A 
ATOM     87  F   UNL A   1      45.153  27.632  34.711  1.00  0.00    -0.206 F 
ATOM     88  C   UNL A   1      48.407  27.875  33.163  1.00  0.00     0.060 A 
BRANCH  88  89
ATOM     89  S   UNL A   1      50.061  27.169  33.318  1.00  0.00     0.124 S 
ATOM     90  O   UNL A   1      50.272  27.231  34.759  1.00  0.00    -0.237 OA
ATOM     91  O   UNL A   1      49.877  25.835  32.755  1.00  0.00    -0.237 OA
ATOM     92  O   UNL A   1      50.887  28.070  32.519  1.00  0.00    -0.744 OA
ENDBRANCH  88  89
ENDBRANCH  56  81
BRANCH  68  93
ATOM     93  C   UNL A   1      42.766  34.809  35.299  1.00  0.00     0.058 A 
ATOM     94  C   UNL A   1      42.573  34.713  36.684  1.00  0.00     0.135 A 
ATOM     95  C   UNL A   1      43.480  35.915  34.809  1.00  0.00     0.135 A 
ATOM     96  F   UNL A   1      41.890  33.679  37.203  1.00  0.00    -0.206 F 
ATOM     97  C   UNL A   1      43.059  35.685  37.552  1.00  0.00     0.059 A 
ATOM     98  C   UNL A   1      44.005  36.879  35.660  1.00  0.00     0.059 A 
ATOM     99  F   UNL A   1      43.702  36.046  33.490  1.00  0.00    -0.206 F 
ATOM    100  C   UNL A   1      43.782  36.760  37.030  1.00  0.00     0.060 A 
BRANCH 100 101
ATOM    101  S   UNL A   1      44.459  37.981  38.173  1.00  0.00     0.124 S 
ATOM    102  O   UNL A   1      45.217  38.840  37.269  1.00  0.00    -0.237 OA
ATOM    103  O   UNL A   1      43.254  38.572  38.746  1.00  0.00    -0.237 OA
ATOM    104  O   UNL A   1      45.258  37.180  39.094  1.00  0.00    -0.744 OA
ENDBRANCH 100 101
ENDBRANCH  68  93
ENDBRANCH  42  43
ENDBRANCH  35  37
ENDBRANCH  34  35
ENDBRANCH  33  34
ENDBRANCH  32  33
ENDBRANCH  31  32
ENDBRANCH  30  31
ENDBRANCH  29  30
ENDBRANCH  28  29
ENDBRANCH   1  28
TORSDOF 28
ENDMDL
MODEL 3
REMARK VINA RESULT:      -8.9      6.598     13.489
REMARK SMILES [NH3+][C@@H]1C=C[C@H](C(=O)N(CC(=O)OCCOCCOCCOCCOC(=O)c2ccc(-c3c4nc(c(-c5c(F)cc(S(=O)(=O)[O-])cc5F)c5ccc([nH]5)c(-c5c(F)cc(S(=O)(=O)[O-])cc5F)c5nc(c(-c6c(F)cc(S(=O)(=O)[O-])cc6F)c6ccc3[nH]6)C=C5)C=C4)cc2)c2ccccc2)C1
REMARK SMILES IDX 17 1 16 2 15 3 14 4 13 5 12 6 10 7 11 8 9 9 8 10 6 11 7 12
REMARK SMILES IDX 5 13 2 14 3 15 99 16 4 17 1 18 93 22 94 23 98 24 95 25 97 26
REMARK SMILES IDX 96 27 18 28 19 29 20 30 21 31 22 32 23 33 24 34 25 35 26 36
REMARK SMILES IDX 27 37 28 38 92 39 29 40 91 41 30 42 31 43 32 44 85 45 33 46
REMARK SMILES IDX 90 47 84 48 86 49 34 50 89 51 83 52 82 53 35 55 69 56 48 57
REMARK SMILES IDX 68 58 49 59 52 60 67 61 87 62 50 63 51 64 66 66 88 67 53 68
REMARK SMILES IDX 36 69 37 70 46 71 38 72 39 73 45 74 47 75 40 76 41 77 42 78
REMARK SMILES IDX 43 79 44 80 70 81 71 82 80 83 72 84 73 85 79 86 81 87 74 88
REMARK SMILES IDX 75 89 76 90 77 91 78 92 54 93 55 94 64 95 56 96 57 97 63 98
REMARK SMILES IDX 65 99 58 100 59 101 60 102 61 103 62 104
REMARK H PARENT 1 19 1 20 1 21 86 54 52 65
REMARK Flexibility Score: inf
ROOT
ATOM      1  C   UNL A   1      44.885  18.624  25.144  1.00  0.00     0.188 C 
ENDROOT
BRANCH   1   2
ATOM      2  C   UNL A   1      45.274  19.898  24.397  1.00  0.00     0.188 C 
BRANCH   2   3
ATOM      3  O   UNL A   1      45.344  21.075  25.190  1.00  0.00    -0.376 OA
BRANCH   3   4
ATOM      4  C   UNL A   1      44.612  22.221  24.745  1.00  0.00     0.202 C 
BRANCH   4   5
ATOM      5  C   UNL A   1      45.254  23.620  24.931  1.00  0.00     0.261 C 
BRANCH   5   6
ATOM      6  O   UNL A   1      45.133  24.206  26.268  1.00  0.00    -0.462 OA
BRANCH   6   7
ATOM      7  C   UNL A   1      46.265  24.257  27.014  1.00  0.00     0.326 C 
ATOM      8  O   UNL A   1      47.348  23.826  26.609  1.00  0.00    -0.250 OA
BRANCH   7   9
ATOM      9  C   UNL A   1      46.245  25.129  28.297  1.00  0.00     0.248 C 
BRANCH   9  10
ATOM     10  N   UNL A   1      46.940  26.400  28.649  1.00  0.00    -0.301 N 
BRANCH  10  11
ATOM     11  C   UNL A   1      47.130  27.451  27.738  1.00  0.00     0.234 C 
ATOM     12  O   UNL A   1      48.170  28.126  27.755  1.00  0.00    -0.274 OA
BRANCH  11  13
ATOM     13  C   UNL A   1      46.055  27.776  26.673  1.00  0.00     0.108 C 
ATOM     14  C   UNL A   1      45.765  30.222  26.783  1.00  0.00     0.205 C 
ATOM     15  C   UNL A   1      44.553  29.508  27.283  1.00  0.00     0.033 C 
ATOM     16  C   UNL A   1      46.420  29.099  25.952  1.00  0.00     0.087 C 
ATOM     17  C   UNL A   1      44.701  28.178  27.210  1.00  0.00    -0.012 C 
BRANCH  14  18
ATOM     18  N   UNL A   1      46.553  30.698  27.913  1.00  0.00    -0.352 N 
ATOM     19  H   UNL A   1      47.189  29.960  28.219  1.00  0.00     0.345 HD
ATOM     20  H   UNL A   1      45.930  30.949  28.681  1.00  0.00     0.345 HD
ATOM     21  H   UNL A   1      47.093  31.516  27.631  1.00  0.00     0.345 HD
ENDBRANCH  14  18
ENDBRANCH  11  13
ENDBRANCH  10  11
BRANCH  10  22
ATOM     22  C   UNL A   1      47.012  26.737  30.070  1.00  0.00     0.044 A 
ATOM     23  C   UNL A   1      48.231  27.023  30.677  1.00  0.00     0.026 A 
ATOM     24  C   UNL A   1      45.892  26.733  30.920  1.00  0.00     0.026 A 
ATOM     25  C   UNL A   1      48.360  27.276  32.048  1.00  0.00     0.002 A 
ATOM     26  C   UNL A   1      46.005  26.998  32.296  1.00  0.00     0.002 A 
ATOM     27  C   UNL A   1      47.243  27.271  32.862  1.00  0.00     0.000 A 
ENDBRANCH  10  22
ENDBRANCH   9  10
ENDBRANCH   7   9
ENDBRANCH   6   7
ENDBRANCH   5   6
ENDBRANCH   4   5
ENDBRANCH   3   4
ENDBRANCH   2   3
ENDBRANCH   1   2
BRANCH   1  28
ATOM     28  O   UNL A   1      43.494  18.375  25.029  1.00  0.00    -0.377 OA
BRANCH  28  29
ATOM     29  C   UNL A   1      42.640  18.313  26.170  1.00  0.00     0.188 C 
BRANCH  29  30
ATOM     30  C   UNL A   1      42.335  19.620  26.903  1.00  0.00     0.188 C 
BRANCH  30  31
ATOM     31  O   UNL A   1      41.544  20.598  26.218  1.00  0.00    -0.376 OA
BRANCH  31  32
ATOM     32  C   UNL A   1      40.427  21.152  26.903  1.00  0.00     0.202 C 
BRANCH  32  33
ATOM     33  C   UNL A   1      39.888  22.476  26.368  1.00  0.00     0.261 C 
BRANCH  33  34
ATOM     34  O   UNL A   1      39.889  23.494  27.372  1.00  0.00    -0.460 OA
BRANCH  34  35
ATOM     35  C   UNL A   1      40.933  24.348  27.298  1.00  0.00     0.338 C 
ATOM     36  O   UNL A   1      41.904  24.271  26.557  1.00  0.00    -0.246 OA
BRANCH  35  37
ATOM     37  C   UNL A   1      40.655  25.520  28.137  1.00  0.00     0.060 A 
ATOM     38  C   UNL A   1      41.700  26.426  28.358  1.00  0.00     0.016 A 
ATOM     39  C   UNL A   1      39.409  25.695  28.745  1.00  0.00     0.016 A 
ATOM     40  C   UNL A   1      41.519  27.494  29.224  1.00  0.00     0.010 A 
ATOM     41  C   UNL A   1      39.236  26.751  29.636  1.00  0.00     0.010 A 
ATOM     42  C   UNL A   1      40.305  27.623  29.905  1.00  0.00    -0.014 A 
BRANCH  42  43
ATOM     43  C   UNL A   1      40.237  28.528  31.068  1.00  0.00     0.031 A 
ATOM     44  C   UNL A   1      39.236  29.647  31.024  1.00  0.00     0.074 A 
ATOM     45  C   UNL A   1      41.033  28.333  32.131  1.00  0.00     0.049 A 
ATOM     46  N   UNL A   1      39.048  30.621  31.870  1.00  0.00    -0.248 NA
ATOM     47  C   UNL A   1      38.326  29.672  29.864  1.00  0.00     0.031 C 
ATOM     48  C   UNL A   1      41.995  27.241  32.277  1.00  0.00     0.029 A 
ATOM     49  N   UNL A   1      41.173  29.063  33.282  1.00  0.00    -0.354 N 
ATOM     50  C   UNL A   1      38.021  31.389  31.334  1.00  0.00     0.074 A 
ATOM     51  C   UNL A   1      37.631  30.777  30.085  1.00  0.00     0.031 C 
ATOM     52  C   UNL A   1      42.651  27.392  33.441  1.00  0.00     0.029 A 
ATOM     53  C   UNL A   1      42.184  28.611  34.096  1.00  0.00     0.049 A 
ATOM     54  H   UNL A   1      40.604  29.835  33.505  1.00  0.00     0.167 HD
ATOM     55  C   UNL A   1      37.460  32.507  31.847  1.00  0.00     0.037 A 
ATOM     56  C   UNL A   1      42.697  29.156  35.216  1.00  0.00     0.037 A 
ATOM     57  C   UNL A   1      37.864  33.088  33.099  1.00  0.00     0.049 A 
ATOM     58  C   UNL A   1      42.090  30.434  35.738  1.00  0.00     0.074 A 
ATOM     59  C   UNL A   1      37.348  34.202  33.734  1.00  0.00     0.029 A 
ATOM     60  N   UNL A   1      38.892  32.606  33.897  1.00  0.00    -0.354 N 
ATOM     61  N   UNL A   1      41.099  31.139  35.242  1.00  0.00    -0.248 NA
ATOM     62  C   UNL A   1      42.664  30.990  36.970  1.00  0.00     0.031 C 
ATOM     63  C   UNL A   1      38.107  34.431  34.886  1.00  0.00     0.029 A 
ATOM     64  C   UNL A   1      39.047  33.419  35.005  1.00  0.00     0.049 A 
ATOM     65  H   UNL A   1      39.430  31.804  33.703  1.00  0.00     0.167 HD
ATOM     66  C   UNL A   1      40.912  32.202  36.118  1.00  0.00     0.074 A 
ATOM     67  C   UNL A   1      41.885  32.042  37.178  1.00  0.00     0.031 C 
ATOM     68  C   UNL A   1      40.016  33.219  36.056  1.00  0.00     0.037 A 
BRANCH  55  69
ATOM     69  C   UNL A   1      36.391  33.197  31.046  1.00  0.00     0.058 A 
ATOM     70  C   UNL A   1      35.025  32.977  31.278  1.00  0.00     0.135 A 
ATOM     71  C   UNL A   1      36.745  34.142  30.069  1.00  0.00     0.135 A 
ATOM     72  F   UNL A   1      34.628  32.066  32.180  1.00  0.00    -0.206 F 
ATOM     73  C   UNL A   1      34.047  33.665  30.564  1.00  0.00     0.059 A 
ATOM     74  C   UNL A   1      35.786  34.862  29.365  1.00  0.00     0.059 A 
ATOM     75  F   UNL A   1      38.039  34.381  29.799  1.00  0.00    -0.206 F 
ATOM     76  C   UNL A   1      34.439  34.614  29.618  1.00  0.00     0.060 A 
BRANCH  76  77
ATOM     77  S   UNL A   1      33.157  35.532  28.738  1.00  0.00     0.124 S 
ATOM     78  O   UNL A   1      33.958  36.419  27.898  1.00  0.00    -0.237 OA
ATOM     79  O   UNL A   1      32.441  34.472  28.037  1.00  0.00    -0.237 OA
ATOM     80  O   UNL A   1      32.412  36.189  29.807  1.00  0.00    -0.744 OA
ENDBRANCH  76  77
ENDBRANCH  55  69
BRANCH  56  81
ATOM     81  C   UNL A   1      43.863  28.522  35.889  1.00  0.00     0.058 A 
ATOM     82  C   UNL A   1      45.177  28.908  35.591  1.00  0.00     0.135 A 
ATOM     83  C   UNL A   1      43.683  27.506  36.842  1.00  0.00     0.135 A 
ATOM     84  F   UNL A   1      45.405  29.869  34.684  1.00  0.00    -0.206 F 
ATOM     85  C   UNL A   1      46.272  28.294  36.194  1.00  0.00     0.059 A 
ATOM     86  C   UNL A   1      44.758  26.899  37.481  1.00  0.00     0.059 A 
ATOM     87  F   UNL A   1      42.445  27.107  37.176  1.00  0.00    -0.206 F 
ATOM     88  C   UNL A   1      46.051  27.290  37.138  1.00  0.00     0.060 A 
BRANCH  88  89
ATOM     89  S   UNL A   1      47.478  26.521  37.935  1.00  0.00     0.124 S 
ATOM     90  O   UNL A   1      48.028  25.724  36.845  1.00  0.00    -0.237 OA
ATOM     91  O   UNL A   1      48.264  27.683  38.338  1.00  0.00    -0.237 OA
ATOM     92  O   UNL A   1      46.882  25.766  39.034  1.00  0.00    -0.744 OA
ENDBRANCH  88  89
ENDBRANCH  56  81
BRANCH  68  93
ATOM     93  C   UNL A   1      40.004  34.209  37.187  1.00  0.00     0.058 A 
ATOM     94  C   UNL A   1      40.712  35.417  37.122  1.00  0.00     0.135 A 
ATOM     95  C   UNL A   1      39.199  33.977  38.315  1.00  0.00     0.135 A 
ATOM     96  F   UNL A   1      41.502  35.684  36.069  1.00  0.00    -0.206 F 
ATOM     97  C   UNL A   1      40.633  36.358  38.143  1.00  0.00     0.059 A 
ATOM     98  C   UNL A   1      39.079  34.917  39.330  1.00  0.00     0.059 A 
ATOM     99  F   UNL A   1      38.492  32.839  38.419  1.00  0.00    -0.206 F 
ATOM    100  C   UNL A   1      39.806  36.102  39.240  1.00  0.00     0.060 A 
BRANCH 100 101
ATOM    101  S   UNL A   1      39.668  37.357  40.528  1.00  0.00     0.124 S 
ATOM    102  O   UNL A   1      38.720  38.290  39.928  1.00  0.00    -0.237 OA
ATOM    103  O   UNL A   1      39.166  36.586  41.661  1.00  0.00    -0.237 OA
ATOM    104  O   UNL A   1      41.033  37.853  40.669  1.00  0.00    -0.744 OA
ENDBRANCH 100 101
ENDBRANCH  68  93
ENDBRANCH  42  43
ENDBRANCH  35  37
ENDBRANCH  34  35
ENDBRANCH  33  34
ENDBRANCH  32  33
ENDBRANCH  31  32
ENDBRANCH  30  31
ENDBRANCH  29  30
ENDBRANCH  28  29
ENDBRANCH   1  28
TORSDOF 28
ENDMDL
