MODEL 1
REMARK VINA RESULT:      -8.7      0.000      0.000
REMARK SMILES CCNC(=O)C[NH2+][C@@H](C)[C@@H](C)C(=O)OCCOCCOCCOCCOC(=O)c1ccc(-c2c3nc(c(-c4c(F)cc(S(=O)(=O)[O-])cc4F)c4ccc([nH]4)c(-c4c(F)cc(S(=O)(=O)[O-])cc4F)c4nc(c(-c5c(F)cc(S(=O)(=O)[O-])cc5F)c5ccc2[nH]5)C=C4)C=C3)cc1
REMARK SMILES IDX 19 1 18 2 17 3 16 4 15 5 14 6 12 7 13 8 10 9 11 10 8 11 9 12
REMARK SMILES IDX 7 13 6 16 4 17 3 18 5 20 2 21 1 22 20 23 21 24 22 25 23 26
REMARK SMILES IDX 24 27 25 28 26 29 27 30 28 31 29 32 30 33 94 34 31 35 93 36
REMARK SMILES IDX 32 37 33 38 34 39 87 40 35 41 92 42 86 43 88 44 36 45 91 46
REMARK SMILES IDX 85 47 84 48 37 50 71 51 50 52 70 53 51 54 54 55 69 56 89 57
REMARK SMILES IDX 52 58 53 59 68 61 90 62 55 63 38 64 39 65 48 66 40 67 41 68
REMARK SMILES IDX 47 69 49 70 42 71 43 72 44 73 45 74 46 75 72 76 73 77 82 78
REMARK SMILES IDX 74 79 75 80 81 81 83 82 76 83 77 84 78 85 79 86 80 87 56 88
REMARK SMILES IDX 57 89 66 90 58 91 59 92 65 93 67 94 60 95 61 96 62 97 63 98
REMARK SMILES IDX 64 99
REMARK H PARENT 7 14 7 15 3 19 88 49 54 60
REMARK Flexibility Score: inf
ROOT
ATOM      1  C   UNL A   1      41.338  20.527  26.690  1.00  0.00     0.188 C 
ENDROOT
BRANCH   1   2
ATOM      2  C   UNL A   1      40.035  19.888  26.216  1.00  0.00     0.188 C 
BRANCH   2   3
ATOM      3  O   UNL A   1      39.168  20.700  25.442  1.00  0.00    -0.376 OA
BRANCH   3   4
ATOM      4  C   UNL A   1      38.734  21.950  25.986  1.00  0.00     0.202 C 
BRANCH   4   5
ATOM      5  C   UNL A   1      37.330  22.510  25.663  1.00  0.00     0.261 C 
BRANCH   5   6
ATOM      6  O   UNL A   1      36.668  21.992  24.469  1.00  0.00    -0.463 OA
BRANCH   6   7
ATOM      7  C   UNL A   1      35.326  22.164  24.419  1.00  0.00     0.314 C 
ATOM      8  O   UNL A   1      34.770  22.891  23.593  1.00  0.00    -0.252 OA
BRANCH   7   9
ATOM      9  C   UNL A   1      34.485  21.551  25.535  1.00  0.00     0.154 C 
ATOM     10  C   UNL A   1      33.852  20.303  24.898  1.00  0.00     0.026 C 
BRANCH   9  11
ATOM     11  C   UNL A   1      33.446  22.335  26.391  1.00  0.00     0.193 C 
ATOM     12  C   UNL A   1      33.722  22.283  27.892  1.00  0.00     0.076 C 
BRANCH  11  13
ATOM     13  N   UNL A   1      32.123  21.699  26.165  1.00  0.00    -0.336 N 
ATOM     14  H   UNL A   1      32.256  20.907  25.534  1.00  0.00     0.346 HD
ATOM     15  H   UNL A   1      31.774  21.427  27.083  1.00  0.00     0.346 HD
BRANCH  13  16
ATOM     16  C   UNL A   1      31.104  22.584  25.579  1.00  0.00     0.362 C 
BRANCH  16  17
ATOM     17  C   UNL A   1      30.460  23.424  26.689  1.00  0.00     0.275 C 
ATOM     18  N   UNL A   1      30.548  24.786  26.634  1.00  0.00    -0.351 N 
ATOM     19  H   UNL A   1      30.235  25.274  27.429  1.00  0.00     0.163 HD
ATOM     20  O   UNL A   1      29.859  22.901  27.631  1.00  0.00    -0.269 OA
BRANCH  18  21
ATOM     21  C   UNL A   1      31.050  25.597  25.541  1.00  0.00     0.112 C 
ATOM     22  C   UNL A   1      31.094  27.058  25.946  1.00  0.00     0.027 C 
ENDBRANCH  18  21
ENDBRANCH  16  17
ENDBRANCH  13  16
ENDBRANCH  11  13
ENDBRANCH   9  11
ENDBRANCH   7   9
ENDBRANCH   6   7
ENDBRANCH   5   6
ENDBRANCH   4   5
ENDBRANCH   3   4
ENDBRANCH   2   3
ENDBRANCH   1   2
BRANCH   1  23
ATOM     23  O   UNL A   1      42.077  21.116  25.638  1.00  0.00    -0.377 OA
BRANCH  23  24
ATOM     24  C   UNL A   1      42.608  22.431  25.755  1.00  0.00     0.188 C 
BRANCH  24  25
ATOM     25  C   UNL A   1      42.955  22.947  27.148  1.00  0.00     0.188 C 
BRANCH  25  26
ATOM     26  O   UNL A   1      43.669  24.185  27.227  1.00  0.00    -0.376 OA
BRANCH  26  27
ATOM     27  C   UNL A   1      44.615  24.497  26.207  1.00  0.00     0.202 C 
BRANCH  27  28
ATOM     28  C   UNL A   1      44.105  25.387  25.070  1.00  0.00     0.261 C 
BRANCH  28  29
ATOM     29  O   UNL A   1      42.753  25.826  25.269  1.00  0.00    -0.460 OA
BRANCH  29  30
ATOM     30  C   UNL A   1      42.597  27.166  25.406  1.00  0.00     0.338 C 
ATOM     31  O   UNL A   1      42.459  27.989  24.521  1.00  0.00    -0.246 OA
BRANCH  30  32
ATOM     32  C   UNL A   1      42.476  27.490  26.838  1.00  0.00     0.060 A 
ATOM     33  C   UNL A   1      41.463  26.874  27.585  1.00  0.00     0.016 A 
ATOM     34  C   UNL A   1      43.299  28.459  27.413  1.00  0.00     0.016 A 
ATOM     35  C   UNL A   1      41.243  27.256  28.907  1.00  0.00     0.010 A 
ATOM     36  C   UNL A   1      43.069  28.850  28.731  1.00  0.00     0.010 A 
ATOM     37  C   UNL A   1      42.019  28.276  29.469  1.00  0.00    -0.014 A 
BRANCH  37  38
ATOM     38  C   UNL A   1      41.641  28.884  30.763  1.00  0.00     0.031 A 
ATOM     39  C   UNL A   1      40.455  29.805  30.798  1.00  0.00     0.074 A 
ATOM     40  C   UNL A   1      42.377  28.666  31.866  1.00  0.00     0.049 A 
ATOM     41  N   UNL A   1      40.036  30.583  31.759  1.00  0.00    -0.248 NA
ATOM     42  C   UNL A   1      39.642  29.867  29.571  1.00  0.00     0.031 C 
ATOM     43  C   UNL A   1      43.528  27.769  31.947  1.00  0.00     0.029 A 
ATOM     44  N   UNL A   1      42.287  29.218  33.118  1.00  0.00    -0.354 N 
ATOM     45  C   UNL A   1      38.930  31.250  31.248  1.00  0.00     0.074 A 
ATOM     46  C   UNL A   1      38.749  30.793  29.886  1.00  0.00     0.031 C 
ATOM     47  C   UNL A   1      44.064  27.860  33.176  1.00  0.00     0.029 A 
ATOM     48  C   UNL A   1      43.319  28.855  33.949  1.00  0.00     0.049 A 
ATOM     49  H   UNL A   1      41.554  29.815  33.394  1.00  0.00     0.167 HD
ATOM     50  C   UNL A   1      38.140  32.163  31.860  1.00  0.00     0.037 A 
ATOM     51  C   UNL A   1      43.649  29.308  35.175  1.00  0.00     0.037 A 
ATOM     52  C   UNL A   1      38.336  32.604  33.217  1.00  0.00     0.049 A 
ATOM     53  C   UNL A   1      42.784  30.356  35.826  1.00  0.00     0.074 A 
ATOM     54  C   UNL A   1      37.575  33.494  33.951  1.00  0.00     0.029 A 
ATOM     55  N   UNL A   1      39.379  32.196  34.037  1.00  0.00    -0.354 N 
ATOM     56  N   UNL A   1      41.719  30.957  35.349  1.00  0.00    -0.248 NA
ATOM     57  C   UNL A   1      43.161  30.786  37.179  1.00  0.00     0.031 C 
ATOM     58  C   UNL A   1      38.189  33.668  35.195  1.00  0.00     0.029 A 
ATOM     59  C   UNL A   1      39.299  32.839  35.260  1.00  0.00     0.049 A 
ATOM     60  H   UNL A   1      40.074  31.546  33.785  1.00  0.00     0.167 HD
ATOM     61  C   UNL A   1      41.282  31.814  36.354  1.00  0.00     0.074 A 
ATOM     62  C   UNL A   1      42.198  31.652  37.465  1.00  0.00     0.031 C 
ATOM     63  C   UNL A   1      40.217  32.655  36.358  1.00  0.00     0.037 A 
BRANCH  50  64
ATOM     64  C   UNL A   1      37.029  32.776  31.054  1.00  0.00     0.058 A 
ATOM     65  C   UNL A   1      37.258  33.808  30.130  1.00  0.00     0.135 A 
ATOM     66  C   UNL A   1      35.711  32.313  31.203  1.00  0.00     0.135 A 
ATOM     67  F   UNL A   1      38.495  34.301  29.960  1.00  0.00    -0.206 F 
ATOM     68  C   UNL A   1      36.216  34.383  29.409  1.00  0.00     0.059 A 
ATOM     69  C   UNL A   1      34.659  32.853  30.471  1.00  0.00     0.059 A 
ATOM     70  F   UNL A   1      35.434  31.331  32.075  1.00  0.00    -0.206 F 
ATOM     71  C   UNL A   1      34.919  33.901  29.589  1.00  0.00     0.060 A 
BRANCH  71  72
ATOM     72  S   UNL A   1      33.575  34.665  28.657  1.00  0.00     0.124 S 
ATOM     73  O   UNL A   1      32.601  34.927  29.712  1.00  0.00    -0.237 OA
ATOM     74  O   UNL A   1      34.222  35.842  28.086  1.00  0.00    -0.237 OA
ATOM     75  O   UNL A   1      33.196  33.633  27.696  1.00  0.00    -0.744 OA
ENDBRANCH  71  72
ENDBRANCH  50  64
BRANCH  51  76
ATOM     76  C   UNL A   1      44.870  28.788  35.844  1.00  0.00     0.058 A 
ATOM     77  C   UNL A   1      46.131  29.340  35.583  1.00  0.00     0.135 A 
ATOM     78  C   UNL A   1      44.791  27.756  36.793  1.00  0.00     0.135 A 
ATOM     79  F   UNL A   1      46.260  30.320  34.677  1.00  0.00    -0.206 F 
ATOM     80  C   UNL A   1      47.273  28.888  36.238  1.00  0.00     0.059 A 
ATOM     81  C   UNL A   1      45.913  27.304  37.479  1.00  0.00     0.059 A 
ATOM     82  F   UNL A   1      43.604  27.203  37.089  1.00  0.00    -0.206 F 
ATOM     83  C   UNL A   1      47.152  27.874  37.192  1.00  0.00     0.060 A 
BRANCH  83  84
ATOM     84  S   UNL A   1      48.627  27.354  38.095  1.00  0.00     0.124 S 
ATOM     85  O   UNL A   1      48.184  26.095  38.681  1.00  0.00    -0.237 OA
ATOM     86  O   UNL A   1      49.617  27.251  37.028  1.00  0.00    -0.237 OA
ATOM     87  O   UNL A   1      48.846  28.448  39.038  1.00  0.00    -0.744 OA
ENDBRANCH  83  84
ENDBRANCH  51  76
BRANCH  63  88
ATOM     88  C   UNL A   1      39.945  33.435  37.615  1.00  0.00     0.058 A 
ATOM     89  C   UNL A   1      38.999  33.010  38.561  1.00  0.00     0.135 A 
ATOM     90  C   UNL A   1      40.710  34.574  37.916  1.00  0.00     0.135 A 
ATOM     91  F   UNL A   1      38.238  31.933  38.319  1.00  0.00    -0.206 F 
ATOM     92  C   UNL A   1      38.816  33.695  39.758  1.00  0.00     0.059 A 
ATOM     93  C   UNL A   1      40.562  35.257  39.119  1.00  0.00     0.059 A 
ATOM     94  F   UNL A   1      41.635  35.016  37.049  1.00  0.00    -0.206 F 
ATOM     95  C   UNL A   1      39.607  34.812  40.032  1.00  0.00     0.060 A 
BRANCH  95  96
ATOM     96  S   UNL A   1      39.400  35.654  41.616  1.00  0.00     0.124 S 
ATOM     97  O   UNL A   1      39.440  34.535  42.551  1.00  0.00    -0.237 OA
ATOM     98  O   UNL A   1      40.554  36.548  41.646  1.00  0.00    -0.237 OA
ATOM     99  O   UNL A   1      38.106  36.315  41.484  1.00  0.00    -0.744 OA
ENDBRANCH  95  96
ENDBRANCH  63  88
ENDBRANCH  37  38
ENDBRANCH  30  32
ENDBRANCH  29  30
ENDBRANCH  28  29
ENDBRANCH  27  28
ENDBRANCH  26  27
ENDBRANCH  25  26
ENDBRANCH  24  25
ENDBRANCH  23  24
ENDBRANCH   1  23
TORSDOF 28
ENDMDL
MODEL 2
REMARK VINA RESULT:      -7.3      1.531      2.210
REMARK SMILES CCNC(=O)C[NH2+][C@@H](C)[C@@H](C)C(=O)OCCOCCOCCOCCOC(=O)c1ccc(-c2c3nc(c(-c4c(F)cc(S(=O)(=O)[O-])cc4F)c4ccc([nH]4)c(-c4c(F)cc(S(=O)(=O)[O-])cc4F)c4nc(c(-c5c(F)cc(S(=O)(=O)[O-])cc5F)c5ccc2[nH]5)C=C4)C=C3)cc1
REMARK SMILES IDX 19 1 18 2 17 3 16 4 15 5 14 6 12 7 13 8 10 9 11 10 8 11 9 12
REMARK SMILES IDX 7 13 6 16 4 17 3 18 5 20 2 21 1 22 20 23 21 24 22 25 23 26
REMARK SMILES IDX 24 27 25 28 26 29 27 30 28 31 29 32 30 33 94 34 31 35 93 36
REMARK SMILES IDX 32 37 33 38 34 39 87 40 35 41 92 42 86 43 88 44 36 45 91 46
REMARK SMILES IDX 85 47 84 48 37 50 71 51 50 52 70 53 51 54 54 55 69 56 89 57
REMARK SMILES IDX 52 58 53 59 68 61 90 62 55 63 38 64 39 65 48 66 40 67 41 68
REMARK SMILES IDX 47 69 49 70 42 71 43 72 44 73 45 74 46 75 72 76 73 77 82 78
REMARK SMILES IDX 74 79 75 80 81 81 83 82 76 83 77 84 78 85 79 86 80 87 56 88
REMARK SMILES IDX 57 89 66 90 58 91 59 92 65 93 67 94 60 95 61 96 62 97 63 98
REMARK SMILES IDX 64 99
REMARK H PARENT 7 14 7 15 3 19 88 49 54 60
REMARK Flexibility Score: inf
ROOT
ATOM      1  C   UNL A   1      42.197  20.035  26.729  1.00  0.00     0.188 C 
ENDROOT
BRANCH   1   2
ATOM      2  C   UNL A   1      40.791  19.639  27.175  1.00  0.00     0.188 C 
BRANCH   2   3
ATOM      3  O   UNL A   1      39.708  20.287  26.531  1.00  0.00    -0.376 OA
BRANCH   3   4
ATOM      4  C   UNL A   1      39.094  19.642  25.411  1.00  0.00     0.202 C 
BRANCH   4   5
ATOM      5  C   UNL A   1      37.919  20.307  24.659  1.00  0.00     0.261 C 
BRANCH   5   6
ATOM      6  O   UNL A   1      36.608  20.256  25.300  1.00  0.00    -0.463 OA
BRANCH   6   7
ATOM      7  C   UNL A   1      36.011  21.452  25.514  1.00  0.00     0.314 C 
ATOM      8  O   UNL A   1      36.625  22.456  25.884  1.00  0.00    -0.252 OA
BRANCH   7   9
ATOM      9  C   UNL A   1      34.488  21.513  25.445  1.00  0.00     0.154 C 
ATOM     10  C   UNL A   1      34.065  20.097  25.019  1.00  0.00     0.026 C 
BRANCH   9  11
ATOM     11  C   UNL A   1      33.680  22.598  24.672  1.00  0.00     0.193 C 
ATOM     12  C   UNL A   1      34.288  22.971  23.322  1.00  0.00     0.076 C 
BRANCH  11  13
ATOM     13  N   UNL A   1      33.680  23.824  25.509  1.00  0.00    -0.336 N 
ATOM     14  H   UNL A   1      34.302  23.667  26.302  1.00  0.00     0.346 HD
ATOM     15  H   UNL A   1      33.986  24.585  24.903  1.00  0.00     0.346 HD
BRANCH  13  16
ATOM     16  C   UNL A   1      32.361  24.216  26.032  1.00  0.00     0.362 C 
BRANCH  16  17
ATOM     17  C   UNL A   1      31.287  23.292  25.447  1.00  0.00     0.275 C 
ATOM     18  N   UNL A   1      30.554  23.714  24.374  1.00  0.00    -0.351 N 
ATOM     19  H   UNL A   1      29.794  23.144  24.116  1.00  0.00     0.163 HD
ATOM     20  O   UNL A   1      31.070  22.172  25.917  1.00  0.00    -0.269 OA
BRANCH  18  21
ATOM     21  C   UNL A   1      30.764  24.903  23.572  1.00  0.00     0.112 C 
ATOM     22  C   UNL A   1      29.793  25.995  23.983  1.00  0.00     0.027 C 
ENDBRANCH  18  21
ENDBRANCH  16  17
ENDBRANCH  13  16
ENDBRANCH  11  13
ENDBRANCH   9  11
ENDBRANCH   7   9
ENDBRANCH   6   7
ENDBRANCH   5   6
ENDBRANCH   4   5
ENDBRANCH   3   4
ENDBRANCH   2   3
ENDBRANCH   1   2
BRANCH   1  23
ATOM     23  O   UNL A   1      42.194  20.948  25.649  1.00  0.00    -0.377 OA
BRANCH  23  24
ATOM     24  C   UNL A   1      42.107  22.351  25.870  1.00  0.00     0.188 C 
BRANCH  24  25
ATOM     25  C   UNL A   1      42.619  22.907  27.196  1.00  0.00     0.188 C 
BRANCH  25  26
ATOM     26  O   UNL A   1      43.554  23.988  27.134  1.00  0.00    -0.376 OA
BRANCH  26  27
ATOM     27  C   UNL A   1      44.353  24.138  25.962  1.00  0.00     0.202 C 
BRANCH  27  28
ATOM     28  C   UNL A   1      43.856  25.162  24.939  1.00  0.00     0.261 C 
BRANCH  28  29
ATOM     29  O   UNL A   1      43.232  26.303  25.550  1.00  0.00    -0.460 OA
BRANCH  29  30
ATOM     30  C   UNL A   1      44.043  27.374  25.731  1.00  0.00     0.338 C 
ATOM     31  O   UNL A   1      44.706  27.951  24.890  1.00  0.00    -0.246 OA
BRANCH  30  32
ATOM     32  C   UNL A   1      43.902  27.852  27.118  1.00  0.00     0.060 A 
ATOM     33  C   UNL A   1      43.116  27.110  28.009  1.00  0.00     0.016 A 
ATOM     34  C   UNL A   1      44.468  29.067  27.505  1.00  0.00     0.016 A 
ATOM     35  C   UNL A   1      42.860  27.603  29.287  1.00  0.00     0.010 A 
ATOM     36  C   UNL A   1      44.200  29.566  28.778  1.00  0.00     0.010 A 
ATOM     37  C   UNL A   1      43.367  28.854  29.659  1.00  0.00    -0.014 A 
BRANCH  37  38
ATOM     38  C   UNL A   1      42.899  29.520  30.894  1.00  0.00     0.031 A 
ATOM     39  C   UNL A   1      41.569  30.218  30.865  1.00  0.00     0.074 A 
ATOM     40  C   UNL A   1      43.671  29.552  31.992  1.00  0.00     0.049 A 
ATOM     41  N   UNL A   1      41.028  31.008  31.753  1.00  0.00    -0.248 NA
ATOM     42  C   UNL A   1      40.748  30.007  29.661  1.00  0.00     0.031 C 
ATOM     43  C   UNL A   1      44.962  28.882  32.135  1.00  0.00     0.029 A 
ATOM     44  N   UNL A   1      43.495  30.208  33.184  1.00  0.00    -0.354 N 
ATOM     45  C   UNL A   1      39.816  31.414  31.205  1.00  0.00     0.074 A 
ATOM     46  C   UNL A   1      39.708  30.791  29.904  1.00  0.00     0.031 C 
ATOM     47  C   UNL A   1      45.484  29.196  33.333  1.00  0.00     0.029 A 
ATOM     48  C   UNL A   1      44.582  30.121  34.019  1.00  0.00     0.049 A 
ATOM     49  H   UNL A   1      42.671  30.694  33.416  1.00  0.00     0.167 HD
ATOM     50  C   UNL A   1      38.883  32.235  31.742  1.00  0.00     0.037 A 
ATOM     51  C   UNL A   1      44.837  30.752  35.183  1.00  0.00     0.037 A 
ATOM     52  C   UNL A   1      39.010  32.844  33.040  1.00  0.00     0.049 A 
ATOM     53  C   UNL A   1      43.807  31.695  35.746  1.00  0.00     0.074 A 
ATOM     54  C   UNL A   1      38.110  33.660  33.700  1.00  0.00     0.029 A 
ATOM     55  N   UNL A   1      40.116  32.714  33.869  1.00  0.00    -0.354 N 
ATOM     56  N   UNL A   1      42.648  32.048  35.239  1.00  0.00    -0.248 NA
ATOM     57  C   UNL A   1      44.113  32.325  37.037  1.00  0.00     0.031 C 
ATOM     58  C   UNL A   1      38.694  34.069  34.902  1.00  0.00     0.029 A 
ATOM     59  C   UNL A   1      39.933  33.458  35.022  1.00  0.00     0.049 A 
ATOM     60  H   UNL A   1      40.912  32.171  33.667  1.00  0.00     0.167 HD
ATOM     61  C   UNL A   1      42.075  32.917  36.162  1.00  0.00     0.074 A 
ATOM     62  C   UNL A   1      43.014  33.035  37.259  1.00  0.00     0.031 C 
ATOM     63  C   UNL A   1      40.878  33.554  36.109  1.00  0.00     0.037 A 
BRANCH  50  64
ATOM     64  C   UNL A   1      37.675  32.555  30.907  1.00  0.00     0.058 A 
ATOM     65  C   UNL A   1      36.528  31.746  30.911  1.00  0.00     0.135 A 
ATOM     66  C   UNL A   1      37.662  33.702  30.096  1.00  0.00     0.135 A 
ATOM     67  F   UNL A   1      36.492  30.628  31.655  1.00  0.00    -0.206 F 
ATOM     68  C   UNL A   1      35.426  32.041  30.114  1.00  0.00     0.059 A 
ATOM     69  C   UNL A   1      36.560  34.033  29.313  1.00  0.00     0.059 A 
ATOM     70  F   UNL A   1      38.733  34.510  30.050  1.00  0.00    -0.206 F 
ATOM     71  C   UNL A   1      35.453  33.186  29.316  1.00  0.00     0.060 A 
BRANCH  71  72
ATOM     72  S   UNL A   1      34.022  33.550  28.278  1.00  0.00     0.124 S 
ATOM     73  O   UNL A   1      34.613  34.415  27.261  1.00  0.00    -0.237 OA
ATOM     74  O   UNL A   1      33.621  32.222  27.823  1.00  0.00    -0.237 OA
ATOM     75  O   UNL A   1      33.093  34.203  29.194  1.00  0.00    -0.744 OA
ENDBRANCH  71  72
ENDBRANCH  50  64
BRANCH  51  76
ATOM     76  C   UNL A   1      46.136  30.526  35.869  1.00  0.00     0.058 A 
ATOM     77  C   UNL A   1      47.250  31.332  35.596  1.00  0.00     0.135 A 
ATOM     78  C   UNL A   1      46.275  29.527  36.845  1.00  0.00     0.135 A 
ATOM     79  F   UNL A   1      47.171  32.294  34.665  1.00  0.00    -0.206 F 
ATOM     80  C   UNL A   1      48.457  31.156  36.266  1.00  0.00     0.059 A 
ATOM     81  C   UNL A   1      47.464  29.347  37.545  1.00  0.00     0.059 A 
ATOM     82  F   UNL A   1      45.234  28.737  37.152  1.00  0.00    -0.206 F 
ATOM     83  C   UNL A   1      48.551  30.165  37.246  1.00  0.00     0.060 A 
BRANCH  83  84
ATOM     84  S   UNL A   1      50.096  30.001  38.167  1.00  0.00     0.124 S 
ATOM     85  O   UNL A   1      50.596  31.370  38.149  1.00  0.00    -0.237 OA
ATOM     86  O   UNL A   1      49.631  29.506  39.458  1.00  0.00    -0.237 OA
ATOM     87  O   UNL A   1      50.858  29.039  37.374  1.00  0.00    -0.744 OA
ENDBRANCH  83  84
ENDBRANCH  51  76
BRANCH  63  88
ATOM     88  C   UNL A   1      40.484  34.403  37.286  1.00  0.00     0.058 A 
ATOM     89  C   UNL A   1      40.822  35.762  37.365  1.00  0.00     0.135 A 
ATOM     90  C   UNL A   1      39.679  33.866  38.303  1.00  0.00     0.135 A 
ATOM     91  F   UNL A   1      41.596  36.323  36.423  1.00  0.00    -0.206 F 
ATOM     92  C   UNL A   1      40.381  36.558  38.418  1.00  0.00     0.059 A 
ATOM     93  C   UNL A   1      39.204  34.649  39.350  1.00  0.00     0.059 A 
ATOM     94  F   UNL A   1      39.319  32.572  38.269  1.00  0.00    -0.206 F 
ATOM     95  C   UNL A   1      39.566  35.994  39.402  1.00  0.00     0.060 A 
BRANCH  95  96
ATOM     96  S   UNL A   1      38.951  37.052  40.729  1.00  0.00     0.124 S 
ATOM     97  O   UNL A   1      38.149  36.113  41.506  1.00  0.00    -0.237 OA
ATOM     98  O   UNL A   1      40.186  37.508  41.361  1.00  0.00    -0.237 OA
ATOM     99  O   UNL A   1      38.199  38.084  40.022  1.00  0.00    -0.744 OA
ENDBRANCH  95  96
ENDBRANCH  63  88
ENDBRANCH  37  38
ENDBRANCH  30  32
ENDBRANCH  29  30
ENDBRANCH  28  29
ENDBRANCH  27  28
ENDBRANCH  26  27
ENDBRANCH  25  26
ENDBRANCH  24  25
ENDBRANCH  23  24
ENDBRANCH   1  23
TORSDOF 28
ENDMDL
MODEL 3
REMARK VINA RESULT:      -7.1      4.774      8.968
REMARK SMILES CCNC(=O)C[NH2+][C@@H](C)[C@@H](C)C(=O)OCCOCCOCCOCCOC(=O)c1ccc(-c2c3nc(c(-c4c(F)cc(S(=O)(=O)[O-])cc4F)c4ccc([nH]4)c(-c4c(F)cc(S(=O)(=O)[O-])cc4F)c4nc(c(-c5c(F)cc(S(=O)(=O)[O-])cc5F)c5ccc2[nH]5)C=C4)C=C3)cc1
REMARK SMILES IDX 19 1 18 2 17 3 16 4 15 5 14 6 12 7 13 8 10 9 11 10 8 11 9 12
REMARK SMILES IDX 7 13 6 16 4 17 3 18 5 20 2 21 1 22 20 23 21 24 22 25 23 26
REMARK SMILES IDX 24 27 25 28 26 29 27 30 28 31 29 32 30 33 94 34 31 35 93 36
REMARK SMILES IDX 32 37 33 38 34 39 87 40 35 41 92 42 86 43 88 44 36 45 91 46
REMARK SMILES IDX 85 47 84 48 37 50 71 51 50 52 70 53 51 54 54 55 69 56 89 57
REMARK SMILES IDX 52 58 53 59 68 61 90 62 55 63 38 64 39 65 48 66 40 67 41 68
REMARK SMILES IDX 47 69 49 70 42 71 43 72 44 73 45 74 46 75 72 76 73 77 82 78
REMARK SMILES IDX 74 79 75 80 81 81 83 82 76 83 77 84 78 85 79 86 80 87 56 88
REMARK SMILES IDX 57 89 66 90 58 91 59 92 65 93 67 94 60 95 61 96 62 97 63 98
REMARK SMILES IDX 64 99
REMARK H PARENT 7 14 7 15 3 19 88 49 54 60
REMARK Flexibility Score: inf
ROOT
ATOM      1  C   UNL A   1      48.116  26.185  24.947  1.00  0.00     0.188 C 
ENDROOT
BRANCH   1   2
ATOM      2  C   UNL A   1      47.390  27.264  24.147  1.00  0.00     0.188 C 
BRANCH   2   3
ATOM      3  O   UNL A   1      48.176  28.043  23.261  1.00  0.00    -0.376 OA
BRANCH   3   4
ATOM      4  C   UNL A   1      47.701  28.251  21.928  1.00  0.00     0.202 C 
BRANCH   4   5
ATOM      5  C   UNL A   1      48.265  27.428  20.747  1.00  0.00     0.261 C 
BRANCH   5   6
ATOM      6  O   UNL A   1      49.291  26.438  21.060  1.00  0.00    -0.463 OA
BRANCH   6   7
ATOM      7  C   UNL A   1      50.359  26.414  20.229  1.00  0.00     0.314 C 
ATOM      8  O   UNL A   1      50.465  25.622  19.289  1.00  0.00    -0.252 OA
BRANCH   7   9
ATOM      9  C   UNL A   1      51.551  27.303  20.571  1.00  0.00     0.154 C 
ATOM     10  C   UNL A   1      51.645  27.246  22.105  1.00  0.00     0.026 C 
BRANCH   9  11
ATOM     11  C   UNL A   1      51.748  28.758  20.049  1.00  0.00     0.193 C 
ATOM     12  C   UNL A   1      52.024  28.841  18.550  1.00  0.00     0.076 C 
BRANCH  11  13
ATOM     13  N   UNL A   1      52.934  29.317  20.747  1.00  0.00    -0.336 N 
ATOM     14  H   UNL A   1      52.699  29.423  21.734  1.00  0.00     0.346 HD
ATOM     15  H   UNL A   1      53.698  28.663  20.584  1.00  0.00     0.346 HD
BRANCH  13  16
ATOM     16  C   UNL A   1      53.390  30.622  20.242  1.00  0.00     0.362 C 
BRANCH  16  17
ATOM     17  C   UNL A   1      52.749  31.741  21.072  1.00  0.00     0.275 C 
ATOM     18  N   UNL A   1      53.413  32.925  21.224  1.00  0.00    -0.351 N 
ATOM     19  H   UNL A   1      53.025  33.562  21.867  1.00  0.00     0.163 HD
ATOM     20  O   UNL A   1      51.645  31.601  21.604  1.00  0.00    -0.269 OA
BRANCH  18  21
ATOM     21  C   UNL A   1      54.623  33.354  20.550  1.00  0.00     0.112 C 
ATOM     22  C   UNL A   1      54.297  33.879  19.164  1.00  0.00     0.027 C 
ENDBRANCH  18  21
ENDBRANCH  16  17
ENDBRANCH  13  16
ENDBRANCH  11  13
ENDBRANCH   9  11
ENDBRANCH   7   9
ENDBRANCH   6   7
ENDBRANCH   5   6
ENDBRANCH   4   5
ENDBRANCH   3   4
ENDBRANCH   2   3
ENDBRANCH   1   2
BRANCH   1  23
ATOM     23  O   UNL A   1      47.261  25.134  25.353  1.00  0.00    -0.377 OA
BRANCH  23  24
ATOM     24  C   UNL A   1      46.798  24.160  24.425  1.00  0.00     0.188 C 
BRANCH  24  25
ATOM     25  C   UNL A   1      45.868  23.063  24.936  1.00  0.00     0.188 C 
BRANCH  25  26
ATOM     26  O   UNL A   1      44.479  23.178  24.608  1.00  0.00    -0.376 OA
BRANCH  26  27
ATOM     27  C   UNL A   1      43.739  24.274  25.139  1.00  0.00     0.202 C 
BRANCH  27  28
ATOM     28  C   UNL A   1      42.722  23.931  26.230  1.00  0.00     0.261 C 
BRANCH  28  29
ATOM     29  O   UNL A   1      41.463  24.596  26.049  1.00  0.00    -0.460 OA
BRANCH  29  30
ATOM     30  C   UNL A   1      41.529  25.949  25.993  1.00  0.00     0.338 C 
ATOM     31  O   UNL A   1      41.501  26.651  25.000  1.00  0.00    -0.246 OA
BRANCH  30  32
ATOM     32  C   UNL A   1      41.503  26.487  27.365  1.00  0.00     0.060 A 
ATOM     33  C   UNL A   1      40.486  26.069  28.233  1.00  0.00     0.016 A 
ATOM     34  C   UNL A   1      42.424  27.459  27.757  1.00  0.00     0.016 A 
ATOM     35  C   UNL A   1      40.361  26.656  29.491  1.00  0.00     0.010 A 
ATOM     36  C   UNL A   1      42.289  28.055  29.010  1.00  0.00     0.010 A 
ATOM     37  C   UNL A   1      41.237  27.681  29.865  1.00  0.00    -0.014 A 
BRANCH  37  38
ATOM     38  C   UNL A   1      40.970  28.499  31.068  1.00  0.00     0.031 A 
ATOM     39  C   UNL A   1      39.896  29.546  30.992  1.00  0.00     0.074 A 
ATOM     40  C   UNL A   1      41.711  28.350  32.178  1.00  0.00     0.049 A 
ATOM     41  N   UNL A   1      39.597  30.491  31.843  1.00  0.00    -0.248 NA
ATOM     42  C   UNL A   1      39.058  29.534  29.781  1.00  0.00     0.031 C 
ATOM     43  C   UNL A   1      42.755  27.345  32.366  1.00  0.00     0.029 A 
ATOM     44  N   UNL A   1      41.721  29.073  33.344  1.00  0.00    -0.354 N 
ATOM     45  C   UNL A   1      38.557  31.205  31.260  1.00  0.00     0.074 A 
ATOM     46  C   UNL A   1      38.285  30.591  29.978  1.00  0.00     0.031 C 
ATOM     47  C   UNL A   1      43.336  27.541  33.563  1.00  0.00     0.029 A 
ATOM     48  C   UNL A   1      42.731  28.710  34.201  1.00  0.00     0.049 A 
ATOM     49  H   UNL A   1      41.069  29.783  33.545  1.00  0.00     0.167 HD
ATOM     50  C   UNL A   1      37.894  32.278  31.752  1.00  0.00     0.037 A 
ATOM     51  C   UNL A   1      43.147  29.285  35.347  1.00  0.00     0.037 A 
ATOM     52  C   UNL A   1      38.180  32.874  33.031  1.00  0.00     0.049 A 
ATOM     53  C   UNL A   1      42.427  30.504  35.859  1.00  0.00     0.074 A 
ATOM     54  C   UNL A   1      37.547  33.938  33.646  1.00  0.00     0.029 A 
ATOM     55  N   UNL A   1      39.196  32.464  33.884  1.00  0.00    -0.354 N 
ATOM     56  N   UNL A   1      41.421  31.154  35.320  1.00  0.00    -0.248 NA
ATOM     57  C   UNL A   1      42.891  31.068  37.134  1.00  0.00     0.031 C 
ATOM     58  C   UNL A   1      38.215  34.207  34.844  1.00  0.00     0.029 A 
ATOM     59  C   UNL A   1      39.226  33.272  35.007  1.00  0.00     0.049 A 
ATOM     60  H   UNL A   1      39.805  31.710  33.714  1.00  0.00     0.167 HD
ATOM     61  C   UNL A   1      41.114  32.184  36.203  1.00  0.00     0.074 A 
ATOM     62  C   UNL A   1      42.040  32.070  37.312  1.00  0.00     0.031 C 
ATOM     63  C   UNL A   1      40.151  33.135  36.106  1.00  0.00     0.037 A 
BRANCH  50  64
ATOM     64  C   UNL A   1      36.835  32.900  30.885  1.00  0.00     0.058 A 
ATOM     65  C   UNL A   1      35.472  32.594  31.036  1.00  0.00     0.135 A 
ATOM     66  C   UNL A   1      37.190  33.827  29.891  1.00  0.00     0.135 A 
ATOM     67  F   UNL A   1      35.078  31.701  31.958  1.00  0.00    -0.206 F 
ATOM     68  C   UNL A   1      34.505  33.158  30.210  1.00  0.00     0.059 A 
ATOM     69  C   UNL A   1      36.236  34.425  29.074  1.00  0.00     0.059 A 
ATOM     70  F   UNL A   1      38.478  34.153  29.701  1.00  0.00    -0.206 F 
ATOM     71  C   UNL A   1      34.898  34.070  29.229  1.00  0.00     0.060 A 
BRANCH  71  72
ATOM     72  S   UNL A   1      33.633  34.784  28.156  1.00  0.00     0.124 S 
ATOM     73  O   UNL A   1      32.717  33.658  27.998  1.00  0.00    -0.237 OA
ATOM     74  O   UNL A   1      33.135  35.896  28.959  1.00  0.00    -0.237 OA
ATOM     75  O   UNL A   1      34.375  35.161  26.958  1.00  0.00    -0.744 OA
ENDBRANCH  71  72
ENDBRANCH  50  64
BRANCH  51  76
ATOM     76  C   UNL A   1      44.322  28.724  36.064  1.00  0.00     0.058 A 
ATOM     77  C   UNL A   1      44.179  27.675  36.982  1.00  0.00     0.135 A 
ATOM     78  C   UNL A   1      45.619  29.197  35.809  1.00  0.00     0.135 A 
ATOM     79  F   UNL A   1      42.960  27.194  37.267  1.00  0.00    -0.206 F 
ATOM     80  C   UNL A   1      45.279  27.114  37.625  1.00  0.00     0.059 A 
ATOM     81  C   UNL A   1      46.737  28.638  36.420  1.00  0.00     0.059 A 
ATOM     82  F   UNL A   1      45.812  30.192  34.928  1.00  0.00    -0.206 F 
ATOM     83  C   UNL A   1      46.556  27.597  37.330  1.00  0.00     0.060 A 
BRANCH  83  84
ATOM     84  S   UNL A   1      47.982  26.807  38.106  1.00  0.00     0.124 S 
ATOM     85  O   UNL A   1      48.962  27.886  38.091  1.00  0.00    -0.237 OA
ATOM     86  O   UNL A   1      47.453  26.441  39.416  1.00  0.00    -0.237 OA
ATOM     87  O   UNL A   1      48.266  25.682  37.218  1.00  0.00    -0.744 OA
ENDBRANCH  83  84
ENDBRANCH  51  76
BRANCH  63  88
ATOM     88  C   UNL A   1      40.007  34.105  37.247  1.00  0.00     0.058 A 
ATOM     89  C   UNL A   1      40.771  35.279  37.321  1.00  0.00     0.135 A 
ATOM     90  C   UNL A   1      39.026  33.896  38.230  1.00  0.00     0.135 A 
ATOM     91  F   UNL A   1      41.727  35.523  36.411  1.00  0.00    -0.206 F 
ATOM     92  C   UNL A   1      40.571  36.210  38.336  1.00  0.00     0.059 A 
ATOM     93  C   UNL A   1      38.791  34.826  39.237  1.00  0.00     0.059 A 
ATOM     94  F   UNL A   1      38.261  32.792  38.198  1.00  0.00    -0.206 F 
ATOM     95  C   UNL A   1      39.574  35.978  39.285  1.00  0.00     0.060 A 
BRANCH  95  96
ATOM     96  S   UNL A   1      39.285  37.223  40.560  1.00  0.00     0.124 S 
ATOM     97  O   UNL A   1      40.561  37.929  40.578  1.00  0.00    -0.237 OA
ATOM     98  O   UNL A   1      38.154  37.969  40.017  1.00  0.00    -0.237 OA
ATOM     99  O   UNL A   1      38.990  36.430  41.750  1.00  0.00    -0.744 OA
ENDBRANCH  95  96
ENDBRANCH  63  88
ENDBRANCH  37  38
ENDBRANCH  30  32
ENDBRANCH  29  30
ENDBRANCH  28  29
ENDBRANCH  27  28
ENDBRANCH  26  27
ENDBRANCH  25  26
ENDBRANCH  24  25
ENDBRANCH  23  24
ENDBRANCH   1  23
TORSDOF 28
ENDMDL
