MODEL 1
REMARK VINA RESULT:      -6.9      0.000      0.000
REMARK SMILES C[C@@H](C(=O)OCCOCCOCCOCCOC(=O)c1ccc(-c2c3nc(c(-c4c(F)cc(S(=O)(=O)[O-])cc4F)c4ccc([nH]4)c(-c4c(F)cc(S(=O)(=O)[O-])cc4F)c4nc(c(-c5c(F)cc(S(=O)(=O)[O-])cc5F)c5ccc2[nH]5)C=C4)C=C3)cc1)c1cc(/C=C/S(C)(=O)=O)cc(C(=O)c2ccccc2)c1
REMARK SMILES IDX 11 1 10 2 9 3 8 4 7 5 6 6 5 7 3 8 4 9 2 10 1 11 86 12 87 13
REMARK SMILES IDX 105 14 88 15 96 16 95 17 89 18 90 19 91 20 92 21 93 22 94 23
REMARK SMILES IDX 97 24 98 25 99 26 100 27 104 28 101 29 103 30 102 31 12 32
REMARK SMILES IDX 13 33 14 34 15 35 16 36 17 37 18 38 19 39 20 40 21 41 85 42
REMARK SMILES IDX 22 43 84 44 23 45 24 46 25 47 78 48 26 49 83 50 77 51 79 52
REMARK SMILES IDX 27 53 82 54 76 55 75 56 28 58 62 59 41 60 61 61 42 62 45 63
REMARK SMILES IDX 60 64 80 65 43 66 44 67 59 69 81 70 46 71 29 72 30 73 39 74
REMARK SMILES IDX 31 75 32 76 38 77 40 78 33 79 34 80 35 81 36 82 37 83 63 84
REMARK SMILES IDX 64 85 73 86 65 87 66 88 72 89 74 90 67 91 68 92 69 93 70 94
REMARK SMILES IDX 71 95 47 96 48 97 57 98 49 99 50 100 56 101 58 102 51 103
REMARK SMILES IDX 52 104 53 105 54 106 55 107
REMARK H PARENT 79 57 45 68
REMARK Flexibility Score: inf
ROOT
ATOM      1  O   UNL A   1      33.063  37.035  29.727  1.00  0.00    -0.377 OA
ENDROOT
BRANCH   1   2
ATOM      2  C   UNL A   1      32.446  36.446  30.851  1.00  0.00     0.188 C 
BRANCH   2   3
ATOM      3  C   UNL A   1      33.326  36.316  32.105  1.00  0.00     0.188 C 
BRANCH   3   4
ATOM      4  O   UNL A   1      33.113  35.241  32.998  1.00  0.00    -0.376 OA
BRANCH   4   5
ATOM      5  C   UNL A   1      34.060  34.192  33.143  1.00  0.00     0.202 C 
BRANCH   5   6
ATOM      6  C   UNL A   1      35.258  33.942  32.205  1.00  0.00     0.261 C 
BRANCH   6   7
ATOM      7  O   UNL A   1      36.447  33.411  32.804  1.00  0.00    -0.463 OA
BRANCH   7   8
ATOM      8  C   UNL A   1      36.589  32.066  32.797  1.00  0.00     0.313 C 
ATOM      9  O   UNL A   1      35.706  31.287  32.447  1.00  0.00    -0.252 OA
BRANCH   8  10
ATOM     10  C   UNL A   1      38.007  31.595  33.185  1.00  0.00     0.126 C 
ATOM     11  C   UNL A   1      38.062  30.649  34.392  1.00  0.00     0.025 C 
BRANCH  10  12
ATOM     12  C   UNL A   1      39.044  32.730  33.134  1.00  0.00    -0.033 A 
ATOM     13  C   UNL A   1      39.495  33.130  31.865  1.00  0.00     0.012 A 
ATOM     14  C   UNL A   1      39.625  33.356  34.248  1.00  0.00     0.016 A 
ATOM     15  C   UNL A   1      40.453  34.132  31.667  1.00  0.00    -0.024 A 
ATOM     16  C   UNL A   1      40.650  34.311  34.089  1.00  0.00     0.023 A 
ATOM     17  C   UNL A   1      41.040  34.705  32.795  1.00  0.00     0.020 A 
BRANCH  15  18
ATOM     18  C   UNL A   1      40.918  34.480  30.311  1.00  0.00     0.020 C 
ATOM     19  C   UNL A   1      42.195  34.780  30.022  1.00  0.00     0.106 C 
BRANCH  19  20
ATOM     20  S   UNL A   1      42.635  35.402  28.466  1.00  0.00     0.168 S 
ATOM     21  C   UNL A   1      43.505  36.882  28.939  1.00  0.00     0.163 C 
ATOM     22  O   UNL A   1      43.607  34.508  27.868  1.00  0.00    -0.225 OA
ATOM     23  O   UNL A   1      41.457  35.815  27.726  1.00  0.00    -0.225 OA
ENDBRANCH  19  20
ENDBRANCH  15  18
BRANCH  16  24
ATOM     24  C   UNL A   1      41.363  34.951  35.243  1.00  0.00     0.193 C 
ATOM     25  O   UNL A   1      42.528  35.323  35.107  1.00  0.00    -0.289 OA
BRANCH  24  26
ATOM     26  C   UNL A   1      40.721  35.176  36.560  1.00  0.00     0.022 A 
ATOM     27  C   UNL A   1      40.874  36.431  37.164  1.00  0.00     0.012 A 
ATOM     28  C   UNL A   1      40.009  34.169  37.222  1.00  0.00     0.012 A 
ATOM     29  C   UNL A   1      40.256  36.699  38.386  1.00  0.00     0.001 A 
ATOM     30  C   UNL A   1      39.382  34.446  38.438  1.00  0.00     0.001 A 
ATOM     31  C   UNL A   1      39.496  35.711  39.013  1.00  0.00     0.000 A 
ENDBRANCH  24  26
ENDBRANCH  16  24
ENDBRANCH  10  12
ENDBRANCH   8  10
ENDBRANCH   7   8
ENDBRANCH   6   7
ENDBRANCH   5   6
ENDBRANCH   4   5
ENDBRANCH   3   4
ENDBRANCH   2   3
ENDBRANCH   1   2
BRANCH   1  32
ATOM     32  C   UNL A   1      33.562  36.190  28.700  1.00  0.00     0.188 C 
BRANCH  32  33
ATOM     33  C   UNL A   1      33.269  34.675  28.722  1.00  0.00     0.188 C 
BRANCH  33  34
ATOM     34  O   UNL A   1      33.983  33.915  27.759  1.00  0.00    -0.376 OA
BRANCH  34  35
ATOM     35  C   UNL A   1      34.290  32.560  28.055  1.00  0.00     0.202 C 
BRANCH  35  36
ATOM     36  C   UNL A   1      35.767  32.135  28.001  1.00  0.00     0.261 C 
BRANCH  36  37
ATOM     37  O   UNL A   1      36.281  31.455  29.157  1.00  0.00    -0.460 OA
BRANCH  37  38
ATOM     38  C   UNL A   1      36.590  30.147  29.038  1.00  0.00     0.338 C 
ATOM     39  O   UNL A   1      35.997  29.312  28.373  1.00  0.00    -0.246 OA
BRANCH  38  40
ATOM     40  C   UNL A   1      37.898  29.928  29.688  1.00  0.00     0.060 A 
ATOM     41  C   UNL A   1      38.984  30.733  29.318  1.00  0.00     0.016 A 
ATOM     42  C   UNL A   1      38.054  28.934  30.658  1.00  0.00     0.016 A 
ATOM     43  C   UNL A   1      40.240  30.518  29.886  1.00  0.00     0.010 A 
ATOM     44  C   UNL A   1      39.317  28.705  31.210  1.00  0.00     0.010 A 
ATOM     45  C   UNL A   1      40.425  29.470  30.798  1.00  0.00    -0.014 A 
BRANCH  45  46
ATOM     46  C   UNL A   1      41.799  29.042  31.161  1.00  0.00     0.031 A 
ATOM     47  C   UNL A   1      42.422  29.628  32.399  1.00  0.00     0.074 A 
ATOM     48  C   UNL A   1      42.471  28.137  30.428  1.00  0.00     0.049 A 
ATOM     49  N   UNL A   1      43.623  29.461  32.885  1.00  0.00    -0.248 NA
ATOM     50  C   UNL A   1      41.571  30.530  33.194  1.00  0.00     0.031 C 
ATOM     51  C   UNL A   1      41.959  27.465  29.235  1.00  0.00     0.029 A 
ATOM     52  N   UNL A   1      43.742  27.638  30.576  1.00  0.00    -0.354 N 
ATOM     53  C   UNL A   1      43.677  30.239  34.036  1.00  0.00     0.074 A 
ATOM     54  C   UNL A   1      42.400  30.907  34.157  1.00  0.00     0.031 C 
ATOM     55  C   UNL A   1      42.915  26.654  28.749  1.00  0.00     0.029 A 
ATOM     56  C   UNL A   1      44.118  26.777  29.572  1.00  0.00     0.049 A 
ATOM     57  H   UNL A   1      44.329  27.876  31.330  1.00  0.00     0.167 HD
ATOM     58  C   UNL A   1      44.694  30.377  34.918  1.00  0.00     0.037 A 
ATOM     59  C   UNL A   1      45.304  26.181  29.333  1.00  0.00     0.037 A 
ATOM     60  C   UNL A   1      45.965  29.713  34.790  1.00  0.00     0.049 A 
ATOM     61  C   UNL A   1      46.452  26.410  30.286  1.00  0.00     0.074 A 
ATOM     62  C   UNL A   1      47.060  29.781  35.632  1.00  0.00     0.029 A 
ATOM     63  N   UNL A   1      46.315  28.867  33.746  1.00  0.00    -0.354 N 
ATOM     64  N   UNL A   1      46.486  27.136  31.379  1.00  0.00    -0.248 NA
ATOM     65  C   UNL A   1      47.721  25.735  29.977  1.00  0.00     0.031 C 
ATOM     66  C   UNL A   1      48.092  29.023  35.070  1.00  0.00     0.029 A 
ATOM     67  C   UNL A   1      47.619  28.428  33.911  1.00  0.00     0.049 A 
ATOM     68  H   UNL A   1      45.726  28.617  33.000  1.00  0.00     0.167 HD
ATOM     69  C   UNL A   1      47.766  26.979  31.903  1.00  0.00     0.074 A 
ATOM     70  C   UNL A   1      48.472  26.081  31.013  1.00  0.00     0.031 C 
ATOM     71  C   UNL A   1      48.308  27.525  33.021  1.00  0.00     0.037 A 
BRANCH  58  72
ATOM     72  C   UNL A   1      44.484  31.301  36.087  1.00  0.00     0.058 A 
ATOM     73  C   UNL A   1      44.812  32.664  36.023  1.00  0.00     0.135 A 
ATOM     74  C   UNL A   1      43.920  30.820  37.281  1.00  0.00     0.135 A 
ATOM     75  F   UNL A   1      45.374  33.175  34.916  1.00  0.00    -0.206 F 
ATOM     76  C   UNL A   1      44.613  33.513  37.108  1.00  0.00     0.059 A 
ATOM     77  C   UNL A   1      43.683  31.657  38.368  1.00  0.00     0.059 A 
ATOM     78  F   UNL A   1      43.593  29.524  37.400  1.00  0.00    -0.206 F 
ATOM     79  C   UNL A   1      44.045  33.000  38.276  1.00  0.00     0.060 A 
BRANCH  79  80
ATOM     80  S   UNL A   1      43.788  34.116  39.670  1.00  0.00     0.124 S 
ATOM     81  O   UNL A   1      44.829  33.675  40.593  1.00  0.00    -0.237 OA
ATOM     82  O   UNL A   1      43.994  35.426  39.061  1.00  0.00    -0.237 OA
ATOM     83  O   UNL A   1      42.418  33.830  40.088  1.00  0.00    -0.744 OA
ENDBRANCH  79  80
ENDBRANCH  58  72
BRANCH  59  84
ATOM     84  C   UNL A   1      45.479  25.328  28.124  1.00  0.00     0.058 A 
ATOM     85  C   UNL A   1      45.240  23.947  28.164  1.00  0.00     0.135 A 
ATOM     86  C   UNL A   1      45.896  25.882  26.902  1.00  0.00     0.135 A 
ATOM     87  F   UNL A   1      44.855  23.367  29.311  1.00  0.00    -0.206 F 
ATOM     88  C   UNL A   1      45.421  23.141  27.043  1.00  0.00     0.059 A 
ATOM     89  C   UNL A   1      46.054  25.103  25.760  1.00  0.00     0.059 A 
ATOM     90  F   UNL A   1      46.132  27.199  26.805  1.00  0.00    -0.206 F 
ATOM     91  C   UNL A   1      45.822  23.731  25.843  1.00  0.00     0.060 A 
BRANCH  91  92
ATOM     92  S   UNL A   1      45.999  22.686  24.381  1.00  0.00     0.124 S 
ATOM     93  O   UNL A   1      44.646  22.709  23.837  1.00  0.00    -0.237 OA
ATOM     94  O   UNL A   1      47.010  23.404  23.613  1.00  0.00    -0.237 OA
ATOM     95  O   UNL A   1      46.434  21.406  24.935  1.00  0.00    -0.744 OA
ENDBRANCH  91  92
ENDBRANCH  59  84
BRANCH  71  96
ATOM     96  C   UNL A   1      49.718  27.138  33.378  1.00  0.00     0.058 A 
ATOM     97  C   UNL A   1      50.829  27.862  32.916  1.00  0.00     0.135 A 
ATOM     98  C   UNL A   1      49.959  26.059  34.246  1.00  0.00     0.135 A 
ATOM     99  F   UNL A   1      50.660  28.900  32.081  1.00  0.00    -0.206 F 
ATOM    100  C   UNL A   1      52.127  27.516  33.282  1.00  0.00     0.059 A 
ATOM    101  C   UNL A   1      51.245  25.716  34.651  1.00  0.00     0.059 A 
ATOM    102  F   UNL A   1      48.934  25.338  34.729  1.00  0.00    -0.206 F 
ATOM    103  C   UNL A   1      52.324  26.443  34.153  1.00  0.00     0.060 A 
BRANCH 103 104
ATOM    104  S   UNL A   1      54.010  26.027  34.645  1.00  0.00     0.124 S 
ATOM    105  O   UNL A   1      54.668  27.328  34.570  1.00  0.00    -0.237 OA
ATOM    106  O   UNL A   1      53.819  25.491  35.990  1.00  0.00    -0.237 OA
ATOM    107  O   UNL A   1      54.428  25.054  33.641  1.00  0.00    -0.744 OA
ENDBRANCH 103 104
ENDBRANCH  71  96
ENDBRANCH  45  46
ENDBRANCH  38  40
ENDBRANCH  37  38
ENDBRANCH  36  37
ENDBRANCH  35  36
ENDBRANCH  34  35
ENDBRANCH  33  34
ENDBRANCH  32  33
ENDBRANCH   1  32
TORSDOF 28
ENDMDL
MODEL 2
REMARK VINA RESULT:      -6.7      1.395      8.369
REMARK SMILES C[C@@H](C(=O)OCCOCCOCCOCCOC(=O)c1ccc(-c2c3nc(c(-c4c(F)cc(S(=O)(=O)[O-])cc4F)c4ccc([nH]4)c(-c4c(F)cc(S(=O)(=O)[O-])cc4F)c4nc(c(-c5c(F)cc(S(=O)(=O)[O-])cc5F)c5ccc2[nH]5)C=C4)C=C3)cc1)c1cc(/C=C/S(C)(=O)=O)cc(C(=O)c2ccccc2)c1
REMARK SMILES IDX 11 1 10 2 9 3 8 4 7 5 6 6 5 7 3 8 4 9 2 10 1 11 86 12 87 13
REMARK SMILES IDX 105 14 88 15 96 16 95 17 89 18 90 19 91 20 92 21 93 22 94 23
REMARK SMILES IDX 97 24 98 25 99 26 100 27 104 28 101 29 103 30 102 31 12 32
REMARK SMILES IDX 13 33 14 34 15 35 16 36 17 37 18 38 19 39 20 40 21 41 85 42
REMARK SMILES IDX 22 43 84 44 23 45 24 46 25 47 78 48 26 49 83 50 77 51 79 52
REMARK SMILES IDX 27 53 82 54 76 55 75 56 28 58 62 59 41 60 61 61 42 62 45 63
REMARK SMILES IDX 60 64 80 65 43 66 44 67 59 69 81 70 46 71 29 72 30 73 39 74
REMARK SMILES IDX 31 75 32 76 38 77 40 78 33 79 34 80 35 81 36 82 37 83 63 84
REMARK SMILES IDX 64 85 73 86 65 87 66 88 72 89 74 90 67 91 68 92 69 93 70 94
REMARK SMILES IDX 71 95 47 96 48 97 57 98 49 99 50 100 56 101 58 102 51 103
REMARK SMILES IDX 52 104 53 105 54 106 55 107
REMARK H PARENT 79 57 45 68
REMARK Flexibility Score: inf
ROOT
ATOM      1  O   UNL A   1      33.194  36.852  29.532  1.00  0.00    -0.377 OA
ENDROOT
BRANCH   1   2
ATOM      2  C   UNL A   1      32.529  36.424  30.701  1.00  0.00     0.188 C 
BRANCH   2   3
ATOM      3  C   UNL A   1      33.387  36.370  31.976  1.00  0.00     0.188 C 
BRANCH   3   4
ATOM      4  O   UNL A   1      33.150  35.358  32.934  1.00  0.00    -0.376 OA
BRANCH   4   5
ATOM      5  C   UNL A   1      34.045  34.269  33.106  1.00  0.00     0.202 C 
BRANCH   5   6
ATOM      6  C   UNL A   1      35.251  33.958  32.197  1.00  0.00     0.261 C 
BRANCH   6   7
ATOM      7  O   UNL A   1      36.355  33.270  32.801  1.00  0.00    -0.463 OA
BRANCH   7   8
ATOM      8  C   UNL A   1      36.473  31.951  32.535  1.00  0.00     0.313 C 
ATOM      9  O   UNL A   1      35.561  31.257  32.091  1.00  0.00    -0.252 OA
BRANCH   8  10
ATOM     10  C   UNL A   1      37.900  31.404  32.755  1.00  0.00     0.126 C 
ATOM     11  C   UNL A   1      38.049  30.461  33.956  1.00  0.00     0.025 C 
BRANCH  10  12
ATOM     12  C   UNL A   1      38.983  32.480  32.570  1.00  0.00    -0.033 A 
ATOM     13  C   UNL A   1      39.461  33.116  33.729  1.00  0.00     0.012 A 
ATOM     14  C   UNL A   1      39.489  32.926  31.339  1.00  0.00     0.016 A 
ATOM     15  C   UNL A   1      40.426  34.131  33.710  1.00  0.00    -0.024 A 
ATOM     16  C   UNL A   1      40.402  34.000  31.277  1.00  0.00     0.023 A 
ATOM     17  C   UNL A   1      40.878  34.579  32.468  1.00  0.00     0.020 A 
BRANCH  15  18
ATOM     18  C   UNL A   1      40.857  34.790  34.957  1.00  0.00     0.020 C 
ATOM     19  C   UNL A   1      40.176  34.705  36.111  1.00  0.00     0.106 C 
BRANCH  19  20
ATOM     20  S   UNL A   1      40.604  35.684  37.474  1.00  0.00     0.168 S 
ATOM     21  C   UNL A   1      40.204  34.579  38.811  1.00  0.00     0.163 C 
ATOM     22  O   UNL A   1      42.043  35.863  37.484  1.00  0.00    -0.225 OA
ATOM     23  O   UNL A   1      39.718  36.828  37.584  1.00  0.00    -0.225 OA
ENDBRANCH  19  20
ENDBRANCH  15  18
BRANCH  16  24
ATOM     24  C   UNL A   1      40.911  34.572  29.987  1.00  0.00     0.193 C 
ATOM     25  O   UNL A   1      40.171  35.275  29.300  1.00  0.00    -0.289 OA
BRANCH  24  26
ATOM     26  C   UNL A   1      42.290  34.342  29.495  1.00  0.00     0.022 A 
ATOM     27  C   UNL A   1      42.797  33.037  29.536  1.00  0.00     0.012 A 
ATOM     28  C   UNL A   1      43.099  35.387  29.034  1.00  0.00     0.012 A 
ATOM     29  C   UNL A   1      44.077  32.768  29.049  1.00  0.00     0.001 A 
ATOM     30  C   UNL A   1      44.373  35.111  28.536  1.00  0.00     0.001 A 
ATOM     31  C   UNL A   1      44.857  33.803  28.534  1.00  0.00     0.000 A 
ENDBRANCH  24  26
ENDBRANCH  16  24
ENDBRANCH  10  12
ENDBRANCH   8  10
ENDBRANCH   7   8
ENDBRANCH   6   7
ENDBRANCH   5   6
ENDBRANCH   4   5
ENDBRANCH   3   4
ENDBRANCH   2   3
ENDBRANCH   1   2
BRANCH   1  32
ATOM     32  C   UNL A   1      33.661  35.872  28.615  1.00  0.00     0.188 C 
BRANCH  32  33
ATOM     33  C   UNL A   1      33.342  34.378  28.835  1.00  0.00     0.188 C 
BRANCH  33  34
ATOM     34  O   UNL A   1      33.881  33.503  27.857  1.00  0.00    -0.376 OA
BRANCH  34  35
ATOM     35  C   UNL A   1      34.112  32.146  28.212  1.00  0.00     0.202 C 
BRANCH  35  36
ATOM     36  C   UNL A   1      35.491  31.549  27.886  1.00  0.00     0.261 C 
BRANCH  36  37
ATOM     37  O   UNL A   1      36.172  30.884  28.962  1.00  0.00    -0.460 OA
BRANCH  37  38
ATOM     38  C   UNL A   1      36.675  29.654  28.729  1.00  0.00     0.338 C 
ATOM     39  O   UNL A   1      36.203  28.795  28.000  1.00  0.00    -0.246 OA
BRANCH  38  40
ATOM     40  C   UNL A   1      38.014  29.585  29.348  1.00  0.00     0.060 A 
ATOM     41  C   UNL A   1      39.009  30.473  28.916  1.00  0.00     0.016 A 
ATOM     42  C   UNL A   1      38.288  28.652  30.351  1.00  0.00     0.016 A 
ATOM     43  C   UNL A   1      40.294  30.401  29.455  1.00  0.00     0.010 A 
ATOM     44  C   UNL A   1      39.581  28.566  30.874  1.00  0.00     0.010 A 
ATOM     45  C   UNL A   1      40.600  29.414  30.401  1.00  0.00    -0.014 A 
BRANCH  45  46
ATOM     46  C   UNL A   1      42.017  29.132  30.739  1.00  0.00     0.031 A 
ATOM     47  C   UNL A   1      42.731  28.055  29.967  1.00  0.00     0.074 A 
ATOM     48  C   UNL A   1      42.667  29.827  31.690  1.00  0.00     0.049 A 
ATOM     49  N   UNL A   1      43.940  27.585  30.119  1.00  0.00    -0.248 NA
ATOM     50  C   UNL A   1      41.971  27.421  28.876  1.00  0.00     0.031 C 
ATOM     51  C   UNL A   1      42.099  30.922  32.475  1.00  0.00     0.029 A 
ATOM     52  N   UNL A   1      43.949  29.702  32.165  1.00  0.00    -0.354 N 
ATOM     53  C   UNL A   1      44.086  26.598  29.150  1.00  0.00     0.074 A 
ATOM     54  C   UNL A   1      42.829  26.511  28.440  1.00  0.00     0.031 C 
ATOM     55  C   UNL A   1      43.025  31.356  33.348  1.00  0.00     0.029 A 
ATOM     56  C   UNL A   1      44.237  30.548  33.209  1.00  0.00     0.049 A 
ATOM     57  H   UNL A   1      44.602  29.065  31.792  1.00  0.00     0.167 HD
ATOM     58  C   UNL A   1      45.172  25.839  28.871  1.00  0.00     0.037 A 
ATOM     59  C   UNL A   1      45.339  30.638  33.981  1.00  0.00     0.037 A 
ATOM     60  C   UNL A   1      46.418  25.926  29.586  1.00  0.00     0.049 A 
ATOM     61  C   UNL A   1      46.511  29.728  33.705  1.00  0.00     0.074 A 
ATOM     62  C   UNL A   1      47.581  25.206  29.378  1.00  0.00     0.029 A 
ATOM     63  N   UNL A   1      46.662  26.779  30.653  1.00  0.00    -0.354 N 
ATOM     64  N   UNL A   1      46.643  28.809  32.777  1.00  0.00    -0.248 NA
ATOM     65  C   UNL A   1      47.687  29.871  34.576  1.00  0.00     0.031 C 
ATOM     66  C   UNL A   1      48.508  25.581  30.355  1.00  0.00     0.029 A 
ATOM     67  C   UNL A   1      47.948  26.584  31.131  1.00  0.00     0.049 A 
ATOM     68  H   UNL A   1      46.017  27.426  31.018  1.00  0.00     0.167 HD
ATOM     69  C   UNL A   1      47.924  28.287  32.933  1.00  0.00     0.074 A 
ATOM     70  C   UNL A   1      48.531  29.001  34.038  1.00  0.00     0.031 C 
ATOM     71  C   UNL A   1      48.544  27.309  32.227  1.00  0.00     0.037 A 
BRANCH  58  72
ATOM     72  C   UNL A   1      45.051  24.827  27.763  1.00  0.00     0.058 A 
ATOM     73  C   UNL A   1      44.688  23.494  28.012  1.00  0.00     0.135 A 
ATOM     74  C   UNL A   1      45.274  25.206  26.429  1.00  0.00     0.135 A 
ATOM     75  F   UNL A   1      44.483  23.071  29.269  1.00  0.00    -0.206 F 
ATOM     76  C   UNL A   1      44.577  22.566  26.981  1.00  0.00     0.059 A 
ATOM     77  C   UNL A   1      45.137  24.302  25.379  1.00  0.00     0.059 A 
ATOM     78  F   UNL A   1      45.629  26.466  26.134  1.00  0.00    -0.206 F 
ATOM     79  C   UNL A   1      44.801  22.981  25.667  1.00  0.00     0.060 A 
BRANCH  79  80
ATOM     80  S   UNL A   1      44.645  21.765  24.342  1.00  0.00     0.124 S 
ATOM     81  O   UNL A   1      45.952  21.116  24.386  1.00  0.00    -0.237 OA
ATOM     82  O   UNL A   1      43.520  20.955  24.796  1.00  0.00    -0.237 OA
ATOM     83  O   UNL A   1      44.390  22.582  23.159  1.00  0.00    -0.744 OA
ENDBRANCH  79  80
ENDBRANCH  58  72
BRANCH  59  84
ATOM     84  C   UNL A   1      45.382  31.611  35.109  1.00  0.00     0.058 A 
ATOM     85  C   UNL A   1      44.921  31.268  36.387  1.00  0.00     0.135 A 
ATOM     86  C   UNL A   1      45.884  32.910  34.925  1.00  0.00     0.135 A 
ATOM     87  F   UNL A   1      44.418  30.044  36.612  1.00  0.00    -0.206 F 
ATOM     88  C   UNL A   1      44.940  32.179  37.440  1.00  0.00     0.059 A 
ATOM     89  C   UNL A   1      45.942  33.828  35.968  1.00  0.00     0.059 A 
ATOM     90  F   UNL A   1      46.345  33.289  33.723  1.00  0.00    -0.206 F 
ATOM     91  C   UNL A   1      45.459  33.456  37.221  1.00  0.00     0.060 A 
BRANCH  91  92
ATOM     92  S   UNL A   1      45.532  34.611  38.608  1.00  0.00     0.124 S 
ATOM     93  O   UNL A   1      46.837  34.303  39.180  1.00  0.00    -0.237 OA
ATOM     94  O   UNL A   1      45.414  35.901  37.936  1.00  0.00    -0.237 OA
ATOM     95  O   UNL A   1      44.380  34.229  39.421  1.00  0.00    -0.744 OA
ENDBRANCH  91  92
ENDBRANCH  59  84
BRANCH  71  96
ATOM     96  C   UNL A   1      49.967  26.977  32.588  1.00  0.00     0.058 A 
ATOM     97  C   UNL A   1      51.054  27.706  32.078  1.00  0.00     0.135 A 
ATOM     98  C   UNL A   1      50.245  25.950  33.505  1.00  0.00     0.135 A 
ATOM     99  F   UNL A   1      50.849  28.696  31.194  1.00  0.00    -0.206 F 
ATOM    100  C   UNL A   1      52.364  27.413  32.446  1.00  0.00     0.059 A 
ATOM    101  C   UNL A   1      51.544  25.661  33.913  1.00  0.00     0.059 A 
ATOM    102  F   UNL A   1      49.244  25.227  34.035  1.00  0.00    -0.206 F 
ATOM    103  C   UNL A   1      52.598  26.390  33.368  1.00  0.00     0.060 A 
BRANCH 103 104
ATOM    104  S   UNL A   1      54.299  26.044  33.861  1.00  0.00     0.124 S 
ATOM    105  O   UNL A   1      54.134  25.708  35.272  1.00  0.00    -0.237 OA
ATOM    106  O   UNL A   1      54.659  24.934  32.983  1.00  0.00    -0.237 OA
ATOM    107  O   UNL A   1      54.995  27.299  33.593  1.00  0.00    -0.744 OA
ENDBRANCH 103 104
ENDBRANCH  71  96
ENDBRANCH  45  46
ENDBRANCH  38  40
ENDBRANCH  37  38
ENDBRANCH  36  37
ENDBRANCH  35  36
ENDBRANCH  34  35
ENDBRANCH  33  34
ENDBRANCH  32  33
ENDBRANCH   1  32
TORSDOF 28
ENDMDL
MODEL 3
REMARK VINA RESULT:      -6.5      3.705     10.194
REMARK SMILES C[C@@H](C(=O)OCCOCCOCCOCCOC(=O)c1ccc(-c2c3nc(c(-c4c(F)cc(S(=O)(=O)[O-])cc4F)c4ccc([nH]4)c(-c4c(F)cc(S(=O)(=O)[O-])cc4F)c4nc(c(-c5c(F)cc(S(=O)(=O)[O-])cc5F)c5ccc2[nH]5)C=C4)C=C3)cc1)c1cc(/C=C/S(C)(=O)=O)cc(C(=O)c2ccccc2)c1
REMARK SMILES IDX 11 1 10 2 9 3 8 4 7 5 6 6 5 7 3 8 4 9 2 10 1 11 86 12 87 13
REMARK SMILES IDX 105 14 88 15 96 16 95 17 89 18 90 19 91 20 92 21 93 22 94 23
REMARK SMILES IDX 97 24 98 25 99 26 100 27 104 28 101 29 103 30 102 31 12 32
REMARK SMILES IDX 13 33 14 34 15 35 16 36 17 37 18 38 19 39 20 40 21 41 85 42
REMARK SMILES IDX 22 43 84 44 23 45 24 46 25 47 78 48 26 49 83 50 77 51 79 52
REMARK SMILES IDX 27 53 82 54 76 55 75 56 28 58 62 59 41 60 61 61 42 62 45 63
REMARK SMILES IDX 60 64 80 65 43 66 44 67 59 69 81 70 46 71 29 72 30 73 39 74
REMARK SMILES IDX 31 75 32 76 38 77 40 78 33 79 34 80 35 81 36 82 37 83 63 84
REMARK SMILES IDX 64 85 73 86 65 87 66 88 72 89 74 90 67 91 68 92 69 93 70 94
REMARK SMILES IDX 71 95 47 96 48 97 57 98 49 99 50 100 56 101 58 102 51 103
REMARK SMILES IDX 52 104 53 105 54 106 55 107
REMARK H PARENT 79 57 45 68
REMARK Flexibility Score: inf
ROOT
ATOM      1  O   UNL A   1      38.101  32.910  34.332  1.00  0.00    -0.377 OA
ENDROOT
BRANCH   1   2
ATOM      2  C   UNL A   1      38.552  31.731  33.699  1.00  0.00     0.188 C 
BRANCH   2   3
ATOM      3  C   UNL A   1      40.051  31.427  33.843  1.00  0.00     0.188 C 
BRANCH   3   4
ATOM      4  O   UNL A   1      40.493  30.084  33.858  1.00  0.00    -0.376 OA
BRANCH   4   5
ATOM      5  C   UNL A   1      41.656  29.673  33.155  1.00  0.00     0.202 C 
BRANCH   5   6
ATOM      6  C   UNL A   1      42.651  28.597  33.636  1.00  0.00     0.261 C 
BRANCH   6   7
ATOM      7  O   UNL A   1      42.130  27.277  33.835  1.00  0.00    -0.463 OA
BRANCH   7   8
ATOM      8  C   UNL A   1      42.168  26.787  35.094  1.00  0.00     0.313 C 
ATOM      9  O   UNL A   1      41.947  27.460  36.098  1.00  0.00    -0.252 OA
BRANCH   8  10
ATOM     10  C   UNL A   1      42.430  25.267  35.155  1.00  0.00     0.126 C 
ATOM     11  C   UNL A   1      41.326  24.450  35.837  1.00  0.00     0.025 C 
BRANCH  10  12
ATOM     12  C   UNL A   1      43.884  24.931  35.529  1.00  0.00    -0.033 A 
ATOM     13  C   UNL A   1      44.859  25.905  35.253  1.00  0.00     0.012 A 
ATOM     14  C   UNL A   1      44.329  23.712  36.063  1.00  0.00     0.016 A 
ATOM     15  C   UNL A   1      46.223  25.728  35.516  1.00  0.00    -0.024 A 
ATOM     16  C   UNL A   1      45.704  23.467  36.266  1.00  0.00     0.023 A 
ATOM     17  C   UNL A   1      46.638  24.489  36.008  1.00  0.00     0.020 A 
BRANCH  15  18
ATOM     18  C   UNL A   1      47.205  26.771  35.165  1.00  0.00     0.020 C 
ATOM     19  C   UNL A   1      48.091  27.276  36.039  1.00  0.00     0.106 C 
BRANCH  19  20
ATOM     20  S   UNL A   1      49.058  28.655  35.633  1.00  0.00     0.168 S 
ATOM     21  C   UNL A   1      48.083  29.366  34.325  1.00  0.00     0.163 C 
ATOM     22  O   UNL A   1      49.027  29.585  36.744  1.00  0.00    -0.225 OA
ATOM     23  O   UNL A   1      50.321  28.243  35.050  1.00  0.00    -0.225 OA
ENDBRANCH  19  20
ENDBRANCH  15  18
BRANCH  16  24
ATOM     24  C   UNL A   1      46.242  22.156  36.755  1.00  0.00     0.193 C 
ATOM     25  O   UNL A   1      45.711  21.602  37.717  1.00  0.00    -0.289 OA
BRANCH  24  26
ATOM     26  C   UNL A   1      47.394  21.472  36.119  1.00  0.00     0.022 A 
ATOM     27  C   UNL A   1      48.355  20.885  36.952  1.00  0.00     0.012 A 
ATOM     28  C   UNL A   1      47.560  21.432  34.731  1.00  0.00     0.012 A 
ATOM     29  C   UNL A   1      49.435  20.198  36.397  1.00  0.00     0.001 A 
ATOM     30  C   UNL A   1      48.636  20.734  34.179  1.00  0.00     0.001 A 
ATOM     31  C   UNL A   1      49.566  20.109  35.011  1.00  0.00     0.000 A 
ENDBRANCH  24  26
ENDBRANCH  16  24
ENDBRANCH  10  12
ENDBRANCH   8  10
ENDBRANCH   7   8
ENDBRANCH   6   7
ENDBRANCH   5   6
ENDBRANCH   4   5
ENDBRANCH   3   4
ENDBRANCH   2   3
ENDBRANCH   1   2
BRANCH   1  32
ATOM     32  C   UNL A   1      36.860  33.471  33.926  1.00  0.00     0.188 C 
BRANCH  32  33
ATOM     33  C   UNL A   1      36.054  32.835  32.773  1.00  0.00     0.188 C 
BRANCH  33  34
ATOM     34  O   UNL A   1      35.353  33.760  31.956  1.00  0.00    -0.376 OA
BRANCH  34  35
ATOM     35  C   UNL A   1      35.638  33.788  30.564  1.00  0.00     0.202 C 
BRANCH  35  36
ATOM     36  C   UNL A   1      34.710  32.993  29.630  1.00  0.00     0.261 C 
BRANCH  36  37
ATOM     37  O   UNL A   1      34.746  31.563  29.756  1.00  0.00    -0.460 OA
BRANCH  37  38
ATOM     38  C   UNL A   1      34.967  30.834  28.643  1.00  0.00     0.338 C 
ATOM     39  O   UNL A   1      34.247  30.761  27.659  1.00  0.00    -0.246 OA
BRANCH  38  40
ATOM     40  C   UNL A   1      36.337  30.287  28.722  1.00  0.00     0.060 A 
ATOM     41  C   UNL A   1      36.853  29.928  29.975  1.00  0.00     0.016 A 
ATOM     42  C   UNL A   1      37.109  30.129  27.568  1.00  0.00     0.016 A 
ATOM     43  C   UNL A   1      38.160  29.449  30.082  1.00  0.00     0.010 A 
ATOM     44  C   UNL A   1      38.424  29.670  27.679  1.00  0.00     0.010 A 
ATOM     45  C   UNL A   1      38.969  29.365  28.941  1.00  0.00    -0.014 A 
BRANCH  45  46
ATOM     46  C   UNL A   1      40.432  29.162  29.088  1.00  0.00     0.031 A 
ATOM     47  C   UNL A   1      41.000  27.814  28.734  1.00  0.00     0.074 A 
ATOM     48  C   UNL A   1      41.243  30.152  29.501  1.00  0.00     0.049 A 
ATOM     49  N   UNL A   1      42.227  27.375  28.838  1.00  0.00    -0.248 NA
ATOM     50  C   UNL A   1      40.051  26.826  28.193  1.00  0.00     0.031 C 
ATOM     51  C   UNL A   1      40.819  31.512  29.830  1.00  0.00     0.029 A 
ATOM     52  N   UNL A   1      42.597  30.157  29.727  1.00  0.00    -0.354 N 
ATOM     53  C   UNL A   1      42.197  26.061  28.382  1.00  0.00     0.074 A 
ATOM     54  C   UNL A   1      40.825  25.763  28.036  1.00  0.00     0.031 C 
ATOM     55  C   UNL A   1      41.892  32.215  30.234  1.00  0.00     0.029 A 
ATOM     56  C   UNL A   1      43.069  31.348  30.227  1.00  0.00     0.049 A 
ATOM     57  H   UNL A   1      43.177  29.381  29.547  1.00  0.00     0.167 HD
ATOM     58  C   UNL A   1      43.222  25.187  28.255  1.00  0.00     0.037 A 
ATOM     59  C   UNL A   1      44.303  31.686  30.656  1.00  0.00     0.037 A 
ATOM     60  C   UNL A   1      44.585  25.488  28.607  1.00  0.00     0.049 A 
ATOM     61  C   UNL A   1      45.416  30.670  30.580  1.00  0.00     0.074 A 
ATOM     62  C   UNL A   1      45.699  24.674  28.510  1.00  0.00     0.029 A 
ATOM     63  N   UNL A   1      45.019  26.698  29.133  1.00  0.00    -0.354 N 
ATOM     64  N   UNL A   1      45.380  29.436  30.133  1.00  0.00    -0.248 NA
ATOM     65  C   UNL A   1      46.740  31.093  31.060  1.00  0.00     0.031 C 
ATOM     66  C   UNL A   1      46.795  25.368  29.031  1.00  0.00     0.029 A 
ATOM     67  C   UNL A   1      46.379  26.641  29.390  1.00  0.00     0.049 A 
ATOM     68  H   UNL A   1      44.445  27.479  29.299  1.00  0.00     0.167 HD
ATOM     69  C   UNL A   1      46.679  28.948  30.249  1.00  0.00     0.074 A 
ATOM     70  C   UNL A   1      47.479  30.024  30.798  1.00  0.00     0.031 C 
ATOM     71  C   UNL A   1      47.166  27.724  29.929  1.00  0.00     0.037 A 
BRANCH  58  72
ATOM     72  C   UNL A   1      42.905  23.809  27.738  1.00  0.00     0.058 A 
ATOM     73  C   UNL A   1      42.752  22.711  28.598  1.00  0.00     0.135 A 
ATOM     74  C   UNL A   1      42.723  23.592  26.361  1.00  0.00     0.135 A 
ATOM     75  F   UNL A   1      42.935  22.855  29.920  1.00  0.00    -0.206 F 
ATOM     76  C   UNL A   1      42.456  21.441  28.111  1.00  0.00     0.059 A 
ATOM     77  C   UNL A   1      42.395  22.337  25.856  1.00  0.00     0.059 A 
ATOM     78  F   UNL A   1      42.863  24.605  25.493  1.00  0.00    -0.206 F 
ATOM     79  C   UNL A   1      42.277  21.265  26.738  1.00  0.00     0.060 A 
BRANCH  79  80
ATOM     80  S   UNL A   1      41.887  19.613  26.126  1.00  0.00     0.124 S 
ATOM     81  O   UNL A   1      42.270  18.782  27.263  1.00  0.00    -0.237 OA
ATOM     82  O   UNL A   1      40.455  19.709  25.865  1.00  0.00    -0.237 OA
ATOM     83  O   UNL A   1      42.730  19.480  24.941  1.00  0.00    -0.744 OA
ENDBRANCH  79  80
ENDBRANCH  58  72
BRANCH  59  84
ATOM     84  C   UNL A   1      44.549  33.042  31.222  1.00  0.00     0.058 A 
ATOM     85  C   UNL A   1      44.368  33.307  32.587  1.00  0.00     0.135 A 
ATOM     86  C   UNL A   1      44.966  34.103  30.402  1.00  0.00     0.135 A 
ATOM     87  F   UNL A   1      43.957  32.331  33.411  1.00  0.00    -0.206 F 
ATOM     88  C   UNL A   1      44.578  34.577  33.119  1.00  0.00     0.059 A 
ATOM     89  C   UNL A   1      45.211  35.373  30.915  1.00  0.00     0.059 A 
ATOM     90  F   UNL A   1      45.161  33.903  29.090  1.00  0.00    -0.206 F 
ATOM     91  C   UNL A   1      45.006  35.602  32.273  1.00  0.00     0.060 A 
BRANCH  91  92
ATOM     92  S   UNL A   1      45.329  37.231  32.984  1.00  0.00     0.124 S 
ATOM     93  O   UNL A   1      46.053  36.884  34.201  1.00  0.00    -0.237 OA
ATOM     94  O   UNL A   1      46.113  37.872  31.933  1.00  0.00    -0.237 OA
ATOM     95  O   UNL A   1      43.990  37.782  33.181  1.00  0.00    -0.744 OA
ENDBRANCH  91  92
ENDBRANCH  59  84
BRANCH  71  96
ATOM     96  C   UNL A   1      48.641  27.485  30.116  1.00  0.00     0.058 A 
ATOM     97  C   UNL A   1      49.163  26.947  31.304  1.00  0.00     0.135 A 
ATOM     98  C   UNL A   1      49.540  27.742  29.067  1.00  0.00     0.135 A 
ATOM     99  F   UNL A   1      48.352  26.686  32.342  1.00  0.00    -0.206 F 
ATOM    100  C   UNL A   1      50.524  26.698  31.453  1.00  0.00     0.059 A 
ATOM    101  C   UNL A   1      50.900  27.469  29.182  1.00  0.00     0.059 A 
ATOM    102  F   UNL A   1      49.095  28.244  27.903  1.00  0.00    -0.206 F 
ATOM    103  C   UNL A   1      51.384  26.958  30.384  1.00  0.00     0.060 A 
BRANCH 103 104
ATOM    104  S   UNL A   1      53.142  26.597  30.580  1.00  0.00     0.124 S 
ATOM    105  O   UNL A   1      53.506  26.166  29.234  1.00  0.00    -0.237 OA
ATOM    106  O   UNL A   1      53.680  27.888  30.999  1.00  0.00    -0.237 OA
ATOM    107  O   UNL A   1      53.164  25.554  31.600  1.00  0.00    -0.744 OA
ENDBRANCH 103 104
ENDBRANCH  71  96
ENDBRANCH  45  46
ENDBRANCH  38  40
ENDBRANCH  37  38
ENDBRANCH  36  37
ENDBRANCH  35  36
ENDBRANCH  34  35
ENDBRANCH  33  34
ENDBRANCH  32  33
ENDBRANCH   1  32
TORSDOF 28
ENDMDL
