MODEL 1
REMARK VINA RESULT:      -9.7      0.000      0.000
REMARK SMILES O=C(/C=C/c1cc(C(=O)Nc2ccc(F)cc2Cl)cs1)OCCOCCOCCOCCOC(=O)c1ccc(-c2c3nc(c(-c4c(F)cc(S(=O)(=O)[O-])cc4F)c4ccc([nH]4)c(-c4c(F)cc(S(=O)(=O)[O-])cc4F)c4nc(c(-c5c(F)cc(S(=O)(=O)[O-])cc5F)c5ccc2[nH]5)C=C4)C=C3)cc1
REMARK SMILES IDX 27 1 26 2 25 3 24 4 23 5 22 6 21 7 2 8 1 9 3 10 4 11 5 12
REMARK SMILES IDX 6 13 20 14 7 15 19 16 8 17 9 18 10 19 11 21 12 22 17 23
REMARK SMILES IDX 13 24 16 25 18 26 14 27 15 28 28 29 29 30 30 31 31 32 32 33
REMARK SMILES IDX 33 34 34 35 35 36 36 37 37 38 101 39 38 40 100 41 39 42
REMARK SMILES IDX 40 43 41 44 94 45 42 46 99 47 93 48 95 49 43 50 98 51 92 52
REMARK SMILES IDX 91 53 44 55 78 56 57 57 77 58 58 59 61 60 76 61 96 62 59 63
REMARK SMILES IDX 60 64 75 66 97 67 62 68 45 69 46 70 55 71 47 72 48 73 54 74
REMARK SMILES IDX 56 75 49 76 50 77 51 78 52 79 53 80 79 81 80 82 89 83 81 84
REMARK SMILES IDX 82 85 88 86 90 87 83 88 84 89 85 90 86 91 87 92 63 93 64 94
REMARK SMILES IDX 73 95 65 96 66 97 72 98 74 99 67 100 68 101 69 102 70 103
REMARK SMILES IDX 71 104
REMARK H PARENT 10 20 95 54 61 65
REMARK Flexibility Score: inf
ROOT
ATOM      1  O   UNL A   1      32.577  29.998  27.059  1.00  0.00    -0.377 OA
ENDROOT
BRANCH   1   2
ATOM      2  C   UNL A   1      31.944  30.230  25.814  1.00  0.00     0.188 C 
BRANCH   2   3
ATOM      3  C   UNL A   1      31.578  29.004  24.984  1.00  0.00     0.188 C 
BRANCH   3   4
ATOM      4  O   UNL A   1      30.820  29.091  23.789  1.00  0.00    -0.376 OA
BRANCH   4   5
ATOM      5  C   UNL A   1      29.906  28.155  23.252  1.00  0.00     0.202 C 
BRANCH   5   6
ATOM      6  C   UNL A   1      29.698  26.757  23.824  1.00  0.00     0.261 C 
BRANCH   6   7
ATOM      7  O   UNL A   1      30.756  25.804  23.701  1.00  0.00    -0.460 OA
BRANCH   7   8
ATOM      8  C   UNL A   1      30.655  24.546  23.228  1.00  0.00     0.330 C 
ATOM      9  O   UNL A   1      29.589  24.132  22.782  1.00  0.00    -0.247 OA
BRANCH   8  10
ATOM     10  C   UNL A   1      31.703  23.567  23.554  1.00  0.00     0.095 C 
ATOM     11  C   UNL A   1      31.665  22.233  23.449  1.00  0.00     0.026 C 
BRANCH  11  12
ATOM     12  C   UNL A   1      32.820  21.442  23.694  1.00  0.00     0.028 A 
ATOM     13  C   UNL A   1      34.157  21.786  23.637  1.00  0.00     0.033 A 
ATOM     14  S   UNL A   1      32.707  19.789  24.164  1.00  0.00    -0.144 S 
ATOM     15  C   UNL A   1      34.833  21.097  24.694  1.00  0.00     0.051 A 
ATOM     16  C   UNL A   1      34.299  19.828  24.810  1.00  0.00     0.079 A 
BRANCH  15  17
ATOM     17  C   UNL A   1      35.942  21.613  25.489  1.00  0.00     0.256 C 
ATOM     18  O   UNL A   1      36.960  20.956  25.693  1.00  0.00    -0.269 OA
ATOM     19  N   UNL A   1      35.848  22.908  25.981  1.00  0.00    -0.321 N 
ATOM     20  H   UNL A   1      36.691  23.286  26.319  1.00  0.00     0.170 HD
BRANCH  19  21
ATOM     21  C   UNL A   1      34.725  23.768  26.074  1.00  0.00     0.060 A 
ATOM     22  C   UNL A   1      34.684  25.016  25.430  1.00  0.00     0.031 A 
ATOM     23  C   UNL A   1      33.638  23.389  26.883  1.00  0.00     0.067 A 
ATOM     24  C   UNL A   1      33.623  25.897  25.669  1.00  0.00     0.041 A 
ATOM     25  C   UNL A   1      32.602  24.285  27.149  1.00  0.00     0.062 A 
ATOM     26  Cl  UNL A   1      33.613  21.852  27.673  1.00  0.00    -0.082 Cl
ATOM     27  C   UNL A   1      32.608  25.533  26.545  1.00  0.00     0.124 A 
ATOM     28  F   UNL A   1      31.631  26.404  26.822  1.00  0.00    -0.207 F 
ENDBRANCH  19  21
ENDBRANCH  15  17
ENDBRANCH  11  12
ENDBRANCH   8  10
ENDBRANCH   7   8
ENDBRANCH   6   7
ENDBRANCH   5   6
ENDBRANCH   4   5
ENDBRANCH   3   4
ENDBRANCH   2   3
ENDBRANCH   1   2
BRANCH   1  29
ATOM     29  C   UNL A   1      33.989  30.060  26.994  1.00  0.00     0.188 C 
BRANCH  29  30
ATOM     30  C   UNL A   1      34.609  31.020  28.030  1.00  0.00     0.188 C 
BRANCH  30  31
ATOM     31  O   UNL A   1      35.123  32.263  27.594  1.00  0.00    -0.376 OA
BRANCH  31  32
ATOM     32  C   UNL A   1      34.943  33.444  28.354  1.00  0.00     0.202 C 
BRANCH  32  33
ATOM     33  C   UNL A   1      35.685  33.807  29.664  1.00  0.00     0.261 C 
BRANCH  33  34
ATOM     34  O   UNL A   1      36.973  33.241  29.920  1.00  0.00    -0.460 OA
BRANCH  34  35
ATOM     35  C   UNL A   1      37.003  32.074  30.601  1.00  0.00     0.338 C 
ATOM     36  O   UNL A   1      36.135  31.640  31.343  1.00  0.00    -0.246 OA
BRANCH  35  37
ATOM     37  C   UNL A   1      38.153  31.277  30.104  1.00  0.00     0.060 A 
ATOM     38  C   UNL A   1      39.144  30.905  31.026  1.00  0.00     0.016 A 
ATOM     39  C   UNL A   1      38.232  30.841  28.779  1.00  0.00     0.016 A 
ATOM     40  C   UNL A   1      40.231  30.135  30.619  1.00  0.00     0.010 A 
ATOM     41  C   UNL A   1      39.344  30.098  28.362  1.00  0.00     0.010 A 
ATOM     42  C   UNL A   1      40.367  29.777  29.273  1.00  0.00    -0.014 A 
BRANCH  42  43
ATOM     43  C   UNL A   1      41.688  29.290  28.802  1.00  0.00     0.031 A 
ATOM     44  C   UNL A   1      42.824  30.278  28.748  1.00  0.00     0.074 A 
ATOM     45  C   UNL A   1      41.902  27.993  28.516  1.00  0.00     0.049 A 
ATOM     46  N   UNL A   1      44.069  30.095  28.392  1.00  0.00    -0.248 NA
ATOM     47  C   UNL A   1      42.513  31.660  29.155  1.00  0.00     0.031 C 
ATOM     48  C   UNL A   1      40.894  26.935  28.576  1.00  0.00     0.029 A 
ATOM     49  N   UNL A   1      43.045  27.346  28.117  1.00  0.00    -0.354 N 
ATOM     50  C   UNL A   1      44.689  31.331  28.539  1.00  0.00     0.074 A 
ATOM     51  C   UNL A   1      43.676  32.267  28.975  1.00  0.00     0.031 C 
ATOM     52  C   UNL A   1      41.463  25.771  28.211  1.00  0.00     0.029 A 
ATOM     53  C   UNL A   1      42.865  26.005  27.867  1.00  0.00     0.049 A 
ATOM     54  H   UNL A   1      43.913  27.799  28.017  1.00  0.00     0.167 HD
ATOM     55  C   UNL A   1      45.988  31.656  28.345  1.00  0.00     0.037 A 
ATOM     56  C   UNL A   1      43.728  25.082  27.396  1.00  0.00     0.037 A 
ATOM     57  C   UNL A   1      46.993  30.723  27.906  1.00  0.00     0.049 A 
ATOM     58  C   UNL A   1      45.155  25.487  27.113  1.00  0.00     0.074 A 
ATOM     59  C   UNL A   1      48.337  30.954  27.673  1.00  0.00     0.029 A 
ATOM     60  N   UNL A   1      46.764  29.383  27.629  1.00  0.00    -0.354 N 
ATOM     61  N   UNL A   1      45.730  26.657  27.270  1.00  0.00    -0.248 NA
ATOM     62  C   UNL A   1      46.053  24.444  26.599  1.00  0.00     0.031 C 
ATOM     63  C   UNL A   1      48.910  29.766  27.206  1.00  0.00     0.029 A 
ATOM     64  C   UNL A   1      47.937  28.780  27.208  1.00  0.00     0.049 A 
ATOM     65  H   UNL A   1      45.895  28.928  27.721  1.00  0.00     0.167 HD
ATOM     66  C   UNL A   1      47.060  26.481  26.898  1.00  0.00     0.074 A 
ATOM     67  C   UNL A   1      47.210  25.087  26.537  1.00  0.00     0.031 C 
ATOM     68  C   UNL A   1      48.069  27.389  26.852  1.00  0.00     0.037 A 
BRANCH  55  69
ATOM     69  C   UNL A   1      46.399  33.080  28.594  1.00  0.00     0.058 A 
ATOM     70  C   UNL A   1      46.919  33.493  29.832  1.00  0.00     0.135 A 
ATOM     71  C   UNL A   1      46.329  34.033  27.564  1.00  0.00     0.135 A 
ATOM     72  F   UNL A   1      46.985  32.632  30.859  1.00  0.00    -0.206 F 
ATOM     73  C   UNL A   1      47.349  34.800  30.040  1.00  0.00     0.059 A 
ATOM     74  C   UNL A   1      46.780  35.338  27.742  1.00  0.00     0.059 A 
ATOM     75  F   UNL A   1      45.831  33.695  26.365  1.00  0.00    -0.206 F 
ATOM     76  C   UNL A   1      47.284  35.713  28.986  1.00  0.00     0.060 A 
BRANCH  76  77
ATOM     77  S   UNL A   1      47.888  37.391  29.263  1.00  0.00     0.124 S 
ATOM     78  O   UNL A   1      49.321  37.164  29.421  1.00  0.00    -0.237 OA
ATOM     79  O   UNL A   1      47.486  38.070  28.036  1.00  0.00    -0.237 OA
ATOM     80  O   UNL A   1      47.184  37.813  30.470  1.00  0.00    -0.744 OA
ENDBRANCH  76  77
ENDBRANCH  55  69
BRANCH  56  81
ATOM     81  C   UNL A   1      43.271  23.691  27.124  1.00  0.00     0.058 A 
ATOM     82  C   UNL A   1      42.984  23.252  25.822  1.00  0.00     0.135 A 
ATOM     83  C   UNL A   1      43.069  22.781  28.175  1.00  0.00     0.135 A 
ATOM     84  F   UNL A   1      43.147  24.084  24.783  1.00  0.00    -0.206 F 
ATOM     85  C   UNL A   1      42.487  21.975  25.575  1.00  0.00     0.059 A 
ATOM     86  C   UNL A   1      42.604  21.489  27.950  1.00  0.00     0.059 A 
ATOM     87  F   UNL A   1      43.336  23.142  29.440  1.00  0.00    -0.206 F 
ATOM     88  C   UNL A   1      42.300  21.101  26.647  1.00  0.00     0.060 A 
BRANCH  88  89
ATOM     89  S   UNL A   1      41.681  19.438  26.312  1.00  0.00     0.124 S 
ATOM     90  O   UNL A   1      42.037  18.739  27.541  1.00  0.00    -0.237 OA
ATOM     91  O   UNL A   1      40.257  19.678  26.102  1.00  0.00    -0.237 OA
ATOM     92  O   UNL A   1      42.423  19.039  25.120  1.00  0.00    -0.744 OA
ENDBRANCH  88  89
ENDBRANCH  56  81
BRANCH  68  93
ATOM     93  C   UNL A   1      49.427  26.893  26.427  1.00  0.00     0.058 A 
ATOM     94  C   UNL A   1      49.852  26.949  25.090  1.00  0.00     0.135 A 
ATOM     95  C   UNL A   1      50.322  26.367  27.375  1.00  0.00     0.135 A 
ATOM     96  F   UNL A   1      49.038  27.442  24.143  1.00  0.00    -0.206 F 
ATOM     97  C   UNL A   1      51.093  26.455  24.699  1.00  0.00     0.059 A 
ATOM     98  C   UNL A   1      51.582  25.902  27.012  1.00  0.00     0.059 A 
ATOM     99  F   UNL A   1      49.977  26.306  28.671  1.00  0.00    -0.206 F 
ATOM    100  C   UNL A   1      51.949  25.929  25.668  1.00  0.00     0.060 A 
BRANCH 100 101
ATOM    101  S   UNL A   1      53.551  25.282  25.145  1.00  0.00     0.124 S 
ATOM    102  O   UNL A   1      53.391  23.856  25.412  1.00  0.00    -0.237 OA
ATOM    103  O   UNL A   1      53.597  25.662  23.736  1.00  0.00    -0.237 OA
ATOM    104  O   UNL A   1      54.498  25.979  26.009  1.00  0.00    -0.744 OA
ENDBRANCH 100 101
ENDBRANCH  68  93
ENDBRANCH  42  43
ENDBRANCH  35  37
ENDBRANCH  34  35
ENDBRANCH  33  34
ENDBRANCH  32  33
ENDBRANCH  31  32
ENDBRANCH  30  31
ENDBRANCH  29  30
ENDBRANCH   1  29
TORSDOF 26
ENDMDL
MODEL 2
REMARK VINA RESULT:      -9.1      1.775      3.152
REMARK SMILES O=C(/C=C/c1cc(C(=O)Nc2ccc(F)cc2Cl)cs1)OCCOCCOCCOCCOC(=O)c1ccc(-c2c3nc(c(-c4c(F)cc(S(=O)(=O)[O-])cc4F)c4ccc([nH]4)c(-c4c(F)cc(S(=O)(=O)[O-])cc4F)c4nc(c(-c5c(F)cc(S(=O)(=O)[O-])cc5F)c5ccc2[nH]5)C=C4)C=C3)cc1
REMARK SMILES IDX 27 1 26 2 25 3 24 4 23 5 22 6 21 7 2 8 1 9 3 10 4 11 5 12
REMARK SMILES IDX 6 13 20 14 7 15 19 16 8 17 9 18 10 19 11 21 12 22 17 23
REMARK SMILES IDX 13 24 16 25 18 26 14 27 15 28 28 29 29 30 30 31 31 32 32 33
REMARK SMILES IDX 33 34 34 35 35 36 36 37 37 38 101 39 38 40 100 41 39 42
REMARK SMILES IDX 40 43 41 44 94 45 42 46 99 47 93 48 95 49 43 50 98 51 92 52
REMARK SMILES IDX 91 53 44 55 78 56 57 57 77 58 58 59 61 60 76 61 96 62 59 63
REMARK SMILES IDX 60 64 75 66 97 67 62 68 45 69 46 70 55 71 47 72 48 73 54 74
REMARK SMILES IDX 56 75 49 76 50 77 51 78 52 79 53 80 79 81 80 82 89 83 81 84
REMARK SMILES IDX 82 85 88 86 90 87 83 88 84 89 85 90 86 91 87 92 63 93 64 94
REMARK SMILES IDX 73 95 65 96 66 97 72 98 74 99 67 100 68 101 69 102 70 103
REMARK SMILES IDX 71 104
REMARK H PARENT 10 20 95 54 61 65
REMARK Flexibility Score: inf
ROOT
ATOM      1  O   UNL A   1      33.162  34.125  29.519  1.00  0.00    -0.377 OA
ENDROOT
BRANCH   1   2
ATOM      2  C   UNL A   1      33.650  33.966  28.201  1.00  0.00     0.188 C 
BRANCH   2   3
ATOM      3  C   UNL A   1      34.800  32.982  28.002  1.00  0.00     0.188 C 
BRANCH   3   4
ATOM      4  O   UNL A   1      34.592  31.636  27.608  1.00  0.00    -0.376 OA
BRANCH   4   5
ATOM      5  C   UNL A   1      33.415  31.032  27.111  1.00  0.00     0.202 C 
BRANCH   5   6
ATOM      6  C   UNL A   1      32.962  29.628  27.494  1.00  0.00     0.261 C 
BRANCH   6   7
ATOM      7  O   UNL A   1      33.175  28.563  26.566  1.00  0.00    -0.460 OA
BRANCH   7   8
ATOM      8  C   UNL A   1      32.367  28.210  25.547  1.00  0.00     0.330 C 
ATOM      9  O   UNL A   1      31.655  29.046  24.998  1.00  0.00    -0.247 OA
BRANCH   8  10
ATOM     10  C   UNL A   1      32.077  26.787  25.316  1.00  0.00     0.095 C 
ATOM     11  C   UNL A   1      31.855  25.820  26.215  1.00  0.00     0.026 C 
BRANCH  11  12
ATOM     12  C   UNL A   1      31.466  24.515  25.812  1.00  0.00     0.028 A 
ATOM     13  C   UNL A   1      31.121  24.040  24.561  1.00  0.00     0.033 A 
ATOM     14  S   UNL A   1      31.383  23.205  26.928  1.00  0.00    -0.144 S 
ATOM     15  C   UNL A   1      31.638  22.711  24.438  1.00  0.00     0.051 A 
ATOM     16  C   UNL A   1      31.491  22.063  25.649  1.00  0.00     0.079 A 
BRANCH  15  17
ATOM     17  C   UNL A   1      32.182  22.105  23.227  1.00  0.00     0.256 C 
ATOM     18  O   UNL A   1      31.464  21.572  22.385  1.00  0.00    -0.269 OA
ATOM     19  N   UNL A   1      33.552  22.186  23.013  1.00  0.00    -0.321 N 
ATOM     20  H   UNL A   1      33.843  21.964  22.100  1.00  0.00     0.170 HD
BRANCH  19  21
ATOM     21  C   UNL A   1      34.595  22.539  23.906  1.00  0.00     0.060 A 
ATOM     22  C   UNL A   1      35.257  21.586  24.696  1.00  0.00     0.031 A 
ATOM     23  C   UNL A   1      34.941  23.895  24.050  1.00  0.00     0.067 A 
ATOM     24  C   UNL A   1      36.174  21.994  25.672  1.00  0.00     0.041 A 
ATOM     25  C   UNL A   1      35.827  24.302  25.049  1.00  0.00     0.062 A 
ATOM     26  Cl  UNL A   1      34.188  25.112  23.081  1.00  0.00    -0.082 Cl
ATOM     27  C   UNL A   1      36.429  23.347  25.855  1.00  0.00     0.124 A 
ATOM     28  F   UNL A   1      37.255  23.737  26.832  1.00  0.00    -0.207 F 
ENDBRANCH  19  21
ENDBRANCH  15  17
ENDBRANCH  11  12
ENDBRANCH   8  10
ENDBRANCH   7   8
ENDBRANCH   6   7
ENDBRANCH   5   6
ENDBRANCH   4   5
ENDBRANCH   3   4
ENDBRANCH   2   3
ENDBRANCH   1   2
BRANCH   1  29
ATOM     29  C   UNL A   1      33.389  35.416  30.052  1.00  0.00     0.188 C 
BRANCH  29  30
ATOM     30  C   UNL A   1      33.248  35.479  31.587  1.00  0.00     0.188 C 
BRANCH  30  31
ATOM     31  O   UNL A   1      34.365  35.860  32.365  1.00  0.00    -0.376 OA
BRANCH  31  32
ATOM     32  C   UNL A   1      35.148  34.901  33.053  1.00  0.00     0.202 C 
BRANCH  32  33
ATOM     33  C   UNL A   1      36.226  33.984  32.423  1.00  0.00     0.261 C 
BRANCH  33  34
ATOM     34  O   UNL A   1      36.224  32.587  32.730  1.00  0.00    -0.460 OA
BRANCH  34  35
ATOM     35  C   UNL A   1      36.195  31.732  31.684  1.00  0.00     0.338 C 
ATOM     36  O   UNL A   1      35.207  31.388  31.051  1.00  0.00    -0.246 OA
BRANCH  35  37
ATOM     37  C   UNL A   1      37.592  31.470  31.259  1.00  0.00     0.060 A 
ATOM     38  C   UNL A   1      37.925  31.690  29.914  1.00  0.00     0.016 A 
ATOM     39  C   UNL A   1      38.580  31.081  32.169  1.00  0.00     0.016 A 
ATOM     40  C   UNL A   1      39.228  31.485  29.468  1.00  0.00     0.010 A 
ATOM     41  C   UNL A   1      39.881  30.838  31.712  1.00  0.00     0.010 A 
ATOM     42  C   UNL A   1      40.200  31.002  30.351  1.00  0.00    -0.014 A 
BRANCH  42  43
ATOM     43  C   UNL A   1      41.455  30.447  29.785  1.00  0.00     0.031 A 
ATOM     44  C   UNL A   1      42.654  31.356  29.709  1.00  0.00     0.074 A 
ATOM     45  C   UNL A   1      41.560  29.154  29.430  1.00  0.00     0.049 A 
ATOM     46  N   UNL A   1      43.861  31.105  29.275  1.00  0.00    -0.248 NA
ATOM     47  C   UNL A   1      42.465  32.735  30.194  1.00  0.00     0.031 C 
ATOM     48  C   UNL A   1      40.484  28.166  29.502  1.00  0.00     0.029 A 
ATOM     49  N   UNL A   1      42.630  28.449  28.938  1.00  0.00    -0.354 N 
ATOM     50  C   UNL A   1      44.575  32.288  29.440  1.00  0.00     0.074 A 
ATOM     51  C   UNL A   1      43.657  33.269  29.974  1.00  0.00     0.031 C 
ATOM     52  C   UNL A   1      40.948  26.984  29.054  1.00  0.00     0.029 A 
ATOM     53  C   UNL A   1      42.342  27.138  28.641  1.00  0.00     0.049 A 
ATOM     54  H   UNL A   1      43.522  28.846  28.810  1.00  0.00     0.167 HD
ATOM     55  C   UNL A   1      45.882  32.531  29.186  1.00  0.00     0.037 A 
ATOM     56  C   UNL A   1      43.110  26.181  28.082  1.00  0.00     0.037 A 
ATOM     57  C   UNL A   1      46.792  31.553  28.650  1.00  0.00     0.049 A 
ATOM     58  C   UNL A   1      44.545  26.500  27.736  1.00  0.00     0.074 A 
ATOM     59  C   UNL A   1      48.135  31.702  28.350  1.00  0.00     0.029 A 
ATOM     60  N   UNL A   1      46.454  30.247  28.328  1.00  0.00    -0.354 N 
ATOM     61  N   UNL A   1      45.210  27.618  27.910  1.00  0.00    -0.248 NA
ATOM     62  C   UNL A   1      45.337  25.423  27.126  1.00  0.00     0.031 C 
ATOM     63  C   UNL A   1      48.595  30.501  27.800  1.00  0.00     0.029 A 
ATOM     64  C   UNL A   1      47.556  29.585  27.815  1.00  0.00     0.049 A 
ATOM     65  H   UNL A   1      45.561  29.848  28.449  1.00  0.00     0.167 HD
ATOM     66  C   UNL A   1      46.502  27.370  27.455  1.00  0.00     0.074 A 
ATOM     67  C   UNL A   1      46.532  25.987  27.026  1.00  0.00     0.031 C 
ATOM     68  C   UNL A   1      47.569  28.207  27.391  1.00  0.00     0.037 A 
BRANCH  55  69
ATOM     69  C   UNL A   1      46.406  33.910  29.473  1.00  0.00     0.058 A 
ATOM     70  C   UNL A   1      46.951  34.248  30.723  1.00  0.00     0.135 A 
ATOM     71  C   UNL A   1      46.421  34.891  28.467  1.00  0.00     0.135 A 
ATOM     72  F   UNL A   1      46.940  33.358  31.728  1.00  0.00    -0.206 F 
ATOM     73  C   UNL A   1      47.484  35.509  30.967  1.00  0.00     0.059 A 
ATOM     74  C   UNL A   1      46.975  36.149  28.680  1.00  0.00     0.059 A 
ATOM     75  F   UNL A   1      45.904  34.625  27.258  1.00  0.00    -0.206 F 
ATOM     76  C   UNL A   1      47.501  36.451  29.936  1.00  0.00     0.060 A 
BRANCH  76  77
ATOM     77  S   UNL A   1      48.238  38.066  30.258  1.00  0.00     0.124 S 
ATOM     78  O   UNL A   1      49.051  38.261  29.062  1.00  0.00    -0.237 OA
ATOM     79  O   UNL A   1      47.064  38.925  30.373  1.00  0.00    -0.237 OA
ATOM     80  O   UNL A   1      48.985  37.860  31.496  1.00  0.00    -0.744 OA
ENDBRANCH  76  77
ENDBRANCH  55  69
BRANCH  56  81
ATOM     81  C   UNL A   1      42.541  24.839  27.776  1.00  0.00     0.058 A 
ATOM     82  C   UNL A   1      42.584  23.791  28.709  1.00  0.00     0.135 A 
ATOM     83  C   UNL A   1      41.979  24.565  26.518  1.00  0.00     0.135 A 
ATOM     84  F   UNL A   1      43.122  23.995  29.921  1.00  0.00    -0.206 F 
ATOM     85  C   UNL A   1      42.119  22.517  28.398  1.00  0.00     0.059 A 
ATOM     86  C   UNL A   1      41.477  23.308  26.195  1.00  0.00     0.059 A 
ATOM     87  F   UNL A   1      41.902  25.531  25.590  1.00  0.00    -0.206 F 
ATOM     88  C   UNL A   1      41.567  22.285  27.137  1.00  0.00     0.060 A 
BRANCH  88  89
ATOM     89  S   UNL A   1      40.942  20.635  26.754  1.00  0.00     0.124 S 
ATOM     90  O   UNL A   1      41.671  20.320  25.532  1.00  0.00    -0.237 OA
ATOM     91  O   UNL A   1      41.325  19.879  27.942  1.00  0.00    -0.237 OA
ATOM     92  O   UNL A   1      39.506  20.850  26.595  1.00  0.00    -0.744 OA
ENDBRANCH  88  89
ENDBRANCH  56  81
BRANCH  68  93
ATOM     93  C   UNL A   1      48.863  27.640  26.868  1.00  0.00     0.058 A 
ATOM     94  C   UNL A   1      49.106  27.493  25.493  1.00  0.00     0.135 A 
ATOM     95  C   UNL A   1      49.881  27.250  27.755  1.00  0.00     0.135 A 
ATOM     96  F   UNL A   1      48.169  27.849  24.599  1.00  0.00    -0.206 F 
ATOM     97  C   UNL A   1      50.288  26.934  25.018  1.00  0.00     0.059 A 
ATOM     98  C   UNL A   1      51.086  26.724  27.301  1.00  0.00     0.059 A 
ATOM     99  F   UNL A   1      49.712  27.384  29.081  1.00  0.00    -0.206 F 
ATOM    100  C   UNL A   1      51.271  26.548  25.931  1.00  0.00     0.060 A 
BRANCH 100 101
ATOM    101  S   UNL A   1      52.795  25.814  25.302  1.00  0.00     0.124 S 
ATOM    102  O   UNL A   1      52.632  25.987  23.863  1.00  0.00    -0.237 OA
ATOM    103  O   UNL A   1      53.822  26.643  25.927  1.00  0.00    -0.237 OA
ATOM    104  O   UNL A   1      52.732  24.436  25.780  1.00  0.00    -0.744 OA
ENDBRANCH 100 101
ENDBRANCH  68  93
ENDBRANCH  42  43
ENDBRANCH  35  37
ENDBRANCH  34  35
ENDBRANCH  33  34
ENDBRANCH  32  33
ENDBRANCH  31  32
ENDBRANCH  30  31
ENDBRANCH  29  30
ENDBRANCH   1  29
TORSDOF 26
ENDMDL
MODEL 3
REMARK VINA RESULT:      -8.6      4.169      5.246
REMARK SMILES O=C(/C=C/c1cc(C(=O)Nc2ccc(F)cc2Cl)cs1)OCCOCCOCCOCCOC(=O)c1ccc(-c2c3nc(c(-c4c(F)cc(S(=O)(=O)[O-])cc4F)c4ccc([nH]4)c(-c4c(F)cc(S(=O)(=O)[O-])cc4F)c4nc(c(-c5c(F)cc(S(=O)(=O)[O-])cc5F)c5ccc2[nH]5)C=C4)C=C3)cc1
REMARK SMILES IDX 27 1 26 2 25 3 24 4 23 5 22 6 21 7 2 8 1 9 3 10 4 11 5 12
REMARK SMILES IDX 6 13 20 14 7 15 19 16 8 17 9 18 10 19 11 21 12 22 17 23
REMARK SMILES IDX 13 24 16 25 18 26 14 27 15 28 28 29 29 30 30 31 31 32 32 33
REMARK SMILES IDX 33 34 34 35 35 36 36 37 37 38 101 39 38 40 100 41 39 42
REMARK SMILES IDX 40 43 41 44 94 45 42 46 99 47 93 48 95 49 43 50 98 51 92 52
REMARK SMILES IDX 91 53 44 55 78 56 57 57 77 58 58 59 61 60 76 61 96 62 59 63
REMARK SMILES IDX 60 64 75 66 97 67 62 68 45 69 46 70 55 71 47 72 48 73 54 74
REMARK SMILES IDX 56 75 49 76 50 77 51 78 52 79 53 80 79 81 80 82 89 83 81 84
REMARK SMILES IDX 82 85 88 86 90 87 83 88 84 89 85 90 86 91 87 92 63 93 64 94
REMARK SMILES IDX 73 95 65 96 66 97 72 98 74 99 67 100 68 101 69 102 70 103
REMARK SMILES IDX 71 104
REMARK H PARENT 10 20 95 54 61 65
REMARK Flexibility Score: inf
ROOT
ATOM      1  O   UNL A   1      32.571  29.772  26.998  1.00  0.00    -0.377 OA
ENDROOT
BRANCH   1   2
ATOM      2  C   UNL A   1      31.770  30.443  26.044  1.00  0.00     0.188 C 
BRANCH   2   3
ATOM      3  C   UNL A   1      31.417  29.676  24.773  1.00  0.00     0.188 C 
BRANCH   3   4
ATOM      4  O   UNL A   1      30.267  29.971  23.999  1.00  0.00    -0.376 OA
BRANCH   4   5
ATOM      5  C   UNL A   1      29.622  29.167  23.032  1.00  0.00     0.202 C 
BRANCH   5   6
ATOM      6  C   UNL A   1      29.830  27.661  22.913  1.00  0.00     0.261 C 
BRANCH   6   7
ATOM      7  O   UNL A   1      31.166  27.155  22.897  1.00  0.00    -0.460 OA
BRANCH   7   8
ATOM      8  C   UNL A   1      31.666  26.229  22.055  1.00  0.00     0.330 C 
ATOM      9  O   UNL A   1      31.344  26.227  20.871  1.00  0.00    -0.247 OA
BRANCH   8  10
ATOM     10  C   UNL A   1      32.314  25.029  22.604  1.00  0.00     0.095 C 
ATOM     11  C   UNL A   1      32.163  23.752  22.236  1.00  0.00     0.026 C 
BRANCH  11  12
ATOM     12  C   UNL A   1      32.966  22.723  22.797  1.00  0.00     0.028 A 
ATOM     13  C   UNL A   1      34.276  22.762  23.235  1.00  0.00     0.033 A 
ATOM     14  S   UNL A   1      32.356  21.133  23.059  1.00  0.00    -0.144 S 
ATOM     15  C   UNL A   1      34.375  21.935  24.398  1.00  0.00     0.051 A 
ATOM     16  C   UNL A   1      33.587  20.815  24.216  1.00  0.00     0.079 A 
BRANCH  15  17
ATOM     17  C   UNL A   1      35.209  22.187  25.568  1.00  0.00     0.256 C 
ATOM     18  O   UNL A   1      36.089  21.406  25.923  1.00  0.00    -0.269 OA
ATOM     19  N   UNL A   1      35.022  23.376  26.261  1.00  0.00    -0.321 N 
ATOM     20  H   UNL A   1      35.738  23.602  26.898  1.00  0.00     0.170 HD
BRANCH  19  21
ATOM     21  C   UNL A   1      33.961  24.313  26.194  1.00  0.00     0.060 A 
ATOM     22  C   UNL A   1      34.141  25.613  25.695  1.00  0.00     0.031 A 
ATOM     23  C   UNL A   1      32.697  23.951  26.696  1.00  0.00     0.067 A 
ATOM     24  C   UNL A   1      33.107  26.552  25.786  1.00  0.00     0.041 A 
ATOM     25  C   UNL A   1      31.682  24.899  26.820  1.00  0.00     0.062 A 
ATOM     26  Cl  UNL A   1      32.402  22.355  27.291  1.00  0.00    -0.082 Cl
ATOM     27  C   UNL A   1      31.900  26.193  26.371  1.00  0.00     0.124 A 
ATOM     28  F   UNL A   1      30.937  27.111  26.516  1.00  0.00    -0.207 F 
ENDBRANCH  19  21
ENDBRANCH  15  17
ENDBRANCH  11  12
ENDBRANCH   8  10
ENDBRANCH   7   8
ENDBRANCH   6   7
ENDBRANCH   5   6
ENDBRANCH   4   5
ENDBRANCH   3   4
ENDBRANCH   2   3
ENDBRANCH   1   2
BRANCH   1  29
ATOM     29  C   UNL A   1      33.908  30.236  27.038  1.00  0.00     0.188 C 
BRANCH  29  30
ATOM     30  C   UNL A   1      34.123  31.401  28.026  1.00  0.00     0.188 C 
BRANCH  30  31
ATOM     31  O   UNL A   1      34.150  32.725  27.531  1.00  0.00    -0.376 OA
BRANCH  31  32
ATOM     32  C   UNL A   1      33.317  33.734  28.076  1.00  0.00     0.202 C 
BRANCH  32  33
ATOM     33  C   UNL A   1      33.561  34.499  29.400  1.00  0.00     0.261 C 
BRANCH  33  34
ATOM     34  O   UNL A   1      34.841  34.416  30.033  1.00  0.00    -0.460 OA
BRANCH  34  35
ATOM     35  C   UNL A   1      34.997  33.458  30.973  1.00  0.00     0.338 C 
ATOM     36  O   UNL A   1      34.108  32.893  31.593  1.00  0.00    -0.246 OA
BRANCH  35  37
ATOM     37  C   UNL A   1      36.414  33.016  30.953  1.00  0.00     0.060 A 
ATOM     38  C   UNL A   1      37.207  33.297  32.076  1.00  0.00     0.016 A 
ATOM     39  C   UNL A   1      36.943  32.281  29.889  1.00  0.00     0.016 A 
ATOM     40  C   UNL A   1      38.536  32.882  32.121  1.00  0.00     0.010 A 
ATOM     41  C   UNL A   1      38.290  31.896  29.919  1.00  0.00     0.010 A 
ATOM     42  C   UNL A   1      39.101  32.231  31.018  1.00  0.00    -0.014 A 
BRANCH  42  43
ATOM     43  C   UNL A   1      40.580  32.133  30.939  1.00  0.00     0.031 A 
ATOM     44  C   UNL A   1      41.331  33.289  30.331  1.00  0.00     0.074 A 
ATOM     45  C   UNL A   1      41.249  31.092  31.467  1.00  0.00     0.049 A 
ATOM     46  N   UNL A   1      42.617  33.450  30.165  1.00  0.00    -0.248 NA
ATOM     47  C   UNL A   1      40.517  34.420  29.849  1.00  0.00     0.031 C 
ATOM     48  C   UNL A   1      40.637  29.936  32.122  1.00  0.00     0.029 A 
ATOM     49  N   UNL A   1      42.597  30.842  31.537  1.00  0.00    -0.354 N 
ATOM     50  C   UNL A   1      42.767  34.698  29.569  1.00  0.00     0.074 A 
ATOM     51  C   UNL A   1      41.441  35.235  29.363  1.00  0.00     0.031 C 
ATOM     52  C   UNL A   1      41.610  29.093  32.514  1.00  0.00     0.029 A 
ATOM     53  C   UNL A   1      42.909  29.635  32.116  1.00  0.00     0.049 A 
ATOM     54  H   UNL A   1      43.279  31.469  31.202  1.00  0.00     0.167 HD
ATOM     55  C   UNL A   1      43.908  35.347  29.239  1.00  0.00     0.037 A 
ATOM     56  C   UNL A   1      44.102  29.030  32.285  1.00  0.00     0.037 A 
ATOM     57  C   UNL A   1      45.228  34.808  29.441  1.00  0.00     0.049 A 
ATOM     58  C   UNL A   1      45.356  29.742  31.837  1.00  0.00     0.074 A 
ATOM     59  C   UNL A   1      46.448  35.383  29.134  1.00  0.00     0.029 A 
ATOM     60  N   UNL A   1      45.500  33.567  29.997  1.00  0.00    -0.354 N 
ATOM     61  N   UNL A   1      45.484  30.927  31.287  1.00  0.00    -0.248 NA
ATOM     62  C   UNL A   1      46.630  29.038  32.042  1.00  0.00     0.031 C 
ATOM     63  C   UNL A   1      47.456  34.469  29.457  1.00  0.00     0.029 A 
ATOM     64  C   UNL A   1      46.868  33.350  30.024  1.00  0.00     0.049 A 
ATOM     65  H   UNL A   1      44.821  32.934  30.327  1.00  0.00     0.167 HD
ATOM     66  C   UNL A   1      46.851  31.119  31.105  1.00  0.00     0.074 A 
ATOM     67  C   UNL A   1      47.509  29.941  31.630  1.00  0.00     0.031 C 
ATOM     68  C   UNL A   1      47.507  32.170  30.550  1.00  0.00     0.037 A 
BRANCH  55  69
ATOM     69  C   UNL A   1      43.784  36.708  28.612  1.00  0.00     0.058 A 
ATOM     70  C   UNL A   1      43.794  37.880  29.386  1.00  0.00     0.135 A 
ATOM     71  C   UNL A   1      43.713  36.847  27.217  1.00  0.00     0.135 A 
ATOM     72  F   UNL A   1      43.834  37.806  30.726  1.00  0.00    -0.206 F 
ATOM     73  C   UNL A   1      43.733  39.140  28.799  1.00  0.00     0.059 A 
ATOM     74  C   UNL A   1      43.680  38.097  26.606  1.00  0.00     0.059 A 
ATOM     75  F   UNL A   1      43.688  35.760  26.431  1.00  0.00    -0.206 F 
ATOM     76  C   UNL A   1      43.686  39.239  27.407  1.00  0.00     0.060 A 
BRANCH  76  77
ATOM     77  S   UNL A   1      43.653  40.882  26.661  1.00  0.00     0.124 S 
ATOM     78  O   UNL A   1      44.188  41.705  27.741  1.00  0.00    -0.237 OA
ATOM     79  O   UNL A   1      44.523  40.713  25.502  1.00  0.00    -0.237 OA
ATOM     80  O   UNL A   1      42.240  41.091  26.357  1.00  0.00    -0.744 OA
ENDBRANCH  76  77
ENDBRANCH  55  69
BRANCH  56  81
ATOM     81  C   UNL A   1      44.180  27.663  32.872  1.00  0.00     0.058 A 
ATOM     82  C   UNL A   1      44.178  27.458  34.261  1.00  0.00     0.135 A 
ATOM     83  C   UNL A   1      44.302  26.532  32.049  1.00  0.00     0.135 A 
ATOM     84  F   UNL A   1      44.076  28.505  35.093  1.00  0.00    -0.206 F 
ATOM     85  C   UNL A   1      44.325  26.188  34.811  1.00  0.00     0.059 A 
ATOM     86  C   UNL A   1      44.417  25.249  32.575  1.00  0.00     0.059 A 
ATOM     87  F   UNL A   1      44.300  26.667  30.714  1.00  0.00    -0.206 F 
ATOM     88  C   UNL A   1      44.444  25.089  33.959  1.00  0.00     0.060 A 
BRANCH  88  89
ATOM     89  S   UNL A   1      44.606  23.443  34.683  1.00  0.00     0.124 S 
ATOM     90  O   UNL A   1      45.873  23.558  35.395  1.00  0.00    -0.237 OA
ATOM     91  O   UNL A   1      43.410  23.357  35.515  1.00  0.00    -0.237 OA
ATOM     92  O   UNL A   1      44.612  22.564  33.518  1.00  0.00    -0.744 OA
ENDBRANCH  88  89
ENDBRANCH  56  81
BRANCH  68  93
ATOM     93  C   UNL A   1      49.012  32.104  30.512  1.00  0.00     0.058 A 
ATOM     94  C   UNL A   1      49.702  31.526  29.435  1.00  0.00     0.135 A 
ATOM     95  C   UNL A   1      49.775  32.641  31.563  1.00  0.00     0.135 A 
ATOM     96  F   UNL A   1      49.024  30.998  28.403  1.00  0.00    -0.206 F 
ATOM     97  C   UNL A   1      51.091  31.435  29.425  1.00  0.00     0.059 A 
ATOM     98  C   UNL A   1      51.165  32.595  31.557  1.00  0.00     0.059 A 
ATOM     99  F   UNL A   1      49.170  33.223  32.612  1.00  0.00    -0.206 F 
ATOM    100  C   UNL A   1      51.813  31.969  30.493  1.00  0.00     0.060 A 
BRANCH 100 101
ATOM    101  S   UNL A   1      53.613  31.834  30.472  1.00  0.00     0.124 S 
ATOM    102  O   UNL A   1      53.990  32.784  31.514  1.00  0.00    -0.237 OA
ATOM    103  O   UNL A   1      53.824  30.425  30.793  1.00  0.00    -0.237 OA
ATOM    104  O   UNL A   1      53.968  32.223  29.111  1.00  0.00    -0.744 OA
ENDBRANCH 100 101
ENDBRANCH  68  93
ENDBRANCH  42  43
ENDBRANCH  35  37
ENDBRANCH  34  35
ENDBRANCH  33  34
ENDBRANCH  32  33
ENDBRANCH  31  32
ENDBRANCH  30  31
ENDBRANCH  29  30
ENDBRANCH   1  29
TORSDOF 26
ENDMDL
