MODEL 1
REMARK VINA RESULT:      -9.1      0.000      0.000
REMARK SMILES CC[C@H]1CC[C@](O)([C@H](F)C(=O)OCCOCCOCCOCCOC(=O)c2ccc(-c3c4nc(c(-c5c(F)cc(S(=O)(=O)[O-])cc5F)c5ccc([nH]5)c(-c5c(F)cc(S(=O)(=O)[O-])cc5F)c5nc(c(-c6c(F)cc(S(=O)(=O)[O-])cc6F)c6ccc3[nH]6)C=C5)C=C4)cc2)CC1
REMARK SMILES IDX 19 1 18 2 17 3 16 4 15 5 14 6 13 7 12 8 10 9 11 10 8 11 9 12
REMARK SMILES IDX 6 13 3 14 4 15 94 16 5 17 93 18 2 19 1 20 7 21 20 23 21 24
REMARK SMILES IDX 22 25 23 26 24 27 25 28 26 29 27 30 28 31 92 32 29 33 91 34
REMARK SMILES IDX 30 35 31 36 32 37 85 38 33 39 90 40 84 41 86 42 34 43 89 44
REMARK SMILES IDX 83 45 82 46 35 48 69 49 48 50 68 51 49 52 52 53 67 54 87 55
REMARK SMILES IDX 50 56 51 57 66 59 88 60 53 61 36 62 37 63 46 64 38 65 39 66
REMARK SMILES IDX 45 67 47 68 40 69 41 70 42 71 43 72 44 73 70 74 71 75 80 76
REMARK SMILES IDX 72 77 73 78 79 79 81 80 74 81 75 82 76 83 77 84 78 85 54 86
REMARK SMILES IDX 55 87 64 88 56 89 57 90 63 91 65 92 58 93 59 94 60 95 61 96
REMARK SMILES IDX 62 97
REMARK H PARENT 7 22 86 47 52 58
REMARK Flexibility Score: inf
ROOT
ATOM      1  C   UNL A   1      40.113  21.780  26.459  1.00  0.00     0.188 C 
ENDROOT
BRANCH   1   2
ATOM      2  O   UNL A   1      38.723  22.045  26.314  1.00  0.00    -0.377 OA
BRANCH   2   3
ATOM      3  C   UNL A   1      38.053  21.470  25.218  1.00  0.00     0.188 C 
BRANCH   3   4
ATOM      4  C   UNL A   1      36.787  22.237  24.787  1.00  0.00     0.188 C 
BRANCH   4   5
ATOM      5  O   UNL A   1      35.706  21.601  24.124  1.00  0.00    -0.376 OA
BRANCH   5   6
ATOM      6  C   UNL A   1      34.357  21.633  24.578  1.00  0.00     0.202 C 
BRANCH   6   7
ATOM      7  C   UNL A   1      33.116  21.464  23.690  1.00  0.00     0.261 C 
BRANCH   7   8
ATOM      8  O   UNL A   1      32.496  22.674  23.293  1.00  0.00    -0.461 OA
BRANCH   8   9
ATOM      9  C   UNL A   1      33.271  23.563  22.614  1.00  0.00     0.343 C 
ATOM     10  O   UNL A   1      33.523  23.513  21.415  1.00  0.00    -0.249 OA
BRANCH   9  11
ATOM     11  C   UNL A   1      33.578  24.740  23.516  1.00  0.00     0.307 C 
ATOM     12  F   UNL A   1      34.910  24.787  23.839  1.00  0.00    -0.232 F 
BRANCH  11  13
ATOM     13  C   UNL A   1      33.159  26.108  22.956  1.00  0.00     0.107 C 
ATOM     14  C   UNL A   1      31.423  27.450  25.019  1.00  0.00    -0.011 C 
ATOM     15  C   UNL A   1      32.933  27.267  25.218  1.00  0.00     0.006 C 
ATOM     16  C   UNL A   1      30.878  26.308  24.141  1.00  0.00     0.006 C 
ATOM     17  C   UNL A   1      33.669  27.232  23.880  1.00  0.00     0.039 C 
ATOM     18  C   UNL A   1      31.622  26.166  22.804  1.00  0.00     0.039 C 
BRANCH  14  19
ATOM     19  C   UNL A   1      31.133  28.847  24.435  1.00  0.00    -0.000 C 
ATOM     20  C   UNL A   1      31.614  29.979  25.326  1.00  0.00     0.004 C 
ENDBRANCH  14  19
BRANCH  13  21
ATOM     21  O   UNL A   1      33.744  26.317  21.666  1.00  0.00    -0.386 OA
ATOM     22  H   UNL A   1      33.514  25.576  21.083  1.00  0.00     0.211 HD
ENDBRANCH  13  21
ENDBRANCH  11  13
ENDBRANCH   9  11
ENDBRANCH   8   9
ENDBRANCH   7   8
ENDBRANCH   6   7
ENDBRANCH   5   6
ENDBRANCH   4   5
ENDBRANCH   3   4
ENDBRANCH   2   3
ENDBRANCH   1   2
BRANCH   1  23
ATOM     23  C   UNL A   1      40.810  21.995  27.823  1.00  0.00     0.188 C 
BRANCH  23  24
ATOM     24  O   UNL A   1      42.231  22.022  27.778  1.00  0.00    -0.376 OA
BRANCH  24  25
ATOM     25  C   UNL A   1      42.863  21.955  26.509  1.00  0.00     0.202 C 
BRANCH  25  26
ATOM     26  C   UNL A   1      43.602  23.215  26.032  1.00  0.00     0.261 C 
BRANCH  26  27
ATOM     27  O   UNL A   1      43.482  24.371  26.874  1.00  0.00    -0.460 OA
BRANCH  27  28
ATOM     28  C   UNL A   1      43.050  25.515  26.302  1.00  0.00     0.338 C 
ATOM     29  O   UNL A   1      42.946  25.743  25.107  1.00  0.00    -0.246 OA
BRANCH  28  30
ATOM     30  C   UNL A   1      42.531  26.387  27.376  1.00  0.00     0.060 A 
ATOM     31  C   UNL A   1      43.104  27.653  27.560  1.00  0.00     0.016 A 
ATOM     32  C   UNL A   1      41.478  25.960  28.187  1.00  0.00     0.016 A 
ATOM     33  C   UNL A   1      42.644  28.484  28.581  1.00  0.00     0.010 A 
ATOM     34  C   UNL A   1      41.036  26.784  29.225  1.00  0.00     0.010 A 
ATOM     35  C   UNL A   1      41.638  28.036  29.447  1.00  0.00    -0.014 A 
BRANCH  35  36
ATOM     36  C   UNL A   1      41.354  28.780  30.699  1.00  0.00     0.031 A 
ATOM     37  C   UNL A   1      40.201  29.747  30.703  1.00  0.00     0.074 A 
ATOM     38  C   UNL A   1      42.091  28.598  31.810  1.00  0.00     0.049 A 
ATOM     39  N   UNL A   1      39.803  30.564  31.643  1.00  0.00    -0.248 NA
ATOM     40  C   UNL A   1      39.389  29.800  29.476  1.00  0.00     0.031 C 
ATOM     41  C   UNL A   1      43.201  27.657  31.943  1.00  0.00     0.029 A 
ATOM     42  N   UNL A   1      42.019  29.212  33.035  1.00  0.00    -0.354 N 
ATOM     43  C   UNL A   1      38.705  31.234  31.118  1.00  0.00     0.074 A 
ATOM     44  C   UNL A   1      38.515  30.751  29.768  1.00  0.00     0.031 C 
ATOM     45  C   UNL A   1      43.720  27.770  33.179  1.00  0.00     0.029 A 
ATOM     46  C   UNL A   1      43.004  28.816  33.909  1.00  0.00     0.049 A 
ATOM     47  H   UNL A   1      41.327  29.874  33.267  1.00  0.00     0.167 HD
ATOM     48  C   UNL A   1      37.921  32.166  31.712  1.00  0.00     0.037 A 
ATOM     49  C   UNL A   1      43.309  29.269  35.142  1.00  0.00     0.037 A 
ATOM     50  C   UNL A   1      38.118  32.645  33.055  1.00  0.00     0.049 A 
ATOM     51  C   UNL A   1      42.471  30.365  35.755  1.00  0.00     0.074 A 
ATOM     52  C   UNL A   1      37.371  33.576  33.754  1.00  0.00     0.029 A 
ATOM     53  N   UNL A   1      39.144  32.241  33.898  1.00  0.00    -0.354 N 
ATOM     54  N   UNL A   1      41.422  30.979  35.258  1.00  0.00    -0.248 NA
ATOM     55  C   UNL A   1      42.857  30.829  37.094  1.00  0.00     0.031 C 
ATOM     56  C   UNL A   1      37.980  33.780  34.997  1.00  0.00     0.029 A 
ATOM     57  C   UNL A   1      39.066  32.925  35.099  1.00  0.00     0.049 A 
ATOM     58  H   UNL A   1      39.826  31.566  33.676  1.00  0.00     0.167 HD
ATOM     59  C   UNL A   1      41.005  31.877  36.237  1.00  0.00     0.074 A 
ATOM     60  C   UNL A   1      41.908  31.718  37.358  1.00  0.00     0.031 C 
ATOM     61  C   UNL A   1      39.969  32.752  36.212  1.00  0.00     0.037 A 
BRANCH  48  62
ATOM     62  C   UNL A   1      36.798  32.753  30.900  1.00  0.00     0.058 A 
ATOM     63  C   UNL A   1      35.465  32.350  31.074  1.00  0.00     0.135 A 
ATOM     64  C   UNL A   1      37.058  33.760  29.955  1.00  0.00     0.135 A 
ATOM     65  F   UNL A   1      35.160  31.377  31.948  1.00  0.00    -0.206 F 
ATOM     66  C   UNL A   1      34.433  32.905  30.324  1.00  0.00     0.059 A 
ATOM     67  C   UNL A   1      36.039  34.351  29.215  1.00  0.00     0.059 A 
ATOM     68  F   UNL A   1      38.316  34.179  29.743  1.00  0.00    -0.206 F 
ATOM     69  C   UNL A   1      34.730  33.908  29.398  1.00  0.00     0.060 A 
BRANCH  69  70
ATOM     70  S   UNL A   1      33.379  34.625  28.441  1.00  0.00     0.124 S 
ATOM     71  O   UNL A   1      32.481  35.077  29.499  1.00  0.00    -0.237 OA
ATOM     72  O   UNL A   1      34.054  35.678  27.690  1.00  0.00    -0.237 OA
ATOM     73  O   UNL A   1      32.892  33.503  27.643  1.00  0.00    -0.744 OA
ENDBRANCH  69  70
ENDBRANCH  48  62
BRANCH  49  74
ATOM     74  C   UNL A   1      44.474  28.704  35.879  1.00  0.00     0.058 A 
ATOM     75  C   UNL A   1      45.768  29.212  35.691  1.00  0.00     0.135 A 
ATOM     76  C   UNL A   1      44.318  27.636  36.776  1.00  0.00     0.135 A 
ATOM     77  F   UNL A   1      45.975  30.221  34.832  1.00  0.00    -0.206 F 
ATOM     78  C   UNL A   1      46.867  28.674  36.355  1.00  0.00     0.059 A 
ATOM     79  C   UNL A   1      45.396  27.100  37.475  1.00  0.00     0.059 A 
ATOM     80  F   UNL A   1      43.101  27.113  36.995  1.00  0.00    -0.206 F 
ATOM     81  C   UNL A   1      46.669  27.620  37.250  1.00  0.00     0.060 A 
BRANCH  81  82
ATOM     82  S   UNL A   1      48.096  26.963  38.140  1.00  0.00     0.124 S 
ATOM     83  O   UNL A   1      47.764  27.301  39.520  1.00  0.00    -0.237 OA
ATOM     84  O   UNL A   1      48.042  25.545  37.799  1.00  0.00    -0.237 OA
ATOM     85  O   UNL A   1      49.219  27.697  37.564  1.00  0.00    -0.744 OA
ENDBRANCH  81  82
ENDBRANCH  49  74
BRANCH  61  86
ATOM     86  C   UNL A   1      39.721  33.580  37.446  1.00  0.00     0.058 A 
ATOM     87  C   UNL A   1      38.857  33.154  38.467  1.00  0.00     0.135 A 
ATOM     88  C   UNL A   1      40.407  34.792  37.636  1.00  0.00     0.135 A 
ATOM     89  F   UNL A   1      38.174  32.005  38.337  1.00  0.00    -0.206 F 
ATOM     90  C   UNL A   1      38.661  33.911  39.618  1.00  0.00     0.059 A 
ATOM     91  C   UNL A   1      40.251  35.549  38.793  1.00  0.00     0.059 A 
ATOM     92  F   UNL A   1      41.255  35.243  36.698  1.00  0.00    -0.206 F 
ATOM     93  C   UNL A   1      39.365  35.106  39.774  1.00  0.00     0.060 A 
BRANCH  93  94
ATOM     94  S   UNL A   1      39.125  36.062  41.287  1.00  0.00     0.124 S 
ATOM     95  O   UNL A   1      40.367  35.792  42.005  1.00  0.00    -0.237 OA
ATOM     96  O   UNL A   1      38.971  37.420  40.775  1.00  0.00    -0.237 OA
ATOM     97  O   UNL A   1      37.922  35.478  41.873  1.00  0.00    -0.744 OA
ENDBRANCH  93  94
ENDBRANCH  61  86
ENDBRANCH  35  36
ENDBRANCH  28  30
ENDBRANCH  27  28
ENDBRANCH  26  27
ENDBRANCH  25  26
ENDBRANCH  24  25
ENDBRANCH  23  24
ENDBRANCH   1  23
TORSDOF 26
ENDMDL
MODEL 2
REMARK VINA RESULT:      -8.9      6.049     11.922
REMARK SMILES CC[C@H]1CC[C@](O)([C@H](F)C(=O)OCCOCCOCCOCCOC(=O)c2ccc(-c3c4nc(c(-c5c(F)cc(S(=O)(=O)[O-])cc5F)c5ccc([nH]5)c(-c5c(F)cc(S(=O)(=O)[O-])cc5F)c5nc(c(-c6c(F)cc(S(=O)(=O)[O-])cc6F)c6ccc3[nH]6)C=C5)C=C4)cc2)CC1
REMARK SMILES IDX 19 1 18 2 17 3 16 4 15 5 14 6 13 7 12 8 10 9 11 10 8 11 9 12
REMARK SMILES IDX 6 13 3 14 4 15 94 16 5 17 93 18 2 19 1 20 7 21 20 23 21 24
REMARK SMILES IDX 22 25 23 26 24 27 25 28 26 29 27 30 28 31 92 32 29 33 91 34
REMARK SMILES IDX 30 35 31 36 32 37 85 38 33 39 90 40 84 41 86 42 34 43 89 44
REMARK SMILES IDX 83 45 82 46 35 48 69 49 48 50 68 51 49 52 52 53 67 54 87 55
REMARK SMILES IDX 50 56 51 57 66 59 88 60 53 61 36 62 37 63 46 64 38 65 39 66
REMARK SMILES IDX 45 67 47 68 40 69 41 70 42 71 43 72 44 73 70 74 71 75 80 76
REMARK SMILES IDX 72 77 73 78 79 79 81 80 74 81 75 82 76 83 77 84 78 85 54 86
REMARK SMILES IDX 55 87 64 88 56 89 57 90 63 91 65 92 58 93 59 94 60 95 61 96
REMARK SMILES IDX 62 97
REMARK H PARENT 7 22 86 47 52 58
REMARK Flexibility Score: inf
ROOT
ATOM      1  C   UNL A   1      32.000  31.904  26.985  1.00  0.00     0.188 C 
ENDROOT
BRANCH   1   2
ATOM      2  O   UNL A   1      31.651  30.568  26.643  1.00  0.00    -0.377 OA
BRANCH   2   3
ATOM      3  C   UNL A   1      31.407  30.276  25.289  1.00  0.00     0.188 C 
BRANCH   3   4
ATOM      4  C   UNL A   1      31.659  28.803  24.911  1.00  0.00     0.188 C 
BRANCH   4   5
ATOM      5  O   UNL A   1      30.671  28.004  24.280  1.00  0.00    -0.376 OA
BRANCH   5   6
ATOM      6  C   UNL A   1      30.949  27.022  23.288  1.00  0.00     0.202 C 
BRANCH   6   7
ATOM      7  C   UNL A   1      31.252  25.542  23.563  1.00  0.00     0.261 C 
BRANCH   7   8
ATOM      8  O   UNL A   1      30.388  24.919  24.495  1.00  0.00    -0.461 OA
BRANCH   8   9
ATOM      9  C   UNL A   1      30.840  24.816  25.774  1.00  0.00     0.343 C 
ATOM     10  O   UNL A   1      30.164  24.990  26.782  1.00  0.00    -0.249 OA
BRANCH   9  11
ATOM     11  C   UNL A   1      32.238  24.233  25.757  1.00  0.00     0.307 C 
ATOM     12  F   UNL A   1      33.113  25.012  26.471  1.00  0.00    -0.232 F 
BRANCH  11  13
ATOM     13  C   UNL A   1      32.339  22.787  26.267  1.00  0.00     0.107 C 
ATOM     14  C   UNL A   1      33.998  21.232  24.292  1.00  0.00    -0.011 C 
ATOM     15  C   UNL A   1      34.611  22.290  25.219  1.00  0.00     0.006 C 
ATOM     16  C   UNL A   1      32.536  21.605  23.985  1.00  0.00     0.006 C 
ATOM     17  C   UNL A   1      33.816  22.421  26.516  1.00  0.00     0.039 C 
ATOM     18  C   UNL A   1      31.689  21.823  25.249  1.00  0.00     0.039 C 
BRANCH  14  19
ATOM     19  C   UNL A   1      34.142  19.832  24.920  1.00  0.00    -0.000 C 
ATOM     20  C   UNL A   1      33.113  18.839  24.409  1.00  0.00     0.004 C 
ENDBRANCH  14  19
BRANCH  13  21
ATOM     21  O   UNL A   1      31.649  22.651  27.515  1.00  0.00    -0.386 OA
ATOM     22  H   UNL A   1      32.251  22.279  28.178  1.00  0.00     0.211 HD
ENDBRANCH  13  21
ENDBRANCH  11  13
ENDBRANCH   9  11
ENDBRANCH   8   9
ENDBRANCH   7   8
ENDBRANCH   6   7
ENDBRANCH   5   6
ENDBRANCH   4   5
ENDBRANCH   3   4
ENDBRANCH   2   3
ENDBRANCH   1   2
BRANCH   1  23
ATOM     23  C   UNL A   1      33.408  32.225  27.541  1.00  0.00     0.188 C 
BRANCH  23  24
ATOM     24  O   UNL A   1      33.545  33.511  28.131  1.00  0.00    -0.376 OA
BRANCH  24  25
ATOM     25  C   UNL A   1      34.578  33.704  29.084  1.00  0.00     0.202 C 
BRANCH  25  26
ATOM     26  C   UNL A   1      35.116  32.452  29.793  1.00  0.00     0.261 C 
BRANCH  26  27
ATOM     27  O   UNL A   1      36.427  32.568  30.366  1.00  0.00    -0.460 OA
BRANCH  27  28
ATOM     28  C   UNL A   1      36.796  31.636  31.270  1.00  0.00     0.338 C 
ATOM     29  O   UNL A   1      36.186  31.311  32.277  1.00  0.00    -0.246 OA
BRANCH  28  30
ATOM     30  C   UNL A   1      37.973  30.926  30.731  1.00  0.00     0.060 A 
ATOM     31  C   UNL A   1      38.925  30.412  31.622  1.00  0.00     0.016 A 
ATOM     32  C   UNL A   1      38.130  30.760  29.353  1.00  0.00     0.016 A 
ATOM     33  C   UNL A   1      40.055  29.756  31.134  1.00  0.00     0.010 A 
ATOM     34  C   UNL A   1      39.275  30.125  28.866  1.00  0.00     0.010 A 
ATOM     35  C   UNL A   1      40.258  29.650  29.752  1.00  0.00    -0.014 A 
BRANCH  35  36
ATOM     36  C   UNL A   1      41.581  29.225  29.229  1.00  0.00     0.031 A 
ATOM     37  C   UNL A   1      42.664  30.263  29.113  1.00  0.00     0.074 A 
ATOM     38  C   UNL A   1      41.821  27.950  28.875  1.00  0.00     0.049 A 
ATOM     39  N   UNL A   1      43.869  30.156  28.619  1.00  0.00    -0.248 NA
ATOM     40  C   UNL A   1      42.340  31.605  29.624  1.00  0.00     0.031 C 
ATOM     41  C   UNL A   1      40.869  26.847  28.984  1.00  0.00     0.029 A 
ATOM     42  N   UNL A   1      42.944  27.374  28.336  1.00  0.00    -0.354 N 
ATOM     43  C   UNL A   1      44.442  31.416  28.747  1.00  0.00     0.074 A 
ATOM     44  C   UNL A   1      43.444  32.279  29.340  1.00  0.00     0.031 C 
ATOM     45  C   UNL A   1      41.444  25.728  28.510  1.00  0.00     0.029 A 
ATOM     46  C   UNL A   1      42.788  26.044  28.027  1.00  0.00     0.049 A 
ATOM     47  H   UNL A   1      43.784  27.867  28.185  1.00  0.00     0.167 HD
ATOM     48  C   UNL A   1      45.690  31.816  28.407  1.00  0.00     0.037 A 
ATOM     49  C   UNL A   1      43.623  25.190  27.400  1.00  0.00     0.037 A 
ATOM     50  C   UNL A   1      46.677  30.952  27.813  1.00  0.00     0.049 A 
ATOM     51  C   UNL A   1      44.981  25.677  26.956  1.00  0.00     0.074 A 
ATOM     52  C   UNL A   1      47.975  31.255  27.445  1.00  0.00     0.029 A 
ATOM     53  N   UNL A   1      46.471  29.617  27.489  1.00  0.00    -0.354 N 
ATOM     54  N   UNL A   1      45.520  26.865  27.100  1.00  0.00    -0.248 NA
ATOM     55  C   UNL A   1      45.843  24.708  26.265  1.00  0.00     0.031 C 
ATOM     56  C   UNL A   1      48.534  30.123  26.842  1.00  0.00     0.029 A 
ATOM     57  C   UNL A   1      47.608  29.093  26.898  1.00  0.00     0.049 A 
ATOM     58  H   UNL A   1      45.639  29.118  27.656  1.00  0.00     0.167 HD
ATOM     59  C   UNL A   1      46.795  26.776  26.547  1.00  0.00     0.074 A 
ATOM     60  C   UNL A   1      46.950  25.416  26.077  1.00  0.00     0.031 C 
ATOM     61  C   UNL A   1      47.752  27.733  26.440  1.00  0.00     0.037 A 
BRANCH  48  62
ATOM     62  C   UNL A   1      46.048  33.259  28.636  1.00  0.00     0.058 A 
ATOM     63  C   UNL A   1      45.953  34.221  27.618  1.00  0.00     0.135 A 
ATOM     64  C   UNL A   1      46.465  33.692  29.907  1.00  0.00     0.135 A 
ATOM     65  F   UNL A   1      45.581  33.860  26.379  1.00  0.00    -0.206 F 
ATOM     66  C   UNL A   1      46.280  35.554  27.843  1.00  0.00     0.059 A 
ATOM     67  C   UNL A   1      46.767  35.026  30.163  1.00  0.00     0.059 A 
ATOM     68  F   UNL A   1      46.580  32.814  30.916  1.00  0.00    -0.206 F 
ATOM     69  C   UNL A   1      46.684  35.948  29.121  1.00  0.00     0.060 A 
BRANCH  69  70
ATOM     70  S   UNL A   1      47.093  37.683  29.398  1.00  0.00     0.124 S 
ATOM     71  O   UNL A   1      45.893  38.348  28.902  1.00  0.00    -0.237 OA
ATOM     72  O   UNL A   1      47.290  37.728  30.843  1.00  0.00    -0.237 OA
ATOM     73  O   UNL A   1      48.297  37.882  28.597  1.00  0.00    -0.744 OA
ENDBRANCH  69  70
ENDBRANCH  48  62
BRANCH  49  74
ATOM     74  C   UNL A   1      43.196  23.788  27.133  1.00  0.00     0.058 A 
ATOM     75  C   UNL A   1      42.675  23.412  25.885  1.00  0.00     0.135 A 
ATOM     76  C   UNL A   1      43.289  22.799  28.124  1.00  0.00     0.135 A 
ATOM     77  F   UNL A   1      42.549  24.323  24.909  1.00  0.00    -0.206 F 
ATOM     78  C   UNL A   1      42.249  22.111  25.634  1.00  0.00     0.059 A 
ATOM     79  C   UNL A   1      42.898  21.483  27.888  1.00  0.00     0.059 A 
ATOM     80  F   UNL A   1      43.782  23.103  29.335  1.00  0.00    -0.206 F 
ATOM     81  C   UNL A   1      42.370  21.151  26.643  1.00  0.00     0.060 A 
BRANCH  81  82
ATOM     82  S   UNL A   1      41.858  19.457  26.288  1.00  0.00     0.124 S 
ATOM     83  O   UNL A   1      40.423  19.617  26.085  1.00  0.00    -0.237 OA
ATOM     84  O   UNL A   1      42.640  19.145  25.096  1.00  0.00    -0.237 OA
ATOM     85  O   UNL A   1      42.247  18.729  27.492  1.00  0.00    -0.744 OA
ENDBRANCH  81  82
ENDBRANCH  49  74
BRANCH  61  86
ATOM     86  C   UNL A   1      49.071  27.338  25.830  1.00  0.00     0.058 A 
ATOM     87  C   UNL A   1      49.283  27.349  24.442  1.00  0.00     0.135 A 
ATOM     88  C   UNL A   1      50.160  27.001  26.653  1.00  0.00     0.135 A 
ATOM     89  F   UNL A   1      48.277  27.660  23.609  1.00  0.00    -0.206 F 
ATOM     90  C   UNL A   1      50.515  27.014  23.891  1.00  0.00     0.059 A 
ATOM     91  C   UNL A   1      51.411  26.695  26.125  1.00  0.00     0.059 A 
ATOM     92  F   UNL A   1      50.020  26.986  27.988  1.00  0.00    -0.206 F 
ATOM     93  C   UNL A   1      51.575  26.691  24.740  1.00  0.00     0.060 A 
BRANCH  93  94
ATOM     94  S   UNL A   1      53.178  26.291  24.013  1.00  0.00     0.124 S 
ATOM     95  O   UNL A   1      52.888  26.391  22.586  1.00  0.00    -0.237 OA
ATOM     96  O   UNL A   1      54.038  27.337  24.559  1.00  0.00    -0.237 OA
ATOM     97  O   UNL A   1      53.451  24.944  24.505  1.00  0.00    -0.744 OA
ENDBRANCH  93  94
ENDBRANCH  61  86
ENDBRANCH  35  36
ENDBRANCH  28  30
ENDBRANCH  27  28
ENDBRANCH  26  27
ENDBRANCH  25  26
ENDBRANCH  24  25
ENDBRANCH  23  24
ENDBRANCH   1  23
TORSDOF 26
ENDMDL
MODEL 3
REMARK VINA RESULT:      -8.7      2.919      8.966
REMARK SMILES CC[C@H]1CC[C@](O)([C@H](F)C(=O)OCCOCCOCCOCCOC(=O)c2ccc(-c3c4nc(c(-c5c(F)cc(S(=O)(=O)[O-])cc5F)c5ccc([nH]5)c(-c5c(F)cc(S(=O)(=O)[O-])cc5F)c5nc(c(-c6c(F)cc(S(=O)(=O)[O-])cc6F)c6ccc3[nH]6)C=C5)C=C4)cc2)CC1
REMARK SMILES IDX 19 1 18 2 17 3 16 4 15 5 14 6 13 7 12 8 10 9 11 10 8 11 9 12
REMARK SMILES IDX 6 13 3 14 4 15 94 16 5 17 93 18 2 19 1 20 7 21 20 23 21 24
REMARK SMILES IDX 22 25 23 26 24 27 25 28 26 29 27 30 28 31 92 32 29 33 91 34
REMARK SMILES IDX 30 35 31 36 32 37 85 38 33 39 90 40 84 41 86 42 34 43 89 44
REMARK SMILES IDX 83 45 82 46 35 48 69 49 48 50 68 51 49 52 52 53 67 54 87 55
REMARK SMILES IDX 50 56 51 57 66 59 88 60 53 61 36 62 37 63 46 64 38 65 39 66
REMARK SMILES IDX 45 67 47 68 40 69 41 70 42 71 43 72 44 73 70 74 71 75 80 76
REMARK SMILES IDX 72 77 73 78 79 79 81 80 74 81 75 82 76 83 77 84 78 85 54 86
REMARK SMILES IDX 55 87 64 88 56 89 57 90 63 91 65 92 58 93 59 94 60 95 61 96
REMARK SMILES IDX 62 97
REMARK H PARENT 7 22 86 47 52 58
REMARK Flexibility Score: inf
ROOT
ATOM      1  C   UNL A   1      40.448  20.043  26.597  1.00  0.00     0.188 C 
ENDROOT
BRANCH   1   2
ATOM      2  O   UNL A   1      39.946  21.244  27.170  1.00  0.00    -0.377 OA
BRANCH   2   3
ATOM      3  C   UNL A   1      39.634  22.308  26.305  1.00  0.00     0.188 C 
BRANCH   3   4
ATOM      4  C   UNL A   1      38.198  22.261  25.746  1.00  0.00     0.188 C 
BRANCH   4   5
ATOM      5  O   UNL A   1      37.794  21.307  24.777  1.00  0.00    -0.376 OA
BRANCH   5   6
ATOM      6  C   UNL A   1      36.687  20.427  24.933  1.00  0.00     0.202 C 
BRANCH   6   7
ATOM      7  C   UNL A   1      35.281  20.840  25.393  1.00  0.00     0.261 C 
BRANCH   7   8
ATOM      8  O   UNL A   1      34.492  21.477  24.404  1.00  0.00    -0.461 OA
BRANCH   8   9
ATOM      9  C   UNL A   1      33.143  21.412  24.565  1.00  0.00     0.343 C 
ATOM     10  O   UNL A   1      32.536  20.495  25.106  1.00  0.00    -0.249 OA
BRANCH   9  11
ATOM     11  C   UNL A   1      32.535  22.746  24.181  1.00  0.00     0.307 C 
ATOM     12  F   UNL A   1      31.798  22.645  23.029  1.00  0.00    -0.232 F 
BRANCH  11  13
ATOM     13  C   UNL A   1      31.663  23.394  25.267  1.00  0.00     0.107 C 
ATOM     14  C   UNL A   1      32.482  26.283  25.497  1.00  0.00    -0.011 C 
ATOM     15  C   UNL A   1      31.713  25.747  24.283  1.00  0.00     0.006 C 
ATOM     16  C   UNL A   1      33.352  25.159  26.090  1.00  0.00     0.006 C 
ATOM     17  C   UNL A   1      30.843  24.550  24.661  1.00  0.00     0.039 C 
ATOM     18  C   UNL A   1      32.553  23.891  26.429  1.00  0.00     0.039 C 
BRANCH  14  19
ATOM     19  C   UNL A   1      31.501  26.886  26.521  1.00  0.00    -0.000 C 
ATOM     20  C   UNL A   1      31.822  28.326  26.881  1.00  0.00     0.004 C 
ENDBRANCH  14  19
BRANCH  13  21
ATOM     21  O   UNL A   1      30.734  22.439  25.792  1.00  0.00    -0.386 OA
ATOM     22  H   UNL A   1      30.954  22.250  26.718  1.00  0.00     0.211 HD
ENDBRANCH  13  21
ENDBRANCH  11  13
ENDBRANCH   9  11
ENDBRANCH   8   9
ENDBRANCH   7   8
ENDBRANCH   6   7
ENDBRANCH   5   6
ENDBRANCH   4   5
ENDBRANCH   3   4
ENDBRANCH   2   3
ENDBRANCH   1   2
BRANCH   1  23
ATOM     23  C   UNL A   1      41.972  19.788  26.528  1.00  0.00     0.188 C 
BRANCH  23  24
ATOM     24  O   UNL A   1      42.419  19.109  25.362  1.00  0.00    -0.376 OA
BRANCH  24  25
ATOM     25  C   UNL A   1      43.812  19.069  25.101  1.00  0.00     0.202 C 
BRANCH  25  26
ATOM     26  C   UNL A   1      44.434  20.308  24.437  1.00  0.00     0.261 C 
BRANCH  26  27
ATOM     27  O   UNL A   1      43.716  21.539  24.608  1.00  0.00    -0.460 OA
BRANCH  27  28
ATOM     28  C   UNL A   1      44.372  22.685  24.325  1.00  0.00     0.338 C 
ATOM     29  O   UNL A   1      45.026  22.926  23.322  1.00  0.00    -0.246 OA
BRANCH  28  30
ATOM     30  C   UNL A   1      43.999  23.681  25.350  1.00  0.00     0.060 A 
ATOM     31  C   UNL A   1      44.378  25.018  25.168  1.00  0.00     0.016 A 
ATOM     32  C   UNL A   1      43.271  23.298  26.477  1.00  0.00     0.016 A 
ATOM     33  C   UNL A   1      44.055  25.972  26.133  1.00  0.00     0.010 A 
ATOM     34  C   UNL A   1      42.970  24.250  27.454  1.00  0.00     0.010 A 
ATOM     35  C   UNL A   1      43.389  25.584  27.303  1.00  0.00    -0.014 A 
BRANCH  35  36
ATOM     36  C   UNL A   1      43.306  26.520  28.452  1.00  0.00     0.031 A 
ATOM     37  C   UNL A   1      44.412  26.491  29.472  1.00  0.00     0.074 A 
ATOM     38  C   UNL A   1      42.282  27.382  28.584  1.00  0.00     0.049 A 
ATOM     39  N   UNL A   1      44.527  27.151  30.593  1.00  0.00    -0.248 NA
ATOM     40  C   UNL A   1      45.540  25.589  29.186  1.00  0.00     0.031 C 
ATOM     41  C   UNL A   1      41.178  27.537  27.640  1.00  0.00     0.029 A 
ATOM     42  N   UNL A   1      42.002  28.283  29.581  1.00  0.00    -0.354 N 
ATOM     43  C   UNL A   1      45.731  26.739  31.152  1.00  0.00     0.074 A 
ATOM     44  C   UNL A   1      46.297  25.749  30.261  1.00  0.00     0.031 C 
ATOM     45  C   UNL A   1      40.328  28.466  28.113  1.00  0.00     0.029 A 
ATOM     46  C   UNL A   1      40.808  28.942  29.410  1.00  0.00     0.049 A 
ATOM     47  H   UNL A   1      42.601  28.442  30.348  1.00  0.00     0.167 HD
ATOM     48  C   UNL A   1      46.314  27.151  32.302  1.00  0.00     0.037 A 
ATOM     49  C   UNL A   1      40.165  29.806  30.222  1.00  0.00     0.037 A 
ATOM     50  C   UNL A   1      45.743  28.133  33.186  1.00  0.00     0.049 A 
ATOM     51  C   UNL A   1      40.795  30.193  31.537  1.00  0.00     0.074 A 
ATOM     52  C   UNL A   1      46.261  28.632  34.368  1.00  0.00     0.029 A 
ATOM     53  N   UNL A   1      44.518  28.758  32.992  1.00  0.00    -0.354 N 
ATOM     54  N   UNL A   1      41.944  29.812  32.047  1.00  0.00    -0.248 NA
ATOM     55  C   UNL A   1      40.044  31.126  32.388  1.00  0.00     0.031 C 
ATOM     56  C   UNL A   1      45.323  29.510  34.919  1.00  0.00     0.029 A 
ATOM     57  C   UNL A   1      44.251  29.613  34.047  1.00  0.00     0.049 A 
ATOM     58  H   UNL A   1      43.927  28.614  32.218  1.00  0.00     0.167 HD
ATOM     59  C   UNL A   1      42.066  30.484  33.260  1.00  0.00     0.074 A 
ATOM     60  C   UNL A   1      40.880  31.303  33.402  1.00  0.00     0.031 C 
ATOM     61  C   UNL A   1      43.068  30.430  34.173  1.00  0.00     0.037 A 
BRANCH  48  62
ATOM     62  C   UNL A   1      47.624  26.518  32.688  1.00  0.00     0.058 A 
ATOM     63  C   UNL A   1      48.858  27.076  32.319  1.00  0.00     0.135 A 
ATOM     64  C   UNL A   1      47.642  25.348  33.466  1.00  0.00     0.135 A 
ATOM     65  F   UNL A   1      48.900  28.181  31.557  1.00  0.00    -0.206 F 
ATOM     66  C   UNL A   1      50.062  26.486  32.687  1.00  0.00     0.059 A 
ATOM     67  C   UNL A   1      48.835  24.758  33.872  1.00  0.00     0.059 A 
ATOM     68  F   UNL A   1      46.491  24.768  33.842  1.00  0.00    -0.206 F 
ATOM     69  C   UNL A   1      50.040  25.327  33.467  1.00  0.00     0.060 A 
BRANCH  69  70
ATOM     70  S   UNL A   1      51.612  24.580  33.945  1.00  0.00     0.124 S 
ATOM     71  O   UNL A   1      51.215  23.779  35.098  1.00  0.00    -0.237 OA
ATOM     72  O   UNL A   1      51.976  23.830  32.748  1.00  0.00    -0.237 OA
ATOM     73  O   UNL A   1      52.460  25.731  34.242  1.00  0.00    -0.744 OA
ENDBRANCH  69  70
ENDBRANCH  48  62
BRANCH  49  74
ATOM     74  C   UNL A   1      38.837  30.354  29.827  1.00  0.00     0.058 A 
ATOM     75  C   UNL A   1      38.688  31.696  29.446  1.00  0.00     0.135 A 
ATOM     76  C   UNL A   1      37.688  29.547  29.834  1.00  0.00     0.135 A 
ATOM     77  F   UNL A   1      39.751  32.513  29.440  1.00  0.00    -0.206 F 
ATOM     78  C   UNL A   1      37.447  32.223  29.100  1.00  0.00     0.059 A 
ATOM     79  C   UNL A   1      36.441  30.043  29.463  1.00  0.00     0.059 A 
ATOM     80  F   UNL A   1      37.774  28.255  30.186  1.00  0.00    -0.206 F 
ATOM     81  C   UNL A   1      36.329  31.386  29.107  1.00  0.00     0.060 A 
BRANCH  81  82
ATOM     82  S   UNL A   1      34.734  32.070  28.610  1.00  0.00     0.124 S 
ATOM     83  O   UNL A   1      34.209  32.551  29.883  1.00  0.00    -0.237 OA
ATOM     84  O   UNL A   1      35.128  33.099  27.652  1.00  0.00    -0.237 OA
ATOM     85  O   UNL A   1      34.040  30.922  28.035  1.00  0.00    -0.744 OA
ENDBRANCH  81  82
ENDBRANCH  49  74
BRANCH  61  86
ATOM     86  C   UNL A   1      42.955  31.311  35.391  1.00  0.00     0.058 A 
ATOM     87  C   UNL A   1      42.408  30.847  36.597  1.00  0.00     0.135 A 
ATOM     88  C   UNL A   1      43.458  32.623  35.365  1.00  0.00     0.135 A 
ATOM     89  F   UNL A   1      41.910  29.602  36.678  1.00  0.00    -0.206 F 
ATOM     90  C   UNL A   1      42.339  31.659  37.724  1.00  0.00     0.059 A 
ATOM     91  C   UNL A   1      43.429  33.442  36.490  1.00  0.00     0.059 A 
ATOM     92  F   UNL A   1      44.004  33.117  34.242  1.00  0.00    -0.206 F 
ATOM     93  C   UNL A   1      42.854  32.954  37.663  1.00  0.00     0.060 A 
BRANCH  93  94
ATOM     94  S   UNL A   1      42.787  33.985  39.143  1.00  0.00     0.124 S 
ATOM     95  O   UNL A   1      44.201  34.102  39.485  1.00  0.00    -0.237 OA
ATOM     96  O   UNL A   1      42.153  35.202  38.646  1.00  0.00    -0.237 OA
ATOM     97  O   UNL A   1      41.980  33.199  40.072  1.00  0.00    -0.744 OA
ENDBRANCH  93  94
ENDBRANCH  61  86
ENDBRANCH  35  36
ENDBRANCH  28  30
ENDBRANCH  27  28
ENDBRANCH  26  27
ENDBRANCH  25  26
ENDBRANCH  24  25
ENDBRANCH  23  24
ENDBRANCH   1  23
TORSDOF 26
ENDMDL
