MODEL 1
REMARK VINA RESULT:      -7.6      0.000      0.000
REMARK SMILES CCCN1C(=O)CO[C@H](C(=O)OCCOCCOCCOCCOC(=O)c2ccc(-c3c4nc(c(-c5c(F)cc(S(=O)(=O)[O-])cc5F)c5ccc([nH]5)c(-c5c(F)cc(S(=O)(=O)[O-])cc5F)c5nc(c(-c6c(F)cc(S(=O)(=O)[O-])cc6F)c6ccc3[nH]6)C=C5)C=C4)cc2)[C@@H]1c1cncn1C1CC1
REMARK SMILES IDX 19 1 18 2 17 3 16 4 15 5 14 6 13 7 12 8 10 9 11 10 9 11 4 12
REMARK SMILES IDX 5 13 93 14 6 15 7 16 8 17 3 18 2 19 1 20 94 21 95 22 98 23
REMARK SMILES IDX 96 24 97 25 99 26 100 27 101 28 20 29 21 30 22 31 23 32
REMARK SMILES IDX 24 33 25 34 26 35 27 36 28 37 92 38 29 39 91 40 30 41 31 42
REMARK SMILES IDX 32 43 85 44 33 45 90 46 84 47 86 48 34 49 89 50 83 51 82 52
REMARK SMILES IDX 35 54 69 55 48 56 68 57 49 58 52 59 67 60 87 61 50 62 51 63
REMARK SMILES IDX 66 65 88 66 53 67 36 68 37 69 46 70 38 71 39 72 45 73 47 74
REMARK SMILES IDX 40 75 41 76 42 77 43 78 44 79 70 80 71 81 80 82 72 83 73 84
REMARK SMILES IDX 79 85 81 86 74 87 75 88 76 89 77 90 78 91 54 92 55 93 64 94
REMARK SMILES IDX 56 95 57 96 63 97 65 98 58 99 59 100 60 101 61 102 62 103
REMARK H PARENT 86 53 52 64
REMARK Flexibility Score: inf
ROOT
ATOM      1  C   UNL A   1      37.434  29.873  27.880  1.00  0.00     0.188 C 
ENDROOT
BRANCH   1   2
ATOM      2  O   UNL A   1      36.021  29.764  27.984  1.00  0.00    -0.377 OA
BRANCH   2   3
ATOM      3  C   UNL A   1      35.329  30.909  28.427  1.00  0.00     0.188 C 
BRANCH   3   4
ATOM      4  C   UNL A   1      33.943  31.095  27.787  1.00  0.00     0.188 C 
BRANCH   4   5
ATOM      5  O   UNL A   1      33.573  30.439  26.580  1.00  0.00    -0.376 OA
BRANCH   5   6
ATOM      6  C   UNL A   1      32.285  29.867  26.386  1.00  0.00     0.202 C 
BRANCH   6   7
ATOM      7  C   UNL A   1      31.740  28.731  27.260  1.00  0.00     0.261 C 
BRANCH   7   8
ATOM      8  O   UNL A   1      31.898  27.428  26.705  1.00  0.00    -0.461 OA
BRANCH   8   9
ATOM      9  C   UNL A   1      33.102  27.155  26.166  1.00  0.00     0.337 C 
ATOM     10  O   UNL A   1      34.183  27.279  26.734  1.00  0.00    -0.249 OA
BRANCH   9  11
ATOM     11  C   UNL A   1      32.992  26.636  24.735  1.00  0.00     0.257 C 
ATOM     12  N   UNL A   1      32.100  24.772  23.371  1.00  0.00    -0.329 N 
ATOM     13  C   UNL A   1      32.338  25.677  22.323  1.00  0.00     0.249 C 
ATOM     14  C   UNL A   1      32.537  25.166  24.721  1.00  0.00     0.174 C 
ATOM     15  O   UNL A   1      31.649  25.787  21.312  1.00  0.00    -0.272 OA
ATOM     16  C   UNL A   1      33.574  26.585  22.501  1.00  0.00     0.261 C 
ATOM     17  O   UNL A   1      34.073  26.727  23.821  1.00  0.00    -0.354 OA
BRANCH  12  18
ATOM     18  C   UNL A   1      31.105  23.699  23.295  1.00  0.00     0.120 C 
BRANCH  18  19
ATOM     19  C   UNL A   1      31.507  22.318  22.764  1.00  0.00     0.018 C 
ATOM     20  C   UNL A   1      32.238  21.402  23.736  1.00  0.00     0.006 C 
ENDBRANCH  18  19
ENDBRANCH  12  18
BRANCH  14  21
ATOM     21  C   UNL A   1      33.498  24.263  25.467  1.00  0.00     0.064 A 
ATOM     22  C   UNL A   1      33.143  23.671  26.686  1.00  0.00     0.136 A 
ATOM     23  N   UNL A   1      34.821  23.871  25.328  1.00  0.00    -0.330 N 
ATOM     24  N   UNL A   1      34.185  23.081  27.319  1.00  0.00    -0.245 NA
ATOM     25  C   UNL A   1      35.186  23.233  26.493  1.00  0.00     0.199 A 
BRANCH  23  26
ATOM     26  C   UNL A   1      35.799  23.878  24.261  1.00  0.00     0.088 C 
ATOM     27  C   UNL A   1      36.901  22.910  23.977  1.00  0.00     0.027 C 
ATOM     28  C   UNL A   1      35.732  22.978  23.051  1.00  0.00     0.027 C 
ENDBRANCH  23  26
ENDBRANCH  14  21
ENDBRANCH   9  11
ENDBRANCH   8   9
ENDBRANCH   7   8
ENDBRANCH   6   7
ENDBRANCH   5   6
ENDBRANCH   4   5
ENDBRANCH   3   4
ENDBRANCH   2   3
ENDBRANCH   1   2
BRANCH   1  29
ATOM     29  C   UNL A   1      38.302  29.077  28.881  1.00  0.00     0.188 C 
BRANCH  29  30
ATOM     30  O   UNL A   1      37.578  28.448  29.931  1.00  0.00    -0.376 OA
BRANCH  30  31
ATOM     31  C   UNL A   1      37.896  28.775  31.274  1.00  0.00     0.202 C 
BRANCH  31  32
ATOM     32  C   UNL A   1      37.104  29.900  31.965  1.00  0.00     0.261 C 
BRANCH  32  33
ATOM     33  O   UNL A   1      37.817  30.699  32.921  1.00  0.00    -0.460 OA
BRANCH  33  34
ATOM     34  C   UNL A   1      38.261  31.909  32.525  1.00  0.00     0.338 C 
ATOM     35  O   UNL A   1      37.732  32.989  32.741  1.00  0.00    -0.246 OA
BRANCH  34  36
ATOM     36  C   UNL A   1      39.614  31.732  31.959  1.00  0.00     0.060 A 
ATOM     37  C   UNL A   1      39.869  32.178  30.655  1.00  0.00     0.016 A 
ATOM     38  C   UNL A   1      40.626  31.130  32.710  1.00  0.00     0.016 A 
ATOM     39  C   UNL A   1      41.125  31.984  30.082  1.00  0.00     0.010 A 
ATOM     40  C   UNL A   1      41.876  30.914  32.127  1.00  0.00     0.010 A 
ATOM     41  C   UNL A   1      42.117  31.303  30.797  1.00  0.00    -0.014 A 
BRANCH  41  42
ATOM     42  C   UNL A   1      43.319  30.803  30.085  1.00  0.00     0.031 A 
ATOM     43  C   UNL A   1      43.263  29.424  29.485  1.00  0.00     0.074 A 
ATOM     44  C   UNL A   1      44.424  31.556  29.953  1.00  0.00     0.049 A 
ATOM     45  N   UNL A   1      44.197  28.742  28.876  1.00  0.00    -0.248 NA
ATOM     46  C   UNL A   1      41.975  28.719  29.593  1.00  0.00     0.031 C 
ATOM     47  C   UNL A   1      44.583  32.920  30.454  1.00  0.00     0.029 A 
ATOM     48  N   UNL A   1      45.631  31.268  29.366  1.00  0.00    -0.354 N 
ATOM     49  C   UNL A   1      43.613  27.528  28.533  1.00  0.00     0.074 A 
ATOM     50  C   UNL A   1      42.259  27.550  29.039  1.00  0.00     0.031 C 
ATOM     51  C   UNL A   1      45.829  33.342  30.176  1.00  0.00     0.029 A 
ATOM     52  C   UNL A   1      46.564  32.267  29.510  1.00  0.00     0.049 A 
ATOM     53  H   UNL A   1      45.812  30.426  28.889  1.00  0.00     0.167 HD
ATOM     54  C   UNL A   1      44.155  26.492  27.849  1.00  0.00     0.037 A 
ATOM     55  C   UNL A   1      47.870  32.295  29.173  1.00  0.00     0.037 A 
ATOM     56  C   UNL A   1      45.508  26.473  27.362  1.00  0.00     0.049 A 
ATOM     57  C   UNL A   1      48.478  31.102  28.480  1.00  0.00     0.074 A 
ATOM     58  C   UNL A   1      46.156  25.474  26.656  1.00  0.00     0.029 A 
ATOM     59  N   UNL A   1      46.430  27.496  27.542  1.00  0.00    -0.354 N 
ATOM     60  N   UNL A   1      47.915  29.964  28.145  1.00  0.00    -0.248 NA
ATOM     61  C   UNL A   1      49.898  31.197  28.112  1.00  0.00     0.031 C 
ATOM     62  C   UNL A   1      47.485  25.869  26.462  1.00  0.00     0.029 A 
ATOM     63  C   UNL A   1      47.647  27.142  26.986  1.00  0.00     0.049 A 
ATOM     64  H   UNL A   1      46.245  28.348  27.999  1.00  0.00     0.167 HD
ATOM     65  C   UNL A   1      48.903  29.220  27.505  1.00  0.00     0.074 A 
ATOM     66  C   UNL A   1      50.095  30.042  27.489  1.00  0.00     0.031 C 
ATOM     67  C   UNL A   1      48.829  27.973  26.976  1.00  0.00     0.037 A 
BRANCH  54  68
ATOM     68  C   UNL A   1      43.284  25.285  27.621  1.00  0.00     0.058 A 
ATOM     69  C   UNL A   1      43.109  24.298  28.606  1.00  0.00     0.135 A 
ATOM     70  C   UNL A   1      42.615  25.110  26.399  1.00  0.00     0.135 A 
ATOM     71  F   UNL A   1      43.739  24.403  29.788  1.00  0.00    -0.206 F 
ATOM     72  C   UNL A   1      42.338  23.164  28.374  1.00  0.00     0.059 A 
ATOM     73  C   UNL A   1      41.811  24.000  26.155  1.00  0.00     0.059 A 
ATOM     74  F   UNL A   1      42.747  26.018  25.419  1.00  0.00    -0.206 F 
ATOM     75  C   UNL A   1      41.695  23.022  27.143  1.00  0.00     0.060 A 
BRANCH  75  76
ATOM     76  S   UNL A   1      40.715  21.535  26.849  1.00  0.00     0.124 S 
ATOM     77  O   UNL A   1      39.416  22.108  26.507  1.00  0.00    -0.237 OA
ATOM     78  O   UNL A   1      41.436  20.899  25.752  1.00  0.00    -0.237 OA
ATOM     79  O   UNL A   1      40.772  20.831  28.126  1.00  0.00    -0.744 OA
ENDBRANCH  75  76
ENDBRANCH  54  68
BRANCH  55  80
ATOM     80  C   UNL A   1      48.691  33.488  29.512  1.00  0.00     0.058 A 
ATOM     81  C   UNL A   1      48.729  34.613  28.678  1.00  0.00     0.135 A 
ATOM     82  C   UNL A   1      49.445  33.530  30.697  1.00  0.00     0.135 A 
ATOM     83  F   UNL A   1      48.039  34.619  27.526  1.00  0.00    -0.206 F 
ATOM     84  C   UNL A   1      49.486  35.737  29.000  1.00  0.00     0.059 A 
ATOM     85  C   UNL A   1      50.187  34.650  31.055  1.00  0.00     0.059 A 
ATOM     86  F   UNL A   1      49.439  32.481  31.536  1.00  0.00    -0.206 F 
ATOM     87  C   UNL A   1      50.206  35.748  30.196  1.00  0.00     0.060 A 
BRANCH  87  88
ATOM     88  S   UNL A   1      51.135  37.232  30.636  1.00  0.00     0.124 S 
ATOM     89  O   UNL A   1      50.212  37.897  31.550  1.00  0.00    -0.237 OA
ATOM     90  O   UNL A   1      52.338  36.672  31.241  1.00  0.00    -0.237 OA
ATOM     91  O   UNL A   1      51.336  37.896  29.351  1.00  0.00    -0.744 OA
ENDBRANCH  87  88
ENDBRANCH  55  80
BRANCH  67  92
ATOM     92  C   UNL A   1      50.058  27.426  26.297  1.00  0.00     0.058 A 
ATOM     93  C   UNL A   1      50.270  27.568  24.917  1.00  0.00     0.135 A 
ATOM     94  C   UNL A   1      51.067  26.804  27.052  1.00  0.00     0.135 A 
ATOM     95  F   UNL A   1      49.338  28.149  24.145  1.00  0.00    -0.206 F 
ATOM     96  C   UNL A   1      51.426  27.090  24.305  1.00  0.00     0.059 A 
ATOM     97  C   UNL A   1      52.245  26.349  26.467  1.00  0.00     0.059 A 
ATOM     98  F   UNL A   1      50.924  26.653  28.378  1.00  0.00    -0.206 F 
ATOM     99  C   UNL A   1      52.411  26.486  25.090  1.00  0.00     0.060 A 
BRANCH  99 100
ATOM    100  S   UNL A   1      53.920  25.903  24.288  1.00  0.00     0.124 S 
ATOM    101  O   UNL A   1      54.200  24.684  25.040  1.00  0.00    -0.237 OA
ATOM    102  O   UNL A   1      53.485  25.712  22.909  1.00  0.00    -0.237 OA
ATOM    103  O   UNL A   1      54.862  26.998  24.497  1.00  0.00    -0.744 OA
ENDBRANCH  99 100
ENDBRANCH  67  92
ENDBRANCH  41  42
ENDBRANCH  34  36
ENDBRANCH  33  34
ENDBRANCH  32  33
ENDBRANCH  31  32
ENDBRANCH  30  31
ENDBRANCH  29  30
ENDBRANCH   1  29
TORSDOF 27
ENDMDL
MODEL 2
REMARK VINA RESULT:      -7.3      4.276      6.434
REMARK SMILES CCCN1C(=O)CO[C@H](C(=O)OCCOCCOCCOCCOC(=O)c2ccc(-c3c4nc(c(-c5c(F)cc(S(=O)(=O)[O-])cc5F)c5ccc([nH]5)c(-c5c(F)cc(S(=O)(=O)[O-])cc5F)c5nc(c(-c6c(F)cc(S(=O)(=O)[O-])cc6F)c6ccc3[nH]6)C=C5)C=C4)cc2)[C@@H]1c1cncn1C1CC1
REMARK SMILES IDX 19 1 18 2 17 3 16 4 15 5 14 6 13 7 12 8 10 9 11 10 9 11 4 12
REMARK SMILES IDX 5 13 93 14 6 15 7 16 8 17 3 18 2 19 1 20 94 21 95 22 98 23
REMARK SMILES IDX 96 24 97 25 99 26 100 27 101 28 20 29 21 30 22 31 23 32
REMARK SMILES IDX 24 33 25 34 26 35 27 36 28 37 92 38 29 39 91 40 30 41 31 42
REMARK SMILES IDX 32 43 85 44 33 45 90 46 84 47 86 48 34 49 89 50 83 51 82 52
REMARK SMILES IDX 35 54 69 55 48 56 68 57 49 58 52 59 67 60 87 61 50 62 51 63
REMARK SMILES IDX 66 65 88 66 53 67 36 68 37 69 46 70 38 71 39 72 45 73 47 74
REMARK SMILES IDX 40 75 41 76 42 77 43 78 44 79 70 80 71 81 80 82 72 83 73 84
REMARK SMILES IDX 79 85 81 86 74 87 75 88 76 89 77 90 78 91 54 92 55 93 64 94
REMARK SMILES IDX 56 95 57 96 63 97 65 98 58 99 59 100 60 101 61 102 62 103
REMARK H PARENT 86 53 52 64
REMARK Flexibility Score: inf
ROOT
ATOM      1  C   UNL A   1      37.600  29.852  27.838  1.00  0.00     0.188 C 
ENDROOT
BRANCH   1   2
ATOM      2  O   UNL A   1      36.291  29.967  28.379  1.00  0.00    -0.377 OA
BRANCH   2   3
ATOM      3  C   UNL A   1      35.765  31.270  28.492  1.00  0.00     0.188 C 
BRANCH   3   4
ATOM      4  C   UNL A   1      34.394  31.456  27.820  1.00  0.00     0.188 C 
BRANCH   4   5
ATOM      5  O   UNL A   1      33.798  30.441  27.021  1.00  0.00    -0.376 OA
BRANCH   5   6
ATOM      6  C   UNL A   1      32.395  30.212  26.999  1.00  0.00     0.202 C 
BRANCH   6   7
ATOM      7  C   UNL A   1      31.782  28.807  27.013  1.00  0.00     0.261 C 
BRANCH   7   8
ATOM      8  O   UNL A   1      32.314  27.918  26.034  1.00  0.00    -0.461 OA
BRANCH   8   9
ATOM      9  C   UNL A   1      31.435  27.071  25.462  1.00  0.00     0.337 C 
ATOM     10  O   UNL A   1      30.554  27.386  24.669  1.00  0.00    -0.249 OA
BRANCH   9  11
ATOM     11  C   UNL A   1      31.659  25.625  25.895  1.00  0.00     0.257 C 
ATOM     12  N   UNL A   1      33.408  23.896  26.184  1.00  0.00    -0.329 N 
ATOM     13  C   UNL A   1      32.395  23.267  26.927  1.00  0.00     0.249 C 
ATOM     14  C   UNL A   1      33.060  25.143  25.480  1.00  0.00     0.174 C 
ATOM     15  O   UNL A   1      32.575  22.582  27.930  1.00  0.00    -0.272 OA
ATOM     16  C   UNL A   1      30.960  23.484  26.403  1.00  0.00     0.261 C 
ATOM     17  O   UNL A   1      30.759  24.589  25.537  1.00  0.00    -0.354 OA
BRANCH  12  18
ATOM     18  C   UNL A   1      34.836  23.647  26.400  1.00  0.00     0.120 C 
BRANCH  18  19
ATOM     19  C   UNL A   1      35.623  22.786  25.403  1.00  0.00     0.018 C 
ATOM     20  C   UNL A   1      36.966  23.336  24.943  1.00  0.00     0.006 C 
ENDBRANCH  18  19
ENDBRANCH  12  18
BRANCH  14  21
ATOM     21  C   UNL A   1      33.269  25.214  23.982  1.00  0.00     0.064 A 
ATOM     22  C   UNL A   1      33.759  26.375  23.369  1.00  0.00     0.136 A 
ATOM     23  N   UNL A   1      33.002  24.401  22.890  1.00  0.00    -0.330 N 
ATOM     24  N   UNL A   1      33.675  26.345  22.018  1.00  0.00    -0.245 NA
ATOM     25  C   UNL A   1      33.199  25.157  21.755  1.00  0.00     0.199 A 
BRANCH  23  26
ATOM     26  C   UNL A   1      32.699  23.000  22.689  1.00  0.00     0.088 C 
ATOM     27  C   UNL A   1      32.782  21.863  23.655  1.00  0.00     0.027 C 
ATOM     28  C   UNL A   1      31.442  22.331  23.190  1.00  0.00     0.027 C 
ENDBRANCH  23  26
ENDBRANCH  14  21
ENDBRANCH   9  11
ENDBRANCH   8   9
ENDBRANCH   7   8
ENDBRANCH   6   7
ENDBRANCH   5   6
ENDBRANCH   4   5
ENDBRANCH   3   4
ENDBRANCH   2   3
ENDBRANCH   1   2
BRANCH   1  29
ATOM     29  C   UNL A   1      38.793  29.803  28.820  1.00  0.00     0.188 C 
BRANCH  29  30
ATOM     30  O   UNL A   1      38.445  29.507  30.167  1.00  0.00    -0.376 OA
BRANCH  30  31
ATOM     31  C   UNL A   1      39.188  30.109  31.215  1.00  0.00     0.202 C 
BRANCH  31  32
ATOM     32  C   UNL A   1      38.445  31.006  32.222  1.00  0.00     0.261 C 
BRANCH  32  33
ATOM     33  O   UNL A   1      39.170  32.129  32.744  1.00  0.00    -0.460 OA
BRANCH  33  34
ATOM     34  C   UNL A   1      38.832  33.358  32.303  1.00  0.00     0.338 C 
ATOM     35  O   UNL A   1      37.810  33.974  32.564  1.00  0.00    -0.246 OA
BRANCH  34  36
ATOM     36  C   UNL A   1      40.006  33.928  31.611  1.00  0.00     0.060 A 
ATOM     37  C   UNL A   1      39.994  34.018  30.213  1.00  0.00     0.016 A 
ATOM     38  C   UNL A   1      41.112  34.374  32.338  1.00  0.00     0.016 A 
ATOM     39  C   UNL A   1      41.106  34.512  29.533  1.00  0.00     0.010 A 
ATOM     40  C   UNL A   1      42.236  34.847  31.655  1.00  0.00     0.010 A 
ATOM     41  C   UNL A   1      42.252  34.879  30.249  1.00  0.00    -0.014 A 
BRANCH  41  42
ATOM     42  C   UNL A   1      43.532  35.081  29.528  1.00  0.00     0.031 A 
ATOM     43  C   UNL A   1      44.368  33.868  29.218  1.00  0.00     0.074 A 
ATOM     44  C   UNL A   1      43.936  36.301  29.136  1.00  0.00     0.049 A 
ATOM     45  N   UNL A   1      45.548  33.790  28.661  1.00  0.00    -0.248 NA
ATOM     46  C   UNL A   1      43.793  32.567  29.596  1.00  0.00     0.031 C 
ATOM     47  C   UNL A   1      43.193  37.543  29.341  1.00  0.00     0.029 A 
ATOM     48  N   UNL A   1      45.084  36.695  28.495  1.00  0.00    -0.354 N 
ATOM     49  C   UNL A   1      45.859  32.436  28.625  1.00  0.00     0.074 A 
ATOM     50  C   UNL A   1      44.764  31.733  29.255  1.00  0.00     0.031 C 
ATOM     51  C   UNL A   1      43.919  38.567  28.857  1.00  0.00     0.029 A 
ATOM     52  C   UNL A   1      45.189  38.056  28.342  1.00  0.00     0.049 A 
ATOM     53  H   UNL A   1      45.767  36.062  28.176  1.00  0.00     0.167 HD
ATOM     54  C   UNL A   1      46.953  31.832  28.104  1.00  0.00     0.037 A 
ATOM     55  C   UNL A   1      46.208  38.804  27.871  1.00  0.00     0.037 A 
ATOM     56  C   UNL A   1      48.045  32.541  27.492  1.00  0.00     0.049 A 
ATOM     57  C   UNL A   1      47.453  38.120  27.366  1.00  0.00     0.074 A 
ATOM     58  C   UNL A   1      49.201  32.026  26.932  1.00  0.00     0.029 A 
ATOM     59  N   UNL A   1      48.125  33.922  27.372  1.00  0.00    -0.354 N 
ATOM     60  N   UNL A   1      47.732  36.838  27.321  1.00  0.00    -0.248 NA
ATOM     61  C   UNL A   1      48.521  38.983  26.841  1.00  0.00     0.031 C 
ATOM     62  C   UNL A   1      50.005  33.097  26.527  1.00  0.00     0.029 A 
ATOM     63  C   UNL A   1      49.320  34.278  26.771  1.00  0.00     0.049 A 
ATOM     64  H   UNL A   1      47.432  34.555  27.670  1.00  0.00     0.167 HD
ATOM     65  C   UNL A   1      48.992  36.739  26.740  1.00  0.00     0.074 A 
ATOM     66  C   UNL A   1      49.417  38.091  26.439  1.00  0.00     0.031 C 
ATOM     67  C   UNL A   1      49.731  35.631  26.476  1.00  0.00     0.037 A 
BRANCH  54  68
ATOM     68  C   UNL A   1      47.030  30.332  28.210  1.00  0.00     0.058 A 
ATOM     69  C   UNL A   1      47.598  29.693  29.325  1.00  0.00     0.135 A 
ATOM     70  C   UNL A   1      46.529  29.519  27.180  1.00  0.00     0.135 A 
ATOM     71  F   UNL A   1      48.111  30.419  30.332  1.00  0.00    -0.206 F 
ATOM     72  C   UNL A   1      47.705  28.308  29.396  1.00  0.00     0.059 A 
ATOM     73  C   UNL A   1      46.594  28.130  27.244  1.00  0.00     0.059 A 
ATOM     74  F   UNL A   1      45.977  30.073  26.089  1.00  0.00    -0.206 F 
ATOM     75  C   UNL A   1      47.202  27.535  28.348  1.00  0.00     0.060 A 
BRANCH  75  76
ATOM     76  S   UNL A   1      47.367  25.740  28.446  1.00  0.00     0.124 S 
ATOM     77  O   UNL A   1      46.044  25.354  28.930  1.00  0.00    -0.237 OA
ATOM     78  O   UNL A   1      47.666  25.379  27.065  1.00  0.00    -0.237 OA
ATOM     79  O   UNL A   1      48.460  25.548  29.393  1.00  0.00    -0.744 OA
ENDBRANCH  75  76
ENDBRANCH  54  68
BRANCH  55  80
ATOM     80  C   UNL A   1      46.097  40.288  27.883  1.00  0.00     0.058 A 
ATOM     81  C   UNL A   1      46.420  41.038  29.022  1.00  0.00     0.135 A 
ATOM     82  C   UNL A   1      45.681  40.988  26.738  1.00  0.00     0.135 A 
ATOM     83  F   UNL A   1      46.810  40.418  30.146  1.00  0.00    -0.206 F 
ATOM     84  C   UNL A   1      46.332  42.428  29.030  1.00  0.00     0.059 A 
ATOM     85  C   UNL A   1      45.610  42.377  26.713  1.00  0.00     0.059 A 
ATOM     86  F   UNL A   1      45.365  40.319  25.618  1.00  0.00    -0.206 F 
ATOM     87  C   UNL A   1      45.932  43.089  27.866  1.00  0.00     0.060 A 
BRANCH  87  88
ATOM     88  S   UNL A   1      45.880  44.893  27.868  1.00  0.00     0.124 S 
ATOM     89  O   UNL A   1      45.020  45.162  29.016  1.00  0.00    -0.237 OA
ATOM     90  O   UNL A   1      47.288  45.239  28.031  1.00  0.00    -0.237 OA
ATOM     91  O   UNL A   1      45.307  45.215  26.565  1.00  0.00    -0.744 OA
ENDBRANCH  87  88
ENDBRANCH  55  80
BRANCH  67  92
ATOM     92  C   UNL A   1      51.061  35.822  25.793  1.00  0.00     0.058 A 
ATOM     93  C   UNL A   1      52.277  35.643  26.471  1.00  0.00     0.135 A 
ATOM     94  C   UNL A   1      51.116  36.127  24.422  1.00  0.00     0.135 A 
ATOM     95  F   UNL A   1      52.284  35.354  27.782  1.00  0.00    -0.206 F 
ATOM     96  C   UNL A   1      53.500  35.786  25.822  1.00  0.00     0.059 A 
ATOM     97  C   UNL A   1      52.327  36.243  23.746  1.00  0.00     0.059 A 
ATOM     98  F   UNL A   1      49.984  36.296  23.720  1.00  0.00    -0.206 F 
ATOM     99  C   UNL A   1      53.514  36.082  24.457  1.00  0.00     0.060 A 
BRANCH  99 100
ATOM    100  S   UNL A   1      55.108  36.231  23.620  1.00  0.00     0.124 S 
ATOM    101  O   UNL A   1      55.109  35.041  22.776  1.00  0.00    -0.237 OA
ATOM    102  O   UNL A   1      54.975  37.504  22.921  1.00  0.00    -0.237 OA
ATOM    103  O   UNL A   1      56.071  36.221  24.717  1.00  0.00    -0.744 OA
ENDBRANCH  99 100
ENDBRANCH  67  92
ENDBRANCH  41  42
ENDBRANCH  34  36
ENDBRANCH  33  34
ENDBRANCH  32  33
ENDBRANCH  31  32
ENDBRANCH  30  31
ENDBRANCH  29  30
ENDBRANCH   1  29
TORSDOF 27
ENDMDL
MODEL 3
REMARK VINA RESULT:      -7.0      7.454     12.244
REMARK SMILES CCCN1C(=O)CO[C@H](C(=O)OCCOCCOCCOCCOC(=O)c2ccc(-c3c4nc(c(-c5c(F)cc(S(=O)(=O)[O-])cc5F)c5ccc([nH]5)c(-c5c(F)cc(S(=O)(=O)[O-])cc5F)c5nc(c(-c6c(F)cc(S(=O)(=O)[O-])cc6F)c6ccc3[nH]6)C=C5)C=C4)cc2)[C@@H]1c1cncn1C1CC1
REMARK SMILES IDX 19 1 18 2 17 3 16 4 15 5 14 6 13 7 12 8 10 9 11 10 9 11 4 12
REMARK SMILES IDX 5 13 93 14 6 15 7 16 8 17 3 18 2 19 1 20 94 21 95 22 98 23
REMARK SMILES IDX 96 24 97 25 99 26 100 27 101 28 20 29 21 30 22 31 23 32
REMARK SMILES IDX 24 33 25 34 26 35 27 36 28 37 92 38 29 39 91 40 30 41 31 42
REMARK SMILES IDX 32 43 85 44 33 45 90 46 84 47 86 48 34 49 89 50 83 51 82 52
REMARK SMILES IDX 35 54 69 55 48 56 68 57 49 58 52 59 67 60 87 61 50 62 51 63
REMARK SMILES IDX 66 65 88 66 53 67 36 68 37 69 46 70 38 71 39 72 45 73 47 74
REMARK SMILES IDX 40 75 41 76 42 77 43 78 44 79 70 80 71 81 80 82 72 83 73 84
REMARK SMILES IDX 79 85 81 86 74 87 75 88 76 89 77 90 78 91 54 92 55 93 64 94
REMARK SMILES IDX 56 95 57 96 63 97 65 98 58 99 59 100 60 101 61 102 62 103
REMARK H PARENT 86 53 52 64
REMARK Flexibility Score: inf
ROOT
ATOM      1  C   UNL A   1      42.251  23.967  28.171  1.00  0.00     0.188 C 
ENDROOT
BRANCH   1   2
ATOM      2  O   UNL A   1      41.747  23.748  26.860  1.00  0.00    -0.377 OA
BRANCH   2   3
ATOM      3  C   UNL A   1      40.642  24.531  26.469  1.00  0.00     0.188 C 
BRANCH   3   4
ATOM      4  C   UNL A   1      39.502  24.574  27.500  1.00  0.00     0.188 C 
BRANCH   4   5
ATOM      5  O   UNL A   1      38.192  24.108  27.200  1.00  0.00    -0.376 OA
BRANCH   5   6
ATOM      6  C   UNL A   1      37.856  23.531  25.944  1.00  0.00     0.202 C 
BRANCH   6   7
ATOM      7  C   UNL A   1      36.424  23.127  25.572  1.00  0.00     0.261 C 
BRANCH   7   8
ATOM      8  O   UNL A   1      35.578  24.214  25.207  1.00  0.00    -0.461 OA
BRANCH   8   9
ATOM      9  C   UNL A   1      34.551  23.916  24.386  1.00  0.00     0.337 C 
ATOM     10  O   UNL A   1      34.007  22.820  24.293  1.00  0.00    -0.249 OA
BRANCH   9  11
ATOM     11  C   UNL A   1      34.098  25.120  23.565  1.00  0.00     0.257 C 
ATOM     12  N   UNL A   1      33.382  27.483  23.752  1.00  0.00    -0.329 N 
ATOM     13  C   UNL A   1      33.632  27.469  22.369  1.00  0.00     0.249 C 
ATOM     14  C   UNL A   1      33.497  26.206  24.476  1.00  0.00     0.174 C 
ATOM     15  O   UNL A   1      34.078  28.412  21.721  1.00  0.00    -0.272 OA
ATOM     16  C   UNL A   1      33.306  26.142  21.652  1.00  0.00     0.261 C 
ATOM     17  O   UNL A   1      33.210  24.985  22.468  1.00  0.00    -0.354 OA
BRANCH  12  18
ATOM     18  C   UNL A   1      33.435  28.701  24.565  1.00  0.00     0.120 C 
BRANCH  18  19
ATOM     19  C   UNL A   1      32.135  29.404  24.977  1.00  0.00     0.018 C 
ATOM     20  C   UNL A   1      31.793  29.385  26.460  1.00  0.00     0.006 C 
ENDBRANCH  18  19
ENDBRANCH  12  18
BRANCH  14  21
ATOM     21  C   UNL A   1      32.301  25.701  25.255  1.00  0.00     0.064 A 
ATOM     22  C   UNL A   1      32.421  25.290  26.589  1.00  0.00     0.136 A 
ATOM     23  N   UNL A   1      30.975  25.404  24.979  1.00  0.00    -0.330 N 
ATOM     24  N   UNL A   1      31.315  24.667  27.060  1.00  0.00    -0.245 NA
ATOM     25  C   UNL A   1      30.468  24.729  26.068  1.00  0.00     0.199 A 
BRANCH  23  26
ATOM     26  C   UNL A   1      30.037  25.727  23.925  1.00  0.00     0.088 C 
ATOM     27  C   UNL A   1      28.693  26.373  24.015  1.00  0.00     0.027 C 
ATOM     28  C   UNL A   1      29.822  27.122  23.387  1.00  0.00     0.027 C 
ENDBRANCH  23  26
ENDBRANCH  14  21
ENDBRANCH   9  11
ENDBRANCH   8   9
ENDBRANCH   7   8
ENDBRANCH   6   7
ENDBRANCH   5   6
ENDBRANCH   4   5
ENDBRANCH   3   4
ENDBRANCH   2   3
ENDBRANCH   1   2
BRANCH   1  29
ATOM     29  C   UNL A   1      43.427  24.955  28.345  1.00  0.00     0.188 C 
BRANCH  29  30
ATOM     30  O   UNL A   1      44.196  24.765  29.526  1.00  0.00    -0.376 OA
BRANCH  30  31
ATOM     31  C   UNL A   1      43.926  23.641  30.347  1.00  0.00     0.202 C 
BRANCH  31  32
ATOM     32  C   UNL A   1      44.475  23.632  31.785  1.00  0.00     0.261 C 
BRANCH  32  33
ATOM     33  O   UNL A   1      44.128  24.750  32.616  1.00  0.00    -0.460 OA
BRANCH  33  34
ATOM     34  C   UNL A   1      43.646  24.493  33.849  1.00  0.00     0.338 C 
ATOM     35  O   UNL A   1      43.360  23.399  34.309  1.00  0.00    -0.246 OA
BRANCH  34  36
ATOM     36  C   UNL A   1      43.717  25.744  34.632  1.00  0.00     0.060 A 
ATOM     37  C   UNL A   1      43.044  25.817  35.859  1.00  0.00     0.016 A 
ATOM     38  C   UNL A   1      44.444  26.839  34.159  1.00  0.00     0.016 A 
ATOM     39  C   UNL A   1      43.059  27.000  36.597  1.00  0.00     0.010 A 
ATOM     40  C   UNL A   1      44.438  28.031  34.887  1.00  0.00     0.010 A 
ATOM     41  C   UNL A   1      43.712  28.128  36.087  1.00  0.00    -0.014 A 
BRANCH  41  42
ATOM     42  C   UNL A   1      43.453  29.458  36.690  1.00  0.00     0.031 A 
ATOM     43  C   UNL A   1      42.312  30.273  36.141  1.00  0.00     0.074 A 
ATOM     44  C   UNL A   1      44.190  29.926  37.711  1.00  0.00     0.049 A 
ATOM     45  N   UNL A   1      41.928  31.483  36.452  1.00  0.00    -0.248 NA
ATOM     46  C   UNL A   1      41.499  29.633  35.094  1.00  0.00     0.031 C 
ATOM     47  C   UNL A   1      45.292  29.213  38.354  1.00  0.00     0.029 A 
ATOM     48  N   UNL A   1      44.130  31.125  38.376  1.00  0.00    -0.354 N 
ATOM     49  C   UNL A   1      40.834  31.751  35.637  1.00  0.00     0.074 A 
ATOM     50  C   UNL A   1      40.642  30.595  34.790  1.00  0.00     0.031 C 
ATOM     51  C   UNL A   1      45.823  30.001  39.306  1.00  0.00     0.029 A 
ATOM     52  C   UNL A   1      45.121  31.285  39.314  1.00  0.00     0.049 A 
ATOM     53  H   UNL A   1      43.442  31.807  38.197  1.00  0.00     0.167 HD
ATOM     54  C   UNL A   1      40.052  32.857  35.606  1.00  0.00     0.037 A 
ATOM     55  C   UNL A   1      45.444  32.355  40.068  1.00  0.00     0.037 A 
ATOM     56  C   UNL A   1      40.260  34.008  36.444  1.00  0.00     0.049 A 
ATOM     57  C   UNL A   1      44.610  33.608  39.965  1.00  0.00     0.074 A 
ATOM     58  C   UNL A   1      39.526  35.180  36.493  1.00  0.00     0.029 A 
ATOM     59  N   UNL A   1      41.285  34.140  37.370  1.00  0.00    -0.354 N 
ATOM     60  N   UNL A   1      43.567  33.847  39.205  1.00  0.00    -0.248 NA
ATOM     61  C   UNL A   1      44.992  34.735  40.829  1.00  0.00     0.031 C 
ATOM     62  C   UNL A   1      40.142  36.043  37.406  1.00  0.00     0.029 A 
ATOM     63  C   UNL A   1      41.220  35.383  37.976  1.00  0.00     0.049 A 
ATOM     64  H   UNL A   1      41.960  33.451  37.567  1.00  0.00     0.167 HD
ATOM     65  C   UNL A   1      43.153  35.139  39.515  1.00  0.00     0.074 A 
ATOM     66  C   UNL A   1      44.051  35.625  40.543  1.00  0.00     0.031 C 
ATOM     67  C   UNL A   1      42.122  35.856  39.001  1.00  0.00     0.037 A 
BRANCH  54  68
ATOM     68  C   UNL A   1      38.924  32.877  34.609  1.00  0.00     0.058 A 
ATOM     69  C   UNL A   1      37.657  32.350  34.909  1.00  0.00     0.135 A 
ATOM     70  C   UNL A   1      39.114  33.429  33.332  1.00  0.00     0.135 A 
ATOM     71  F   UNL A   1      37.423  31.792  36.108  1.00  0.00    -0.206 F 
ATOM     72  C   UNL A   1      36.633  32.333  33.968  1.00  0.00     0.059 A 
ATOM     73  C   UNL A   1      38.094  33.453  32.385  1.00  0.00     0.059 A 
ATOM     74  F   UNL A   1      40.304  33.945  32.987  1.00  0.00    -0.206 F 
ATOM     75  C   UNL A   1      36.862  32.884  32.707  1.00  0.00     0.060 A 
BRANCH  75  76
ATOM     76  S   UNL A   1      35.530  32.836  31.489  1.00  0.00     0.124 S 
ATOM     77  O   UNL A   1      34.357  32.708  32.349  1.00  0.00    -0.237 OA
ATOM     78  O   UNL A   1      35.681  34.118  30.811  1.00  0.00    -0.237 OA
ATOM     79  O   UNL A   1      35.847  31.661  30.684  1.00  0.00    -0.744 OA
ENDBRANCH  75  76
ENDBRANCH  54  68
BRANCH  55  80
ATOM     80  C   UNL A   1      46.629  32.292  40.966  1.00  0.00     0.058 A 
ATOM     81  C   UNL A   1      47.905  32.666  40.522  1.00  0.00     0.135 A 
ATOM     82  C   UNL A   1      46.500  31.873  42.300  1.00  0.00     0.135 A 
ATOM     83  F   UNL A   1      48.085  33.061  39.252  1.00  0.00    -0.206 F 
ATOM     84  C   UNL A   1      49.012  32.622  41.365  1.00  0.00     0.059 A 
ATOM     85  C   UNL A   1      47.585  31.846  43.169  1.00  0.00     0.059 A 
ATOM     86  F   UNL A   1      45.298  31.509  42.778  1.00  0.00    -0.206 F 
ATOM     87  C   UNL A   1      48.840  32.217  42.690  1.00  0.00     0.060 A 
BRANCH  87  88
ATOM     88  S   UNL A   1      50.271  32.222  43.792  1.00  0.00     0.124 S 
ATOM     89  O   UNL A   1      51.320  31.713  42.914  1.00  0.00    -0.237 OA
ATOM     90  O   UNL A   1      50.372  33.632  44.153  1.00  0.00    -0.237 OA
ATOM     91  O   UNL A   1      49.866  31.330  44.873  1.00  0.00    -0.744 OA
ENDBRANCH  87  88
ENDBRANCH  55  80
BRANCH  67  92
ATOM     92  C   UNL A   1      41.877  37.233  39.563  1.00  0.00     0.058 A 
ATOM     93  C   UNL A   1      42.609  38.351  39.135  1.00  0.00     0.135 A 
ATOM     94  C   UNL A   1      40.850  37.443  40.499  1.00  0.00     0.135 A 
ATOM     95  F   UNL A   1      43.605  38.208  38.246  1.00  0.00    -0.206 F 
ATOM     96  C   UNL A   1      42.351  39.625  39.634  1.00  0.00     0.059 A 
ATOM     97  C   UNL A   1      40.553  38.713  40.987  1.00  0.00     0.059 A 
ATOM     98  F   UNL A   1      40.108  36.412  40.933  1.00  0.00    -0.206 F 
ATOM     99  C   UNL A   1      41.316  39.796  40.557  1.00  0.00     0.060 A 
BRANCH  99 100
ATOM    100  S   UNL A   1      40.970  41.459  41.170  1.00  0.00     0.124 S 
ATOM    101  O   UNL A   1      40.278  41.173  42.422  1.00  0.00    -0.237 OA
ATOM    102  O   UNL A   1      42.307  42.027  41.300  1.00  0.00    -0.237 OA
ATOM    103  O   UNL A   1      40.145  42.045  40.118  1.00  0.00    -0.744 OA
ENDBRANCH  99 100
ENDBRANCH  67  92
ENDBRANCH  41  42
ENDBRANCH  34  36
ENDBRANCH  33  34
ENDBRANCH  32  33
ENDBRANCH  31  32
ENDBRANCH  30  31
ENDBRANCH  29  30
ENDBRANCH   1  29
TORSDOF 27
ENDMDL
