MODEL 1
REMARK VINA RESULT:     -11.2      0.000      0.000
REMARK SMILES NS(=O)(=O)c1ccc(-n2ccnc2-c2ccc(O)c(C(=O)OCCOCCOCCOCCOC(=O)c3ccc(-c4c5nc(c(-c6c(F)cc(S(=O)(=O)[O-])cc6F)c6ccc([nH]6)c(-c6c(F)cc(S(=O)(=O)[O-])cc6F)c6nc(c(-c7c(F)cc(S(=O)(=O)[O-])cc7F)c7ccc4[nH]7)C=C6)C=C5)cc3)c2)cc1
REMARK SMILES IDX 27 1 26 2 25 3 24 4 23 5 22 6 20 7 21 8 19 9 14 10 15 11
REMARK SMILES IDX 103 12 16 13 17 14 13 15 9 16 10 17 11 18 12 19 8 20 5 21
REMARK SMILES IDX 6 22 105 23 7 24 104 25 2 26 3 27 4 28 1 29 18 32 28 34
REMARK SMILES IDX 29 35 30 36 31 37 32 38 33 39 34 40 35 41 36 42 37 43 38 44
REMARK SMILES IDX 102 45 39 46 101 47 40 48 41 49 42 50 95 51 43 52 100 53
REMARK SMILES IDX 94 54 96 55 44 56 99 57 93 58 92 59 45 61 79 62 58 63 78 64
REMARK SMILES IDX 59 65 62 66 77 67 97 68 60 69 61 70 76 72 98 73 63 74 46 75
REMARK SMILES IDX 47 76 56 77 48 78 49 79 55 80 57 81 50 82 51 83 52 84 53 85
REMARK SMILES IDX 54 86 80 87 81 88 90 89 82 90 83 91 89 92 91 93 84 94 85 95
REMARK SMILES IDX 86 96 87 97 88 98 64 99 65 100 74 101 66 102 67 103 73 104
REMARK SMILES IDX 75 105 68 106 69 107 70 108 71 109 72 110
REMARK H PARENT 1 30 1 31 18 33 96 60 62 71
REMARK Flexibility Score: inf
ROOT
ATOM      1  C   UNL A   1      33.797  27.764  22.552  1.00  0.00     0.188 C 
ENDROOT
BRANCH   1   2
ATOM      2  C   UNL A   1      33.748  26.229  22.711  1.00  0.00     0.188 C 
BRANCH   2   3
ATOM      3  O   UNL A   1      32.566  25.476  22.470  1.00  0.00    -0.376 OA
BRANCH   3   4
ATOM      4  C   UNL A   1      31.300  25.830  22.999  1.00  0.00     0.202 C 
BRANCH   4   5
ATOM      5  C   UNL A   1      31.033  26.062  24.496  1.00  0.00     0.261 C 
BRANCH   5   6
ATOM      6  O   UNL A   1      30.490  24.974  25.242  1.00  0.00    -0.460 OA
BRANCH   6   7
ATOM      7  C   UNL A   1      30.912  23.744  24.881  1.00  0.00     0.342 C 
ATOM      8  O   UNL A   1      30.653  23.145  23.850  1.00  0.00    -0.246 OA
BRANCH   7   9
ATOM      9  C   UNL A   1      31.966  23.298  25.821  1.00  0.00     0.102 A 
ATOM     10  C   UNL A   1      34.294  22.783  26.298  1.00  0.00     0.019 A 
ATOM     11  C   UNL A   1      33.929  22.387  27.589  1.00  0.00     0.016 A 
ATOM     12  C   UNL A   1      33.288  23.158  25.393  1.00  0.00     0.031 A 
ATOM     13  C   UNL A   1      32.595  22.458  28.001  1.00  0.00     0.048 A 
ATOM     14  C   UNL A   1      31.625  22.949  27.132  1.00  0.00     0.130 A 
BRANCH  10  15
ATOM     15  C   UNL A   1      35.713  22.851  25.921  1.00  0.00     0.144 A 
ATOM     16  N   UNL A   1      36.449  21.785  25.397  1.00  0.00    -0.300 N 
ATOM     17  C   UNL A   1      37.768  22.171  25.408  1.00  0.00     0.113 A 
ATOM     18  C   UNL A   1      37.759  23.496  25.770  1.00  0.00     0.132 A 
ATOM     19  N   UNL A   1      36.487  23.913  26.062  1.00  0.00    -0.236 NA
BRANCH  16  20
ATOM     20  C   UNL A   1      35.953  20.529  24.966  1.00  0.00     0.047 A 
ATOM     21  C   UNL A   1      34.892  18.002  24.496  1.00  0.00     0.082 A 
ATOM     22  C   UNL A   1      34.055  19.118  24.436  1.00  0.00     0.024 A 
ATOM     23  C   UNL A   1      36.262  18.147  24.755  1.00  0.00     0.024 A 
ATOM     24  C   UNL A   1      34.586  20.385  24.673  1.00  0.00     0.028 A 
ATOM     25  C   UNL A   1      36.803  19.418  24.966  1.00  0.00     0.028 A 
BRANCH  21  26
ATOM     26  S   UNL A   1      34.223  16.374  24.334  1.00  0.00     0.238 S 
ATOM     27  O   UNL A   1      34.914  15.492  25.236  1.00  0.00    -0.207 OA
ATOM     28  O   UNL A   1      34.064  16.089  22.921  1.00  0.00    -0.207 OA
BRANCH  26  29
ATOM     29  N   UNL A   1      32.667  16.511  24.955  1.00  0.00    -0.225 NA
ATOM     30  H   UNL A   1      32.473  17.488  25.174  1.00  0.00     0.137 HD
ATOM     31  H   UNL A   1      32.590  15.950  25.803  1.00  0.00     0.137 HD
ENDBRANCH  26  29
ENDBRANCH  21  26
ENDBRANCH  16  20
ENDBRANCH  10  15
BRANCH  14  32
ATOM     32  O   UNL A   1      30.346  23.011  27.618  1.00  0.00    -0.507 OA
ATOM     33  H   UNL A   1      30.016  22.322  28.159  1.00  0.00     0.293 HD
ENDBRANCH  14  32
ENDBRANCH   7   9
ENDBRANCH   6   7
ENDBRANCH   5   6
ENDBRANCH   4   5
ENDBRANCH   3   4
ENDBRANCH   2   3
ENDBRANCH   1   2
BRANCH   1  34
ATOM     34  O   UNL A   1      33.634  28.466  23.771  1.00  0.00    -0.377 OA
BRANCH  34  35
ATOM     35  C   UNL A   1      32.492  29.317  23.849  1.00  0.00     0.188 C 
BRANCH  35  36
ATOM     36  C   UNL A   1      31.659  29.358  25.162  1.00  0.00     0.188 C 
BRANCH  36  37
ATOM     37  O   UNL A   1      31.502  30.644  25.744  1.00  0.00    -0.376 OA
BRANCH  37  38
ATOM     38  C   UNL A   1      32.342  31.190  26.746  1.00  0.00     0.202 C 
BRANCH  38  39
ATOM     39  C   UNL A   1      33.632  30.460  27.105  1.00  0.00     0.261 C 
BRANCH  39  40
ATOM     40  O   UNL A   1      34.249  30.990  28.254  1.00  0.00    -0.460 OA
BRANCH  40  41
ATOM     41  C   UNL A   1      35.542  31.328  28.082  1.00  0.00     0.338 C 
ATOM     42  O   UNL A   1      35.999  32.446  27.928  1.00  0.00    -0.246 OA
BRANCH  41  43
ATOM     43  C   UNL A   1      36.313  30.083  28.018  1.00  0.00     0.060 A 
ATOM     44  C   UNL A   1      36.494  29.451  29.246  1.00  0.00     0.016 A 
ATOM     45  C   UNL A   1      37.228  29.986  26.964  1.00  0.00     0.016 A 
ATOM     46  C   UNL A   1      37.773  29.075  29.560  1.00  0.00     0.010 A 
ATOM     47  C   UNL A   1      38.511  29.681  27.299  1.00  0.00     0.010 A 
ATOM     48  C   UNL A   1      38.775  29.333  28.622  1.00  0.00    -0.014 A 
BRANCH  48  49
ATOM     49  C   UNL A   1      40.147  29.089  28.983  1.00  0.00     0.031 A 
ATOM     50  C   UNL A   1      40.308  29.279  30.438  1.00  0.00     0.074 A 
ATOM     51  C   UNL A   1      41.035  28.604  28.095  1.00  0.00     0.049 A 
ATOM     52  N   UNL A   1      40.736  30.338  31.044  1.00  0.00    -0.248 NA
ATOM     53  C   UNL A   1      39.585  28.344  31.325  1.00  0.00     0.031 C 
ATOM     54  C   UNL A   1      40.781  28.156  26.720  1.00  0.00     0.029 A 
ATOM     55  N   UNL A   1      42.350  28.304  28.275  1.00  0.00    -0.354 N 
ATOM     56  C   UNL A   1      40.637  30.009  32.392  1.00  0.00     0.074 A 
ATOM     57  C   UNL A   1      39.608  29.018  32.475  1.00  0.00     0.031 C 
ATOM     58  C   UNL A   1      41.839  27.437  26.279  1.00  0.00     0.029 A 
ATOM     59  C   UNL A   1      42.889  27.485  27.280  1.00  0.00     0.049 A 
ATOM     60  H   UNL A   1      42.875  28.636  29.039  1.00  0.00     0.167 HD
ATOM     61  C   UNL A   1      41.711  30.187  33.211  1.00  0.00     0.037 A 
ATOM     62  C   UNL A   1      44.092  26.856  27.352  1.00  0.00     0.037 A 
ATOM     63  C   UNL A   1      42.673  31.055  32.570  1.00  0.00     0.049 A 
ATOM     64  C   UNL A   1      44.880  27.568  28.392  1.00  0.00     0.074 A 
ATOM     65  C   UNL A   1      42.746  32.390  32.238  1.00  0.00     0.029 A 
ATOM     66  N   UNL A   1      43.584  30.385  31.792  1.00  0.00    -0.354 N 
ATOM     67  N   UNL A   1      45.278  28.805  28.261  1.00  0.00    -0.248 NA
ATOM     68  C   UNL A   1      44.867  27.062  29.761  1.00  0.00     0.031 C 
ATOM     69  C   UNL A   1      43.623  32.472  31.118  1.00  0.00     0.029 A 
ATOM     70  C   UNL A   1      44.112  31.198  30.829  1.00  0.00     0.049 A 
ATOM     71  H   UNL A   1      43.826  29.438  31.912  1.00  0.00     0.167 HD
ATOM     72  C   UNL A   1      45.158  29.347  29.529  1.00  0.00     0.074 A 
ATOM     73  C   UNL A   1      45.057  28.205  30.429  1.00  0.00     0.031 C 
ATOM     74  C   UNL A   1      44.820  30.659  29.687  1.00  0.00     0.037 A 
BRANCH  61  75
ATOM     75  C   UNL A   1      42.156  29.193  34.277  1.00  0.00     0.058 A 
ATOM     76  C   UNL A   1      42.453  27.875  33.869  1.00  0.00     0.135 A 
ATOM     77  C   UNL A   1      42.038  29.367  35.678  1.00  0.00     0.135 A 
ATOM     78  F   UNL A   1      42.611  27.583  32.569  1.00  0.00    -0.206 F 
ATOM     79  C   UNL A   1      42.531  26.807  34.768  1.00  0.00     0.059 A 
ATOM     80  C   UNL A   1      42.151  28.328  36.590  1.00  0.00     0.059 A 
ATOM     81  F   UNL A   1      41.731  30.530  36.258  1.00  0.00    -0.206 F 
ATOM     82  C   UNL A   1      42.360  27.045  36.128  1.00  0.00     0.060 A 
BRANCH  82  83
ATOM     83  S   UNL A   1      42.383  25.674  37.290  1.00  0.00     0.124 S 
ATOM     84  O   UNL A   1      40.966  25.353  37.390  1.00  0.00    -0.237 OA
ATOM     85  O   UNL A   1      43.217  24.703  36.589  1.00  0.00    -0.237 OA
ATOM     86  O   UNL A   1      42.985  26.259  38.485  1.00  0.00    -0.744 OA
ENDBRANCH  82  83
ENDBRANCH  61  75
BRANCH  62  87
ATOM     87  C   UNL A   1      44.500  25.527  26.824  1.00  0.00     0.058 A 
ATOM     88  C   UNL A   1      43.911  24.337  27.294  1.00  0.00     0.135 A 
ATOM     89  C   UNL A   1      45.254  25.418  25.640  1.00  0.00     0.135 A 
ATOM     90  F   UNL A   1      43.161  24.351  28.407  1.00  0.00    -0.206 F 
ATOM     91  C   UNL A   1      44.017  23.124  26.601  1.00  0.00     0.059 A 
ATOM     92  C   UNL A   1      45.377  24.220  24.934  1.00  0.00     0.059 A 
ATOM     93  F   UNL A   1      45.817  26.501  25.083  1.00  0.00    -0.206 F 
ATOM     94  C   UNL A   1      44.734  23.081  25.406  1.00  0.00     0.060 A 
BRANCH  94  95
ATOM     95  S   UNL A   1      44.726  21.566  24.414  1.00  0.00     0.124 S 
ATOM     96  O   UNL A   1      46.066  21.041  24.654  1.00  0.00    -0.237 OA
ATOM     97  O   UNL A   1      43.629  20.811  25.009  1.00  0.00    -0.237 OA
ATOM     98  O   UNL A   1      44.482  22.051  23.057  1.00  0.00    -0.744 OA
ENDBRANCH  94  95
ENDBRANCH  62  87
BRANCH  74  99
ATOM     99  C   UNL A   1      45.098  31.586  28.541  1.00  0.00     0.058 A 
ATOM    100  C   UNL A   1      44.255  31.788  27.435  1.00  0.00     0.135 A 
ATOM    101  C   UNL A   1      46.250  32.381  28.632  1.00  0.00     0.135 A 
ATOM    102  F   UNL A   1      43.097  31.120  27.323  1.00  0.00    -0.206 F 
ATOM    103  C   UNL A   1      44.567  32.721  26.444  1.00  0.00     0.059 A 
ATOM    104  C   UNL A   1      46.563  33.336  27.675  1.00  0.00     0.059 A 
ATOM    105  F   UNL A   1      47.063  32.265  29.694  1.00  0.00    -0.206 F 
ATOM    106  C   UNL A   1      45.724  33.492  26.574  1.00  0.00     0.060 A 
BRANCH 106 107
ATOM    107  S   UNL A   1      46.107  34.740  25.328  1.00  0.00     0.124 S 
ATOM    108  O   UNL A   1      47.533  34.527  25.109  1.00  0.00    -0.237 OA
ATOM    109  O   UNL A   1      45.230  34.361  24.223  1.00  0.00    -0.237 OA
ATOM    110  O   UNL A   1      45.758  35.997  25.985  1.00  0.00    -0.744 OA
ENDBRANCH 106 107
ENDBRANCH  74  99
ENDBRANCH  48  49
ENDBRANCH  41  43
ENDBRANCH  40  41
ENDBRANCH  39  40
ENDBRANCH  38  39
ENDBRANCH  37  38
ENDBRANCH  36  37
ENDBRANCH  35  36
ENDBRANCH  34  35
ENDBRANCH   1  34
TORSDOF 28
ENDMDL
MODEL 2
REMARK VINA RESULT:     -10.1      2.603      8.114
REMARK SMILES NS(=O)(=O)c1ccc(-n2ccnc2-c2ccc(O)c(C(=O)OCCOCCOCCOCCOC(=O)c3ccc(-c4c5nc(c(-c6c(F)cc(S(=O)(=O)[O-])cc6F)c6ccc([nH]6)c(-c6c(F)cc(S(=O)(=O)[O-])cc6F)c6nc(c(-c7c(F)cc(S(=O)(=O)[O-])cc7F)c7ccc4[nH]7)C=C6)C=C5)cc3)c2)cc1
REMARK SMILES IDX 27 1 26 2 25 3 24 4 23 5 22 6 20 7 21 8 19 9 14 10 15 11
REMARK SMILES IDX 103 12 16 13 17 14 13 15 9 16 10 17 11 18 12 19 8 20 5 21
REMARK SMILES IDX 6 22 105 23 7 24 104 25 2 26 3 27 4 28 1 29 18 32 28 34
REMARK SMILES IDX 29 35 30 36 31 37 32 38 33 39 34 40 35 41 36 42 37 43 38 44
REMARK SMILES IDX 102 45 39 46 101 47 40 48 41 49 42 50 95 51 43 52 100 53
REMARK SMILES IDX 94 54 96 55 44 56 99 57 93 58 92 59 45 61 79 62 58 63 78 64
REMARK SMILES IDX 59 65 62 66 77 67 97 68 60 69 61 70 76 72 98 73 63 74 46 75
REMARK SMILES IDX 47 76 56 77 48 78 49 79 55 80 57 81 50 82 51 83 52 84 53 85
REMARK SMILES IDX 54 86 80 87 81 88 90 89 82 90 83 91 89 92 91 93 84 94 85 95
REMARK SMILES IDX 86 96 87 97 88 98 64 99 65 100 74 101 66 102 67 103 73 104
REMARK SMILES IDX 75 105 68 106 69 107 70 108 71 109 72 110
REMARK H PARENT 1 30 1 31 18 33 96 60 62 71
REMARK Flexibility Score: inf
ROOT
ATOM      1  C   UNL A   1      33.877  28.326  22.418  1.00  0.00     0.188 C 
ENDROOT
BRANCH   1   2
ATOM      2  C   UNL A   1      33.862  26.787  22.291  1.00  0.00     0.188 C 
BRANCH   2   3
ATOM      3  O   UNL A   1      32.656  26.036  22.267  1.00  0.00    -0.376 OA
BRANCH   3   4
ATOM      4  C   UNL A   1      31.418  26.543  22.732  1.00  0.00     0.202 C 
BRANCH   4   5
ATOM      5  C   UNL A   1      30.892  26.337  24.163  1.00  0.00     0.261 C 
BRANCH   5   6
ATOM      6  O   UNL A   1      30.134  25.156  24.419  1.00  0.00    -0.460 OA
BRANCH   6   7
ATOM      7  C   UNL A   1      30.745  23.989  24.126  1.00  0.00     0.342 C 
ATOM      8  O   UNL A   1      30.752  23.406  23.053  1.00  0.00    -0.246 OA
BRANCH   7   9
ATOM      9  C   UNL A   1      31.640  23.615  25.245  1.00  0.00     0.102 A 
ATOM     10  C   UNL A   1      33.849  23.043  26.086  1.00  0.00     0.019 A 
ATOM     11  C   UNL A   1      33.299  22.843  27.357  1.00  0.00     0.016 A 
ATOM     12  C   UNL A   1      32.991  23.348  25.016  1.00  0.00     0.031 A 
ATOM     13  C   UNL A   1      31.933  23.040  27.577  1.00  0.00     0.048 A 
ATOM     14  C   UNL A   1      31.115  23.464  26.533  1.00  0.00     0.130 A 
BRANCH  10  15
ATOM     15  C   UNL A   1      35.304  22.982  25.894  1.00  0.00     0.144 A 
ATOM     16  N   UNL A   1      36.011  21.836  25.525  1.00  0.00    -0.300 N 
ATOM     17  C   UNL A   1      37.345  22.123  25.687  1.00  0.00     0.113 A 
ATOM     18  C   UNL A   1      37.398  23.464  25.978  1.00  0.00     0.132 A 
ATOM     19  N   UNL A   1      36.138  23.991  26.080  1.00  0.00    -0.236 NA
BRANCH  16  20
ATOM     20  C   UNL A   1      35.473  20.595  25.097  1.00  0.00     0.047 A 
ATOM     21  C   UNL A   1      34.456  18.050  24.631  1.00  0.00     0.082 A 
ATOM     22  C   UNL A   1      33.584  19.082  24.983  1.00  0.00     0.024 A 
ATOM     23  C   UNL A   1      35.828  18.292  24.476  1.00  0.00     0.024 A 
ATOM     24  C   UNL A   1      34.094  20.358  25.219  1.00  0.00     0.028 A 
ATOM     25  C   UNL A   1      36.338  19.577  24.684  1.00  0.00     0.028 A 
BRANCH  21  26
ATOM     26  S   UNL A   1      33.859  16.395  24.458  1.00  0.00     0.238 S 
ATOM     27  O   UNL A   1      33.970  15.999  23.080  1.00  0.00    -0.207 OA
ATOM     28  O   UNL A   1      32.627  16.278  25.214  1.00  0.00    -0.207 OA
BRANCH  26  29
ATOM     29  N   UNL A   1      34.994  15.466  25.278  1.00  0.00    -0.225 NA
ATOM     30  H   UNL A   1      34.719  15.377  26.256  1.00  0.00     0.137 HD
ATOM     31  H   UNL A   1      35.907  15.916  25.221  1.00  0.00     0.137 HD
ENDBRANCH  26  29
ENDBRANCH  21  26
ENDBRANCH  16  20
ENDBRANCH  10  15
BRANCH  14  32
ATOM     32  O   UNL A   1      29.794  23.659  26.834  1.00  0.00    -0.507 OA
ATOM     33  H   UNL A   1      29.138  23.522  26.178  1.00  0.00     0.293 HD
ENDBRANCH  14  32
ENDBRANCH   7   9
ENDBRANCH   6   7
ENDBRANCH   5   6
ENDBRANCH   4   5
ENDBRANCH   3   4
ENDBRANCH   2   3
ENDBRANCH   1   2
BRANCH   1  34
ATOM     34  O   UNL A   1      34.055  28.784  23.745  1.00  0.00    -0.377 OA
BRANCH  34  35
ATOM     35  C   UNL A   1      32.883  29.266  24.398  1.00  0.00     0.188 C 
BRANCH  35  36
ATOM     36  C   UNL A   1      32.710  29.033  25.927  1.00  0.00     0.188 C 
BRANCH  36  37
ATOM     37  O   UNL A   1      32.854  30.188  26.739  1.00  0.00    -0.376 OA
BRANCH  37  38
ATOM     38  C   UNL A   1      33.956  30.449  27.591  1.00  0.00     0.202 C 
BRANCH  38  39
ATOM     39  C   UNL A   1      35.150  29.502  27.563  1.00  0.00     0.261 C 
BRANCH  39  40
ATOM     40  O   UNL A   1      35.828  29.452  28.795  1.00  0.00    -0.460 OA
BRANCH  40  41
ATOM     41  C   UNL A   1      37.038  30.046  28.786  1.00  0.00     0.338 C 
ATOM     42  O   UNL A   1      37.281  31.230  28.936  1.00  0.00    -0.246 OA
BRANCH  41  43
ATOM     43  C   UNL A   1      38.028  29.014  28.466  1.00  0.00     0.060 A 
ATOM     44  C   UNL A   1      38.324  28.150  29.518  1.00  0.00     0.016 A 
ATOM     45  C   UNL A   1      38.944  29.338  27.459  1.00  0.00     0.016 A 
ATOM     46  C   UNL A   1      39.650  27.948  29.790  1.00  0.00     0.010 A 
ATOM     47  C   UNL A   1      40.261  29.200  27.769  1.00  0.00     0.010 A 
ATOM     48  C   UNL A   1      40.587  28.600  28.984  1.00  0.00    -0.014 A 
BRANCH  48  49
ATOM     49  C   UNL A   1      41.981  28.529  29.339  1.00  0.00     0.031 A 
ATOM     50  C   UNL A   1      42.681  27.648  28.385  1.00  0.00     0.074 A 
ATOM     51  C   UNL A   1      42.503  29.313  30.301  1.00  0.00     0.049 A 
ATOM     52  N   UNL A   1      42.971  26.397  28.547  1.00  0.00    -0.248 NA
ATOM     53  C   UNL A   1      42.744  28.090  26.977  1.00  0.00     0.031 C 
ATOM     54  C   UNL A   1      41.839  30.388  31.047  1.00  0.00     0.029 A 
ATOM     55  N   UNL A   1      43.788  29.384  30.743  1.00  0.00    -0.354 N 
ATOM     56  C   UNL A   1      43.569  26.040  27.343  1.00  0.00     0.074 A 
ATOM     57  C   UNL A   1      43.045  26.943  26.366  1.00  0.00     0.031 C 
ATOM     58  C   UNL A   1      42.772  31.146  31.670  1.00  0.00     0.029 A 
ATOM     59  C   UNL A   1      44.075  30.537  31.477  1.00  0.00     0.049 A 
ATOM     60  H   UNL A   1      44.457  28.684  30.561  1.00  0.00     0.167 HD
ATOM     61  C   UNL A   1      44.774  25.404  27.351  1.00  0.00     0.037 A 
ATOM     62  C   UNL A   1      45.322  30.956  31.819  1.00  0.00     0.037 A 
ATOM     63  C   UNL A   1      45.040  24.882  28.672  1.00  0.00     0.049 A 
ATOM     64  C   UNL A   1      46.212  29.771  31.709  1.00  0.00     0.074 A 
ATOM     65  C   UNL A   1      44.540  23.874  29.466  1.00  0.00     0.029 A 
ATOM     66  N   UNL A   1      45.689  25.771  29.493  1.00  0.00    -0.354 N 
ATOM     67  N   UNL A   1      46.104  28.725  32.483  1.00  0.00    -0.248 NA
ATOM     68  C   UNL A   1      46.948  29.551  30.467  1.00  0.00     0.031 C 
ATOM     69  C   UNL A   1      44.776  24.276  30.813  1.00  0.00     0.029 A 
ATOM     70  C   UNL A   1      45.466  25.488  30.811  1.00  0.00     0.049 A 
ATOM     71  H   UNL A   1      46.243  26.519  29.173  1.00  0.00     0.167 HD
ATOM     72  C   UNL A   1      46.376  27.648  31.657  1.00  0.00     0.074 A 
ATOM     73  C   UNL A   1      47.036  28.216  30.488  1.00  0.00     0.031 C 
ATOM     74  C   UNL A   1      45.745  26.455  31.852  1.00  0.00     0.037 A 
BRANCH  61  75
ATOM     75  C   UNL A   1      45.921  25.719  26.398  1.00  0.00     0.058 A 
ATOM     76  C   UNL A   1      46.421  27.039  26.380  1.00  0.00     0.135 A 
ATOM     77  C   UNL A   1      46.359  24.905  25.325  1.00  0.00     0.135 A 
ATOM     78  F   UNL A   1      46.098  27.905  27.354  1.00  0.00    -0.206 F 
ATOM     79  C   UNL A   1      47.210  27.532  25.337  1.00  0.00     0.059 A 
ATOM     80  C   UNL A   1      47.174  25.364  24.300  1.00  0.00     0.059 A 
ATOM     81  F   UNL A   1      45.972  23.640  25.148  1.00  0.00    -0.206 F 
ATOM     82  C   UNL A   1      47.566  26.687  24.291  1.00  0.00     0.060 A 
BRANCH  82  83
ATOM     83  S   UNL A   1      48.517  27.323  22.904  1.00  0.00     0.124 S 
ATOM     84  O   UNL A   1      47.553  28.216  22.275  1.00  0.00    -0.237 OA
ATOM     85  O   UNL A   1      49.641  27.960  23.582  1.00  0.00    -0.237 OA
ATOM     86  O   UNL A   1      48.851  26.120  22.148  1.00  0.00    -0.744 OA
ENDBRANCH  82  83
ENDBRANCH  61  75
BRANCH  62  87
ATOM     87  C   UNL A   1      45.859  32.338  31.936  1.00  0.00     0.058 A 
ATOM     88  C   UNL A   1      46.050  33.151  30.803  1.00  0.00     0.135 A 
ATOM     89  C   UNL A   1      45.909  32.993  33.182  1.00  0.00     0.135 A 
ATOM     90  F   UNL A   1      46.003  32.614  29.574  1.00  0.00    -0.206 F 
ATOM     91  C   UNL A   1      46.225  34.538  30.896  1.00  0.00     0.059 A 
ATOM     92  C   UNL A   1      46.084  34.372  33.300  1.00  0.00     0.059 A 
ATOM     93  F   UNL A   1      45.691  32.318  34.320  1.00  0.00    -0.206 F 
ATOM     94  C   UNL A   1      46.216  35.145  32.151  1.00  0.00     0.060 A 
BRANCH  94  95
ATOM     95  S   UNL A   1      46.260  36.951  32.271  1.00  0.00     0.124 S 
ATOM     96  O   UNL A   1      45.644  37.182  33.573  1.00  0.00    -0.237 OA
ATOM     97  O   UNL A   1      47.688  37.233  32.181  1.00  0.00    -0.237 OA
ATOM     98  O   UNL A   1      45.469  37.385  31.122  1.00  0.00    -0.744 OA
ENDBRANCH  94  95
ENDBRANCH  62  87
BRANCH  74  99
ATOM     99  C   UNL A   1      45.197  26.179  33.221  1.00  0.00     0.058 A 
ATOM    100  C   UNL A   1      45.943  25.713  34.316  1.00  0.00     0.135 A 
ATOM    101  C   UNL A   1      43.851  26.502  33.444  1.00  0.00     0.135 A 
ATOM    102  F   UNL A   1      47.255  25.461  34.196  1.00  0.00    -0.206 F 
ATOM    103  C   UNL A   1      45.361  25.545  35.574  1.00  0.00     0.059 A 
ATOM    104  C   UNL A   1      43.259  26.372  34.692  1.00  0.00     0.059 A 
ATOM    105  F   UNL A   1      43.105  27.000  32.443  1.00  0.00    -0.206 F 
ATOM    106  C   UNL A   1      44.016  25.878  35.752  1.00  0.00     0.060 A 
BRANCH 106 107
ATOM    107  S   UNL A   1      43.268  25.718  37.386  1.00  0.00     0.124 S 
ATOM    108  O   UNL A   1      42.013  25.037  37.084  1.00  0.00    -0.237 OA
ATOM    109  O   UNL A   1      44.261  24.930  38.112  1.00  0.00    -0.237 OA
ATOM    110  O   UNL A   1      43.133  27.101  37.838  1.00  0.00    -0.744 OA
ENDBRANCH 106 107
ENDBRANCH  74  99
ENDBRANCH  48  49
ENDBRANCH  41  43
ENDBRANCH  40  41
ENDBRANCH  39  40
ENDBRANCH  38  39
ENDBRANCH  37  38
ENDBRANCH  36  37
ENDBRANCH  35  36
ENDBRANCH  34  35
ENDBRANCH   1  34
TORSDOF 28
ENDMDL
MODEL 3
REMARK VINA RESULT:      -9.6      3.878      9.157
REMARK SMILES NS(=O)(=O)c1ccc(-n2ccnc2-c2ccc(O)c(C(=O)OCCOCCOCCOCCOC(=O)c3ccc(-c4c5nc(c(-c6c(F)cc(S(=O)(=O)[O-])cc6F)c6ccc([nH]6)c(-c6c(F)cc(S(=O)(=O)[O-])cc6F)c6nc(c(-c7c(F)cc(S(=O)(=O)[O-])cc7F)c7ccc4[nH]7)C=C6)C=C5)cc3)c2)cc1
REMARK SMILES IDX 27 1 26 2 25 3 24 4 23 5 22 6 20 7 21 8 19 9 14 10 15 11
REMARK SMILES IDX 103 12 16 13 17 14 13 15 9 16 10 17 11 18 12 19 8 20 5 21
REMARK SMILES IDX 6 22 105 23 7 24 104 25 2 26 3 27 4 28 1 29 18 32 28 34
REMARK SMILES IDX 29 35 30 36 31 37 32 38 33 39 34 40 35 41 36 42 37 43 38 44
REMARK SMILES IDX 102 45 39 46 101 47 40 48 41 49 42 50 95 51 43 52 100 53
REMARK SMILES IDX 94 54 96 55 44 56 99 57 93 58 92 59 45 61 79 62 58 63 78 64
REMARK SMILES IDX 59 65 62 66 77 67 97 68 60 69 61 70 76 72 98 73 63 74 46 75
REMARK SMILES IDX 47 76 56 77 48 78 49 79 55 80 57 81 50 82 51 83 52 84 53 85
REMARK SMILES IDX 54 86 80 87 81 88 90 89 82 90 83 91 89 92 91 93 84 94 85 95
REMARK SMILES IDX 86 96 87 97 88 98 64 99 65 100 74 101 66 102 67 103 73 104
REMARK SMILES IDX 75 105 68 106 69 107 70 108 71 109 72 110
REMARK H PARENT 1 30 1 31 18 33 96 60 62 71
REMARK Flexibility Score: inf
ROOT
ATOM      1  C   UNL A   1      33.461  28.448  22.171  1.00  0.00     0.188 C 
ENDROOT
BRANCH   1   2
ATOM      2  C   UNL A   1      33.680  26.921  22.234  1.00  0.00     0.188 C 
BRANCH   2   3
ATOM      3  O   UNL A   1      32.623  26.010  22.502  1.00  0.00    -0.376 OA
BRANCH   3   4
ATOM      4  C   UNL A   1      31.322  26.422  22.883  1.00  0.00     0.202 C 
BRANCH   4   5
ATOM      5  C   UNL A   1      30.766  26.289  24.311  1.00  0.00     0.261 C 
BRANCH   5   6
ATOM      6  O   UNL A   1      30.049  25.096  24.627  1.00  0.00    -0.460 OA
BRANCH   6   7
ATOM      7  C   UNL A   1      30.651  23.939  24.282  1.00  0.00     0.342 C 
ATOM      8  O   UNL A   1      30.548  23.338  23.224  1.00  0.00    -0.246 OA
BRANCH   7   9
ATOM      9  C   UNL A   1      31.679  23.606  25.293  1.00  0.00     0.102 A 
ATOM     10  C   UNL A   1      33.985  23.103  25.879  1.00  0.00     0.019 A 
ATOM     11  C   UNL A   1      33.593  22.910  27.208  1.00  0.00     0.016 A 
ATOM     12  C   UNL A   1      33.002  23.369  24.913  1.00  0.00     0.031 A 
ATOM     13  C   UNL A   1      32.256  23.077  27.583  1.00  0.00     0.048 A 
ATOM     14  C   UNL A   1      31.312  23.463  26.636  1.00  0.00     0.130 A 
BRANCH  10  15
ATOM     15  C   UNL A   1      35.410  23.075  25.520  1.00  0.00     0.144 A 
ATOM     16  N   UNL A   1      36.146  21.914  25.271  1.00  0.00    -0.300 N 
ATOM     17  C   UNL A   1      37.467  22.288  25.213  1.00  0.00     0.113 A 
ATOM     18  C   UNL A   1      37.462  23.661  25.255  1.00  0.00     0.132 A 
ATOM     19  N   UNL A   1      36.190  24.139  25.420  1.00  0.00    -0.236 NA
BRANCH  16  20
ATOM     20  C   UNL A   1      35.647  20.594  25.138  1.00  0.00     0.047 A 
ATOM     21  C   UNL A   1      34.697  18.062  24.493  1.00  0.00     0.082 A 
ATOM     22  C   UNL A   1      36.069  18.253  24.672  1.00  0.00     0.024 A 
ATOM     23  C   UNL A   1      33.796  19.120  24.671  1.00  0.00     0.024 A 
ATOM     24  C   UNL A   1      36.545  19.524  24.993  1.00  0.00     0.028 A 
ATOM     25  C   UNL A   1      34.269  20.389  25.021  1.00  0.00     0.028 A 
BRANCH  21  26
ATOM     26  S   UNL A   1      34.077  16.497  23.953  1.00  0.00     0.238 S 
ATOM     27  O   UNL A   1      34.713  15.453  24.712  1.00  0.00    -0.207 OA
ATOM     28  O   UNL A   1      34.035  16.503  22.504  1.00  0.00    -0.207 OA
BRANCH  26  29
ATOM     29  N   UNL A   1      32.475  16.498  24.461  1.00  0.00    -0.225 NA
ATOM     30  H   UNL A   1      32.372  17.124  25.260  1.00  0.00     0.137 HD
ATOM     31  H   UNL A   1      32.204  15.553  24.732  1.00  0.00     0.137 HD
ENDBRANCH  26  29
ENDBRANCH  21  26
ENDBRANCH  16  20
ENDBRANCH  10  15
BRANCH  14  32
ATOM     32  O   UNL A   1      30.030  23.630  27.086  1.00  0.00    -0.507 OA
ATOM     33  H   UNL A   1      29.750  23.207  27.873  1.00  0.00     0.293 HD
ENDBRANCH  14  32
ENDBRANCH   7   9
ENDBRANCH   6   7
ENDBRANCH   5   6
ENDBRANCH   4   5
ENDBRANCH   3   4
ENDBRANCH   2   3
ENDBRANCH   1   2
BRANCH   1  34
ATOM     34  O   UNL A   1      33.561  29.089  23.429  1.00  0.00    -0.377 OA
BRANCH  34  35
ATOM     35  C   UNL A   1      32.327  29.328  24.103  1.00  0.00     0.188 C 
BRANCH  35  36
ATOM     36  C   UNL A   1      32.328  29.549  25.642  1.00  0.00     0.188 C 
BRANCH  36  37
ATOM     37  O   UNL A   1      31.827  30.804  26.078  1.00  0.00    -0.376 OA
BRANCH  37  38
ATOM     38  C   UNL A   1      32.461  31.648  27.023  1.00  0.00     0.202 C 
BRANCH  38  39
ATOM     39  C   UNL A   1      33.691  31.133  27.763  1.00  0.00     0.261 C 
BRANCH  39  40
ATOM     40  O   UNL A   1      34.172  32.050  28.715  1.00  0.00    -0.460 OA
BRANCH  40  41
ATOM     41  C   UNL A   1      35.516  32.134  28.775  1.00  0.00     0.338 C 
ATOM     42  O   UNL A   1      36.270  32.543  27.910  1.00  0.00    -0.246 OA
BRANCH  41  43
ATOM     43  C   UNL A   1      35.932  31.550  30.053  1.00  0.00     0.060 A 
ATOM     44  C   UNL A   1      35.778  32.392  31.152  1.00  0.00     0.016 A 
ATOM     45  C   UNL A   1      36.919  30.560  29.979  1.00  0.00     0.016 A 
ATOM     46  C   UNL A   1      36.859  32.523  31.981  1.00  0.00     0.010 A 
ATOM     47  C   UNL A   1      38.020  30.741  30.757  1.00  0.00     0.010 A 
ATOM     48  C   UNL A   1      38.008  31.790  31.673  1.00  0.00    -0.014 A 
BRANCH  48  49
ATOM     49  C   UNL A   1      39.207  32.022  32.435  1.00  0.00     0.031 A 
ATOM     50  C   UNL A   1      40.209  32.681  31.576  1.00  0.00     0.074 A 
ATOM     51  C   UNL A   1      39.255  31.793  33.761  1.00  0.00     0.049 A 
ATOM     52  N   UNL A   1      41.182  32.116  30.937  1.00  0.00    -0.248 NA
ATOM     53  C   UNL A   1      39.891  34.037  31.084  1.00  0.00     0.031 C 
ATOM     54  C   UNL A   1      38.153  31.402  34.648  1.00  0.00     0.029 A 
ATOM     55  N   UNL A   1      40.291  31.973  34.624  1.00  0.00    -0.354 N 
ATOM     56  C   UNL A   1      41.778  33.167  30.247  1.00  0.00     0.074 A 
ATOM     57  C   UNL A   1      40.750  34.146  30.071  1.00  0.00     0.031 C 
ATOM     58  C   UNL A   1      38.520  31.598  35.936  1.00  0.00     0.029 A 
ATOM     59  C   UNL A   1      39.915  31.999  35.970  1.00  0.00     0.049 A 
ATOM     60  H   UNL A   1      41.224  32.077  34.327  1.00  0.00     0.167 HD
ATOM     61  C   UNL A   1      43.124  33.356  30.337  1.00  0.00     0.037 A 
ATOM     62  C   UNL A   1      40.711  32.398  36.997  1.00  0.00     0.037 A 
ATOM     63  C   UNL A   1      43.749  32.165  30.865  1.00  0.00     0.049 A 
ATOM     64  C   UNL A   1      42.110  32.318  36.503  1.00  0.00     0.074 A 
ATOM     65  C   UNL A   1      43.991  30.884  30.420  1.00  0.00     0.029 A 
ATOM     66  N   UNL A   1      43.825  32.147  32.236  1.00  0.00    -0.354 N 
ATOM     67  N   UNL A   1      42.691  31.191  36.191  1.00  0.00    -0.248 NA
ATOM     68  C   UNL A   1      42.735  33.514  35.945  1.00  0.00     0.031 C 
ATOM     69  C   UNL A   1      44.058  30.065  31.584  1.00  0.00     0.029 A 
ATOM     70  C   UNL A   1      43.916  30.870  32.715  1.00  0.00     0.049 A 
ATOM     71  H   UNL A   1      43.815  32.952  32.803  1.00  0.00     0.167 HD
ATOM     72  C   UNL A   1      43.469  31.493  35.086  1.00  0.00     0.074 A 
ATOM     73  C   UNL A   1      43.581  32.947  35.079  1.00  0.00     0.031 C 
ATOM     74  C   UNL A   1      43.665  30.563  34.107  1.00  0.00     0.037 A 
BRANCH  61  75
ATOM     75  C   UNL A   1      43.795  34.716  30.493  1.00  0.00     0.058 A 
ATOM     76  C   UNL A   1      43.435  35.505  31.607  1.00  0.00     0.135 A 
ATOM     77  C   UNL A   1      44.533  35.399  29.497  1.00  0.00     0.135 A 
ATOM     78  F   UNL A   1      42.752  34.970  32.631  1.00  0.00    -0.206 F 
ATOM     79  C   UNL A   1      43.705  36.875  31.678  1.00  0.00     0.059 A 
ATOM     80  C   UNL A   1      44.846  36.749  29.566  1.00  0.00     0.059 A 
ATOM     81  F   UNL A   1      44.937  34.835  28.356  1.00  0.00    -0.206 F 
ATOM     82  C   UNL A   1      44.397  37.490  30.641  1.00  0.00     0.060 A 
BRANCH  82  83
ATOM     83  S   UNL A   1      44.688  39.263  30.680  1.00  0.00     0.124 S 
ATOM     84  O   UNL A   1      43.552  39.762  29.916  1.00  0.00    -0.237 OA
ATOM     85  O   UNL A   1      44.672  39.535  32.113  1.00  0.00    -0.237 OA
ATOM     86  O   UNL A   1      45.992  39.403  30.038  1.00  0.00    -0.744 OA
ENDBRANCH  82  83
ENDBRANCH  61  75
BRANCH  62  87
ATOM     87  C   UNL A   1      40.355  33.121  38.246  1.00  0.00     0.058 A 
ATOM     88  C   UNL A   1      39.215  33.944  38.321  1.00  0.00     0.135 A 
ATOM     89  C   UNL A   1      40.953  32.782  39.475  1.00  0.00     0.135 A 
ATOM     90  F   UNL A   1      38.570  34.303  37.200  1.00  0.00    -0.206 F 
ATOM     91  C   UNL A   1      38.668  34.359  39.543  1.00  0.00     0.059 A 
ATOM     92  C   UNL A   1      40.429  33.186  40.704  1.00  0.00     0.059 A 
ATOM     93  F   UNL A   1      42.016  31.964  39.518  1.00  0.00    -0.206 F 
ATOM     94  C   UNL A   1      39.270  33.954  40.733  1.00  0.00     0.060 A 
BRANCH  94  95
ATOM     95  S   UNL A   1      38.471  34.334  42.312  1.00  0.00     0.124 S 
ATOM     96  O   UNL A   1      37.681  33.130  42.548  1.00  0.00    -0.237 OA
ATOM     97  O   UNL A   1      39.613  34.531  43.199  1.00  0.00    -0.237 OA
ATOM     98  O   UNL A   1      37.699  35.539  42.020  1.00  0.00    -0.744 OA
ENDBRANCH  94  95
ENDBRANCH  62  87
BRANCH  74  99
ATOM     99  C   UNL A   1      43.490  29.121  34.480  1.00  0.00     0.058 A 
ATOM    100  C   UNL A   1      42.264  28.439  34.538  1.00  0.00     0.135 A 
ATOM    101  C   UNL A   1      44.658  28.375  34.698  1.00  0.00     0.135 A 
ATOM    102  F   UNL A   1      41.113  29.070  34.262  1.00  0.00    -0.206 F 
ATOM    103  C   UNL A   1      42.203  27.076  34.835  1.00  0.00     0.059 A 
ATOM    104  C   UNL A   1      44.623  27.014  34.963  1.00  0.00     0.059 A 
ATOM    105  F   UNL A   1      45.860  28.967  34.604  1.00  0.00    -0.206 F 
ATOM    106  C   UNL A   1      43.390  26.371  35.045  1.00  0.00     0.060 A 
BRANCH 106 107
ATOM    107  S   UNL A   1      43.327  24.598  35.373  1.00  0.00     0.124 S 
ATOM    108  O   UNL A   1      43.803  24.523  36.750  1.00  0.00    -0.237 OA
ATOM    109  O   UNL A   1      41.914  24.290  35.171  1.00  0.00    -0.237 OA
ATOM    110  O   UNL A   1      44.227  24.032  34.371  1.00  0.00    -0.744 OA
ENDBRANCH 106 107
ENDBRANCH  74  99
ENDBRANCH  48  49
ENDBRANCH  41  43
ENDBRANCH  40  41
ENDBRANCH  39  40
ENDBRANCH  38  39
ENDBRANCH  37  38
ENDBRANCH  36  37
ENDBRANCH  35  36
ENDBRANCH  34  35
ENDBRANCH   1  34
TORSDOF 28
ENDMDL
