MODEL 1
REMARK VINA RESULT:      -9.6      0.000      0.000
REMARK SMILES CC[N@@H+]([C@@H]1CSCC(C)(C)C1)[C@@H]1COC[C@@H]1C(=O)OCCOCCOCCOCCOC(=O)c1ccc(-c2c3nc(c(-c4c(F)cc(S(=O)(=O)[O-])cc4F)c4ccc([nH]4)c(-c4c(F)cc(S(=O)(=O)[O-])cc4F)c4nc(c(-c5c(F)cc(S(=O)(=O)[O-])cc5F)c5ccc2[nH]5)C=C4)C=C3)cc1
REMARK SMILES IDX 26 1 25 2 24 3 23 4 22 5 21 6 20 7 19 8 17 9 18 10 16 11
REMARK SMILES IDX 12 12 13 13 14 14 15 15 3 16 2 18 1 19 4 20 5 21 11 22 6 23
REMARK SMILES IDX 8 24 7 25 9 26 10 27 27 28 28 29 29 30 30 31 31 32 32 33
REMARK SMILES IDX 33 34 34 35 35 36 99 37 36 38 98 39 37 40 38 41 39 42 92 43
REMARK SMILES IDX 40 44 97 45 91 46 93 47 41 48 96 49 90 50 89 51 42 53 76 54
REMARK SMILES IDX 55 55 75 56 56 57 59 58 74 59 94 60 57 61 58 62 73 64 95 65
REMARK SMILES IDX 60 66 43 67 44 68 53 69 45 70 46 71 52 72 54 73 47 74 48 75
REMARK SMILES IDX 49 76 50 77 51 78 77 79 78 80 87 81 79 82 80 83 86 84 88 85
REMARK SMILES IDX 81 86 82 87 83 88 84 89 85 90 61 91 62 92 71 93 63 94 64 95
REMARK SMILES IDX 70 96 72 97 65 98 66 99 67 100 68 101 69 102
REMARK H PARENT 3 17 93 52 59 63
REMARK Flexibility Score: inf
ROOT
ATOM      1  C   UNL A   1      37.143  19.550  24.846  1.00  0.00     0.188 C 
ENDROOT
BRANCH   1   2
ATOM      2  O   UNL A   1      36.155  18.543  24.719  1.00  0.00    -0.377 OA
BRANCH   2   3
ATOM      3  C   UNL A   1      34.781  18.876  24.748  1.00  0.00     0.188 C 
BRANCH   3   4
ATOM      4  C   UNL A   1      33.738  17.764  24.723  1.00  0.00     0.188 C 
BRANCH   4   5
ATOM      5  O   UNL A   1      32.459  18.166  24.254  1.00  0.00    -0.376 OA
BRANCH   5   6
ATOM      6  C   UNL A   1      32.456  18.610  22.902  1.00  0.00     0.202 C 
BRANCH   6   7
ATOM      7  C   UNL A   1      32.077  20.080  22.722  1.00  0.00     0.261 C 
BRANCH   7   8
ATOM      8  O   UNL A   1      32.564  20.980  23.736  1.00  0.00    -0.463 OA
BRANCH   8   9
ATOM      9  C   UNL A   1      32.635  22.291  23.452  1.00  0.00     0.317 C 
ATOM     10  O   UNL A   1      33.505  22.761  22.724  1.00  0.00    -0.252 OA
BRANCH   9  11
ATOM     11  C   UNL A   1      31.667  23.156  24.263  1.00  0.00     0.185 C 
ATOM     12  C   UNL A   1      32.010  24.499  24.976  1.00  0.00     0.227 C 
ATOM     13  C   UNL A   1      32.389  24.014  26.406  1.00  0.00     0.226 C 
ATOM     14  O   UNL A   1      32.050  22.627  26.532  1.00  0.00    -0.374 OA
ATOM     15  C   UNL A   1      31.198  22.300  25.438  1.00  0.00     0.182 C 
BRANCH  12  16
ATOM     16  N   UNL A   1      32.611  25.772  24.438  1.00  0.00    -0.327 N 
ATOM     17  H   UNL A   1      32.007  26.440  24.918  1.00  0.00     0.348 HD
BRANCH  16  18
ATOM     18  C   UNL A   1      33.997  26.023  24.880  1.00  0.00     0.259 C 
ATOM     19  C   UNL A   1      34.136  27.069  25.984  1.00  0.00     0.071 C 
ENDBRANCH  16  18
BRANCH  16  20
ATOM     20  C   UNL A   1      32.348  26.176  23.028  1.00  0.00     0.194 C 
ATOM     21  C   UNL A   1      33.360  27.127  22.303  1.00  0.00     0.134 C 
ATOM     22  C   UNL A   1      30.945  26.776  22.760  1.00  0.00     0.073 C 
ATOM     23  S   UNL A   1      33.350  28.851  22.880  1.00  0.00    -0.155 SA
ATOM     24  C   UNL A   1      30.653  28.203  23.284  1.00  0.00    -0.021 C 
ATOM     25  C   UNL A   1      31.587  29.210  22.587  1.00  0.00     0.076 C 
ATOM     26  C   UNL A   1      30.761  28.324  24.815  1.00  0.00     0.012 C 
ATOM     27  C   UNL A   1      29.188  28.526  22.911  1.00  0.00     0.012 C 
ENDBRANCH  16  20
ENDBRANCH  12  16
ENDBRANCH   9  11
ENDBRANCH   8   9
ENDBRANCH   7   8
ENDBRANCH   6   7
ENDBRANCH   5   6
ENDBRANCH   4   5
ENDBRANCH   3   4
ENDBRANCH   2   3
ENDBRANCH   1   2
BRANCH   1  28
ATOM     28  C   UNL A   1      36.696  21.014  24.853  1.00  0.00     0.188 C 
BRANCH  28  29
ATOM     29  O   UNL A   1      37.661  22.059  24.953  1.00  0.00    -0.376 OA
BRANCH  29  30
ATOM     30  C   UNL A   1      38.214  22.408  26.212  1.00  0.00     0.202 C 
BRANCH  30  31
ATOM     31  C   UNL A   1      39.499  23.233  26.220  1.00  0.00     0.261 C 
BRANCH  31  32
ATOM     32  O   UNL A   1      39.265  24.646  26.278  1.00  0.00    -0.460 OA
BRANCH  32  33
ATOM     33  C   UNL A   1      40.386  25.397  26.235  1.00  0.00     0.338 C 
ATOM     34  O   UNL A   1      41.110  25.592  25.266  1.00  0.00    -0.246 OA
BRANCH  33  35
ATOM     35  C   UNL A   1      40.597  26.072  27.523  1.00  0.00     0.060 A 
ATOM     36  C   UNL A   1      39.603  25.938  28.498  1.00  0.00     0.016 A 
ATOM     37  C   UNL A   1      41.679  26.936  27.715  1.00  0.00     0.016 A 
ATOM     38  C   UNL A   1      39.647  26.727  29.642  1.00  0.00     0.010 A 
ATOM     39  C   UNL A   1      41.716  27.735  28.862  1.00  0.00     0.010 A 
ATOM     40  C   UNL A   1      40.673  27.668  29.800  1.00  0.00    -0.014 A 
BRANCH  40  41
ATOM     41  C   UNL A   1      40.540  28.703  30.851  1.00  0.00     0.031 A 
ATOM     42  C   UNL A   1      41.455  28.643  32.044  1.00  0.00     0.074 A 
ATOM     43  C   UNL A   1      39.654  29.705  30.714  1.00  0.00     0.049 A 
ATOM     44  N   UNL A   1      41.511  29.429  33.087  1.00  0.00    -0.248 NA
ATOM     45  C   UNL A   1      42.443  27.552  32.061  1.00  0.00     0.031 C 
ATOM     46  C   UNL A   1      38.754  29.884  29.576  1.00  0.00     0.029 A 
ATOM     47  N   UNL A   1      39.366  30.759  31.543  1.00  0.00    -0.354 N 
ATOM     48  C   UNL A   1      42.532  28.927  33.886  1.00  0.00     0.074 A 
ATOM     49  C   UNL A   1      43.052  27.753  33.220  1.00  0.00     0.031 C 
ATOM     50  C   UNL A   1      38.005  30.980  29.784  1.00  0.00     0.029 A 
ATOM     51  C   UNL A   1      38.349  31.558  31.081  1.00  0.00     0.049 A 
ATOM     52  H   UNL A   1      39.845  30.927  32.386  1.00  0.00     0.167 HD
ATOM     53  C   UNL A   1      42.996  29.407  35.064  1.00  0.00     0.037 A 
ATOM     54  C   UNL A   1      37.750  32.618  31.657  1.00  0.00     0.037 A 
ATOM     55  C   UNL A   1      42.465  30.575  35.717  1.00  0.00     0.049 A 
ATOM     56  C   UNL A   1      38.236  33.093  33.002  1.00  0.00     0.074 A 
ATOM     57  C   UNL A   1      42.867  31.153  36.907  1.00  0.00     0.029 A 
ATOM     58  N   UNL A   1      41.411  31.338  35.237  1.00  0.00    -0.354 N 
ATOM     59  N   UNL A   1      39.213  32.619  33.739  1.00  0.00    -0.248 NA
ATOM     60  C   UNL A   1      37.541  34.245  33.592  1.00  0.00     0.031 C 
ATOM     61  C   UNL A   1      42.023  32.237  37.172  1.00  0.00     0.029 A 
ATOM     62  C   UNL A   1      41.131  32.367  36.119  1.00  0.00     0.049 A 
ATOM     63  H   UNL A   1      40.932  31.173  34.393  1.00  0.00     0.167 HD
ATOM     64  C   UNL A   1      39.267  33.431  34.869  1.00  0.00     0.074 A 
ATOM     65  C   UNL A   1      38.230  34.431  34.711  1.00  0.00     0.031 C 
ATOM     66  C   UNL A   1      40.097  33.357  35.939  1.00  0.00     0.037 A 
BRANCH  53  67
ATOM     67  C   UNL A   1      44.109  28.651  35.736  1.00  0.00     0.058 A 
ATOM     68  C   UNL A   1      45.460  28.933  35.475  1.00  0.00     0.135 A 
ATOM     69  C   UNL A   1      43.821  27.648  36.676  1.00  0.00     0.135 A 
ATOM     70  F   UNL A   1      45.794  29.868  34.571  1.00  0.00    -0.206 F 
ATOM     71  C   UNL A   1      46.484  28.231  36.103  1.00  0.00     0.059 A 
ATOM     72  C   UNL A   1      44.830  26.952  37.336  1.00  0.00     0.059 A 
ATOM     73  F   UNL A   1      42.547  27.335  36.961  1.00  0.00    -0.206 F 
ATOM     74  C   UNL A   1      46.159  27.241  37.033  1.00  0.00     0.060 A 
BRANCH  74  75
ATOM     75  S   UNL A   1      47.499  26.344  37.844  1.00  0.00     0.124 S 
ATOM     76  O   UNL A   1      46.780  25.220  38.437  1.00  0.00    -0.237 OA
ATOM     77  O   UNL A   1      48.378  26.015  36.726  1.00  0.00    -0.237 OA
ATOM     78  O   UNL A   1      48.034  27.315  38.793  1.00  0.00    -0.744 OA
ENDBRANCH  74  75
ENDBRANCH  53  67
BRANCH  54  79
ATOM     79  C   UNL A   1      36.615  33.290  30.970  1.00  0.00     0.058 A 
ATOM     80  C   UNL A   1      35.297  33.141  31.425  1.00  0.00     0.135 A 
ATOM     81  C   UNL A   1      36.831  34.107  29.848  1.00  0.00     0.135 A 
ATOM     82  F   UNL A   1      35.038  32.364  32.487  1.00  0.00    -0.206 F 
ATOM     83  C   UNL A   1      34.231  33.769  30.787  1.00  0.00     0.059 A 
ATOM     84  C   UNL A   1      35.785  34.765  29.209  1.00  0.00     0.059 A 
ATOM     85  F   UNL A   1      38.074  34.291  29.379  1.00  0.00    -0.206 F 
ATOM     86  C   UNL A   1      34.486  34.584  29.682  1.00  0.00     0.060 A 
BRANCH  86  87
ATOM     87  S   UNL A   1      33.105  35.443  28.900  1.00  0.00     0.124 S 
ATOM     88  O   UNL A   1      32.476  34.365  28.146  1.00  0.00    -0.237 OA
ATOM     89  O   UNL A   1      32.359  35.938  30.053  1.00  0.00    -0.237 OA
ATOM     90  O   UNL A   1      33.762  36.474  28.101  1.00  0.00    -0.744 OA
ENDBRANCH  86  87
ENDBRANCH  54  79
BRANCH  66  91
ATOM     91  C   UNL A   1      39.944  34.404  37.008  1.00  0.00     0.058 A 
ATOM     92  C   UNL A   1      40.589  35.647  36.922  1.00  0.00     0.135 A 
ATOM     93  C   UNL A   1      39.091  34.181  38.102  1.00  0.00     0.135 A 
ATOM     94  F   UNL A   1      41.419  35.909  35.900  1.00  0.00    -0.206 F 
ATOM     95  C   UNL A   1      40.410  36.626  37.893  1.00  0.00     0.059 A 
ATOM     96  C   UNL A   1      38.876  35.155  39.070  1.00  0.00     0.059 A 
ATOM     97  F   UNL A   1      38.441  33.012  38.225  1.00  0.00    -0.206 F 
ATOM     98  C   UNL A   1      39.549  36.371  38.964  1.00  0.00     0.060 A 
BRANCH  98  99
ATOM     99  S   UNL A   1      39.297  37.664  40.199  1.00  0.00     0.124 S 
ATOM    100  O   UNL A   1      38.976  36.878  41.385  1.00  0.00    -0.237 OA
ATOM    101  O   UNL A   1      40.591  38.337  40.215  1.00  0.00    -0.237 OA
ATOM    102  O   UNL A   1      38.196  38.449  39.648  1.00  0.00    -0.744 OA
ENDBRANCH  98  99
ENDBRANCH  66  91
ENDBRANCH  40  41
ENDBRANCH  33  35
ENDBRANCH  32  33
ENDBRANCH  31  32
ENDBRANCH  30  31
ENDBRANCH  29  30
ENDBRANCH  28  29
ENDBRANCH   1  28
TORSDOF 26
ENDMDL
MODEL 2
REMARK VINA RESULT:      -9.6      0.998      8.058
REMARK SMILES CC[N@@H+]([C@@H]1CSCC(C)(C)C1)[C@@H]1COC[C@@H]1C(=O)OCCOCCOCCOCCOC(=O)c1ccc(-c2c3nc(c(-c4c(F)cc(S(=O)(=O)[O-])cc4F)c4ccc([nH]4)c(-c4c(F)cc(S(=O)(=O)[O-])cc4F)c4nc(c(-c5c(F)cc(S(=O)(=O)[O-])cc5F)c5ccc2[nH]5)C=C4)C=C3)cc1
REMARK SMILES IDX 26 1 25 2 24 3 23 4 22 5 21 6 20 7 19 8 17 9 18 10 16 11
REMARK SMILES IDX 12 12 13 13 14 14 15 15 3 16 2 18 1 19 4 20 5 21 11 22 6 23
REMARK SMILES IDX 8 24 7 25 9 26 10 27 27 28 28 29 29 30 30 31 31 32 32 33
REMARK SMILES IDX 33 34 34 35 35 36 99 37 36 38 98 39 37 40 38 41 39 42 92 43
REMARK SMILES IDX 40 44 97 45 91 46 93 47 41 48 96 49 90 50 89 51 42 53 76 54
REMARK SMILES IDX 55 55 75 56 56 57 59 58 74 59 94 60 57 61 58 62 73 64 95 65
REMARK SMILES IDX 60 66 43 67 44 68 53 69 45 70 46 71 52 72 54 73 47 74 48 75
REMARK SMILES IDX 49 76 50 77 51 78 77 79 78 80 87 81 79 82 80 83 86 84 88 85
REMARK SMILES IDX 81 86 82 87 83 88 84 89 85 90 61 91 62 92 71 93 63 94 64 95
REMARK SMILES IDX 70 96 72 97 65 98 66 99 67 100 68 101 69 102
REMARK H PARENT 3 17 93 52 59 63
REMARK Flexibility Score: inf
ROOT
ATOM      1  C   UNL A   1      37.730  19.607  25.036  1.00  0.00     0.188 C 
ENDROOT
BRANCH   1   2
ATOM      2  O   UNL A   1      36.708  18.675  24.728  1.00  0.00    -0.377 OA
BRANCH   2   3
ATOM      3  C   UNL A   1      35.357  19.086  24.665  1.00  0.00     0.188 C 
BRANCH   3   4
ATOM      4  C   UNL A   1      34.265  18.045  24.439  1.00  0.00     0.188 C 
BRANCH   4   5
ATOM      5  O   UNL A   1      32.977  18.434  24.895  1.00  0.00    -0.376 OA
BRANCH   5   6
ATOM      6  C   UNL A   1      32.296  19.314  24.008  1.00  0.00     0.202 C 
BRANCH   6   7
ATOM      7  C   UNL A   1      32.324  20.782  24.431  1.00  0.00     0.261 C 
BRANCH   7   8
ATOM      8  O   UNL A   1      32.694  21.722  23.403  1.00  0.00    -0.463 OA
BRANCH   8   9
ATOM      9  C   UNL A   1      33.574  22.691  23.704  1.00  0.00     0.317 C 
ATOM     10  O   UNL A   1      34.679  22.764  23.173  1.00  0.00    -0.252 OA
BRANCH   9  11
ATOM     11  C   UNL A   1      33.157  23.565  24.890  1.00  0.00     0.185 C 
ATOM     12  C   UNL A   1      32.882  25.099  24.850  1.00  0.00     0.227 C 
ATOM     13  C   UNL A   1      34.276  25.683  25.224  1.00  0.00     0.226 C 
ATOM     14  O   UNL A   1      35.127  24.615  25.660  1.00  0.00    -0.374 OA
ATOM     15  C   UNL A   1      34.293  23.486  25.908  1.00  0.00     0.182 C 
BRANCH  12  16
ATOM     16  N   UNL A   1      31.941  25.906  23.995  1.00  0.00    -0.327 N 
ATOM     17  H   UNL A   1      32.544  26.712  23.824  1.00  0.00     0.348 HD
BRANCH  16  18
ATOM     18  C   UNL A   1      31.631  25.293  22.689  1.00  0.00     0.259 C 
ATOM     19  C   UNL A   1      32.558  25.713  21.550  1.00  0.00     0.071 C 
ENDBRANCH  16  18
BRANCH  16  20
ATOM     20  C   UNL A   1      30.781  26.600  24.623  1.00  0.00     0.194 C 
ATOM     21  C   UNL A   1      29.579  27.048  23.723  1.00  0.00     0.134 C 
ATOM     22  C   UNL A   1      31.136  27.833  25.492  1.00  0.00     0.073 C 
ATOM     23  S   UNL A   1      29.921  28.453  22.620  1.00  0.00    -0.155 SA
ATOM     24  C   UNL A   1      31.591  29.124  24.769  1.00  0.00    -0.021 C 
ATOM     25  C   UNL A   1      30.444  29.654  23.888  1.00  0.00     0.076 C 
ATOM     26  C   UNL A   1      32.877  28.940  23.943  1.00  0.00     0.012 C 
ATOM     27  C   UNL A   1      31.910  30.164  25.868  1.00  0.00     0.012 C 
ENDBRANCH  16  20
ENDBRANCH  12  16
ENDBRANCH   9  11
ENDBRANCH   8   9
ENDBRANCH   7   8
ENDBRANCH   6   7
ENDBRANCH   5   6
ENDBRANCH   4   5
ENDBRANCH   3   4
ENDBRANCH   2   3
ENDBRANCH   1   2
BRANCH   1  28
ATOM     28  C   UNL A   1      37.347  21.077  25.218  1.00  0.00     0.188 C 
BRANCH  28  29
ATOM     29  O   UNL A   1      38.270  21.993  25.803  1.00  0.00    -0.376 OA
BRANCH  29  30
ATOM     30  C   UNL A   1      39.547  21.550  26.234  1.00  0.00     0.202 C 
BRANCH  30  31
ATOM     31  C   UNL A   1      40.321  22.443  27.200  1.00  0.00     0.261 C 
BRANCH  31  32
ATOM     32  O   UNL A   1      40.242  23.836  26.871  1.00  0.00    -0.460 OA
BRANCH  32  33
ATOM     33  C   UNL A   1      41.348  24.544  27.185  1.00  0.00     0.338 C 
ATOM     34  O   UNL A   1      42.497  24.324  26.821  1.00  0.00    -0.246 OA
BRANCH  33  35
ATOM     35  C   UNL A   1      40.986  25.732  27.970  1.00  0.00     0.060 A 
ATOM     36  C   UNL A   1      41.951  26.736  28.112  1.00  0.00     0.016 A 
ATOM     37  C   UNL A   1      39.779  25.793  28.670  1.00  0.00     0.016 A 
ATOM     38  C   UNL A   1      41.742  27.770  29.017  1.00  0.00     0.010 A 
ATOM     39  C   UNL A   1      39.576  26.830  29.586  1.00  0.00     0.010 A 
ATOM     40  C   UNL A   1      40.579  27.789  29.798  1.00  0.00    -0.014 A 
BRANCH  40  41
ATOM     41  C   UNL A   1      40.512  28.703  30.961  1.00  0.00     0.031 A 
ATOM     42  C   UNL A   1      39.507  29.824  30.941  1.00  0.00     0.074 A 
ATOM     43  C   UNL A   1      41.296  28.504  32.033  1.00  0.00     0.049 A 
ATOM     44  N   UNL A   1      39.279  30.749  31.835  1.00  0.00    -0.248 NA
ATOM     45  C   UNL A   1      38.640  29.910  29.754  1.00  0.00     0.031 C 
ATOM     46  C   UNL A   1      42.269  27.421  32.176  1.00  0.00     0.029 A 
ATOM     47  N   UNL A   1      41.399  29.208  33.206  1.00  0.00    -0.354 N 
ATOM     48  C   UNL A   1      38.250  31.529  31.320  1.00  0.00     0.074 A 
ATOM     49  C   UNL A   1      37.915  30.985  30.023  1.00  0.00     0.031 C 
ATOM     50  C   UNL A   1      42.879  27.540  33.367  1.00  0.00     0.029 A 
ATOM     51  C   UNL A   1      42.365  28.722  34.054  1.00  0.00     0.049 A 
ATOM     52  H   UNL A   1      40.835  29.985  33.419  1.00  0.00     0.167 HD
ATOM     53  C   UNL A   1      37.637  32.598  31.883  1.00  0.00     0.037 A 
ATOM     54  C   UNL A   1      42.797  29.198  35.238  1.00  0.00     0.037 A 
ATOM     55  C   UNL A   1      37.984  33.131  33.173  1.00  0.00     0.049 A 
ATOM     56  C   UNL A   1      42.149  30.431  35.813  1.00  0.00     0.074 A 
ATOM     57  C   UNL A   1      37.422  34.204  33.841  1.00  0.00     0.029 A 
ATOM     58  N   UNL A   1      38.991  32.636  33.989  1.00  0.00    -0.354 N 
ATOM     59  N   UNL A   1      41.166  31.150  35.323  1.00  0.00    -0.248 NA
ATOM     60  C   UNL A   1      42.666  30.916  37.099  1.00  0.00     0.031 C 
ATOM     61  C   UNL A   1      38.122  34.388  35.039  1.00  0.00     0.029 A 
ATOM     62  C   UNL A   1      39.084  33.395  35.142  1.00  0.00     0.049 A 
ATOM     63  H   UNL A   1      39.556  31.857  33.779  1.00  0.00     0.167 HD
ATOM     64  C   UNL A   1      40.930  32.157  36.254  1.00  0.00     0.074 A 
ATOM     65  C   UNL A   1      41.866  31.948  37.339  1.00  0.00     0.031 C 
ATOM     66  C   UNL A   1      40.021  33.164  36.215  1.00  0.00     0.037 A 
BRANCH  53  67
ATOM     67  C   UNL A   1      36.554  33.279  31.091  1.00  0.00     0.058 A 
ATOM     68  C   UNL A   1      36.848  34.156  30.035  1.00  0.00     0.135 A 
ATOM     69  C   UNL A   1      35.202  33.028  31.375  1.00  0.00     0.135 A 
ATOM     70  F   UNL A   1      38.123  34.448  29.732  1.00  0.00    -0.206 F 
ATOM     71  C   UNL A   1      35.841  34.780  29.305  1.00  0.00     0.059 A 
ATOM     72  C   UNL A   1      34.178  33.621  30.641  1.00  0.00     0.059 A 
ATOM     73  F   UNL A   1      34.864  32.201  32.377  1.00  0.00    -0.206 F 
ATOM     74  C   UNL A   1      34.507  34.506  29.617  1.00  0.00     0.060 A 
BRANCH  74  75
ATOM     75  S   UNL A   1      33.211  35.318  28.657  1.00  0.00     0.124 S 
ATOM     76  O   UNL A   1      32.517  34.172  28.076  1.00  0.00    -0.237 OA
ATOM     77  O   UNL A   1      32.476  36.052  29.682  1.00  0.00    -0.237 OA
ATOM     78  O   UNL A   1      33.955  36.145  27.712  1.00  0.00    -0.744 OA
ENDBRANCH  74  75
ENDBRANCH  53  67
BRANCH  54  79
ATOM     79  C   UNL A   1      43.911  28.516  35.947  1.00  0.00     0.058 A 
ATOM     80  C   UNL A   1      45.249  28.864  35.710  1.00  0.00     0.135 A 
ATOM     81  C   UNL A   1      43.657  27.505  36.889  1.00  0.00     0.135 A 
ATOM     82  F   UNL A   1      45.545  29.816  34.812  1.00  0.00    -0.206 F 
ATOM     83  C   UNL A   1      46.295  28.230  36.372  1.00  0.00     0.059 A 
ATOM     84  C   UNL A   1      44.684  26.874  37.582  1.00  0.00     0.059 A 
ATOM     85  F   UNL A   1      42.394  27.141  37.161  1.00  0.00    -0.206 F 
ATOM     86  C   UNL A   1      46.003  27.239  37.311  1.00  0.00     0.060 A 
BRANCH  86  87
ATOM     87  S   UNL A   1      47.364  26.465  38.210  1.00  0.00     0.124 S 
ATOM     88  O   UNL A   1      48.291  26.152  37.130  1.00  0.00    -0.237 OA
ATOM     89  O   UNL A   1      47.775  27.531  39.119  1.00  0.00    -0.237 OA
ATOM     90  O   UNL A   1      46.730  25.316  38.852  1.00  0.00    -0.744 OA
ENDBRANCH  86  87
ENDBRANCH  54  79
BRANCH  66  91
ATOM     91  C   UNL A   1      39.970  34.097  37.394  1.00  0.00     0.058 A 
ATOM     92  C   UNL A   1      40.734  35.273  37.438  1.00  0.00     0.135 A 
ATOM     93  C   UNL A   1      39.097  33.839  38.464  1.00  0.00     0.135 A 
ATOM     94  F   UNL A   1      41.587  35.563  36.444  1.00  0.00    -0.206 F 
ATOM     95  C   UNL A   1      40.650  36.152  38.513  1.00  0.00     0.059 A 
ATOM     96  C   UNL A   1      38.977  34.718  39.535  1.00  0.00     0.059 A 
ATOM     97  F   UNL A   1      38.335  32.733  38.465  1.00  0.00    -0.206 F 
ATOM     98  C   UNL A   1      39.766  35.867  39.556  1.00  0.00     0.060 A 
BRANCH  98  99
ATOM     99  S   UNL A   1      39.641  37.034  40.928  1.00  0.00     0.124 S 
ATOM    100  O   UNL A   1      39.106  36.186  41.987  1.00  0.00    -0.237 OA
ATOM    101  O   UNL A   1      41.024  37.466  41.098  1.00  0.00    -0.237 OA
ATOM    102  O   UNL A   1      38.729  38.056  40.421  1.00  0.00    -0.744 OA
ENDBRANCH  98  99
ENDBRANCH  66  91
ENDBRANCH  40  41
ENDBRANCH  33  35
ENDBRANCH  32  33
ENDBRANCH  31  32
ENDBRANCH  30  31
ENDBRANCH  29  30
ENDBRANCH  28  29
ENDBRANCH   1  28
TORSDOF 26
ENDMDL
MODEL 3
REMARK VINA RESULT:      -8.3      6.874     14.793
REMARK SMILES CC[N@@H+]([C@@H]1CSCC(C)(C)C1)[C@@H]1COC[C@@H]1C(=O)OCCOCCOCCOCCOC(=O)c1ccc(-c2c3nc(c(-c4c(F)cc(S(=O)(=O)[O-])cc4F)c4ccc([nH]4)c(-c4c(F)cc(S(=O)(=O)[O-])cc4F)c4nc(c(-c5c(F)cc(S(=O)(=O)[O-])cc5F)c5ccc2[nH]5)C=C4)C=C3)cc1
REMARK SMILES IDX 26 1 25 2 24 3 23 4 22 5 21 6 20 7 19 8 17 9 18 10 16 11
REMARK SMILES IDX 12 12 13 13 14 14 15 15 3 16 2 18 1 19 4 20 5 21 11 22 6 23
REMARK SMILES IDX 8 24 7 25 9 26 10 27 27 28 28 29 29 30 30 31 31 32 32 33
REMARK SMILES IDX 33 34 34 35 35 36 99 37 36 38 98 39 37 40 38 41 39 42 92 43
REMARK SMILES IDX 40 44 97 45 91 46 93 47 41 48 96 49 90 50 89 51 42 53 76 54
REMARK SMILES IDX 55 55 75 56 56 57 59 58 74 59 94 60 57 61 58 62 73 64 95 65
REMARK SMILES IDX 60 66 43 67 44 68 53 69 45 70 46 71 52 72 54 73 47 74 48 75
REMARK SMILES IDX 49 76 50 77 51 78 77 79 78 80 87 81 79 82 80 83 86 84 88 85
REMARK SMILES IDX 81 86 82 87 83 88 84 89 85 90 61 91 62 92 71 93 63 94 64 95
REMARK SMILES IDX 70 96 72 97 65 98 66 99 67 100 68 101 69 102
REMARK H PARENT 3 17 93 52 59 63
REMARK Flexibility Score: inf
ROOT
ATOM      1  C   UNL A   1      39.068  33.419  35.070  1.00  0.00     0.188 C 
ENDROOT
BRANCH   1   2
ATOM      2  O   UNL A   1      39.956  32.339  34.844  1.00  0.00    -0.377 OA
BRANCH   2   3
ATOM      3  C   UNL A   1      39.713  31.075  35.431  1.00  0.00     0.188 C 
BRANCH   3   4
ATOM      4  C   UNL A   1      40.546  29.874  34.998  1.00  0.00     0.188 C 
BRANCH   4   5
ATOM      5  O   UNL A   1      39.997  29.136  33.915  1.00  0.00    -0.376 OA
BRANCH   5   6
ATOM      6  C   UNL A   1      40.713  27.944  33.611  1.00  0.00     0.202 C 
BRANCH   6   7
ATOM      7  C   UNL A   1      41.953  27.715  34.475  1.00  0.00     0.261 C 
BRANCH   7   8
ATOM      8  O   UNL A   1      42.632  26.460  34.274  1.00  0.00    -0.463 OA
BRANCH   8   9
ATOM      9  C   UNL A   1      43.970  26.429  34.380  1.00  0.00     0.317 C 
ATOM     10  O   UNL A   1      44.615  27.362  34.849  1.00  0.00    -0.252 OA
BRANCH   9  11
ATOM     11  C   UNL A   1      44.621  25.225  33.692  1.00  0.00     0.185 C 
ATOM     12  C   UNL A   1      45.897  24.470  34.172  1.00  0.00     0.227 C 
ATOM     13  C   UNL A   1      47.022  25.214  33.393  1.00  0.00     0.226 C 
ATOM     14  O   UNL A   1      46.420  26.083  32.424  1.00  0.00    -0.374 OA
ATOM     15  C   UNL A   1      45.052  25.698  32.305  1.00  0.00     0.182 C 
BRANCH  12  16
ATOM     16  N   UNL A   1      46.213  23.818  35.493  1.00  0.00    -0.327 N 
ATOM     17  H   UNL A   1      47.207  23.638  35.339  1.00  0.00     0.348 HD
BRANCH  16  18
ATOM     18  C   UNL A   1      46.095  24.716  36.658  1.00  0.00     0.259 C 
ATOM     19  C   UNL A   1      47.408  25.348  37.114  1.00  0.00     0.071 C 
ENDBRANCH  16  18
BRANCH  16  20
ATOM     20  C   UNL A   1      45.754  22.425  35.759  1.00  0.00     0.194 C 
ATOM     21  C   UNL A   1      45.945  21.816  37.190  1.00  0.00     0.134 C 
ATOM     22  C   UNL A   1      46.280  21.352  34.773  1.00  0.00     0.073 C 
ATOM     23  S   UNL A   1      47.662  21.416  37.636  1.00  0.00    -0.155 SA
ATOM     24  C   UNL A   1      47.769  20.941  34.875  1.00  0.00    -0.021 C 
ATOM     25  C   UNL A   1      48.034  20.294  36.248  1.00  0.00     0.076 C 
ATOM     26  C   UNL A   1      48.742  22.107  34.621  1.00  0.00     0.012 C 
ATOM     27  C   UNL A   1      48.022  19.896  33.763  1.00  0.00     0.012 C 
ENDBRANCH  16  20
ENDBRANCH  12  16
ENDBRANCH   9  11
ENDBRANCH   8   9
ENDBRANCH   7   8
ENDBRANCH   6   7
ENDBRANCH   5   6
ENDBRANCH   4   5
ENDBRANCH   3   4
ENDBRANCH   2   3
ENDBRANCH   1   2
BRANCH   1  28
ATOM     28  C   UNL A   1      37.562  33.156  34.999  1.00  0.00     0.188 C 
BRANCH  28  29
ATOM     29  O   UNL A   1      36.896  33.132  33.738  1.00  0.00    -0.376 OA
BRANCH  29  30
ATOM     30  C   UNL A   1      36.494  31.900  33.161  1.00  0.00     0.202 C 
BRANCH  30  31
ATOM     31  C   UNL A   1      35.524  31.949  31.984  1.00  0.00     0.261 C 
BRANCH  31  32
ATOM     32  O   UNL A   1      36.144  31.652  30.726  1.00  0.00    -0.460 OA
BRANCH  32  33
ATOM     33  C   UNL A   1      36.637  30.398  30.632  1.00  0.00     0.338 C 
ATOM     34  O   UNL A   1      36.033  29.349  30.823  1.00  0.00    -0.246 OA
BRANCH  33  35
ATOM     35  C   UNL A   1      38.024  30.430  30.150  1.00  0.00     0.060 A 
ATOM     36  C   UNL A   1      38.253  30.109  28.807  1.00  0.00     0.016 A 
ATOM     37  C   UNL A   1      39.090  30.629  31.031  1.00  0.00     0.016 A 
ATOM     38  C   UNL A   1      39.553  29.911  28.356  1.00  0.00     0.010 A 
ATOM     39  C   UNL A   1      40.396  30.420  30.578  1.00  0.00     0.010 A 
ATOM     40  C   UNL A   1      40.624  30.011  29.254  1.00  0.00    -0.014 A 
BRANCH  40  41
ATOM     41  C   UNL A   1      41.953  29.499  28.845  1.00  0.00     0.031 A 
ATOM     42  C   UNL A   1      43.117  30.452  28.820  1.00  0.00     0.074 A 
ATOM     43  C   UNL A   1      42.123  28.199  28.551  1.00  0.00     0.049 A 
ATOM     44  N   UNL A   1      44.361  30.233  28.484  1.00  0.00    -0.248 NA
ATOM     45  C   UNL A   1      42.842  31.838  29.234  1.00  0.00     0.031 C 
ATOM     46  C   UNL A   1      41.073  27.182  28.590  1.00  0.00     0.029 A 
ATOM     47  N   UNL A   1      43.244  27.513  28.160  1.00  0.00    -0.354 N 
ATOM     48  C   UNL A   1      45.016  31.450  28.640  1.00  0.00     0.074 A 
ATOM     49  C   UNL A   1      44.026  32.411  29.076  1.00  0.00     0.031 C 
ATOM     50  C   UNL A   1      41.599  26.000  28.226  1.00  0.00     0.029 A 
ATOM     51  C   UNL A   1      43.011  26.185  27.897  1.00  0.00     0.049 A 
ATOM     52  H   UNL A   1      44.131  27.933  28.077  1.00  0.00     0.167 HD
ATOM     53  C   UNL A   1      46.325  31.736  28.442  1.00  0.00     0.037 A 
ATOM     54  C   UNL A   1      43.842  25.237  27.421  1.00  0.00     0.037 A 
ATOM     55  C   UNL A   1      47.297  30.770  28.004  1.00  0.00     0.049 A 
ATOM     56  C   UNL A   1      45.279  25.595  27.142  1.00  0.00     0.074 A 
ATOM     57  C   UNL A   1      48.651  30.951  27.782  1.00  0.00     0.029 A 
ATOM     58  N   UNL A   1      47.018  29.443  27.714  1.00  0.00    -0.354 N 
ATOM     59  N   UNL A   1      45.889  26.745  27.308  1.00  0.00    -0.248 NA
ATOM     60  C   UNL A   1      46.139  24.529  26.612  1.00  0.00     0.031 C 
ATOM     61  C   UNL A   1      49.180  29.745  27.309  1.00  0.00     0.029 A 
ATOM     62  C   UNL A   1      48.167  28.798  27.290  1.00  0.00     0.049 A 
ATOM     63  H   UNL A   1      46.133  29.020  27.797  1.00  0.00     0.167 HD
ATOM     64  C   UNL A   1      47.211  26.534  26.928  1.00  0.00     0.074 A 
ATOM     65  C   UNL A   1      47.312  25.143  26.532  1.00  0.00     0.031 C 
ATOM     66  C   UNL A   1      48.247  27.409  26.907  1.00  0.00     0.037 A 
BRANCH  53  67
ATOM     67  C   UNL A   1      46.771  33.155  28.667  1.00  0.00     0.058 A 
ATOM     68  C   UNL A   1      47.199  33.607  29.926  1.00  0.00     0.135 A 
ATOM     69  C   UNL A   1      46.797  34.069  27.601  1.00  0.00     0.135 A 
ATOM     70  F   UNL A   1      47.177  32.782  30.984  1.00  0.00    -0.206 F 
ATOM     71  C   UNL A   1      47.614  34.920  30.125  1.00  0.00     0.059 A 
ATOM     72  C   UNL A   1      47.233  35.380  27.772  1.00  0.00     0.059 A 
ATOM     73  F   UNL A   1      46.394  33.691  26.377  1.00  0.00    -0.206 F 
ATOM     74  C   UNL A   1      47.626  35.800  29.041  1.00  0.00     0.060 A 
BRANCH  74  75
ATOM     75  S   UNL A   1      48.172  37.499  29.313  1.00  0.00     0.124 S 
ATOM     76  O   UNL A   1      47.044  38.257  28.780  1.00  0.00    -0.237 OA
ATOM     77  O   UNL A   1      48.339  37.546  30.762  1.00  0.00    -0.237 OA
ATOM     78  O   UNL A   1      49.407  37.588  28.540  1.00  0.00    -0.744 OA
ENDBRANCH  74  75
ENDBRANCH  53  67
BRANCH  54  79
ATOM     79  C   UNL A   1      43.329  23.865  27.164  1.00  0.00     0.058 A 
ATOM     80  C   UNL A   1      42.765  23.517  25.928  1.00  0.00     0.135 A 
ATOM     81  C   UNL A   1      43.403  22.869  28.152  1.00  0.00     0.135 A 
ATOM     82  F   UNL A   1      42.662  24.436  24.956  1.00  0.00    -0.206 F 
ATOM     83  C   UNL A   1      42.286  22.235  25.681  1.00  0.00     0.059 A 
ATOM     84  C   UNL A   1      42.953  21.574  27.920  1.00  0.00     0.059 A 
ATOM     85  F   UNL A   1      43.943  23.146  29.348  1.00  0.00    -0.206 F 
ATOM     86  C   UNL A   1      42.388  21.268  26.683  1.00  0.00     0.060 A 
BRANCH  86  87
ATOM     87  S   UNL A   1      41.820  19.590  26.332  1.00  0.00     0.124 S 
ATOM     88  O   UNL A   1      40.394  19.802  26.115  1.00  0.00    -0.237 OA
ATOM     89  O   UNL A   1      42.603  19.242  25.150  1.00  0.00    -0.237 OA
ATOM     90  O   UNL A   1      42.172  18.857  27.545  1.00  0.00    -0.744 OA
ENDBRANCH  86  87
ENDBRANCH  54  79
BRANCH  66  91
ATOM     91  C   UNL A   1      49.589  26.884  26.475  1.00  0.00     0.058 A 
ATOM     92  C   UNL A   1      50.459  26.250  27.375  1.00  0.00     0.135 A 
ATOM     93  C   UNL A   1      49.980  26.963  25.128  1.00  0.00     0.135 A 
ATOM     94  F   UNL A   1      50.134  26.154  28.674  1.00  0.00    -0.206 F 
ATOM     95  C   UNL A   1      51.680  25.730  26.960  1.00  0.00     0.059 A 
ATOM     96  C   UNL A   1      51.184  26.426  24.686  1.00  0.00     0.059 A 
ATOM     97  F   UNL A   1      49.179  27.550  24.224  1.00  0.00    -0.206 F 
ATOM     98  C   UNL A   1      52.033  25.821  25.611  1.00  0.00     0.060 A 
BRANCH  98  99
ATOM     99  S   UNL A   1      53.604  25.109  25.079  1.00  0.00     0.124 S 
ATOM    100  O   UNL A   1      54.536  25.712  26.026  1.00  0.00    -0.237 OA
ATOM    101  O   UNL A   1      53.371  23.678  25.242  1.00  0.00    -0.237 OA
ATOM    102  O   UNL A   1      53.731  25.563  23.697  1.00  0.00    -0.744 OA
ENDBRANCH  98  99
ENDBRANCH  66  91
ENDBRANCH  40  41
ENDBRANCH  33  35
ENDBRANCH  32  33
ENDBRANCH  31  32
ENDBRANCH  30  31
ENDBRANCH  29  30
ENDBRANCH  28  29
ENDBRANCH   1  28
TORSDOF 26
ENDMDL
