MODEL 1
REMARK VINA RESULT:      -9.3      0.000      0.000
REMARK SMILES CC(C)N(CC(=O)OCCOCCOCCOCCOC(=O)c1ccc(-c2c3nc(c(-c4c(F)cc(S(=O)(=O)[O-])cc4F)c4ccc([nH]4)c(-c4c(F)cc(S(=O)(=O)[O-])cc4F)c4nc(c(-c5c(F)cc(S(=O)(=O)[O-])cc5F)c5ccc2[nH]5)C=C4)C=C3)cc1)C(=O)NC1C(C)(C)C1(C)C
REMARK SMILES IDX 14 1 13 2 12 3 11 4 10 5 9 6 8 7 6 8 7 9 5 10 4 11 2 12 1 13
REMARK SMILES IDX 3 14 89 15 90 16 91 17 92 19 93 20 96 21 94 22 95 23 97 24
REMARK SMILES IDX 98 25 15 26 16 27 17 28 18 29 19 30 20 31 21 32 22 33 23 34
REMARK SMILES IDX 24 35 88 36 25 37 87 38 26 39 27 40 28 41 81 42 29 43 86 44
REMARK SMILES IDX 80 45 82 46 30 47 85 48 79 49 78 50 31 52 65 53 44 54 64 55
REMARK SMILES IDX 45 56 48 57 63 58 83 59 46 60 47 61 62 63 84 64 49 65 32 66
REMARK SMILES IDX 33 67 42 68 34 69 35 70 41 71 43 72 36 73 37 74 38 75 39 76
REMARK SMILES IDX 40 77 66 78 67 79 76 80 68 81 69 82 75 83 77 84 70 85 71 86
REMARK SMILES IDX 72 87 73 88 74 89 50 90 51 91 60 92 52 93 53 94 59 95 61 96
REMARK SMILES IDX 54 97 55 98 56 99 57 100 58 101
REMARK H PARENT 91 18 82 51 48 62
REMARK Flexibility Score: inf
ROOT
ATOM      1  O   UNL A   1      39.641  21.858  26.861  1.00  0.00    -0.377 OA
ENDROOT
BRANCH   1   2
ATOM      2  C   UNL A   1      39.112  23.158  26.762  1.00  0.00     0.188 C 
BRANCH   2   3
ATOM      3  C   UNL A   1      37.971  23.405  25.760  1.00  0.00     0.188 C 
BRANCH   3   4
ATOM      4  O   UNL A   1      36.771  22.721  26.013  1.00  0.00    -0.376 OA
BRANCH   4   5
ATOM      5  C   UNL A   1      36.612  21.415  25.492  1.00  0.00     0.202 C 
BRANCH   5   6
ATOM      6  C   UNL A   1      35.360  20.867  24.749  1.00  0.00     0.261 C 
BRANCH   6   7
ATOM      7  O   UNL A   1      34.196  20.433  25.491  1.00  0.00    -0.462 OA
BRANCH   7   8
ATOM      8  C   UNL A   1      32.982  20.857  25.048  1.00  0.00     0.325 C 
ATOM      9  O   UNL A   1      31.968  20.161  25.100  1.00  0.00    -0.250 OA
BRANCH   8  10
ATOM     10  C   UNL A   1      32.913  22.283  24.429  1.00  0.00     0.244 C 
BRANCH  10  11
ATOM     11  N   UNL A   1      32.620  23.571  25.102  1.00  0.00    -0.311 N 
BRANCH  11  12
ATOM     12  C   UNL A   1      31.219  24.052  24.988  1.00  0.00     0.081 C 
ATOM     13  C   UNL A   1      30.633  23.833  23.578  1.00  0.00     0.031 C 
ATOM     14  C   UNL A   1      30.294  23.485  26.062  1.00  0.00     0.031 C 
ENDBRANCH  11  12
BRANCH  11  15
ATOM     15  C   UNL A   1      33.445  24.274  25.955  1.00  0.00     0.318 C 
ATOM     16  O   UNL A   1      33.996  23.758  26.934  1.00  0.00    -0.249 OA
ATOM     17  N   UNL A   1      33.754  25.582  25.804  1.00  0.00    -0.334 N 
ATOM     18  H   UNL A   1      34.513  25.855  26.368  1.00  0.00     0.165 HD
BRANCH  17  19
ATOM     19  C   UNL A   1      33.247  26.651  25.028  1.00  0.00     0.096 C 
ATOM     20  C   UNL A   1      32.053  27.467  25.515  1.00  0.00    -0.007 C 
ATOM     21  C   UNL A   1      33.435  28.115  25.303  1.00  0.00    -0.007 C 
ATOM     22  C   UNL A   1      30.930  27.699  24.522  1.00  0.00     0.014 C 
ATOM     23  C   UNL A   1      31.526  27.320  26.927  1.00  0.00     0.014 C 
ATOM     24  C   UNL A   1      34.303  28.500  26.476  1.00  0.00     0.014 C 
ATOM     25  C   UNL A   1      33.658  29.003  24.094  1.00  0.00     0.014 C 
ENDBRANCH  17  19
ENDBRANCH  11  15
ENDBRANCH  10  11
ENDBRANCH   8  10
ENDBRANCH   7   8
ENDBRANCH   6   7
ENDBRANCH   5   6
ENDBRANCH   4   5
ENDBRANCH   3   4
ENDBRANCH   2   3
ENDBRANCH   1   2
BRANCH   1  26
ATOM     26  C   UNL A   1      40.808  21.673  27.635  1.00  0.00     0.188 C 
BRANCH  26  27
ATOM     27  C   UNL A   1      41.633  20.371  27.536  1.00  0.00     0.188 C 
BRANCH  27  28
ATOM     28  O   UNL A   1      42.788  20.419  26.711  1.00  0.00    -0.376 OA
BRANCH  28  29
ATOM     29  C   UNL A   1      42.863  21.426  25.713  1.00  0.00     0.202 C 
BRANCH  29  30
ATOM     30  C   UNL A   1      43.999  22.457  25.811  1.00  0.00     0.261 C 
BRANCH  30  31
ATOM     31  O   UNL A   1      43.777  23.553  26.703  1.00  0.00    -0.460 OA
BRANCH  31  32
ATOM     32  C   UNL A   1      43.860  24.799  26.181  1.00  0.00     0.338 C 
ATOM     33  O   UNL A   1      44.258  25.108  25.082  1.00  0.00    -0.246 OA
BRANCH  32  34
ATOM     34  C   UNL A   1      43.171  25.704  27.128  1.00  0.00     0.060 A 
ATOM     35  C   UNL A   1      43.523  27.060  27.131  1.00  0.00     0.016 A 
ATOM     36  C   UNL A   1      42.142  25.233  27.947  1.00  0.00     0.016 A 
ATOM     37  C   UNL A   1      42.851  27.951  27.964  1.00  0.00     0.010 A 
ATOM     38  C   UNL A   1      41.502  26.117  28.819  1.00  0.00     0.010 A 
ATOM     39  C   UNL A   1      41.880  27.470  28.853  1.00  0.00    -0.014 A 
BRANCH  39  40
ATOM     40  C   UNL A   1      41.504  28.323  30.004  1.00  0.00     0.031 A 
ATOM     41  C   UNL A   1      42.340  28.192  31.250  1.00  0.00     0.074 A 
ATOM     42  C   UNL A   1      40.516  29.233  29.928  1.00  0.00     0.049 A 
ATOM     43  N   UNL A   1      42.242  28.824  32.389  1.00  0.00    -0.248 NA
ATOM     44  C   UNL A   1      43.445  27.217  31.196  1.00  0.00     0.031 C 
ATOM     45  C   UNL A   1      39.678  29.483  28.758  1.00  0.00     0.029 A 
ATOM     46  N   UNL A   1      40.056  30.121  30.868  1.00  0.00    -0.354 N 
ATOM     47  C   UNL A   1      43.280  28.337  33.175  1.00  0.00     0.074 A 
ATOM     48  C   UNL A   1      43.964  27.322  32.407  1.00  0.00     0.031 C 
ATOM     49  C   UNL A   1      38.794  30.454  29.055  1.00  0.00     0.029 A 
ATOM     50  C   UNL A   1      38.990  30.877  30.441  1.00  0.00     0.049 A 
ATOM     51  H   UNL A   1      40.454  30.209  31.765  1.00  0.00     0.167 HD
ATOM     52  C   UNL A   1      43.647  28.718  34.421  1.00  0.00     0.037 A 
ATOM     53  C   UNL A   1      38.254  31.790  31.107  1.00  0.00     0.037 A 
ATOM     54  C   UNL A   1      42.946  29.710  35.189  1.00  0.00     0.049 A 
ATOM     55  C   UNL A   1      38.622  32.124  32.535  1.00  0.00     0.074 A 
ATOM     56  C   UNL A   1      43.203  30.139  36.479  1.00  0.00     0.029 A 
ATOM     57  N   UNL A   1      41.850  30.428  34.736  1.00  0.00    -0.354 N 
ATOM     58  N   UNL A   1      39.604  31.655  33.270  1.00  0.00    -0.248 NA
ATOM     59  C   UNL A   1      37.790  33.124  33.218  1.00  0.00     0.031 C 
ATOM     60  C   UNL A   1      42.234  31.088  36.820  1.00  0.00     0.029 A 
ATOM     61  C   UNL A   1      41.415  31.296  35.722  1.00  0.00     0.049 A 
ATOM     62  H   UNL A   1      41.442  30.335  33.845  1.00  0.00     0.167 HD
ATOM     63  C   UNL A   1      39.535  32.339  34.481  1.00  0.00     0.074 A 
ATOM     64  C   UNL A   1      38.422  33.259  34.375  1.00  0.00     0.031 C 
ATOM     65  C   UNL A   1      40.321  32.224  35.582  1.00  0.00     0.037 A 
BRANCH  52  66
ATOM     66  C   UNL A   1      44.848  28.046  35.024  1.00  0.00     0.058 A 
ATOM     67  C   UNL A   1      46.151  28.504  34.767  1.00  0.00     0.135 A 
ATOM     68  C   UNL A   1      44.698  26.951  35.889  1.00  0.00     0.135 A 
ATOM     69  F   UNL A   1      46.354  29.528  33.923  1.00  0.00    -0.206 F 
ATOM     70  C   UNL A   1      47.263  27.893  35.336  1.00  0.00     0.059 A 
ATOM     71  C   UNL A   1      45.794  26.343  36.493  1.00  0.00     0.059 A 
ATOM     72  F   UNL A   1      43.476  26.464  36.158  1.00  0.00    -0.206 F 
ATOM     73  C   UNL A   1      47.072  26.816  36.204  1.00  0.00     0.060 A 
BRANCH  73  74
ATOM     74  S   UNL A   1      48.525  26.056  36.958  1.00  0.00     0.124 S 
ATOM     75  O   UNL A   1      48.591  26.756  38.237  1.00  0.00    -0.237 OA
ATOM     76  O   UNL A   1      48.139  24.650  37.024  1.00  0.00    -0.237 OA
ATOM     77  O   UNL A   1      49.599  26.365  36.018  1.00  0.00    -0.744 OA
ENDBRANCH  73  74
ENDBRANCH  52  66
BRANCH  53  78
ATOM     78  C   UNL A   1      37.084  32.447  30.458  1.00  0.00     0.058 A 
ATOM     79  C   UNL A   1      37.244  33.550  29.605  1.00  0.00     0.135 A 
ATOM     80  C   UNL A   1      35.774  32.024  30.732  1.00  0.00     0.135 A 
ATOM     81  F   UNL A   1      38.475  34.001  29.316  1.00  0.00    -0.206 F 
ATOM     82  C   UNL A   1      36.152  34.237  29.084  1.00  0.00     0.059 A 
ATOM     83  C   UNL A   1      34.666  32.673  30.196  1.00  0.00     0.059 A 
ATOM     84  F   UNL A   1      35.559  30.967  31.531  1.00  0.00    -0.206 F 
ATOM     85  C   UNL A   1      34.864  33.794  29.391  1.00  0.00     0.060 A 
BRANCH  85  86
ATOM     86  S   UNL A   1      33.451  34.694  28.715  1.00  0.00     0.124 S 
ATOM     87  O   UNL A   1      32.647  34.920  29.911  1.00  0.00    -0.237 OA
ATOM     88  O   UNL A   1      34.087  35.874  28.139  1.00  0.00    -0.237 OA
ATOM     89  O   UNL A   1      32.890  33.757  27.746  1.00  0.00    -0.744 OA
ENDBRANCH  85  86
ENDBRANCH  53  78
BRANCH  65  90
ATOM     90  C   UNL A   1      40.060  33.169  36.726  1.00  0.00     0.058 A 
ATOM     91  C   UNL A   1      39.076  32.921  37.694  1.00  0.00     0.135 A 
ATOM     92  C   UNL A   1      40.836  34.334  36.865  1.00  0.00     0.135 A 
ATOM     93  F   UNL A   1      38.307  31.824  37.612  1.00  0.00    -0.206 F 
ATOM     94  C   UNL A   1      38.836  33.817  38.732  1.00  0.00     0.059 A 
ATOM     95  C   UNL A   1      40.639  35.223  37.915  1.00  0.00     0.059 A 
ATOM     96  F   UNL A   1      41.805  34.611  35.978  1.00  0.00    -0.206 F 
ATOM     97  C   UNL A   1      39.622  34.968  38.832  1.00  0.00     0.060 A 
BRANCH  97  98
ATOM     98  S   UNL A   1      39.301  36.122  40.181  1.00  0.00     0.124 S 
ATOM     99  O   UNL A   1      40.631  36.271  40.762  1.00  0.00    -0.237 OA
ATOM    100  O   UNL A   1      38.782  37.290  39.477  1.00  0.00    -0.237 OA
ATOM    101  O   UNL A   1      38.329  35.415  41.010  1.00  0.00    -0.744 OA
ENDBRANCH  97  98
ENDBRANCH  65  90
ENDBRANCH  39  40
ENDBRANCH  32  34
ENDBRANCH  31  32
ENDBRANCH  30  31
ENDBRANCH  29  30
ENDBRANCH  28  29
ENDBRANCH  27  28
ENDBRANCH  26  27
ENDBRANCH   1  26
TORSDOF 27
ENDMDL
MODEL 2
REMARK VINA RESULT:      -9.1      1.307      2.159
REMARK SMILES CC(C)N(CC(=O)OCCOCCOCCOCCOC(=O)c1ccc(-c2c3nc(c(-c4c(F)cc(S(=O)(=O)[O-])cc4F)c4ccc([nH]4)c(-c4c(F)cc(S(=O)(=O)[O-])cc4F)c4nc(c(-c5c(F)cc(S(=O)(=O)[O-])cc5F)c5ccc2[nH]5)C=C4)C=C3)cc1)C(=O)NC1C(C)(C)C1(C)C
REMARK SMILES IDX 14 1 13 2 12 3 11 4 10 5 9 6 8 7 6 8 7 9 5 10 4 11 2 12 1 13
REMARK SMILES IDX 3 14 89 15 90 16 91 17 92 19 93 20 96 21 94 22 95 23 97 24
REMARK SMILES IDX 98 25 15 26 16 27 17 28 18 29 19 30 20 31 21 32 22 33 23 34
REMARK SMILES IDX 24 35 88 36 25 37 87 38 26 39 27 40 28 41 81 42 29 43 86 44
REMARK SMILES IDX 80 45 82 46 30 47 85 48 79 49 78 50 31 52 65 53 44 54 64 55
REMARK SMILES IDX 45 56 48 57 63 58 83 59 46 60 47 61 62 63 84 64 49 65 32 66
REMARK SMILES IDX 33 67 42 68 34 69 35 70 41 71 43 72 36 73 37 74 38 75 39 76
REMARK SMILES IDX 40 77 66 78 67 79 76 80 68 81 69 82 75 83 77 84 70 85 71 86
REMARK SMILES IDX 72 87 73 88 74 89 50 90 51 91 60 92 52 93 53 94 59 95 61 96
REMARK SMILES IDX 54 97 55 98 56 99 57 100 58 101
REMARK H PARENT 91 18 82 51 48 62
REMARK Flexibility Score: inf
ROOT
ATOM      1  O   UNL A   1      39.607  21.407  26.388  1.00  0.00    -0.377 OA
ENDROOT
BRANCH   1   2
ATOM      2  C   UNL A   1      38.593  22.298  25.990  1.00  0.00     0.188 C 
BRANCH   2   3
ATOM      3  C   UNL A   1      37.475  21.766  25.076  1.00  0.00     0.188 C 
BRANCH   3   4
ATOM      4  O   UNL A   1      36.468  21.019  25.707  1.00  0.00    -0.376 OA
BRANCH   4   5
ATOM      5  C   UNL A   1      35.346  20.614  24.946  1.00  0.00     0.202 C 
BRANCH   5   6
ATOM      6  C   UNL A   1      33.869  21.039  25.186  1.00  0.00     0.261 C 
BRANCH   6   7
ATOM      7  O   UNL A   1      33.341  21.136  26.529  1.00  0.00    -0.462 OA
BRANCH   7   8
ATOM      8  C   UNL A   1      32.920  22.360  26.946  1.00  0.00     0.325 C 
ATOM      9  O   UNL A   1      32.394  22.551  28.043  1.00  0.00    -0.250 OA
BRANCH   8  10
ATOM     10  C   UNL A   1      33.101  23.546  25.956  1.00  0.00     0.244 C 
BRANCH  10  11
ATOM     11  N   UNL A   1      32.063  24.420  25.359  1.00  0.00    -0.311 N 
BRANCH  11  12
ATOM     12  C   UNL A   1      31.959  24.375  23.877  1.00  0.00     0.081 C 
ATOM     13  C   UNL A   1      33.332  24.206  23.194  1.00  0.00     0.031 C 
ATOM     14  C   UNL A   1      30.962  23.335  23.371  1.00  0.00     0.031 C 
ENDBRANCH  11  12
BRANCH  11  15
ATOM     15  C   UNL A   1      31.083  25.128  26.023  1.00  0.00     0.318 C 
ATOM     16  O   UNL A   1      30.214  24.585  26.713  1.00  0.00    -0.249 OA
ATOM     17  N   UNL A   1      30.981  26.476  26.010  1.00  0.00    -0.334 N 
ATOM     18  H   UNL A   1      30.366  26.812  26.701  1.00  0.00     0.165 HD
BRANCH  17  19
ATOM     19  C   UNL A   1      31.546  27.519  25.239  1.00  0.00     0.096 C 
ATOM     20  C   UNL A   1      31.816  28.886  25.861  1.00  0.00    -0.007 C 
ATOM     21  C   UNL A   1      32.963  28.013  25.316  1.00  0.00    -0.007 C 
ATOM     22  C   UNL A   1      31.334  30.099  25.088  1.00  0.00     0.014 C 
ATOM     23  C   UNL A   1      31.713  29.103  27.357  1.00  0.00     0.014 C 
ATOM     24  C   UNL A   1      33.904  27.292  26.249  1.00  0.00     0.014 C 
ATOM     25  C   UNL A   1      33.616  28.387  23.999  1.00  0.00     0.014 C 
ENDBRANCH  17  19
ENDBRANCH  11  15
ENDBRANCH  10  11
ENDBRANCH   8  10
ENDBRANCH   7   8
ENDBRANCH   6   7
ENDBRANCH   5   6
ENDBRANCH   4   5
ENDBRANCH   3   4
ENDBRANCH   2   3
ENDBRANCH   1   2
BRANCH   1  26
ATOM     26  C   UNL A   1      40.940  21.720  26.041  1.00  0.00     0.188 C 
BRANCH  26  27
ATOM     27  C   UNL A   1      42.091  20.729  26.321  1.00  0.00     0.188 C 
BRANCH  27  28
ATOM     28  O   UNL A   1      43.403  21.191  26.035  1.00  0.00    -0.376 OA
BRANCH  28  29
ATOM     29  C   UNL A   1      43.548  22.385  25.281  1.00  0.00     0.202 C 
BRANCH  29  30
ATOM     30  C   UNL A   1      43.808  23.694  26.043  1.00  0.00     0.261 C 
BRANCH  30  31
ATOM     31  O   UNL A   1      42.651  24.366  26.550  1.00  0.00    -0.460 OA
BRANCH  31  32
ATOM     32  C   UNL A   1      42.450  25.640  26.141  1.00  0.00     0.338 C 
ATOM     33  O   UNL A   1      42.210  26.022  25.020  1.00  0.00    -0.246 OA
BRANCH  32  34
ATOM     34  C   UNL A   1      42.367  26.470  27.364  1.00  0.00     0.060 A 
ATOM     35  C   UNL A   1      41.521  26.050  28.399  1.00  0.00     0.016 A 
ATOM     36  C   UNL A   1      43.168  27.606  27.515  1.00  0.00     0.016 A 
ATOM     37  C   UNL A   1      41.466  26.772  29.588  1.00  0.00     0.010 A 
ATOM     38  C   UNL A   1      43.075  28.358  28.687  1.00  0.00     0.010 A 
ATOM     39  C   UNL A   1      42.198  27.961  29.712  1.00  0.00    -0.014 A 
BRANCH  39  40
ATOM     40  C   UNL A   1      41.800  28.919  30.769  1.00  0.00     0.031 A 
ATOM     41  C   UNL A   1      42.657  28.961  32.007  1.00  0.00     0.074 A 
ATOM     42  C   UNL A   1      40.773  29.773  30.612  1.00  0.00     0.049 A 
ATOM     43  N   UNL A   1      42.545  29.709  33.072  1.00  0.00    -0.248 NA
ATOM     44  C   UNL A   1      43.802  28.033  32.041  1.00  0.00     0.031 C 
ATOM     45  C   UNL A   1      39.909  29.857  29.435  1.00  0.00     0.029 A 
ATOM     46  N   UNL A   1      40.286  30.739  31.457  1.00  0.00    -0.354 N 
ATOM     47  C   UNL A   1      43.613  29.356  33.889  1.00  0.00     0.074 A 
ATOM     48  C   UNL A   1      44.331  28.292  33.225  1.00  0.00     0.031 C 
ATOM     49  C   UNL A   1      38.988  30.817  29.640  1.00  0.00     0.029 A 
ATOM     50  C   UNL A   1      39.183  31.398  30.968  1.00  0.00     0.049 A 
ATOM     51  H   UNL A   1      40.691  30.941  32.331  1.00  0.00     0.167 HD
ATOM     52  C   UNL A   1      43.979  29.886  35.079  1.00  0.00     0.037 A 
ATOM     53  C   UNL A   1      38.416  32.346  31.543  1.00  0.00     0.037 A 
ATOM     54  C   UNL A   1      43.245  30.927  35.746  1.00  0.00     0.049 A 
ATOM     55  C   UNL A   1      38.787  32.851  32.919  1.00  0.00     0.074 A 
ATOM     56  C   UNL A   1      43.499  31.506  36.976  1.00  0.00     0.029 A 
ATOM     57  N   UNL A   1      42.113  31.544  35.236  1.00  0.00    -0.354 N 
ATOM     58  N   UNL A   1      39.798  32.507  33.684  1.00  0.00    -0.248 NA
ATOM     59  C   UNL A   1      37.921  33.884  33.503  1.00  0.00     0.031 C 
ATOM     60  C   UNL A   1      42.495  32.445  37.229  1.00  0.00     0.029 A 
ATOM     61  C   UNL A   1      41.653  32.496  36.129  1.00  0.00     0.049 A 
ATOM     62  H   UNL A   1      41.699  31.336  34.368  1.00  0.00     0.167 HD
ATOM     63  C   UNL A   1      39.714  33.317  34.814  1.00  0.00     0.074 A 
ATOM     64  C   UNL A   1      38.561  34.172  34.627  1.00  0.00     0.031 C 
ATOM     65  C   UNL A   1      40.519  33.357  35.907  1.00  0.00     0.037 A 
BRANCH  52  66
ATOM     66  C   UNL A   1      45.216  29.336  35.730  1.00  0.00     0.058 A 
ATOM     67  C   UNL A   1      45.158  28.241  36.609  1.00  0.00     0.135 A 
ATOM     68  C   UNL A   1      46.477  29.888  35.455  1.00  0.00     0.135 A 
ATOM     69  F   UNL A   1      43.974  27.696  36.932  1.00  0.00    -0.206 F 
ATOM     70  C   UNL A   1      46.303  27.722  37.202  1.00  0.00     0.059 A 
ATOM     71  C   UNL A   1      47.640  29.366  36.013  1.00  0.00     0.059 A 
ATOM     72  F   UNL A   1      46.588  30.943  34.633  1.00  0.00    -0.206 F 
ATOM     73  C   UNL A   1      47.541  28.288  36.891  1.00  0.00     0.060 A 
BRANCH  73  74
ATOM     74  S   UNL A   1      49.021  27.580  37.644  1.00  0.00     0.124 S 
ATOM     75  O   UNL A   1      49.939  28.713  37.607  1.00  0.00    -0.237 OA
ATOM     76  O   UNL A   1      48.540  27.195  38.967  1.00  0.00    -0.237 OA
ATOM     77  O   UNL A   1      49.357  26.470  36.756  1.00  0.00    -0.744 OA
ENDBRANCH  73  74
ENDBRANCH  52  66
BRANCH  53  78
ATOM     78  C   UNL A   1      37.210  32.878  30.846  1.00  0.00     0.058 A 
ATOM     79  C   UNL A   1      35.935  32.333  31.069  1.00  0.00     0.135 A 
ATOM     80  C   UNL A   1      37.320  33.901  29.891  1.00  0.00     0.135 A 
ATOM     81  F   UNL A   1      35.775  31.348  31.965  1.00  0.00    -0.206 F 
ATOM     82  C   UNL A   1      34.824  32.750  30.341  1.00  0.00     0.059 A 
ATOM     83  C   UNL A   1      36.218  34.358  29.174  1.00  0.00     0.059 A 
ATOM     84  F   UNL A   1      38.511  34.468  29.644  1.00  0.00    -0.206 F 
ATOM     85  C   UNL A   1      34.978  33.760  29.389  1.00  0.00     0.060 A 
BRANCH  85  86
ATOM     86  S   UNL A   1      33.532  34.290  28.446  1.00  0.00     0.124 S 
ATOM     87  O   UNL A   1      32.606  34.659  29.510  1.00  0.00    -0.237 OA
ATOM     88  O   UNL A   1      34.070  35.393  27.655  1.00  0.00    -0.237 OA
ATOM     89  O   UNL A   1      33.174  33.098  27.682  1.00  0.00    -0.744 OA
ENDBRANCH  85  86
ENDBRANCH  53  78
BRANCH  65  90
ATOM     90  C   UNL A   1      40.231  34.410  36.945  1.00  0.00     0.058 A 
ATOM     91  C   UNL A   1      40.919  35.633  36.983  1.00  0.00     0.135 A 
ATOM     92  C   UNL A   1      39.223  34.196  37.901  1.00  0.00     0.135 A 
ATOM     93  F   UNL A   1      41.890  35.891  36.093  1.00  0.00    -0.206 F 
ATOM     94  C   UNL A   1      40.652  36.585  37.963  1.00  0.00     0.059 A 
ATOM     95  C   UNL A   1      38.915  35.149  38.865  1.00  0.00     0.059 A 
ATOM     96  F   UNL A   1      38.520  33.053  37.898  1.00  0.00    -0.206 F 
ATOM     97  C   UNL A   1      39.649  36.332  38.901  1.00  0.00     0.060 A 
BRANCH  97  98
ATOM     98  S   UNL A   1      39.314  37.574  40.166  1.00  0.00     0.124 S 
ATOM     99  O   UNL A   1      40.597  38.265  40.247  1.00  0.00    -0.237 OA
ATOM    100  O   UNL A   1      38.219  38.337  39.574  1.00  0.00    -0.237 OA
ATOM    101  O   UNL A   1      38.954  36.780  41.337  1.00  0.00    -0.744 OA
ENDBRANCH  97  98
ENDBRANCH  65  90
ENDBRANCH  39  40
ENDBRANCH  32  34
ENDBRANCH  31  32
ENDBRANCH  30  31
ENDBRANCH  29  30
ENDBRANCH  28  29
ENDBRANCH  27  28
ENDBRANCH  26  27
ENDBRANCH   1  26
TORSDOF 27
ENDMDL
MODEL 3
REMARK VINA RESULT:      -8.4      5.578     10.596
REMARK SMILES CC(C)N(CC(=O)OCCOCCOCCOCCOC(=O)c1ccc(-c2c3nc(c(-c4c(F)cc(S(=O)(=O)[O-])cc4F)c4ccc([nH]4)c(-c4c(F)cc(S(=O)(=O)[O-])cc4F)c4nc(c(-c5c(F)cc(S(=O)(=O)[O-])cc5F)c5ccc2[nH]5)C=C4)C=C3)cc1)C(=O)NC1C(C)(C)C1(C)C
REMARK SMILES IDX 14 1 13 2 12 3 11 4 10 5 9 6 8 7 6 8 7 9 5 10 4 11 2 12 1 13
REMARK SMILES IDX 3 14 89 15 90 16 91 17 92 19 93 20 96 21 94 22 95 23 97 24
REMARK SMILES IDX 98 25 15 26 16 27 17 28 18 29 19 30 20 31 21 32 22 33 23 34
REMARK SMILES IDX 24 35 88 36 25 37 87 38 26 39 27 40 28 41 81 42 29 43 86 44
REMARK SMILES IDX 80 45 82 46 30 47 85 48 79 49 78 50 31 52 65 53 44 54 64 55
REMARK SMILES IDX 45 56 48 57 63 58 83 59 46 60 47 61 62 63 84 64 49 65 32 66
REMARK SMILES IDX 33 67 42 68 34 69 35 70 41 71 43 72 36 73 37 74 38 75 39 76
REMARK SMILES IDX 40 77 66 78 67 79 76 80 68 81 69 82 75 83 77 84 70 85 71 86
REMARK SMILES IDX 72 87 73 88 74 89 50 90 51 91 60 92 52 93 53 94 59 95 61 96
REMARK SMILES IDX 54 97 55 98 56 99 57 100 58 101
REMARK H PARENT 91 18 82 51 48 62
REMARK Flexibility Score: inf
ROOT
ATOM      1  O   UNL A   1      34.107  21.159  26.054  1.00  0.00    -0.377 OA
ENDROOT
BRANCH   1   2
ATOM      2  C   UNL A   1      33.893  20.102  25.152  1.00  0.00     0.188 C 
BRANCH   2   3
ATOM      3  C   UNL A   1      32.638  20.145  24.264  1.00  0.00     0.188 C 
BRANCH   3   4
ATOM      4  O   UNL A   1      32.632  21.119  23.253  1.00  0.00    -0.376 OA
BRANCH   4   5
ATOM      5  C   UNL A   1      32.059  22.383  23.532  1.00  0.00     0.202 C 
BRANCH   5   6
ATOM      6  C   UNL A   1      32.750  23.765  23.359  1.00  0.00     0.261 C 
BRANCH   6   7
ATOM      7  O   UNL A   1      33.721  24.228  24.327  1.00  0.00    -0.462 OA
BRANCH   7   8
ATOM      8  C   UNL A   1      33.242  24.783  25.473  1.00  0.00     0.325 C 
ATOM      9  O   UNL A   1      32.532  24.170  26.270  1.00  0.00    -0.250 OA
BRANCH   8  10
ATOM     10  C   UNL A   1      33.606  26.271  25.744  1.00  0.00     0.244 C 
BRANCH  10  11
ATOM     11  N   UNL A   1      32.810  27.305  26.447  1.00  0.00    -0.311 N 
BRANCH  11  12
ATOM     12  C   UNL A   1      33.590  28.406  27.068  1.00  0.00     0.081 C 
ATOM     13  C   UNL A   1      34.926  28.665  26.343  1.00  0.00     0.031 C 
ATOM     14  C   UNL A   1      32.792  29.699  27.228  1.00  0.00     0.031 C 
ENDBRANCH  11  12
BRANCH  11  15
ATOM     15  C   UNL A   1      31.438  27.451  26.441  1.00  0.00     0.318 C 
ATOM     16  O   UNL A   1      30.727  27.156  27.408  1.00  0.00    -0.249 OA
ATOM     17  N   UNL A   1      30.732  27.944  25.398  1.00  0.00    -0.334 N 
ATOM     18  H   UNL A   1      29.808  28.175  25.647  1.00  0.00     0.165 HD
BRANCH  17  19
ATOM     19  C   UNL A   1      31.005  28.208  24.035  1.00  0.00     0.096 C 
ATOM     20  C   UNL A   1      30.789  27.131  22.977  1.00  0.00    -0.007 C 
ATOM     21  C   UNL A   1      29.988  28.447  22.956  1.00  0.00    -0.007 C 
ATOM     22  C   UNL A   1      31.920  26.899  21.993  1.00  0.00     0.014 C 
ATOM     23  C   UNL A   1      30.064  25.842  23.304  1.00  0.00     0.014 C 
ATOM     24  C   UNL A   1      28.535  28.481  23.361  1.00  0.00     0.014 C 
ATOM     25  C   UNL A   1      30.335  29.508  21.930  1.00  0.00     0.014 C 
ENDBRANCH  17  19
ENDBRANCH  11  15
ENDBRANCH  10  11
ENDBRANCH   8  10
ENDBRANCH   7   8
ENDBRANCH   6   7
ENDBRANCH   5   6
ENDBRANCH   4   5
ENDBRANCH   3   4
ENDBRANCH   2   3
ENDBRANCH   1   2
BRANCH   1  26
ATOM     26  C   UNL A   1      35.399  21.726  26.120  1.00  0.00     0.188 C 
BRANCH  26  27
ATOM     27  C   UNL A   1      36.083  22.302  24.861  1.00  0.00     0.188 C 
BRANCH  27  28
ATOM     28  O   UNL A   1      37.503  22.328  24.873  1.00  0.00    -0.376 OA
BRANCH  28  29
ATOM     29  C   UNL A   1      38.195  21.196  25.378  1.00  0.00     0.202 C 
BRANCH  29  30
ATOM     30  C   UNL A   1      39.478  21.435  26.189  1.00  0.00     0.261 C 
BRANCH  30  31
ATOM     31  O   UNL A   1      40.479  20.417  26.094  1.00  0.00    -0.460 OA
BRANCH  31  32
ATOM     32  C   UNL A   1      41.297  20.257  27.160  1.00  0.00     0.338 C 
ATOM     33  O   UNL A   1      41.406  19.279  27.861  1.00  0.00    -0.246 OA
BRANCH  32  34
ATOM     34  C   UNL A   1      42.198  21.432  27.184  1.00  0.00     0.060 A 
ATOM     35  C   UNL A   1      42.535  21.989  28.424  1.00  0.00     0.016 A 
ATOM     36  C   UNL A   1      42.760  21.927  26.003  1.00  0.00     0.016 A 
ATOM     37  C   UNL A   1      43.430  23.054  28.488  1.00  0.00     0.010 A 
ATOM     38  C   UNL A   1      43.618  23.027  26.063  1.00  0.00     0.010 A 
ATOM     39  C   UNL A   1      43.927  23.614  27.303  1.00  0.00    -0.014 A 
BRANCH  39  40
ATOM     40  C   UNL A   1      44.503  24.977  27.362  1.00  0.00     0.031 A 
ATOM     41  C   UNL A   1      43.574  26.091  27.767  1.00  0.00     0.074 A 
ATOM     42  C   UNL A   1      45.809  25.212  27.146  1.00  0.00     0.049 A 
ATOM     43  N   UNL A   1      43.817  27.366  27.912  1.00  0.00    -0.248 NA
ATOM     44  C   UNL A   1      42.179  25.708  28.053  1.00  0.00     0.031 C 
ATOM     45  C   UNL A   1      46.810  24.203  26.801  1.00  0.00     0.029 A 
ATOM     46  N   UNL A   1      46.517  26.387  27.190  1.00  0.00    -0.354 N 
ATOM     47  C   UNL A   1      42.615  27.930  28.324  1.00  0.00     0.074 A 
ATOM     48  C   UNL A   1      41.631  26.872  28.356  1.00  0.00     0.031 C 
ATOM     49  C   UNL A   1      48.003  24.807  26.652  1.00  0.00     0.029 A 
ATOM     50  C   UNL A   1      47.847  26.245  26.868  1.00  0.00     0.049 A 
ATOM     51  H   UNL A   1      46.111  27.250  27.431  1.00  0.00     0.167 HD
ATOM     52  C   UNL A   1      42.357  29.212  28.669  1.00  0.00     0.037 A 
ATOM     53  C   UNL A   1      48.813  27.179  26.748  1.00  0.00     0.037 A 
ATOM     54  C   UNL A   1      43.334  30.265  28.611  1.00  0.00     0.049 A 
ATOM     55  C   UNL A   1      48.473  28.623  27.041  1.00  0.00     0.074 A 
ATOM     56  C   UNL A   1      43.170  31.609  28.893  1.00  0.00     0.029 A 
ATOM     57  N   UNL A   1      44.661  30.089  28.246  1.00  0.00    -0.354 N 
ATOM     58  N   UNL A   1      47.332  29.145  27.427  1.00  0.00    -0.248 NA
ATOM     59  C   UNL A   1      49.559  29.602  26.896  1.00  0.00     0.031 C 
ATOM     60  C   UNL A   1      44.388  32.254  28.657  1.00  0.00     0.029 A 
ATOM     61  C   UNL A   1      45.326  31.301  28.291  1.00  0.00     0.049 A 
ATOM     62  H   UNL A   1      45.068  29.229  27.993  1.00  0.00     0.167 HD
ATOM     63  C   UNL A   1      47.578  30.503  27.617  1.00  0.00     0.074 A 
ATOM     64  C   UNL A   1      48.976  30.717  27.313  1.00  0.00     0.031 C 
ATOM     65  C   UNL A   1      46.728  31.485  28.012  1.00  0.00     0.037 A 
BRANCH  52  66
ATOM     66  C   UNL A   1      40.962  29.540  29.124  1.00  0.00     0.058 A 
ATOM     67  C   UNL A   1      39.895  29.623  28.215  1.00  0.00     0.135 A 
ATOM     68  C   UNL A   1      40.682  29.745  30.484  1.00  0.00     0.135 A 
ATOM     69  F   UNL A   1      40.113  29.466  26.899  1.00  0.00    -0.206 F 
ATOM     70  C   UNL A   1      38.601  29.911  28.636  1.00  0.00     0.059 A 
ATOM     71  C   UNL A   1      39.390  30.005  30.931  1.00  0.00     0.059 A 
ATOM     72  F   UNL A   1      41.668  29.691  31.393  1.00  0.00    -0.206 F 
ATOM     73  C   UNL A   1      38.359  30.094  29.998  1.00  0.00     0.060 A 
BRANCH  73  74
ATOM     74  S   UNL A   1      36.668  30.435  30.530  1.00  0.00     0.124 S 
ATOM     75  O   UNL A   1      36.467  29.406  31.545  1.00  0.00    -0.237 OA
ATOM     76  O   UNL A   1      36.770  31.804  31.026  1.00  0.00    -0.237 OA
ATOM     77  O   UNL A   1      35.886  30.271  29.307  1.00  0.00    -0.744 OA
ENDBRANCH  73  74
ENDBRANCH  52  66
BRANCH  53  78
ATOM     78  C   UNL A   1      50.189  26.801  26.316  1.00  0.00     0.058 A 
ATOM     79  C   UNL A   1      51.202  26.534  27.251  1.00  0.00     0.135 A 
ATOM     80  C   UNL A   1      50.535  26.766  24.956  1.00  0.00     0.135 A 
ATOM     81  F   UNL A   1      50.927  26.562  28.564  1.00  0.00    -0.206 F 
ATOM     82  C   UNL A   1      52.514  26.290  26.857  1.00  0.00     0.059 A 
ATOM     83  C   UNL A   1      51.833  26.492  24.536  1.00  0.00     0.059 A 
ATOM     84  F   UNL A   1      49.605  27.002  24.017  1.00  0.00    -0.206 F 
ATOM     85  C   UNL A   1      52.821  26.278  25.495  1.00  0.00     0.060 A 
BRANCH  85  86
ATOM     86  S   UNL A   1      54.528  25.966  24.992  1.00  0.00     0.124 S 
ATOM     87  O   UNL A   1      54.549  26.539  23.652  1.00  0.00    -0.237 OA
ATOM     88  O   UNL A   1      55.285  26.688  26.010  1.00  0.00    -0.237 OA
ATOM     89  O   UNL A   1      54.636  24.511  25.058  1.00  0.00    -0.744 OA
ENDBRANCH  85  86
ENDBRANCH  53  78
BRANCH  65  90
ATOM     90  C   UNL A   1      47.304  32.861  28.219  1.00  0.00     0.058 A 
ATOM     91  C   UNL A   1      47.277  33.844  27.217  1.00  0.00     0.135 A 
ATOM     92  C   UNL A   1      47.868  33.208  29.459  1.00  0.00     0.135 A 
ATOM     93  F   UNL A   1      46.749  33.569  26.014  1.00  0.00    -0.206 F 
ATOM     94  C   UNL A   1      47.833  35.103  27.421  1.00  0.00     0.059 A 
ATOM     95  C   UNL A   1      48.395  34.472  29.696  1.00  0.00     0.059 A 
ATOM     96  F   UNL A   1      47.903  32.313  30.460  1.00  0.00    -0.206 F 
ATOM     97  C   UNL A   1      48.393  35.407  28.664  1.00  0.00     0.060 A 
BRANCH  97  98
ATOM     98  S   UNL A   1      49.111  37.043  28.915  1.00  0.00     0.124 S 
ATOM     99  O   UNL A   1      50.494  36.710  29.240  1.00  0.00    -0.237 OA
ATOM    100  O   UNL A   1      48.900  37.679  27.618  1.00  0.00    -0.237 OA
ATOM    101  O   UNL A   1      48.324  37.596  30.012  1.00  0.00    -0.744 OA
ENDBRANCH  97  98
ENDBRANCH  65  90
ENDBRANCH  39  40
ENDBRANCH  32  34
ENDBRANCH  31  32
ENDBRANCH  30  31
ENDBRANCH  29  30
ENDBRANCH  28  29
ENDBRANCH  27  28
ENDBRANCH  26  27
ENDBRANCH   1  26
TORSDOF 27
ENDMDL
