MODEL 1
REMARK VINA RESULT:      -9.3      0.000      0.000
REMARK SMILES O=C(C[C@H](C(=O)OCCOCCOCCOCCOC(=O)c1ccc(-c2c3nc(c(-c4c(F)cc(S(=O)(=O)[O-])cc4F)c4ccc([nH]4)c(-c4c(F)cc(S(=O)(=O)[O-])cc4F)c4nc(c(-c5c(F)cc(S(=O)(=O)[O-])cc5F)c5ccc2[nH]5)C=C4)C=C3)cc1)c1ccccc1)Nc1ccc(Cl)cc1Cl
REMARK SMILES IDX 13 1 12 2 11 3 10 4 9 5 8 6 7 7 5 8 6 9 4 10 3 11 2 12 1 13
REMARK SMILES IDX 94 14 95 16 96 17 101 18 97 19 100 20 102 21 98 22 99 23
REMARK SMILES IDX 88 24 89 25 93 26 90 27 92 28 91 29 14 30 15 31 16 32 17 33
REMARK SMILES IDX 18 34 19 35 20 36 21 37 22 38 23 39 87 40 24 41 86 42 25 43
REMARK SMILES IDX 26 44 27 45 80 46 28 47 85 48 79 49 81 50 29 51 84 52 78 53
REMARK SMILES IDX 77 54 30 56 64 57 43 58 63 59 44 60 47 61 62 62 82 63 45 64
REMARK SMILES IDX 46 65 61 67 83 68 48 69 31 70 32 71 41 72 33 73 34 74 40 75
REMARK SMILES IDX 42 76 35 77 36 78 37 79 38 80 39 81 65 82 66 83 75 84 67 85
REMARK SMILES IDX 68 86 74 87 76 88 69 89 70 90 71 91 72 92 73 93 49 94 50 95
REMARK SMILES IDX 59 96 51 97 52 98 58 99 60 100 53 101 54 102 55 103 56 104
REMARK SMILES IDX 57 105
REMARK H PARENT 94 15 81 55 47 66
REMARK Flexibility Score: inf
ROOT
ATOM      1  O   UNL A   1      33.443  27.718  26.481  1.00  0.00    -0.377 OA
ENDROOT
BRANCH   1   2
ATOM      2  C   UNL A   1      32.061  27.995  26.682  1.00  0.00     0.188 C 
BRANCH   2   3
ATOM      3  C   UNL A   1      31.091  26.820  26.841  1.00  0.00     0.188 C 
BRANCH   3   4
ATOM      4  O   UNL A   1      31.537  25.490  26.696  1.00  0.00    -0.376 OA
BRANCH   4   5
ATOM      5  C   UNL A   1      30.697  24.443  26.200  1.00  0.00     0.202 C 
BRANCH   5   6
ATOM      6  C   UNL A   1      31.065  22.945  26.115  1.00  0.00     0.261 C 
BRANCH   6   7
ATOM      7  O   UNL A   1      32.054  22.592  25.136  1.00  0.00    -0.463 OA
BRANCH   7   8
ATOM      8  C   UNL A   1      33.329  22.766  25.580  1.00  0.00     0.314 C 
ATOM      9  O   UNL A   1      33.623  22.720  26.775  1.00  0.00    -0.252 OA
BRANCH   8  10
ATOM     10  C   UNL A   1      34.423  22.761  24.486  1.00  0.00     0.138 C 
BRANCH  10  11
ATOM     11  C   UNL A   1      34.876  24.017  23.734  1.00  0.00     0.120 C 
BRANCH  11  12
ATOM     12  C   UNL A   1      33.787  24.813  23.072  1.00  0.00     0.225 C 
ATOM     13  O   UNL A   1      33.455  24.564  21.918  1.00  0.00    -0.275 OA
ATOM     14  N   UNL A   1      33.294  25.859  23.848  1.00  0.00    -0.325 N 
ATOM     15  H   UNL A   1      33.620  25.989  24.767  1.00  0.00     0.169 HD
BRANCH  14  16
ATOM     16  C   UNL A   1      32.324  26.735  23.312  1.00  0.00     0.060 A 
ATOM     17  C   UNL A   1      31.007  26.273  23.240  1.00  0.00     0.029 A 
ATOM     18  C   UNL A   1      32.605  28.069  22.984  1.00  0.00     0.066 A 
ATOM     19  C   UNL A   1      29.963  27.164  23.000  1.00  0.00     0.023 A 
ATOM     20  C   UNL A   1      31.561  28.965  22.765  1.00  0.00     0.043 A 
ATOM     21  Cl  UNL A   1      34.224  28.613  22.705  1.00  0.00    -0.082 Cl
ATOM     22  C   UNL A   1      30.243  28.515  22.815  1.00  0.00     0.042 A 
ATOM     23  Cl  UNL A   1      28.937  29.619  22.635  1.00  0.00    -0.084 Cl
ENDBRANCH  14  16
ENDBRANCH  11  12
ENDBRANCH  10  11
BRANCH  10  24
ATOM     24  C   UNL A   1      35.536  21.826  24.951  1.00  0.00    -0.033 A 
ATOM     25  C   UNL A   1      36.825  22.334  25.156  1.00  0.00     0.004 A 
ATOM     26  C   UNL A   1      35.345  20.436  24.884  1.00  0.00     0.004 A 
ATOM     27  C   UNL A   1      37.920  21.471  25.144  1.00  0.00     0.000 A 
ATOM     28  C   UNL A   1      36.444  19.586  24.826  1.00  0.00     0.000 A 
ATOM     29  C   UNL A   1      37.731  20.105  24.933  1.00  0.00     0.000 A 
ENDBRANCH  10  24
ENDBRANCH   8  10
ENDBRANCH   7   8
ENDBRANCH   6   7
ENDBRANCH   5   6
ENDBRANCH   4   5
ENDBRANCH   3   4
ENDBRANCH   2   3
ENDBRANCH   1   2
BRANCH   1  30
ATOM     30  C   UNL A   1      34.374  28.761  26.733  1.00  0.00     0.188 C 
BRANCH  30  31
ATOM     31  C   UNL A   1      33.876  30.186  27.036  1.00  0.00     0.188 C 
BRANCH  31  32
ATOM     32  O   UNL A   1      34.573  30.837  28.071  1.00  0.00    -0.376 OA
BRANCH  32  33
ATOM     33  C   UNL A   1      35.139  32.117  27.832  1.00  0.00     0.202 C 
BRANCH  33  34
ATOM     34  C   UNL A   1      34.316  33.421  27.754  1.00  0.00     0.261 C 
BRANCH  34  35
ATOM     35  O   UNL A   1      33.210  33.602  28.647  1.00  0.00    -0.460 OA
BRANCH  35  36
ATOM     36  C   UNL A   1      33.310  34.573  29.575  1.00  0.00     0.338 C 
ATOM     37  O   UNL A   1      32.535  35.508  29.742  1.00  0.00    -0.246 OA
BRANCH  36  38
ATOM     38  C   UNL A   1      34.421  34.226  30.482  1.00  0.00     0.060 A 
ATOM     39  C   UNL A   1      35.618  34.955  30.420  1.00  0.00     0.016 A 
ATOM     40  C   UNL A   1      34.291  33.159  31.375  1.00  0.00     0.016 A 
ATOM     41  C   UNL A   1      36.706  34.582  31.212  1.00  0.00     0.010 A 
ATOM     42  C   UNL A   1      35.389  32.772  32.147  1.00  0.00     0.010 A 
ATOM     43  C   UNL A   1      36.614  33.454  32.037  1.00  0.00    -0.014 A 
BRANCH  43  44
ATOM     44  C   UNL A   1      37.840  32.854  32.622  1.00  0.00     0.031 A 
ATOM     45  C   UNL A   1      38.523  31.755  31.863  1.00  0.00     0.074 A 
ATOM     46  C   UNL A   1      38.324  33.248  33.812  1.00  0.00     0.049 A 
ATOM     47  N   UNL A   1      39.527  31.004  32.227  1.00  0.00    -0.248 NA
ATOM     48  C   UNL A   1      37.994  31.448  30.523  1.00  0.00     0.031 C 
ATOM     49  C   UNL A   1      37.754  34.311  34.630  1.00  0.00     0.029 A 
ATOM     50  N   UNL A   1      39.387  32.785  34.552  1.00  0.00    -0.354 N 
ATOM     51  C   UNL A   1      39.725  30.110  31.185  1.00  0.00     0.074 A 
ATOM     52  C   UNL A   1      38.741  30.412  30.169  1.00  0.00     0.031 C 
ATOM     53  C   UNL A   1      38.467  34.403  35.764  1.00  0.00     0.029 A 
ATOM     54  C   UNL A   1      39.518  33.400  35.774  1.00  0.00     0.049 A 
ATOM     55  H   UNL A   1      39.997  32.079  34.235  1.00  0.00     0.167 HD
ATOM     56  C   UNL A   1      40.638  29.118  31.097  1.00  0.00     0.037 A 
ATOM     57  C   UNL A   1      40.358  33.175  36.806  1.00  0.00     0.037 A 
ATOM     58  C   UNL A   1      41.624  28.836  32.107  1.00  0.00     0.049 A 
ATOM     59  C   UNL A   1      41.354  32.053  36.686  1.00  0.00     0.074 A 
ATOM     60  C   UNL A   1      42.621  27.878  32.082  1.00  0.00     0.029 A 
ATOM     61  N   UNL A   1      41.731  29.495  33.321  1.00  0.00    -0.354 N 
ATOM     62  N   UNL A   1      41.553  31.239  35.676  1.00  0.00    -0.248 NA
ATOM     63  C   UNL A   1      42.228  31.802  37.840  1.00  0.00     0.031 C 
ATOM     64  C   UNL A   1      43.290  27.914  33.307  1.00  0.00     0.029 A 
ATOM     65  C   UNL A   1      42.758  28.943  34.068  1.00  0.00     0.049 A 
ATOM     66  H   UNL A   1      41.162  30.245  33.611  1.00  0.00     0.167 HD
ATOM     67  C   UNL A   1      42.592  30.404  36.063  1.00  0.00     0.074 A 
ATOM     68  C   UNL A   1      42.992  30.817  37.391  1.00  0.00     0.031 C 
ATOM     69  C   UNL A   1      43.161  29.381  35.380  1.00  0.00     0.037 A 
BRANCH  56  70
ATOM     70  C   UNL A   1      40.596  28.226  29.890  1.00  0.00     0.058 A 
ATOM     71  C   UNL A   1      41.444  28.419  28.791  1.00  0.00     0.135 A 
ATOM     72  C   UNL A   1      39.742  27.111  29.877  1.00  0.00     0.135 A 
ATOM     73  F   UNL A   1      42.258  29.485  28.741  1.00  0.00    -0.206 F 
ATOM     74  C   UNL A   1      41.453  27.531  27.721  1.00  0.00     0.059 A 
ATOM     75  C   UNL A   1      39.753  26.196  28.831  1.00  0.00     0.059 A 
ATOM     76  F   UNL A   1      38.900  26.893  30.899  1.00  0.00    -0.206 F 
ATOM     77  C   UNL A   1      40.613  26.415  27.757  1.00  0.00     0.060 A 
BRANCH  77  78
ATOM     78  S   UNL A   1      40.686  25.238  26.390  1.00  0.00     0.124 S 
ATOM     79  O   UNL A   1      41.577  24.217  26.931  1.00  0.00    -0.237 OA
ATOM     80  O   UNL A   1      39.288  24.848  26.245  1.00  0.00    -0.237 OA
ATOM     81  O   UNL A   1      41.232  26.027  25.290  1.00  0.00    -0.744 OA
ENDBRANCH  77  78
ENDBRANCH  56  70
BRANCH  57  82
ATOM     82  C   UNL A   1      40.286  33.992  38.054  1.00  0.00     0.058 A 
ATOM     83  C   UNL A   1      39.359  33.696  39.066  1.00  0.00     0.135 A 
ATOM     84  C   UNL A   1      41.109  35.115  38.245  1.00  0.00     0.135 A 
ATOM     85  F   UNL A   1      38.542  32.639  38.936  1.00  0.00    -0.206 F 
ATOM     86  C   UNL A   1      39.218  34.501  40.193  1.00  0.00     0.059 A 
ATOM     87  C   UNL A   1      41.014  35.915  39.380  1.00  0.00     0.059 A 
ATOM     88  F   UNL A   1      42.029  35.440  37.323  1.00  0.00    -0.206 F 
ATOM     89  C   UNL A   1      40.048  35.615  40.337  1.00  0.00     0.060 A 
BRANCH  89  90
ATOM     90  S   UNL A   1      39.844  36.667  41.791  1.00  0.00     0.124 S 
ATOM     91  O   UNL A   1      39.294  37.882  41.199  1.00  0.00    -0.237 OA
ATOM     92  O   UNL A   1      38.925  35.885  42.613  1.00  0.00    -0.237 OA
ATOM     93  O   UNL A   1      41.201  36.780  42.315  1.00  0.00    -0.744 OA
ENDBRANCH  89  90
ENDBRANCH  57  82
BRANCH  69  94
ATOM     94  C   UNL A   1      44.314  28.668  36.025  1.00  0.00     0.058 A 
ATOM     95  C   UNL A   1      45.635  29.122  35.896  1.00  0.00     0.135 A 
ATOM     96  C   UNL A   1      44.079  27.551  36.846  1.00  0.00     0.135 A 
ATOM     97  F   UNL A   1      45.914  30.178  35.115  1.00  0.00    -0.206 F 
ATOM     98  C   UNL A   1      46.686  28.488  36.549  1.00  0.00     0.059 A 
ATOM     99  C   UNL A   1      45.111  26.922  37.533  1.00  0.00     0.059 A 
ATOM    100  F   UNL A   1      42.832  27.081  37.007  1.00  0.00    -0.206 F 
ATOM    101  C   UNL A   1      46.412  27.393  37.372  1.00  0.00     0.060 A 
BRANCH 101 102
ATOM    102  S   UNL A   1      47.777  26.619  38.262  1.00  0.00     0.124 S 
ATOM    103  O   UNL A   1      48.826  26.614  37.248  1.00  0.00    -0.237 OA
ATOM    104  O   UNL A   1      47.980  27.536  39.380  1.00  0.00    -0.237 OA
ATOM    105  O   UNL A   1      47.248  25.307  38.624  1.00  0.00    -0.744 OA
ENDBRANCH 101 102
ENDBRANCH  69  94
ENDBRANCH  43  44
ENDBRANCH  36  38
ENDBRANCH  35  36
ENDBRANCH  34  35
ENDBRANCH  33  34
ENDBRANCH  32  33
ENDBRANCH  31  32
ENDBRANCH  30  31
ENDBRANCH   1  30
TORSDOF 27
ENDMDL
MODEL 2
REMARK VINA RESULT:      -8.7      5.190     12.115
REMARK SMILES O=C(C[C@H](C(=O)OCCOCCOCCOCCOC(=O)c1ccc(-c2c3nc(c(-c4c(F)cc(S(=O)(=O)[O-])cc4F)c4ccc([nH]4)c(-c4c(F)cc(S(=O)(=O)[O-])cc4F)c4nc(c(-c5c(F)cc(S(=O)(=O)[O-])cc5F)c5ccc2[nH]5)C=C4)C=C3)cc1)c1ccccc1)Nc1ccc(Cl)cc1Cl
REMARK SMILES IDX 13 1 12 2 11 3 10 4 9 5 8 6 7 7 5 8 6 9 4 10 3 11 2 12 1 13
REMARK SMILES IDX 94 14 95 16 96 17 101 18 97 19 100 20 102 21 98 22 99 23
REMARK SMILES IDX 88 24 89 25 93 26 90 27 92 28 91 29 14 30 15 31 16 32 17 33
REMARK SMILES IDX 18 34 19 35 20 36 21 37 22 38 23 39 87 40 24 41 86 42 25 43
REMARK SMILES IDX 26 44 27 45 80 46 28 47 85 48 79 49 81 50 29 51 84 52 78 53
REMARK SMILES IDX 77 54 30 56 64 57 43 58 63 59 44 60 47 61 62 62 82 63 45 64
REMARK SMILES IDX 46 65 61 67 83 68 48 69 31 70 32 71 41 72 33 73 34 74 40 75
REMARK SMILES IDX 42 76 35 77 36 78 37 79 38 80 39 81 65 82 66 83 75 84 67 85
REMARK SMILES IDX 68 86 74 87 76 88 69 89 70 90 71 91 72 92 73 93 49 94 50 95
REMARK SMILES IDX 59 96 51 97 52 98 58 99 60 100 53 101 54 102 55 103 56 104
REMARK SMILES IDX 57 105
REMARK H PARENT 94 15 81 55 47 66
REMARK Flexibility Score: inf
ROOT
ATOM      1  O   UNL A   1      43.138  23.106  28.774  1.00  0.00    -0.377 OA
ENDROOT
BRANCH   1   2
ATOM      2  C   UNL A   1      43.877  24.253  28.368  1.00  0.00     0.188 C 
BRANCH   2   3
ATOM      3  C   UNL A   1      45.279  24.466  28.947  1.00  0.00     0.188 C 
BRANCH   3   4
ATOM      4  O   UNL A   1      46.217  25.286  28.285  1.00  0.00    -0.376 OA
BRANCH   4   5
ATOM      5  C   UNL A   1      47.378  25.812  28.936  1.00  0.00     0.202 C 
BRANCH   5   6
ATOM      6  C   UNL A   1      47.429  26.411  30.359  1.00  0.00     0.261 C 
BRANCH   6   7
ATOM      7  O   UNL A   1      47.732  25.493  31.420  1.00  0.00    -0.463 OA
BRANCH   7   8
ATOM      8  C   UNL A   1      47.152  25.834  32.602  1.00  0.00     0.314 C 
ATOM      9  O   UNL A   1      46.613  26.928  32.780  1.00  0.00    -0.252 OA
BRANCH   8  10
ATOM     10  C   UNL A   1      46.974  24.681  33.617  1.00  0.00     0.138 C 
BRANCH  10  11
ATOM     11  C   UNL A   1      47.861  24.495  34.854  1.00  0.00     0.120 C 
BRANCH  11  12
ATOM     12  C   UNL A   1      48.008  23.084  35.349  1.00  0.00     0.225 C 
ATOM     13  O   UNL A   1      48.713  22.287  34.740  1.00  0.00    -0.275 OA
ATOM     14  N   UNL A   1      47.225  22.786  36.461  1.00  0.00    -0.325 N 
ATOM     15  H   UNL A   1      46.684  23.490  36.887  1.00  0.00     0.169 HD
BRANCH  14  16
ATOM     16  C   UNL A   1      47.208  21.472  36.977  1.00  0.00     0.060 A 
ATOM     17  C   UNL A   1      48.108  21.169  38.002  1.00  0.00     0.029 A 
ATOM     18  C   UNL A   1      46.249  20.520  36.600  1.00  0.00     0.066 A 
ATOM     19  C   UNL A   1      47.956  20.003  38.749  1.00  0.00     0.023 A 
ATOM     20  C   UNL A   1      46.082  19.364  37.358  1.00  0.00     0.043 A 
ATOM     21  Cl  UNL A   1      45.350  20.673  35.129  1.00  0.00    -0.082 Cl
ATOM     22  C   UNL A   1      46.911  19.132  38.454  1.00  0.00     0.042 A 
ATOM     23  Cl  UNL A   1      46.666  17.756  39.457  1.00  0.00    -0.084 Cl
ENDBRANCH  14  16
ENDBRANCH  11  12
ENDBRANCH  10  11
BRANCH  10  24
ATOM     24  C   UNL A   1      45.477  24.485  33.837  1.00  0.00    -0.033 A 
ATOM     25  C   UNL A   1      44.910  24.820  35.074  1.00  0.00     0.004 A 
ATOM     26  C   UNL A   1      44.739  23.708  32.928  1.00  0.00     0.004 A 
ATOM     27  C   UNL A   1      43.690  24.262  35.450  1.00  0.00     0.000 A 
ATOM     28  C   UNL A   1      43.546  23.117  33.328  1.00  0.00     0.000 A 
ATOM     29  C   UNL A   1      43.032  23.376  34.596  1.00  0.00     0.000 A 
ENDBRANCH  10  24
ENDBRANCH   8  10
ENDBRANCH   7   8
ENDBRANCH   6   7
ENDBRANCH   5   6
ENDBRANCH   4   5
ENDBRANCH   3   4
ENDBRANCH   2   3
ENDBRANCH   1   2
BRANCH   1  30
ATOM     30  C   UNL A   1      42.558  22.295  27.761  1.00  0.00     0.188 C 
BRANCH  30  31
ATOM     31  C   UNL A   1      41.417  21.322  28.107  1.00  0.00     0.188 C 
BRANCH  31  32
ATOM     32  O   UNL A   1      40.297  21.416  27.259  1.00  0.00    -0.376 OA
BRANCH  32  33
ATOM     33  C   UNL A   1      39.732  22.690  26.991  1.00  0.00     0.202 C 
BRANCH  33  34
ATOM     34  C   UNL A   1      40.392  23.750  26.084  1.00  0.00     0.261 C 
BRANCH  34  35
ATOM     35  O   UNL A   1      39.972  25.116  26.187  1.00  0.00    -0.460 OA
BRANCH  35  36
ATOM     36  C   UNL A   1      40.928  26.064  26.195  1.00  0.00     0.338 C 
ATOM     37  O   UNL A   1      41.522  26.512  25.220  1.00  0.00    -0.246 OA
BRANCH  36  38
ATOM     38  C   UNL A   1      41.022  26.608  27.564  1.00  0.00     0.060 A 
ATOM     39  C   UNL A   1      40.092  26.206  28.533  1.00  0.00     0.016 A 
ATOM     40  C   UNL A   1      42.013  27.541  27.881  1.00  0.00     0.016 A 
ATOM     41  C   UNL A   1      40.117  26.778  29.807  1.00  0.00     0.010 A 
ATOM     42  C   UNL A   1      42.019  28.131  29.148  1.00  0.00     0.010 A 
ATOM     43  C   UNL A   1      41.045  27.784  30.101  1.00  0.00    -0.014 A 
BRANCH  43  44
ATOM     44  C   UNL A   1      40.877  28.625  31.313  1.00  0.00     0.031 A 
ATOM     45  C   UNL A   1      39.807  29.676  31.304  1.00  0.00     0.074 A 
ATOM     46  C   UNL A   1      41.671  28.486  32.388  1.00  0.00     0.049 A 
ATOM     47  N   UNL A   1      39.554  30.601  32.191  1.00  0.00    -0.248 NA
ATOM     48  C   UNL A   1      38.912  29.700  30.134  1.00  0.00     0.031 C 
ATOM     49  C   UNL A   1      42.732  27.495  32.515  1.00  0.00     0.029 A 
ATOM     50  N   UNL A   1      41.728  29.195  33.566  1.00  0.00    -0.354 N 
ATOM     51  C   UNL A   1      38.503  31.343  31.670  1.00  0.00     0.074 A 
ATOM     52  C   UNL A   1      38.159  30.760  30.392  1.00  0.00     0.031 C 
ATOM     53  C   UNL A   1      43.342  27.673  33.698  1.00  0.00     0.029 A 
ATOM     54  C   UNL A   1      42.746  28.797  34.400  1.00  0.00     0.049 A 
ATOM     55  H   UNL A   1      41.099  29.918  33.790  1.00  0.00     0.167 HD
ATOM     56  C   UNL A   1      37.895  32.422  32.209  1.00  0.00     0.037 A 
ATOM     57  C   UNL A   1      43.182  29.288  35.579  1.00  0.00     0.037 A 
ATOM     58  C   UNL A   1      38.234  32.985  33.490  1.00  0.00     0.049 A 
ATOM     59  C   UNL A   1      42.495  30.501  36.147  1.00  0.00     0.074 A 
ATOM     60  C   UNL A   1      37.639  34.052  34.138  1.00  0.00     0.029 A 
ATOM     61  N   UNL A   1      39.260  32.540  34.309  1.00  0.00    -0.354 N 
ATOM     62  N   UNL A   1      41.477  31.169  35.659  1.00  0.00    -0.248 NA
ATOM     63  C   UNL A   1      43.018  31.040  37.411  1.00  0.00     0.031 C 
ATOM     64  C   UNL A   1      38.346  34.294  35.318  1.00  0.00     0.029 A 
ATOM     65  C   UNL A   1      39.335  33.332  35.442  1.00  0.00     0.049 A 
ATOM     66  H   UNL A   1      39.848  31.774  34.114  1.00  0.00     0.167 HD
ATOM     67  C   UNL A   1      41.221  32.186  36.570  1.00  0.00     0.074 A 
ATOM     68  C   UNL A   1      42.178  32.037  37.646  1.00  0.00     0.031 C 
ATOM     69  C   UNL A   1      40.279  33.158  36.517  1.00  0.00     0.037 A 
BRANCH  56  70
ATOM     70  C   UNL A   1      36.827  33.104  31.404  1.00  0.00     0.058 A 
ATOM     71  C   UNL A   1      37.124  33.865  30.265  1.00  0.00     0.135 A 
ATOM     72  C   UNL A   1      35.476  32.920  31.741  1.00  0.00     0.135 A 
ATOM     73  F   UNL A   1      38.400  34.096  29.917  1.00  0.00    -0.206 F 
ATOM     74  C   UNL A   1      36.116  34.416  29.481  1.00  0.00     0.059 A 
ATOM     75  C   UNL A   1      34.452  33.438  30.957  1.00  0.00     0.059 A 
ATOM     76  F   UNL A   1      35.143  32.213  32.832  1.00  0.00    -0.206 F 
ATOM     77  C   UNL A   1      34.783  34.185  29.829  1.00  0.00     0.060 A 
BRANCH  77  78
ATOM     78  S   UNL A   1      33.488  34.851  28.763  1.00  0.00     0.124 S 
ATOM     79  O   UNL A   1      34.139  36.039  28.220  1.00  0.00    -0.237 OA
ATOM     80  O   UNL A   1      33.273  33.758  27.820  1.00  0.00    -0.237 OA
ATOM     81  O   UNL A   1      32.386  35.107  29.684  1.00  0.00    -0.744 OA
ENDBRANCH  77  78
ENDBRANCH  56  70
BRANCH  57  82
ATOM     82  C   UNL A   1      44.339  28.670  36.294  1.00  0.00     0.058 A 
ATOM     83  C   UNL A   1      45.654  29.107  36.065  1.00  0.00     0.135 A 
ATOM     84  C   UNL A   1      44.164  27.598  37.185  1.00  0.00     0.135 A 
ATOM     85  F   UNL A   1      45.884  30.123  35.219  1.00  0.00    -0.206 F 
ATOM     86  C   UNL A   1      46.749  28.481  36.654  1.00  0.00     0.059 A 
ATOM     87  C   UNL A   1      45.239  26.979  37.816  1.00  0.00     0.059 A 
ATOM     88  F   UNL A   1      42.930  27.146  37.460  1.00  0.00    -0.206 F 
ATOM     89  C   UNL A   1      46.531  27.411  37.524  1.00  0.00     0.060 A 
BRANCH  89  90
ATOM     90  S   UNL A   1      47.959  26.591  38.267  1.00  0.00     0.124 S 
ATOM     91  O   UNL A   1      48.040  27.260  39.561  1.00  0.00    -0.237 OA
ATOM     92  O   UNL A   1      47.532  25.195  38.296  1.00  0.00    -0.237 OA
ATOM     93  O   UNL A   1      49.040  26.889  37.334  1.00  0.00    -0.744 OA
ENDBRANCH  89  90
ENDBRANCH  57  82
BRANCH  69  94
ATOM     94  C   UNL A   1      40.192  34.109  37.676  1.00  0.00     0.058 A 
ATOM     95  C   UNL A   1      40.886  35.329  37.690  1.00  0.00     0.135 A 
ATOM     96  C   UNL A   1      39.342  33.822  38.757  1.00  0.00     0.135 A 
ATOM     97  F   UNL A   1      41.719  35.645  36.686  1.00  0.00    -0.206 F 
ATOM     98  C   UNL A   1      40.749  36.227  38.742  1.00  0.00     0.059 A 
ATOM     99  C   UNL A   1      39.165  34.720  39.803  1.00  0.00     0.059 A 
ATOM    100  F   UNL A   1      38.652  32.671  38.788  1.00  0.00    -0.206 F 
ATOM    101  C   UNL A   1      39.879  35.917  39.791  1.00  0.00     0.060 A 
BRANCH 101 102
ATOM    102  S   UNL A   1      39.662  37.120  41.118  1.00  0.00     0.124 S 
ATOM    103  O   UNL A   1      41.037  37.547  41.355  1.00  0.00    -0.237 OA
ATOM    104  O   UNL A   1      38.788  38.112  40.500  1.00  0.00    -0.237 OA
ATOM    105  O   UNL A   1      39.054  36.338  42.190  1.00  0.00    -0.744 OA
ENDBRANCH 101 102
ENDBRANCH  69  94
ENDBRANCH  43  44
ENDBRANCH  36  38
ENDBRANCH  35  36
ENDBRANCH  34  35
ENDBRANCH  33  34
ENDBRANCH  32  33
ENDBRANCH  31  32
ENDBRANCH  30  31
ENDBRANCH   1  30
TORSDOF 27
ENDMDL
MODEL 3
REMARK VINA RESULT:      -7.8      1.559      7.931
REMARK SMILES O=C(C[C@H](C(=O)OCCOCCOCCOCCOC(=O)c1ccc(-c2c3nc(c(-c4c(F)cc(S(=O)(=O)[O-])cc4F)c4ccc([nH]4)c(-c4c(F)cc(S(=O)(=O)[O-])cc4F)c4nc(c(-c5c(F)cc(S(=O)(=O)[O-])cc5F)c5ccc2[nH]5)C=C4)C=C3)cc1)c1ccccc1)Nc1ccc(Cl)cc1Cl
REMARK SMILES IDX 13 1 12 2 11 3 10 4 9 5 8 6 7 7 5 8 6 9 4 10 3 11 2 12 1 13
REMARK SMILES IDX 94 14 95 16 96 17 101 18 97 19 100 20 102 21 98 22 99 23
REMARK SMILES IDX 88 24 89 25 93 26 90 27 92 28 91 29 14 30 15 31 16 32 17 33
REMARK SMILES IDX 18 34 19 35 20 36 21 37 22 38 23 39 87 40 24 41 86 42 25 43
REMARK SMILES IDX 26 44 27 45 80 46 28 47 85 48 79 49 81 50 29 51 84 52 78 53
REMARK SMILES IDX 77 54 30 56 64 57 43 58 63 59 44 60 47 61 62 62 82 63 45 64
REMARK SMILES IDX 46 65 61 67 83 68 48 69 31 70 32 71 41 72 33 73 34 74 40 75
REMARK SMILES IDX 42 76 35 77 36 78 37 79 38 80 39 81 65 82 66 83 75 84 67 85
REMARK SMILES IDX 68 86 74 87 76 88 69 89 70 90 71 91 72 92 73 93 49 94 50 95
REMARK SMILES IDX 59 96 51 97 52 98 58 99 60 100 53 101 54 102 55 103 56 104
REMARK SMILES IDX 57 105
REMARK H PARENT 94 15 81 55 47 66
REMARK Flexibility Score: inf
ROOT
ATOM      1  O   UNL A   1      33.982  28.527  26.958  1.00  0.00    -0.377 OA
ENDROOT
BRANCH   1   2
ATOM      2  C   UNL A   1      32.686  28.874  27.434  1.00  0.00     0.188 C 
BRANCH   2   3
ATOM      3  C   UNL A   1      31.470  28.149  26.850  1.00  0.00     0.188 C 
BRANCH   3   4
ATOM      4  O   UNL A   1      31.122  26.854  27.287  1.00  0.00    -0.376 OA
BRANCH   4   5
ATOM      5  C   UNL A   1      31.554  25.669  26.611  1.00  0.00     0.202 C 
BRANCH   5   6
ATOM      6  C   UNL A   1      30.935  24.261  26.758  1.00  0.00     0.261 C 
BRANCH   6   7
ATOM      7  O   UNL A   1      31.842  23.156  26.635  1.00  0.00    -0.463 OA
BRANCH   7   8
ATOM      8  C   UNL A   1      32.893  23.417  25.811  1.00  0.00     0.314 C 
ATOM      9  O   UNL A   1      33.782  24.216  26.109  1.00  0.00    -0.252 OA
BRANCH   8  10
ATOM     10  C   UNL A   1      33.049  22.462  24.604  1.00  0.00     0.138 C 
BRANCH  10  11
ATOM     11  C   UNL A   1      32.261  22.612  23.298  1.00  0.00     0.120 C 
BRANCH  11  12
ATOM     12  C   UNL A   1      31.428  23.857  23.174  1.00  0.00     0.225 C 
ATOM     13  O   UNL A   1      30.234  23.776  22.905  1.00  0.00    -0.275 OA
ATOM     14  N   UNL A   1      32.150  25.040  23.305  1.00  0.00    -0.325 N 
ATOM     15  H   UNL A   1      33.110  25.012  23.519  1.00  0.00     0.169 HD
BRANCH  14  16
ATOM     16  C   UNL A   1      31.501  26.282  23.129  1.00  0.00     0.060 A 
ATOM     17  C   UNL A   1      30.169  26.380  23.541  1.00  0.00     0.029 A 
ATOM     18  C   UNL A   1      32.171  27.434  22.691  1.00  0.00     0.066 A 
ATOM     19  C   UNL A   1      29.562  27.627  23.668  1.00  0.00     0.023 A 
ATOM     20  C   UNL A   1      31.574  28.683  22.836  1.00  0.00     0.043 A 
ATOM     21  Cl  UNL A   1      33.676  27.339  21.841  1.00  0.00    -0.082 Cl
ATOM     22  C   UNL A   1      30.286  28.776  23.363  1.00  0.00     0.042 A 
ATOM     23  Cl  UNL A   1      29.563  30.312  23.634  1.00  0.00    -0.084 Cl
ENDBRANCH  14  16
ENDBRANCH  11  12
ENDBRANCH  10  11
BRANCH  10  24
ATOM     24  C   UNL A   1      34.533  22.146  24.452  1.00  0.00    -0.033 A 
ATOM     25  C   UNL A   1      35.230  21.564  25.519  1.00  0.00     0.004 A 
ATOM     26  C   UNL A   1      35.253  22.701  23.380  1.00  0.00     0.004 A 
ATOM     27  C   UNL A   1      36.618  21.669  25.581  1.00  0.00     0.000 A 
ATOM     28  C   UNL A   1      36.634  22.844  23.470  1.00  0.00     0.000 A 
ATOM     29  C   UNL A   1      37.313  22.348  24.579  1.00  0.00     0.000 A 
ENDBRANCH  10  24
ENDBRANCH   8  10
ENDBRANCH   7   8
ENDBRANCH   6   7
ENDBRANCH   5   6
ENDBRANCH   4   5
ENDBRANCH   3   4
ENDBRANCH   2   3
ENDBRANCH   1   2
BRANCH   1  30
ATOM     30  C   UNL A   1      35.089  29.281  27.434  1.00  0.00     0.188 C 
BRANCH  30  31
ATOM     31  C   UNL A   1      34.874  30.693  28.008  1.00  0.00     0.188 C 
BRANCH  31  32
ATOM     32  O   UNL A   1      33.675  31.309  27.602  1.00  0.00    -0.376 OA
BRANCH  32  33
ATOM     33  C   UNL A   1      33.660  32.707  27.354  1.00  0.00     0.202 C 
BRANCH  33  34
ATOM     34  C   UNL A   1      32.846  33.720  28.188  1.00  0.00     0.261 C 
BRANCH  34  35
ATOM     35  O   UNL A   1      33.532  34.789  28.850  1.00  0.00    -0.460 OA
BRANCH  35  36
ATOM     36  C   UNL A   1      33.657  34.717  30.189  1.00  0.00     0.338 C 
ATOM     37  O   UNL A   1      32.847  35.108  31.022  1.00  0.00    -0.246 OA
BRANCH  36  38
ATOM     38  C   UNL A   1      34.863  33.922  30.494  1.00  0.00     0.060 A 
ATOM     39  C   UNL A   1      34.743  32.743  31.244  1.00  0.00     0.016 A 
ATOM     40  C   UNL A   1      36.119  34.359  30.064  1.00  0.00     0.016 A 
ATOM     41  C   UNL A   1      35.885  32.028  31.612  1.00  0.00     0.010 A 
ATOM     42  C   UNL A   1      37.261  33.657  30.456  1.00  0.00     0.010 A 
ATOM     43  C   UNL A   1      37.152  32.514  31.268  1.00  0.00    -0.014 A 
BRANCH  43  44
ATOM     44  C   UNL A   1      38.366  31.964  31.921  1.00  0.00     0.031 A 
ATOM     45  C   UNL A   1      38.631  32.332  33.351  1.00  0.00     0.074 A 
ATOM     46  C   UNL A   1      39.235  31.180  31.259  1.00  0.00     0.049 A 
ATOM     47  N   UNL A   1      39.678  32.073  34.088  1.00  0.00    -0.248 NA
ATOM     48  C   UNL A   1      37.585  33.108  34.039  1.00  0.00     0.031 C 
ATOM     49  C   UNL A   1      39.076  30.748  29.877  1.00  0.00     0.029 A 
ATOM     50  N   UNL A   1      40.434  30.631  31.650  1.00  0.00    -0.354 N 
ATOM     51  C   UNL A   1      39.439  32.689  35.309  1.00  0.00     0.074 A 
ATOM     52  C   UNL A   1      38.146  33.330  35.219  1.00  0.00     0.031 C 
ATOM     53  C   UNL A   1      40.147  30.015  29.535  1.00  0.00     0.029 A 
ATOM     54  C   UNL A   1      41.079  29.945  30.648  1.00  0.00     0.049 A 
ATOM     55  H   UNL A   1      40.795  30.720  32.561  1.00  0.00     0.167 HD
ATOM     56  C   UNL A   1      40.239  32.724  36.396  1.00  0.00     0.037 A 
ATOM     57  C   UNL A   1      42.290  29.353  30.604  1.00  0.00     0.037 A 
ATOM     58  C   UNL A   1      41.518  32.069  36.480  1.00  0.00     0.049 A 
ATOM     59  C   UNL A   1      43.166  29.421  31.826  1.00  0.00     0.074 A 
ATOM     60  C   UNL A   1      42.378  32.012  37.562  1.00  0.00     0.029 A 
ATOM     61  N   UNL A   1      42.125  31.371  35.448  1.00  0.00    -0.354 N 
ATOM     62  N   UNL A   1      42.909  29.976  32.987  1.00  0.00    -0.248 NA
ATOM     63  C   UNL A   1      44.497  28.804  31.736  1.00  0.00     0.031 C 
ATOM     64  C   UNL A   1      43.534  31.336  37.164  1.00  0.00     0.029 A 
ATOM     65  C   UNL A   1      43.364  30.907  35.857  1.00  0.00     0.049 A 
ATOM     66  H   UNL A   1      41.733  31.226  34.556  1.00  0.00     0.167 HD
ATOM     67  C   UNL A   1      44.032  29.748  33.771  1.00  0.00     0.074 A 
ATOM     68  C   UNL A   1      44.964  28.993  32.961  1.00  0.00     0.031 C 
ATOM     69  C   UNL A   1      44.271  30.136  35.047  1.00  0.00     0.037 A 
BRANCH  56  70
ATOM     70  C   UNL A   1      39.787  33.533  37.577  1.00  0.00     0.058 A 
ATOM     71  C   UNL A   1      38.884  33.030  38.524  1.00  0.00     0.135 A 
ATOM     72  C   UNL A   1      40.337  34.807  37.802  1.00  0.00     0.135 A 
ATOM     73  F   UNL A   1      38.307  31.832  38.340  1.00  0.00    -0.206 F 
ATOM     74  C   UNL A   1      38.545  33.759  39.658  1.00  0.00     0.059 A 
ATOM     75  C   UNL A   1      40.034  35.541  38.942  1.00  0.00     0.059 A 
ATOM     76  F   UNL A   1      41.194  35.337  36.916  1.00  0.00    -0.206 F 
ATOM     77  C   UNL A   1      39.136  35.008  39.864  1.00  0.00     0.060 A 
BRANCH  77  78
ATOM     78  S   UNL A   1      38.735  35.911  41.375  1.00  0.00     0.124 S 
ATOM     79  O   UNL A   1      39.904  35.631  42.202  1.00  0.00    -0.237 OA
ATOM     80  O   UNL A   1      38.613  37.282  40.891  1.00  0.00    -0.237 OA
ATOM     81  O   UNL A   1      37.490  35.293  41.821  1.00  0.00    -0.744 OA
ENDBRANCH  77  78
ENDBRANCH  56  70
BRANCH  57  82
ATOM     82  C   UNL A   1      42.772  28.670  29.365  1.00  0.00     0.058 A 
ATOM     83  C   UNL A   1      43.433  29.383  28.352  1.00  0.00     0.135 A 
ATOM     84  C   UNL A   1      42.543  27.301  29.144  1.00  0.00     0.135 A 
ATOM     85  F   UNL A   1      43.675  30.694  28.505  1.00  0.00    -0.206 F 
ATOM     86  C   UNL A   1      43.808  28.780  27.154  1.00  0.00     0.059 A 
ATOM     87  C   UNL A   1      42.940  26.667  27.972  1.00  0.00     0.059 A 
ATOM     88  F   UNL A   1      41.932  26.561  30.083  1.00  0.00    -0.206 F 
ATOM     89  C   UNL A   1      43.549  27.420  26.970  1.00  0.00     0.060 A 
BRANCH  89  90
ATOM     90  S   UNL A   1      44.018  26.651  25.405  1.00  0.00     0.124 S 
ATOM     91  O   UNL A   1      44.759  25.481  25.864  1.00  0.00    -0.237 OA
ATOM     92  O   UNL A   1      42.721  26.384  24.791  1.00  0.00    -0.237 OA
ATOM     93  O   UNL A   1      44.814  27.684  24.749  1.00  0.00    -0.744 OA
ENDBRANCH  89  90
ENDBRANCH  57  82
BRANCH  69  94
ATOM     94  C   UNL A   1      45.566  29.705  35.675  1.00  0.00     0.058 A 
ATOM     95  C   UNL A   1      46.670  30.566  35.767  1.00  0.00     0.135 A 
ATOM     96  C   UNL A   1      45.674  28.432  36.259  1.00  0.00     0.135 A 
ATOM     97  F   UNL A   1      46.622  31.789  35.216  1.00  0.00    -0.206 F 
ATOM     98  C   UNL A   1      47.842  30.175  36.405  1.00  0.00     0.059 A 
ATOM     99  C   UNL A   1      46.824  28.032  36.930  1.00  0.00     0.059 A 
ATOM    100  F   UNL A   1      44.643  27.573  36.204  1.00  0.00    -0.206 F 
ATOM    101  C   UNL A   1      47.906  28.909  36.992  1.00  0.00     0.060 A 
BRANCH 101 102
ATOM    102  S   UNL A   1      49.409  28.439  37.870  1.00  0.00     0.124 S 
ATOM    103  O   UNL A   1      50.052  29.734  38.069  1.00  0.00    -0.237 OA
ATOM    104  O   UNL A   1      48.881  27.804  39.073  1.00  0.00    -0.237 OA
ATOM    105  O   UNL A   1      50.082  27.541  36.938  1.00  0.00    -0.744 OA
ENDBRANCH 101 102
ENDBRANCH  69  94
ENDBRANCH  43  44
ENDBRANCH  36  38
ENDBRANCH  35  36
ENDBRANCH  34  35
ENDBRANCH  33  34
ENDBRANCH  32  33
ENDBRANCH  31  32
ENDBRANCH  30  31
ENDBRANCH   1  30
TORSDOF 27
ENDMDL
