MODEL 1
REMARK VINA RESULT:      -6.3      0.000      0.000
REMARK SMILES CC(C)(C)N(CC(=O)OCCOCCOCCOCCOC(=O)c1ccc(-c2c3nc(c(-c4c(F)cc(S(=O)(=O)[O-])cc4F)c4ccc([nH]4)c(-c4c(F)cc(S(=O)(=O)[O-])cc4F)c4nc(c(-c5c(F)cc(S(=O)(=O)[O-])cc5F)c5ccc2[nH]5)C=C4)C=C3)cc1)c1cccc(C#N)n1
REMARK SMILES IDX 15 1 14 2 13 3 12 4 11 5 10 6 9 7 7 8 8 9 6 10 5 11 2 12
REMARK SMILES IDX 1 13 3 14 4 15 90 16 91 17 97 18 92 19 94 20 93 21 95 22
REMARK SMILES IDX 96 23 16 24 17 25 18 26 19 27 20 28 21 29 22 30 23 31 24 32
REMARK SMILES IDX 25 33 89 34 26 35 88 36 27 37 28 38 29 39 82 40 30 41 87 42
REMARK SMILES IDX 81 43 83 44 31 45 86 46 80 47 79 48 32 50 66 51 45 52 65 53
REMARK SMILES IDX 46 54 49 55 64 56 84 57 47 58 48 59 63 61 85 62 50 63 33 64
REMARK SMILES IDX 34 65 43 66 35 67 36 68 42 69 44 70 37 71 38 72 39 73 40 74
REMARK SMILES IDX 41 75 67 76 68 77 77 78 69 79 70 80 76 81 78 82 71 83 72 84
REMARK SMILES IDX 73 85 74 86 75 87 51 88 52 89 61 90 53 91 54 92 60 93 62 94
REMARK SMILES IDX 55 95 56 96 57 97 58 98 59 99
REMARK H PARENT 83 49 49 60
REMARK Flexibility Score: inf
ROOT
ATOM      1  O   UNL A   1      46.261  21.713  25.102  1.00  0.00    -0.377 OA
ENDROOT
BRANCH   1   2
ATOM      2  C   UNL A   1      46.021  22.869  24.336  1.00  0.00     0.188 C 
BRANCH   2   3
ATOM      3  C   UNL A   1      46.470  24.176  25.004  1.00  0.00     0.188 C 
BRANCH   3   4
ATOM      4  O   UNL A   1      47.404  25.004  24.332  1.00  0.00    -0.376 OA
BRANCH   4   5
ATOM      5  C   UNL A   1      48.166  25.922  25.117  1.00  0.00     0.202 C 
BRANCH   5   6
ATOM      6  C   UNL A   1      49.712  25.892  25.045  1.00  0.00     0.261 C 
BRANCH   6   7
ATOM      7  O   UNL A   1      50.360  27.141  24.674  1.00  0.00    -0.462 OA
BRANCH   7   8
ATOM      8  C   UNL A   1      50.481  28.087  25.641  1.00  0.00     0.325 C 
ATOM      9  O   UNL A   1      49.716  29.048  25.744  1.00  0.00    -0.250 OA
BRANCH   8  10
ATOM     10  C   UNL A   1      51.499  27.792  26.758  1.00  0.00     0.241 C 
BRANCH  10  11
ATOM     11  N   UNL A   1      51.146  28.024  28.166  1.00  0.00    -0.341 N 
BRANCH  11  12
ATOM     12  C   UNL A   1      51.646  29.139  29.014  1.00  0.00     0.034 C 
ATOM     13  C   UNL A   1      50.922  29.204  30.366  1.00  0.00     0.034 C 
ATOM     14  C   UNL A   1      51.461  30.508  28.323  1.00  0.00     0.034 C 
ATOM     15  C   UNL A   1      53.157  28.939  29.303  1.00  0.00     0.034 C 
ENDBRANCH  11  12
BRANCH  11  16
ATOM     16  C   UNL A   1      50.235  27.165  28.748  1.00  0.00     0.131 A 
ATOM     17  C   UNL A   1      48.857  27.361  28.679  1.00  0.00     0.047 A 
ATOM     18  N   UNL A   1      50.749  26.228  29.545  1.00  0.00    -0.220 NA
ATOM     19  C   UNL A   1      48.006  26.555  29.445  1.00  0.00     0.007 A 
ATOM     20  C   UNL A   1      49.932  25.525  30.343  1.00  0.00     0.142 A 
ATOM     21  C   UNL A   1      48.554  25.606  30.297  1.00  0.00     0.040 A 
BRANCH  20  22
ATOM     22  C   UNL A   1      50.622  24.858  31.405  1.00  0.00     0.120 C 
ATOM     23  N   UNL A   1      51.259  24.331  32.209  1.00  0.00    -0.191 NA
ENDBRANCH  20  22
ENDBRANCH  11  16
ENDBRANCH  10  11
ENDBRANCH   8  10
ENDBRANCH   7   8
ENDBRANCH   6   7
ENDBRANCH   5   6
ENDBRANCH   4   5
ENDBRANCH   3   4
ENDBRANCH   2   3
ENDBRANCH   1   2
BRANCH   1  24
ATOM     24  C   UNL A   1      46.500  20.461  24.484  1.00  0.00     0.188 C 
BRANCH  24  25
ATOM     25  C   UNL A   1      45.569  19.285  24.802  1.00  0.00     0.188 C 
BRANCH  25  26
ATOM     26  O   UNL A   1      44.153  19.468  24.723  1.00  0.00    -0.376 OA
BRANCH  26  27
ATOM     27  C   UNL A   1      43.313  18.925  25.736  1.00  0.00     0.202 C 
BRANCH  27  28
ATOM     28  C   UNL A   1      41.948  19.577  25.928  1.00  0.00     0.261 C 
BRANCH  28  29
ATOM     29  O   UNL A   1      41.961  20.932  25.458  1.00  0.00    -0.460 OA
BRANCH  29  30
ATOM     30  C   UNL A   1      41.201  21.805  26.155  1.00  0.00     0.338 C 
ATOM     31  O   UNL A   1      39.988  21.916  26.093  1.00  0.00    -0.246 OA
BRANCH  30  32
ATOM     32  C   UNL A   1      42.011  22.482  27.189  1.00  0.00     0.060 A 
ATOM     33  C   UNL A   1      41.317  23.223  28.150  1.00  0.00     0.016 A 
ATOM     34  C   UNL A   1      43.407  22.464  27.192  1.00  0.00     0.016 A 
ATOM     35  C   UNL A   1      42.012  23.987  29.082  1.00  0.00     0.010 A 
ATOM     36  C   UNL A   1      44.108  23.220  28.142  1.00  0.00     0.010 A 
ATOM     37  C   UNL A   1      43.411  24.030  29.056  1.00  0.00    -0.014 A 
BRANCH  37  38
ATOM     38  C   UNL A   1      44.105  25.093  29.828  1.00  0.00     0.031 A 
ATOM     39  C   UNL A   1      44.664  24.743  31.184  1.00  0.00     0.074 A 
ATOM     40  C   UNL A   1      44.327  26.311  29.301  1.00  0.00     0.049 A 
ATOM     41  N   UNL A   1      45.315  25.494  32.035  1.00  0.00    -0.248 NA
ATOM     42  C   UNL A   1      44.469  23.355  31.638  1.00  0.00     0.031 C 
ATOM     43  C   UNL A   1      43.897  26.751  27.975  1.00  0.00     0.029 A 
ATOM     44  N   UNL A   1      44.981  27.402  29.821  1.00  0.00    -0.354 N 
ATOM     45  C   UNL A   1      45.598  24.675  33.124  1.00  0.00     0.074 A 
ATOM     46  C   UNL A   1      45.019  23.380  32.843  1.00  0.00     0.031 C 
ATOM     47  C   UNL A   1      44.295  28.022  27.787  1.00  0.00     0.029 A 
ATOM     48  C   UNL A   1      44.970  28.500  28.993  1.00  0.00     0.049 A 
ATOM     49  H   UNL A   1      45.417  27.399  30.703  1.00  0.00     0.167 HD
ATOM     50  C   UNL A   1      46.287  24.970  34.250  1.00  0.00     0.037 A 
ATOM     51  C   UNL A   1      45.424  29.754  29.197  1.00  0.00     0.037 A 
ATOM     52  C   UNL A   1      46.868  26.260  34.521  1.00  0.00     0.049 A 
ATOM     53  C   UNL A   1      46.107  30.086  30.502  1.00  0.00     0.074 A 
ATOM     54  C   UNL A   1      47.593  26.658  35.630  1.00  0.00     0.029 A 
ATOM     55  N   UNL A   1      46.785  27.362  33.682  1.00  0.00    -0.354 N 
ATOM     56  N   UNL A   1      46.378  29.301  31.518  1.00  0.00    -0.248 NA
ATOM     57  C   UNL A   1      46.549  31.477  30.688  1.00  0.00     0.031 C 
ATOM     58  C   UNL A   1      47.885  28.019  35.495  1.00  0.00     0.029 A 
ATOM     59  C   UNL A   1      47.413  28.450  34.266  1.00  0.00     0.049 A 
ATOM     60  H   UNL A   1      46.344  27.371  32.802  1.00  0.00     0.167 HD
ATOM     61  C   UNL A   1      47.045  30.094  32.448  1.00  0.00     0.074 A 
ATOM     62  C   UNL A   1      47.155  31.414  31.866  1.00  0.00     0.031 C 
ATOM     63  C   UNL A   1      47.523  29.761  33.673  1.00  0.00     0.037 A 
BRANCH  50  64
ATOM     64  C   UNL A   1      46.425  23.895  35.295  1.00  0.00     0.058 A 
ATOM     65  C   UNL A   1      47.519  23.015  35.320  1.00  0.00     0.135 A 
ATOM     66  C   UNL A   1      45.471  23.780  36.319  1.00  0.00     0.135 A 
ATOM     67  F   UNL A   1      48.451  23.064  34.356  1.00  0.00    -0.206 F 
ATOM     68  C   UNL A   1      47.651  22.048  36.314  1.00  0.00     0.059 A 
ATOM     69  C   UNL A   1      45.601  22.845  37.341  1.00  0.00     0.059 A 
ATOM     70  F   UNL A   1      44.402  24.592  36.342  1.00  0.00    -0.206 F 
ATOM     71  C   UNL A   1      46.690  21.976  37.324  1.00  0.00     0.060 A 
BRANCH  71  72
ATOM     72  S   UNL A   1      46.894  20.737  38.620  1.00  0.00     0.124 S 
ATOM     73  O   UNL A   1      48.185  20.155  38.269  1.00  0.00    -0.237 OA
ATOM     74  O   UNL A   1      46.873  21.551  39.832  1.00  0.00    -0.237 OA
ATOM     75  O   UNL A   1      45.743  19.859  38.439  1.00  0.00    -0.744 OA
ENDBRANCH  71  72
ENDBRANCH  50  64
BRANCH  51  76
ATOM     76  C   UNL A   1      45.220  30.805  28.160  1.00  0.00     0.058 A 
ATOM     77  C   UNL A   1      46.205  31.093  27.202  1.00  0.00     0.135 A 
ATOM     78  C   UNL A   1      44.041  31.568  28.126  1.00  0.00     0.135 A 
ATOM     79  F   UNL A   1      47.359  30.408  27.199  1.00  0.00    -0.206 F 
ATOM     80  C   UNL A   1      46.038  32.109  26.264  1.00  0.00     0.059 A 
ATOM     81  C   UNL A   1      43.835  32.564  27.176  1.00  0.00     0.059 A 
ATOM     82  F   UNL A   1      43.064  31.336  29.017  1.00  0.00    -0.206 F 
ATOM     83  C   UNL A   1      44.846  32.836  26.257  1.00  0.00     0.060 A 
BRANCH  83  84
ATOM     84  S   UNL A   1      44.624  34.123  25.010  1.00  0.00     0.124 S 
ATOM     85  O   UNL A   1      43.481  34.856  25.544  1.00  0.00    -0.237 OA
ATOM     86  O   UNL A   1      45.907  34.815  25.056  1.00  0.00    -0.237 OA
ATOM     87  O   UNL A   1      44.371  33.367  23.787  1.00  0.00    -0.744 OA
ENDBRANCH  83  84
ENDBRANCH  51  76
BRANCH  63  88
ATOM     88  C   UNL A   1      48.245  30.825  34.458  1.00  0.00     0.058 A 
ATOM     89  C   UNL A   1      47.565  31.723  35.296  1.00  0.00     0.135 A 
ATOM     90  C   UNL A   1      49.648  30.912  34.414  1.00  0.00     0.135 A 
ATOM     91  F   UNL A   1      46.225  31.690  35.376  1.00  0.00    -0.206 F 
ATOM     92  C   UNL A   1      48.243  32.686  36.037  1.00  0.00     0.059 A 
ATOM     93  C   UNL A   1      50.350  31.842  35.176  1.00  0.00     0.059 A 
ATOM     94  F   UNL A   1      50.354  30.071  33.642  1.00  0.00    -0.206 F 
ATOM     95  C   UNL A   1      49.637  32.735  35.974  1.00  0.00     0.060 A 
BRANCH  95  96
ATOM     96  S   UNL A   1      50.505  33.967  36.967  1.00  0.00     0.124 S 
ATOM     97  O   UNL A   1      49.525  35.048  37.018  1.00  0.00    -0.237 OA
ATOM     98  O   UNL A   1      50.728  33.254  38.221  1.00  0.00    -0.237 OA
ATOM     99  O   UNL A   1      51.708  34.249  36.189  1.00  0.00    -0.744 OA
ENDBRANCH  95  96
ENDBRANCH  63  88
ENDBRANCH  37  38
ENDBRANCH  30  32
ENDBRANCH  29  30
ENDBRANCH  28  29
ENDBRANCH  27  28
ENDBRANCH  26  27
ENDBRANCH  25  26
ENDBRANCH  24  25
ENDBRANCH   1  24
TORSDOF 27
ENDMDL
MODEL 2
REMARK VINA RESULT:      -6.3      5.960      7.258
REMARK SMILES CC(C)(C)N(CC(=O)OCCOCCOCCOCCOC(=O)c1ccc(-c2c3nc(c(-c4c(F)cc(S(=O)(=O)[O-])cc4F)c4ccc([nH]4)c(-c4c(F)cc(S(=O)(=O)[O-])cc4F)c4nc(c(-c5c(F)cc(S(=O)(=O)[O-])cc5F)c5ccc2[nH]5)C=C4)C=C3)cc1)c1cccc(C#N)n1
REMARK SMILES IDX 15 1 14 2 13 3 12 4 11 5 10 6 9 7 7 8 8 9 6 10 5 11 2 12
REMARK SMILES IDX 1 13 3 14 4 15 90 16 91 17 97 18 92 19 94 20 93 21 95 22
REMARK SMILES IDX 96 23 16 24 17 25 18 26 19 27 20 28 21 29 22 30 23 31 24 32
REMARK SMILES IDX 25 33 89 34 26 35 88 36 27 37 28 38 29 39 82 40 30 41 87 42
REMARK SMILES IDX 81 43 83 44 31 45 86 46 80 47 79 48 32 50 66 51 45 52 65 53
REMARK SMILES IDX 46 54 49 55 64 56 84 57 47 58 48 59 63 61 85 62 50 63 33 64
REMARK SMILES IDX 34 65 43 66 35 67 36 68 42 69 44 70 37 71 38 72 39 73 40 74
REMARK SMILES IDX 41 75 67 76 68 77 77 78 69 79 70 80 76 81 78 82 71 83 72 84
REMARK SMILES IDX 73 85 74 86 75 87 51 88 52 89 61 90 53 91 54 92 60 93 62 94
REMARK SMILES IDX 55 95 56 96 57 97 58 98 59 99
REMARK H PARENT 83 49 49 60
REMARK Flexibility Score: inf
ROOT
ATOM      1  O   UNL A   1      45.621  22.943  25.814  1.00  0.00    -0.377 OA
ENDROOT
BRANCH   1   2
ATOM      2  C   UNL A   1      45.712  24.017  24.908  1.00  0.00     0.188 C 
BRANCH   2   3
ATOM      3  C   UNL A   1      46.945  24.910  25.106  1.00  0.00     0.188 C 
BRANCH   3   4
ATOM      4  O   UNL A   1      47.813  25.132  24.007  1.00  0.00    -0.376 OA
BRANCH   4   5
ATOM      5  C   UNL A   1      48.375  26.437  23.857  1.00  0.00     0.202 C 
BRANCH   5   6
ATOM      6  C   UNL A   1      47.972  27.563  24.840  1.00  0.00     0.261 C 
BRANCH   6   7
ATOM      7  O   UNL A   1      46.593  28.020  24.760  1.00  0.00    -0.462 OA
BRANCH   7   8
ATOM      8  C   UNL A   1      46.035  28.508  25.898  1.00  0.00     0.325 C 
ATOM      9  O   UNL A   1      45.141  29.355  25.901  1.00  0.00    -0.250 OA
BRANCH   8  10
ATOM     10  C   UNL A   1      46.418  27.790  27.205  1.00  0.00     0.241 C 
BRANCH  10  11
ATOM     11  N   UNL A   1      47.121  28.516  28.273  1.00  0.00    -0.341 N 
BRANCH  11  12
ATOM     12  C   UNL A   1      48.284  28.006  29.049  1.00  0.00     0.034 C 
ATOM     13  C   UNL A   1      48.007  27.990  30.558  1.00  0.00     0.034 C 
ATOM     14  C   UNL A   1      49.545  28.867  28.817  1.00  0.00     0.034 C 
ATOM     15  C   UNL A   1      48.602  26.551  28.617  1.00  0.00     0.034 C 
ENDBRANCH  11  12
BRANCH  11  16
ATOM     16  C   UNL A   1      46.705  29.801  28.557  1.00  0.00     0.131 A 
ATOM     17  C   UNL A   1      45.578  30.081  29.328  1.00  0.00     0.047 A 
ATOM     18  N   UNL A   1      47.335  30.773  27.897  1.00  0.00    -0.220 NA
ATOM     19  C   UNL A   1      45.114  31.399  29.420  1.00  0.00     0.007 A 
ATOM     20  C   UNL A   1      46.828  32.015  27.917  1.00  0.00     0.142 A 
ATOM     21  C   UNL A   1      45.758  32.397  28.701  1.00  0.00     0.040 A 
BRANCH  20  22
ATOM     22  C   UNL A   1      47.350  32.851  26.878  1.00  0.00     0.120 C 
ATOM     23  N   UNL A   1      47.856  33.514  26.082  1.00  0.00    -0.191 NA
ENDBRANCH  20  22
ENDBRANCH  11  16
ENDBRANCH  10  11
ENDBRANCH   8  10
ENDBRANCH   7   8
ENDBRANCH   6   7
ENDBRANCH   5   6
ENDBRANCH   4   5
ENDBRANCH   3   4
ENDBRANCH   2   3
ENDBRANCH   1   2
BRANCH   1  24
ATOM     24  C   UNL A   1      45.604  21.602  25.360  1.00  0.00     0.188 C 
BRANCH  24  25
ATOM     25  C   UNL A   1      44.260  20.871  25.252  1.00  0.00     0.188 C 
BRANCH  25  26
ATOM     26  O   UNL A   1      43.058  21.629  25.095  1.00  0.00    -0.376 OA
BRANCH  26  27
ATOM     27  C   UNL A   1      42.180  21.798  26.203  1.00  0.00     0.202 C 
BRANCH  27  28
ATOM     28  C   UNL A   1      41.497  23.155  26.345  1.00  0.00     0.261 C 
BRANCH  28  29
ATOM     29  O   UNL A   1      42.444  24.220  26.186  1.00  0.00    -0.460 OA
BRANCH  29  30
ATOM     30  C   UNL A   1      41.919  25.457  26.041  1.00  0.00     0.338 C 
ATOM     31  O   UNL A   1      41.322  25.879  25.064  1.00  0.00    -0.246 OA
BRANCH  30  32
ATOM     32  C   UNL A   1      41.965  26.189  27.323  1.00  0.00     0.060 A 
ATOM     33  C   UNL A   1      41.049  25.803  28.305  1.00  0.00     0.016 A 
ATOM     34  C   UNL A   1      42.820  27.269  27.551  1.00  0.00     0.016 A 
ATOM     35  C   UNL A   1      40.947  26.522  29.492  1.00  0.00     0.010 A 
ATOM     36  C   UNL A   1      42.731  27.984  28.754  1.00  0.00     0.010 A 
ATOM     37  C   UNL A   1      41.753  27.646  29.706  1.00  0.00    -0.014 A 
BRANCH  37  38
ATOM     38  C   UNL A   1      41.399  28.576  30.810  1.00  0.00     0.031 A 
ATOM     39  C   UNL A   1      42.213  28.523  32.078  1.00  0.00     0.074 A 
ATOM     40  C   UNL A   1      40.449  29.516  30.658  1.00  0.00     0.049 A 
ATOM     41  N   UNL A   1      42.102  29.237  33.168  1.00  0.00    -0.248 NA
ATOM     42  C   UNL A   1      43.306  27.536  32.118  1.00  0.00     0.031 C 
ATOM     43  C   UNL A   1      39.638  29.714  29.456  1.00  0.00     0.029 A 
ATOM     44  N   UNL A   1      40.009  30.489  31.523  1.00  0.00    -0.354 N 
ATOM     45  C   UNL A   1      43.100  28.781  34.024  1.00  0.00     0.074 A 
ATOM     46  C   UNL A   1      43.785  27.706  33.342  1.00  0.00     0.031 C 
ATOM     47  C   UNL A   1      38.797  30.743  29.663  1.00  0.00     0.029 A 
ATOM     48  C   UNL A   1      38.978  31.249  31.022  1.00  0.00     0.049 A 
ATOM     49  H   UNL A   1      40.397  30.630  32.416  1.00  0.00     0.167 HD
ATOM     50  C   UNL A   1      43.424  29.224  35.260  1.00  0.00     0.037 A 
ATOM     51  C   UNL A   1      38.245  32.219  31.606  1.00  0.00     0.037 A 
ATOM     52  C   UNL A   1      42.743  30.301  35.932  1.00  0.00     0.049 A 
ATOM     53  C   UNL A   1      38.564  32.633  33.023  1.00  0.00     0.074 A 
ATOM     54  C   UNL A   1      43.001  30.830  37.184  1.00  0.00     0.029 A 
ATOM     55  N   UNL A   1      41.666  31.006  35.415  1.00  0.00    -0.354 N 
ATOM     56  N   UNL A   1      39.516  32.202  33.816  1.00  0.00    -0.248 NA
ATOM     57  C   UNL A   1      37.709  33.668  33.624  1.00  0.00     0.031 C 
ATOM     58  C   UNL A   1      42.037  31.805  37.453  1.00  0.00     0.029 A 
ATOM     59  C   UNL A   1      41.225  31.941  36.338  1.00  0.00     0.049 A 
ATOM     60  H   UNL A   1      41.273  30.864  34.524  1.00  0.00     0.167 HD
ATOM     61  C   UNL A   1      39.392  32.932  34.995  1.00  0.00     0.074 A 
ATOM     62  C   UNL A   1      38.286  33.845  34.804  1.00  0.00     0.031 C 
ATOM     63  C   UNL A   1      40.126  32.853  36.134  1.00  0.00     0.037 A 
BRANCH  50  64
ATOM     64  C   UNL A   1      44.543  28.527  35.988  1.00  0.00     0.058 A 
ATOM     65  C   UNL A   1      44.311  27.446  36.854  1.00  0.00     0.135 A 
ATOM     66  C   UNL A   1      45.875  28.916  35.772  1.00  0.00     0.135 A 
ATOM     67  F   UNL A   1      43.058  27.043  37.115  1.00  0.00    -0.206 F 
ATOM     68  C   UNL A   1      45.359  26.788  37.493  1.00  0.00     0.059 A 
ATOM     69  C   UNL A   1      46.940  28.251  36.373  1.00  0.00     0.059 A 
ATOM     70  F   UNL A   1      46.156  29.946  34.959  1.00  0.00    -0.206 F 
ATOM     71  C   UNL A   1      46.671  27.194  37.240  1.00  0.00     0.060 A 
BRANCH  71  72
ATOM     72  S   UNL A   1      48.018  26.311  38.054  1.00  0.00     0.124 S 
ATOM     73  O   UNL A   1      47.854  24.964  37.515  1.00  0.00    -0.237 OA
ATOM     74  O   UNL A   1      49.192  27.041  37.586  1.00  0.00    -0.237 OA
ATOM     75  O   UNL A   1      47.716  26.457  39.473  1.00  0.00    -0.744 OA
ENDBRANCH  71  72
ENDBRANCH  50  64
BRANCH  51  76
ATOM     76  C   UNL A   1      37.109  32.848  30.872  1.00  0.00     0.058 A 
ATOM     77  C   UNL A   1      35.782  32.447  31.090  1.00  0.00     0.135 A 
ATOM     78  C   UNL A   1      37.334  33.847  29.911  1.00  0.00     0.135 A 
ATOM     79  F   UNL A   1      35.510  31.484  31.984  1.00  0.00    -0.206 F 
ATOM     80  C   UNL A   1      34.724  32.996  30.370  1.00  0.00     0.059 A 
ATOM     81  C   UNL A   1      36.290  34.437  29.204  1.00  0.00     0.059 A 
ATOM     82  F   UNL A   1      38.583  34.271  29.661  1.00  0.00    -0.206 F 
ATOM     83  C   UNL A   1      34.989  33.995  29.432  1.00  0.00     0.060 A 
BRANCH  83  84
ATOM     84  S   UNL A   1      33.606  34.729  28.533  1.00  0.00     0.124 S 
ATOM     85  O   UNL A   1      34.235  35.093  27.269  1.00  0.00    -0.237 OA
ATOM     86  O   UNL A   1      32.656  33.623  28.481  1.00  0.00    -0.237 OA
ATOM     87  O   UNL A   1      33.207  35.847  29.383  1.00  0.00    -0.744 OA
ENDBRANCH  83  84
ENDBRANCH  51  76
BRANCH  63  88
ATOM     88  C   UNL A   1      39.789  33.803  37.254  1.00  0.00     0.058 A 
ATOM     89  C   UNL A   1      38.864  33.474  38.257  1.00  0.00     0.135 A 
ATOM     90  C   UNL A   1      40.445  35.043  37.355  1.00  0.00     0.135 A 
ATOM     91  F   UNL A   1      38.204  32.305  38.210  1.00  0.00    -0.206 F 
ATOM     92  C   UNL A   1      38.579  34.349  39.301  1.00  0.00     0.059 A 
ATOM     93  C   UNL A   1      40.204  35.916  38.411  1.00  0.00     0.059 A 
ATOM     94  F   UNL A   1      41.351  35.407  36.433  1.00  0.00    -0.206 F 
ATOM     95  C   UNL A   1      39.258  35.566  39.372  1.00  0.00     0.060 A 
BRANCH  95  96
ATOM     96  S   UNL A   1      38.901  36.675  40.752  1.00  0.00     0.124 S 
ATOM     97  O   UNL A   1      38.362  37.842  40.060  1.00  0.00    -0.237 OA
ATOM     98  O   UNL A   1      37.940  35.901  41.531  1.00  0.00    -0.237 OA
ATOM     99  O   UNL A   1      40.203  36.867  41.382  1.00  0.00    -0.744 OA
ENDBRANCH  95  96
ENDBRANCH  63  88
ENDBRANCH  37  38
ENDBRANCH  30  32
ENDBRANCH  29  30
ENDBRANCH  28  29
ENDBRANCH  27  28
ENDBRANCH  26  27
ENDBRANCH  25  26
ENDBRANCH  24  25
ENDBRANCH   1  24
TORSDOF 27
ENDMDL
MODEL 3
REMARK VINA RESULT:      -6.1      5.875      7.035
REMARK SMILES CC(C)(C)N(CC(=O)OCCOCCOCCOCCOC(=O)c1ccc(-c2c3nc(c(-c4c(F)cc(S(=O)(=O)[O-])cc4F)c4ccc([nH]4)c(-c4c(F)cc(S(=O)(=O)[O-])cc4F)c4nc(c(-c5c(F)cc(S(=O)(=O)[O-])cc5F)c5ccc2[nH]5)C=C4)C=C3)cc1)c1cccc(C#N)n1
REMARK SMILES IDX 15 1 14 2 13 3 12 4 11 5 10 6 9 7 7 8 8 9 6 10 5 11 2 12
REMARK SMILES IDX 1 13 3 14 4 15 90 16 91 17 97 18 92 19 94 20 93 21 95 22
REMARK SMILES IDX 96 23 16 24 17 25 18 26 19 27 20 28 21 29 22 30 23 31 24 32
REMARK SMILES IDX 25 33 89 34 26 35 88 36 27 37 28 38 29 39 82 40 30 41 87 42
REMARK SMILES IDX 81 43 83 44 31 45 86 46 80 47 79 48 32 50 66 51 45 52 65 53
REMARK SMILES IDX 46 54 49 55 64 56 84 57 47 58 48 59 63 61 85 62 50 63 33 64
REMARK SMILES IDX 34 65 43 66 35 67 36 68 42 69 44 70 37 71 38 72 39 73 40 74
REMARK SMILES IDX 41 75 67 76 68 77 77 78 69 79 70 80 76 81 78 82 71 83 72 84
REMARK SMILES IDX 73 85 74 86 75 87 51 88 52 89 61 90 53 91 54 92 60 93 62 94
REMARK SMILES IDX 55 95 56 96 57 97 58 98 59 99
REMARK H PARENT 83 49 49 60
REMARK Flexibility Score: inf
ROOT
ATOM      1  O   UNL A   1      45.624  22.955  25.799  1.00  0.00    -0.377 OA
ENDROOT
BRANCH   1   2
ATOM      2  C   UNL A   1      45.633  24.021  24.879  1.00  0.00     0.188 C 
BRANCH   2   3
ATOM      3  C   UNL A   1      46.793  25.008  25.066  1.00  0.00     0.188 C 
BRANCH   3   4
ATOM      4  O   UNL A   1      47.593  25.346  23.946  1.00  0.00    -0.376 OA
BRANCH   4   5
ATOM      5  C   UNL A   1      48.457  26.478  24.062  1.00  0.00     0.202 C 
BRANCH   5   6
ATOM      6  C   UNL A   1      48.414  27.346  25.344  1.00  0.00     0.261 C 
BRANCH   6   7
ATOM      7  O   UNL A   1      47.221  28.157  25.529  1.00  0.00    -0.462 OA
BRANCH   7   8
ATOM      8  C   UNL A   1      46.823  28.391  26.807  1.00  0.00     0.325 C 
ATOM      9  O   UNL A   1      46.200  29.399  27.145  1.00  0.00    -0.250 OA
BRANCH   8  10
ATOM     10  C   UNL A   1      46.992  27.224  27.796  1.00  0.00     0.241 C 
BRANCH  10  11
ATOM     11  N   UNL A   1      47.796  27.393  29.015  1.00  0.00    -0.341 N 
BRANCH  11  12
ATOM     12  C   UNL A   1      47.410  26.942  30.380  1.00  0.00     0.034 C 
ATOM     13  C   UNL A   1      47.384  28.102  31.384  1.00  0.00     0.034 C 
ATOM     14  C   UNL A   1      48.387  25.877  30.925  1.00  0.00     0.034 C 
ATOM     15  C   UNL A   1      45.988  26.325  30.342  1.00  0.00     0.034 C 
ENDBRANCH  11  12
BRANCH  11  16
ATOM     16  C   UNL A   1      49.040  27.977  28.886  1.00  0.00     0.131 A 
ATOM     17  C   UNL A   1      49.238  29.357  28.929  1.00  0.00     0.047 A 
ATOM     18  N   UNL A   1      50.031  27.160  28.532  1.00  0.00    -0.220 NA
ATOM     19  C   UNL A   1      50.495  29.883  28.608  1.00  0.00     0.007 A 
ATOM     20  C   UNL A   1      51.202  27.680  28.138  1.00  0.00     0.142 A 
ATOM     21  C   UNL A   1      51.510  29.024  28.207  1.00  0.00     0.040 A 
BRANCH  20  22
ATOM     22  C   UNL A   1      52.019  26.747  27.422  1.00  0.00     0.120 C 
ATOM     23  N   UNL A   1      52.680  25.943  26.926  1.00  0.00    -0.191 NA
ENDBRANCH  20  22
ENDBRANCH  11  16
ENDBRANCH  10  11
ENDBRANCH   8  10
ENDBRANCH   7   8
ENDBRANCH   6   7
ENDBRANCH   5   6
ENDBRANCH   4   5
ENDBRANCH   3   4
ENDBRANCH   2   3
ENDBRANCH   1   2
BRANCH   1  24
ATOM     24  C   UNL A   1      45.624  21.608  25.359  1.00  0.00     0.188 C 
BRANCH  24  25
ATOM     25  C   UNL A   1      44.291  20.856  25.269  1.00  0.00     0.188 C 
BRANCH  25  26
ATOM     26  O   UNL A   1      43.077  21.593  25.103  1.00  0.00    -0.376 OA
BRANCH  26  27
ATOM     27  C   UNL A   1      42.213  21.790  26.218  1.00  0.00     0.202 C 
BRANCH  27  28
ATOM     28  C   UNL A   1      41.590  23.173  26.376  1.00  0.00     0.261 C 
BRANCH  28  29
ATOM     29  O   UNL A   1      42.592  24.196  26.283  1.00  0.00    -0.460 OA
BRANCH  29  30
ATOM     30  C   UNL A   1      42.133  25.456  26.120  1.00  0.00     0.338 C 
ATOM     31  O   UNL A   1      41.607  25.910  25.116  1.00  0.00    -0.246 OA
BRANCH  30  32
ATOM     32  C   UNL A   1      42.146  26.180  27.407  1.00  0.00     0.060 A 
ATOM     33  C   UNL A   1      41.167  25.829  28.340  1.00  0.00     0.016 A 
ATOM     34  C   UNL A   1      43.034  27.222  27.684  1.00  0.00     0.016 A 
ATOM     35  C   UNL A   1      41.037  26.546  29.526  1.00  0.00     0.010 A 
ATOM     36  C   UNL A   1      42.916  27.934  28.885  1.00  0.00     0.010 A 
ATOM     37  C   UNL A   1      41.878  27.634  29.786  1.00  0.00    -0.014 A 
BRANCH  37  38
ATOM     38  C   UNL A   1      41.510  28.573  30.877  1.00  0.00     0.031 A 
ATOM     39  C   UNL A   1      42.309  28.534  32.155  1.00  0.00     0.074 A 
ATOM     40  C   UNL A   1      40.559  29.510  30.705  1.00  0.00     0.049 A 
ATOM     41  N   UNL A   1      42.184  29.257  33.237  1.00  0.00    -0.248 NA
ATOM     42  C   UNL A   1      43.403  27.549  32.217  1.00  0.00     0.031 C 
ATOM     43  C   UNL A   1      39.763  29.696  29.493  1.00  0.00     0.029 A 
ATOM     44  N   UNL A   1      40.108  30.490  31.557  1.00  0.00    -0.354 N 
ATOM     45  C   UNL A   1      43.173  28.811  34.108  1.00  0.00     0.074 A 
ATOM     46  C   UNL A   1      43.868  27.731  33.444  1.00  0.00     0.031 C 
ATOM     47  C   UNL A   1      38.917  30.724  29.681  1.00  0.00     0.029 A 
ATOM     48  C   UNL A   1      39.081  31.243  31.037  1.00  0.00     0.049 A 
ATOM     49  H   UNL A   1      40.485  30.640  32.453  1.00  0.00     0.167 HD
ATOM     50  C   UNL A   1      43.482  29.266  35.345  1.00  0.00     0.037 A 
ATOM     51  C   UNL A   1      38.339  32.218  31.604  1.00  0.00     0.037 A 
ATOM     52  C   UNL A   1      42.791  30.347  35.999  1.00  0.00     0.049 A 
ATOM     53  C   UNL A   1      38.642  32.645  33.020  1.00  0.00     0.074 A 
ATOM     54  C   UNL A   1      43.034  30.888  37.249  1.00  0.00     0.029 A 
ATOM     55  N   UNL A   1      41.719  31.045  35.462  1.00  0.00    -0.354 N 
ATOM     56  N   UNL A   1      39.585  32.223  33.828  1.00  0.00    -0.248 NA
ATOM     57  C   UNL A   1      37.778  33.683  33.601  1.00  0.00     0.031 C 
ATOM     58  C   UNL A   1      42.064  31.864  37.497  1.00  0.00     0.029 A 
ATOM     59  C   UNL A   1      41.265  31.988  36.372  1.00  0.00     0.049 A 
ATOM     60  H   UNL A   1      41.336  30.895  34.568  1.00  0.00     0.167 HD
ATOM     61  C   UNL A   1      39.446  32.963  34.999  1.00  0.00     0.074 A 
ATOM     62  C   UNL A   1      38.341  33.873  34.787  1.00  0.00     0.031 C 
ATOM     63  C   UNL A   1      40.167  32.896  36.147  1.00  0.00     0.037 A 
BRANCH  50  64
ATOM     64  C   UNL A   1      44.593  28.578  36.092  1.00  0.00     0.058 A 
ATOM     65  C   UNL A   1      44.354  27.503  36.964  1.00  0.00     0.135 A 
ATOM     66  C   UNL A   1      45.927  28.969  35.890  1.00  0.00     0.135 A 
ATOM     67  F   UNL A   1      43.098  27.099  37.212  1.00  0.00    -0.206 F 
ATOM     68  C   UNL A   1      45.395  26.853  37.620  1.00  0.00     0.059 A 
ATOM     69  C   UNL A   1      46.986  28.312  36.509  1.00  0.00     0.059 A 
ATOM     70  F   UNL A   1      46.215  29.994  35.072  1.00  0.00    -0.206 F 
ATOM     71  C   UNL A   1      46.709  27.260  37.381  1.00  0.00     0.060 A 
BRANCH  71  72
ATOM     72  S   UNL A   1      48.048  26.388  38.218  1.00  0.00     0.124 S 
ATOM     73  O   UNL A   1      47.895  25.037  37.687  1.00  0.00    -0.237 OA
ATOM     74  O   UNL A   1      49.226  27.118  37.760  1.00  0.00    -0.237 OA
ATOM     75  O   UNL A   1      47.728  26.543  39.632  1.00  0.00    -0.744 OA
ENDBRANCH  71  72
ENDBRANCH  50  64
BRANCH  51  76
ATOM     76  C   UNL A   1      37.211  32.837  30.851  1.00  0.00     0.058 A 
ATOM     77  C   UNL A   1      35.883  32.431  31.053  1.00  0.00     0.135 A 
ATOM     78  C   UNL A   1      37.445  33.832  29.887  1.00  0.00     0.135 A 
ATOM     79  F   UNL A   1      35.603  31.472  31.949  1.00  0.00    -0.206 F 
ATOM     80  C   UNL A   1      34.833  32.972  30.316  1.00  0.00     0.059 A 
ATOM     81  C   UNL A   1      36.409  34.413  29.163  1.00  0.00     0.059 A 
ATOM     82  F   UNL A   1      38.695  34.260  29.652  1.00  0.00    -0.206 F 
ATOM     83  C   UNL A   1      35.106  33.967  29.375  1.00  0.00     0.060 A 
BRANCH  83  84
ATOM     84  S   UNL A   1      33.732  34.690  28.454  1.00  0.00     0.124 S 
ATOM     85  O   UNL A   1      34.369  35.021  27.185  1.00  0.00    -0.237 OA
ATOM     86  O   UNL A   1      32.775  33.589  28.422  1.00  0.00    -0.237 OA
ATOM     87  O   UNL A   1      33.337  35.829  29.277  1.00  0.00    -0.744 OA
ENDBRANCH  83  84
ENDBRANCH  51  76
BRANCH  63  88
ATOM     88  C   UNL A   1      39.815  33.856  37.254  1.00  0.00     0.058 A 
ATOM     89  C   UNL A   1      38.919  33.514  38.279  1.00  0.00     0.135 A 
ATOM     90  C   UNL A   1      40.428  35.119  37.320  1.00  0.00     0.135 A 
ATOM     91  F   UNL A   1      38.300  32.322  38.267  1.00  0.00    -0.206 F 
ATOM     92  C   UNL A   1      38.621  34.398  39.311  1.00  0.00     0.059 A 
ATOM     93  C   UNL A   1      40.173  36.005  38.363  1.00  0.00     0.059 A 
ATOM     94  F   UNL A   1      41.304  35.497  36.375  1.00  0.00    -0.206 F 
ATOM     95  C   UNL A   1      39.257  35.641  39.348  1.00  0.00     0.060 A 
BRANCH  95  96
ATOM     96  S   UNL A   1      38.884  36.763  40.711  1.00  0.00     0.124 S 
ATOM     97  O   UNL A   1      38.286  37.893  40.008  1.00  0.00    -0.237 OA
ATOM     98  O   UNL A   1      37.971  35.969  41.526  1.00  0.00    -0.237 OA
ATOM     99  O   UNL A   1      40.190  37.019  41.311  1.00  0.00    -0.744 OA
ENDBRANCH  95  96
ENDBRANCH  63  88
ENDBRANCH  37  38
ENDBRANCH  30  32
ENDBRANCH  29  30
ENDBRANCH  28  29
ENDBRANCH  27  28
ENDBRANCH  26  27
ENDBRANCH  25  26
ENDBRANCH  24  25
ENDBRANCH   1  24
TORSDOF 27
ENDMDL
