MODEL 1
REMARK VINA RESULT:      -7.8      0.000      0.000
REMARK SMILES CC[C@@]1(C(=O)OCCOCCOCCOCCOC(=O)c2ccc(-c3c4nc(c(-c5c(F)cc(S(=O)(=O)[O-])cc5F)c5ccc([nH]5)c(-c5c(F)cc(S(=O)(=O)[O-])cc5F)c5nc(c(-c6c(F)cc(S(=O)(=O)[O-])cc6F)c6ccc3[nH]6)C=C5)C=C4)cc2)CCN(C(=O)N(C)CCc2cccs2)C1
REMARK SMILES IDX 11 1 10 2 9 3 8 4 7 5 6 6 4 7 5 8 3 9 87 10 101 11 88 12
REMARK SMILES IDX 89 13 2 14 1 15 90 16 91 17 92 18 93 19 94 20 95 21 96 22
REMARK SMILES IDX 97 23 100 24 98 25 99 26 12 27 13 28 14 29 15 30 16 31 17 32
REMARK SMILES IDX 18 33 19 34 20 35 21 36 22 37 86 38 23 39 85 40 24 41 25 42
REMARK SMILES IDX 26 43 79 44 27 45 84 46 78 47 80 48 28 49 83 50 77 51 76 52
REMARK SMILES IDX 29 54 63 55 42 56 62 57 43 58 46 59 61 60 81 61 44 62 45 63
REMARK SMILES IDX 60 65 82 66 47 67 30 68 31 69 40 70 32 71 33 72 39 73 41 74
REMARK SMILES IDX 34 75 35 76 36 77 37 78 38 79 64 80 65 81 74 82 66 83 67 84
REMARK SMILES IDX 73 85 75 86 68 87 69 88 70 89 71 90 72 91 48 92 49 93 58 94
REMARK SMILES IDX 50 95 51 96 57 97 59 98 52 99 53 100 54 101 55 102 56 103
REMARK H PARENT 80 53 46 64
REMARK Flexibility Score: inf
ROOT
ATOM      1  C   UNL A   1      37.925  29.934  29.390  1.00  0.00     0.188 C 
ENDROOT
BRANCH   1   2
ATOM      2  C   UNL A   1      37.004  31.074  28.917  1.00  0.00     0.188 C 
BRANCH   2   3
ATOM      3  O   UNL A   1      36.218  30.915  27.757  1.00  0.00    -0.376 OA
BRANCH   3   4
ATOM      4  C   UNL A   1      34.884  30.455  27.722  1.00  0.00     0.202 C 
BRANCH   4   5
ATOM      5  C   UNL A   1      34.387  29.044  27.371  1.00  0.00     0.261 C 
BRANCH   5   6
ATOM      6  O   UNL A   1      33.333  28.899  26.417  1.00  0.00    -0.463 OA
BRANCH   6   7
ATOM      7  C   UNL A   1      32.389  27.974  26.728  1.00  0.00     0.314 C 
ATOM      8  O   UNL A   1      31.887  27.869  27.845  1.00  0.00    -0.252 OA
BRANCH   7   9
ATOM      9  C   UNL A   1      32.010  27.032  25.570  1.00  0.00     0.087 C 
ATOM     10  C   UNL A   1      30.508  26.909  25.232  1.00  0.00     0.042 C 
ATOM     11  C   UNL A   1      32.413  25.604  25.999  1.00  0.00     0.140 C 
ATOM     12  C   UNL A   1      30.057  25.492  25.594  1.00  0.00     0.122 C 
ATOM     13  N   UNL A   1      31.213  24.771  26.067  1.00  0.00    -0.323 N 
BRANCH   9  14
ATOM     14  C   UNL A   1      32.905  27.566  24.410  1.00  0.00     0.017 C 
ATOM     15  C   UNL A   1      33.807  26.581  23.691  1.00  0.00     0.005 C 
ENDBRANCH   9  14
BRANCH  13  16
ATOM     16  C   UNL A   1      31.353  23.464  26.497  1.00  0.00     0.319 C 
ATOM     17  O   UNL A   1      30.932  23.154  27.618  1.00  0.00    -0.248 OA
BRANCH  16  18
ATOM     18  N   UNL A   1      32.027  22.527  25.734  1.00  0.00    -0.327 N 
ATOM     19  C   UNL A   1      31.823  22.215  24.330  1.00  0.00     0.148 C 
BRANCH  18  20
ATOM     20  C   UNL A   1      33.057  21.714  26.415  1.00  0.00     0.126 C 
BRANCH  20  21
ATOM     21  C   UNL A   1      34.312  22.512  26.840  1.00  0.00     0.068 C 
BRANCH  21  22
ATOM     22  C   UNL A   1      35.277  22.706  25.704  1.00  0.00     0.006 A 
ATOM     23  C   UNL A   1      35.435  21.922  24.577  1.00  0.00     0.015 A 
ATOM     24  S   UNL A   1      36.385  24.014  25.706  1.00  0.00    -0.149 S 
ATOM     25  C   UNL A   1      36.621  22.252  23.860  1.00  0.00     0.012 A 
ATOM     26  C   UNL A   1      37.282  23.318  24.427  1.00  0.00     0.065 A 
ENDBRANCH  21  22
ENDBRANCH  20  21
ENDBRANCH  18  20
ENDBRANCH  16  18
ENDBRANCH  13  16
ENDBRANCH   7   9
ENDBRANCH   6   7
ENDBRANCH   5   6
ENDBRANCH   4   5
ENDBRANCH   3   4
ENDBRANCH   2   3
ENDBRANCH   1   2
BRANCH   1  27
ATOM     27  O   UNL A   1      38.394  29.746  30.708  1.00  0.00    -0.377 OA
BRANCH  27  28
ATOM     28  C   UNL A   1      37.680  28.848  31.524  1.00  0.00     0.188 C 
BRANCH  28  29
ATOM     29  C   UNL A   1      37.420  29.432  32.914  1.00  0.00     0.188 C 
BRANCH  29  30
ATOM     30  O   UNL A   1      37.756  30.804  33.020  1.00  0.00    -0.376 OA
BRANCH  30  31
ATOM     31  C   UNL A   1      36.762  31.792  33.247  1.00  0.00     0.202 C 
BRANCH  31  32
ATOM     32  C   UNL A   1      36.912  33.313  33.005  1.00  0.00     0.261 C 
BRANCH  32  33
ATOM     33  O   UNL A   1      37.981  33.796  32.186  1.00  0.00    -0.460 OA
BRANCH  33  34
ATOM     34  C   UNL A   1      39.213  33.865  32.723  1.00  0.00     0.338 C 
ATOM     35  O   UNL A   1      39.542  34.464  33.731  1.00  0.00    -0.246 OA
BRANCH  34  36
ATOM     36  C   UNL A   1      40.063  32.910  31.976  1.00  0.00     0.060 A 
ATOM     37  C   UNL A   1      40.823  31.984  32.701  1.00  0.00     0.016 A 
ATOM     38  C   UNL A   1      40.088  32.906  30.577  1.00  0.00     0.016 A 
ATOM     39  C   UNL A   1      41.649  31.084  32.032  1.00  0.00     0.010 A 
ATOM     40  C   UNL A   1      40.943  32.024  29.907  1.00  0.00     0.010 A 
ATOM     41  C   UNL A   1      41.762  31.145  30.638  1.00  0.00    -0.014 A 
BRANCH  41  42
ATOM     42  C   UNL A   1      42.930  30.490  30.001  1.00  0.00     0.031 A 
ATOM     43  C   UNL A   1      44.226  31.258  29.971  1.00  0.00     0.074 A 
ATOM     44  C   UNL A   1      42.874  29.227  29.548  1.00  0.00     0.049 A 
ATOM     45  N   UNL A   1      45.399  30.894  29.525  1.00  0.00    -0.248 NA
ATOM     46  C   UNL A   1      44.190  32.625  30.523  1.00  0.00     0.031 C 
ATOM     47  C   UNL A   1      41.688  28.372  29.567  1.00  0.00     0.029 A 
ATOM     48  N   UNL A   1      43.848  28.440  28.988  1.00  0.00    -0.354 N 
ATOM     49  C   UNL A   1      46.238  31.980  29.747  1.00  0.00     0.074 A 
ATOM     50  C   UNL A   1      45.434  33.032  30.326  1.00  0.00     0.031 C 
ATOM     51  C   UNL A   1      42.007  27.176  29.037  1.00  0.00     0.029 A 
ATOM     52  C   UNL A   1      43.409  27.190  28.624  1.00  0.00     0.049 A 
ATOM     53  H   UNL A   1      44.776  28.743  28.859  1.00  0.00     0.167 HD
ATOM     54  C   UNL A   1      47.565  32.087  29.504  1.00  0.00     0.037 A 
ATOM     55  C   UNL A   1      44.066  26.180  28.020  1.00  0.00     0.037 A 
ATOM     56  C   UNL A   1      48.360  31.038  28.923  1.00  0.00     0.049 A 
ATOM     57  C   UNL A   1      45.532  26.346  27.698  1.00  0.00     0.074 A 
ATOM     58  C   UNL A   1      49.712  31.042  28.636  1.00  0.00     0.029 A 
ATOM     59  N   UNL A   1      47.870  29.801  28.531  1.00  0.00    -0.354 N 
ATOM     60  N   UNL A   1      46.320  27.370  27.931  1.00  0.00    -0.248 NA
ATOM     61  C   UNL A   1      46.200  25.213  27.042  1.00  0.00     0.031 C 
ATOM     62  C   UNL A   1      50.031  29.826  28.023  1.00  0.00     0.029 A 
ATOM     63  C   UNL A   1      48.890  29.040  27.984  1.00  0.00     0.049 A 
ATOM     64  H   UNL A   1      46.935  29.506  28.628  1.00  0.00     0.167 HD
ATOM     65  C   UNL A   1      47.581  26.991  27.480  1.00  0.00     0.074 A 
ATOM     66  C   UNL A   1      47.453  25.641  26.974  1.00  0.00     0.031 C 
ATOM     67  C   UNL A   1      48.743  27.694  27.488  1.00  0.00     0.037 A 
BRANCH  54  68
ATOM     68  C   UNL A   1      48.227  33.395  29.837  1.00  0.00     0.058 A 
ATOM     69  C   UNL A   1      48.827  33.627  31.086  1.00  0.00     0.135 A 
ATOM     70  C   UNL A   1      48.275  34.428  28.888  1.00  0.00     0.135 A 
ATOM     71  F   UNL A   1      48.788  32.684  32.041  1.00  0.00    -0.206 F 
ATOM     72  C   UNL A   1      49.427  34.845  31.390  1.00  0.00     0.059 A 
ATOM     73  C   UNL A   1      48.898  35.643  29.159  1.00  0.00     0.059 A 
ATOM     74  F   UNL A   1      47.709  34.264  27.681  1.00  0.00    -0.206 F 
ATOM     75  C   UNL A   1      49.459  35.846  30.419  1.00  0.00     0.060 A 
BRANCH  75  76
ATOM     76  S   UNL A   1      50.250  37.417  30.824  1.00  0.00     0.124 S 
ATOM     77  O   UNL A   1      51.058  37.046  31.982  1.00  0.00    -0.237 OA
ATOM     78  O   UNL A   1      50.992  37.716  29.604  1.00  0.00    -0.237 OA
ATOM     79  O   UNL A   1      49.125  38.303  31.104  1.00  0.00    -0.744 OA
ENDBRANCH  75  76
ENDBRANCH  54  68
BRANCH  55  80
ATOM     80  C   UNL A   1      43.349  24.922  27.673  1.00  0.00     0.058 A 
ATOM     81  C   UNL A   1      43.175  23.897  28.615  1.00  0.00     0.135 A 
ATOM     82  C   UNL A   1      42.832  24.717  26.384  1.00  0.00     0.135 A 
ATOM     83  F   UNL A   1      43.662  24.038  29.858  1.00  0.00    -0.206 F 
ATOM     84  C   UNL A   1      42.530  22.708  28.288  1.00  0.00     0.059 A 
ATOM     85  C   UNL A   1      42.159  23.549  26.042  1.00  0.00     0.059 A 
ATOM     86  F   UNL A   1      42.963  25.669  25.448  1.00  0.00    -0.206 F 
ATOM     87  C   UNL A   1      42.022  22.545  26.999  1.00  0.00     0.060 A 
BRANCH  87  88
ATOM     88  S   UNL A   1      41.142  21.019  26.600  1.00  0.00     0.124 S 
ATOM     89  O   UNL A   1      42.093  20.352  25.719  1.00  0.00    -0.237 OA
ATOM     90  O   UNL A   1      40.958  20.419  27.917  1.00  0.00    -0.237 OA
ATOM     91  O   UNL A   1      39.917  21.496  25.962  1.00  0.00    -0.744 OA
ENDBRANCH  87  88
ENDBRANCH  55  80
BRANCH  67  92
ATOM     92  C   UNL A   1      49.977  27.001  26.974  1.00  0.00     0.058 A 
ATOM     93  C   UNL A   1      50.863  26.328  27.830  1.00  0.00     0.135 A 
ATOM     94  C   UNL A   1      50.257  26.982  25.597  1.00  0.00     0.135 A 
ATOM     95  F   UNL A   1      50.644  26.314  29.155  1.00  0.00    -0.206 F 
ATOM     96  C   UNL A   1      52.004  25.697  27.345  1.00  0.00     0.059 A 
ATOM     97  C   UNL A   1      51.375  26.329  25.087  1.00  0.00     0.059 A 
ATOM     98  F   UNL A   1      49.435  27.593  24.731  1.00  0.00    -0.206 F 
ATOM     99  C   UNL A   1      52.253  25.707  25.972  1.00  0.00     0.060 A 
BRANCH  99 100
ATOM    100  S   UNL A   1      53.737  24.884  25.355  1.00  0.00     0.124 S 
ATOM    101  O   UNL A   1      53.249  23.526  25.136  1.00  0.00    -0.237 OA
ATOM    102  O   UNL A   1      54.042  25.649  24.151  1.00  0.00    -0.237 OA
ATOM    103  O   UNL A   1      54.692  25.040  26.447  1.00  0.00    -0.744 OA
ENDBRANCH  99 100
ENDBRANCH  67  92
ENDBRANCH  41  42
ENDBRANCH  34  36
ENDBRANCH  33  34
ENDBRANCH  32  33
ENDBRANCH  31  32
ENDBRANCH  30  31
ENDBRANCH  29  30
ENDBRANCH  28  29
ENDBRANCH  27  28
ENDBRANCH   1  27
TORSDOF 29
ENDMDL
MODEL 2
REMARK VINA RESULT:      -7.7      4.997      9.917
REMARK SMILES CC[C@@]1(C(=O)OCCOCCOCCOCCOC(=O)c2ccc(-c3c4nc(c(-c5c(F)cc(S(=O)(=O)[O-])cc5F)c5ccc([nH]5)c(-c5c(F)cc(S(=O)(=O)[O-])cc5F)c5nc(c(-c6c(F)cc(S(=O)(=O)[O-])cc6F)c6ccc3[nH]6)C=C5)C=C4)cc2)CCN(C(=O)N(C)CCc2cccs2)C1
REMARK SMILES IDX 11 1 10 2 9 3 8 4 7 5 6 6 4 7 5 8 3 9 87 10 101 11 88 12
REMARK SMILES IDX 89 13 2 14 1 15 90 16 91 17 92 18 93 19 94 20 95 21 96 22
REMARK SMILES IDX 97 23 100 24 98 25 99 26 12 27 13 28 14 29 15 30 16 31 17 32
REMARK SMILES IDX 18 33 19 34 20 35 21 36 22 37 86 38 23 39 85 40 24 41 25 42
REMARK SMILES IDX 26 43 79 44 27 45 84 46 78 47 80 48 28 49 83 50 77 51 76 52
REMARK SMILES IDX 29 54 63 55 42 56 62 57 43 58 46 59 61 60 81 61 44 62 45 63
REMARK SMILES IDX 60 65 82 66 47 67 30 68 31 69 40 70 32 71 33 72 39 73 41 74
REMARK SMILES IDX 34 75 35 76 36 77 37 78 38 79 64 80 65 81 74 82 66 83 67 84
REMARK SMILES IDX 73 85 75 86 68 87 69 88 70 89 71 90 72 91 48 92 49 93 58 94
REMARK SMILES IDX 50 95 51 96 57 97 59 98 52 99 53 100 54 101 55 102 56 103
REMARK H PARENT 80 53 46 64
REMARK Flexibility Score: inf
ROOT
ATOM      1  C   UNL A   1      35.372  23.785  23.632  1.00  0.00     0.188 C 
ENDROOT
BRANCH   1   2
ATOM      2  C   UNL A   1      36.485  23.121  24.463  1.00  0.00     0.188 C 
BRANCH   2   3
ATOM      3  O   UNL A   1      36.725  21.736  24.349  1.00  0.00    -0.376 OA
BRANCH   3   4
ATOM      4  C   UNL A   1      35.964  20.714  24.958  1.00  0.00     0.202 C 
BRANCH   4   5
ATOM      5  C   UNL A   1      34.546  20.253  24.587  1.00  0.00     0.261 C 
BRANCH   5   6
ATOM      6  O   UNL A   1      33.531  21.236  24.378  1.00  0.00    -0.463 OA
BRANCH   6   7
ATOM      7  C   UNL A   1      32.490  21.195  25.250  1.00  0.00     0.314 C 
ATOM      8  O   UNL A   1      31.785  20.202  25.413  1.00  0.00    -0.252 OA
BRANCH   7   9
ATOM      9  C   UNL A   1      32.238  22.512  26.007  1.00  0.00     0.087 C 
ATOM     10  C   UNL A   1      30.979  22.573  26.900  1.00  0.00     0.042 C 
ATOM     11  C   UNL A   1      31.993  23.605  24.945  1.00  0.00     0.140 C 
ATOM     12  C   UNL A   1      30.003  23.571  26.274  1.00  0.00     0.122 C 
ATOM     13  N   UNL A   1      30.639  24.133  25.107  1.00  0.00    -0.323 N 
BRANCH   9  14
ATOM     14  C   UNL A   1      33.589  22.720  26.757  1.00  0.00     0.017 C 
ATOM     15  C   UNL A   1      33.927  21.779  27.898  1.00  0.00     0.005 C 
ENDBRANCH   9  14
BRANCH  13  16
ATOM     16  C   UNL A   1      30.200  25.084  24.205  1.00  0.00     0.319 C 
ATOM     17  O   UNL A   1      29.934  24.735  23.048  1.00  0.00    -0.248 OA
BRANCH  16  18
ATOM     18  N   UNL A   1      30.136  26.423  24.549  1.00  0.00    -0.327 N 
ATOM     19  C   UNL A   1      30.581  27.042  25.786  1.00  0.00     0.148 C 
BRANCH  18  20
ATOM     20  C   UNL A   1      29.518  27.344  23.572  1.00  0.00     0.126 C 
BRANCH  20  21
ATOM     21  C   UNL A   1      30.346  28.621  23.297  1.00  0.00     0.068 C 
BRANCH  21  22
ATOM     22  C   UNL A   1      29.478  29.832  23.098  1.00  0.00     0.006 A 
ATOM     23  C   UNL A   1      29.424  30.977  23.870  1.00  0.00     0.015 A 
ATOM     24  S   UNL A   1      28.361  29.910  21.801  1.00  0.00    -0.149 S 
ATOM     25  C   UNL A   1      28.300  31.788  23.542  1.00  0.00     0.012 A 
ATOM     26  C   UNL A   1      27.582  31.269  22.489  1.00  0.00     0.065 A 
ENDBRANCH  21  22
ENDBRANCH  20  21
ENDBRANCH  18  20
ENDBRANCH  16  18
ENDBRANCH  13  16
ENDBRANCH   7   9
ENDBRANCH   6   7
ENDBRANCH   5   6
ENDBRANCH   4   5
ENDBRANCH   3   4
ENDBRANCH   2   3
ENDBRANCH   1   2
BRANCH   1  27
ATOM     27  O   UNL A   1      34.787  25.043  23.895  1.00  0.00    -0.377 OA
BRANCH  27  28
ATOM     28  C   UNL A   1      34.810  25.499  25.227  1.00  0.00     0.188 C 
BRANCH  28  29
ATOM     29  C   UNL A   1      33.817  26.642  25.449  1.00  0.00     0.188 C 
BRANCH  29  30
ATOM     30  O   UNL A   1      34.316  27.907  25.053  1.00  0.00    -0.376 OA
BRANCH  30  31
ATOM     31  C   UNL A   1      33.469  29.045  24.977  1.00  0.00     0.202 C 
BRANCH  31  32
ATOM     32  C   UNL A   1      33.066  29.965  26.153  1.00  0.00     0.261 C 
BRANCH  32  33
ATOM     33  O   UNL A   1      33.859  29.979  27.344  1.00  0.00    -0.460 OA
BRANCH  33  34
ATOM     34  C   UNL A   1      34.532  31.102  27.648  1.00  0.00     0.338 C 
ATOM     35  O   UNL A   1      34.089  32.236  27.689  1.00  0.00    -0.246 OA
BRANCH  34  36
ATOM     36  C   UNL A   1      35.871  30.686  28.125  1.00  0.00     0.060 A 
ATOM     37  C   UNL A   1      36.057  29.353  28.513  1.00  0.00     0.016 A 
ATOM     38  C   UNL A   1      36.938  31.590  28.163  1.00  0.00     0.016 A 
ATOM     39  C   UNL A   1      37.297  28.932  28.987  1.00  0.00     0.010 A 
ATOM     40  C   UNL A   1      38.174  31.175  28.669  1.00  0.00     0.010 A 
ATOM     41  C   UNL A   1      38.341  29.856  29.128  1.00  0.00    -0.014 A 
BRANCH  41  42
ATOM     42  C   UNL A   1      39.479  29.496  30.006  1.00  0.00     0.031 A 
ATOM     43  C   UNL A   1      40.409  28.410  29.529  1.00  0.00     0.074 A 
ATOM     44  C   UNL A   1      39.737  30.166  31.142  1.00  0.00     0.049 A 
ATOM     45  N   UNL A   1      41.501  27.949  30.078  1.00  0.00    -0.248 NA
ATOM     46  C   UNL A   1      40.055  27.760  28.254  1.00  0.00     0.031 C 
ATOM     47  C   UNL A   1      38.934  31.263  31.680  1.00  0.00     0.029 A 
ATOM     48  N   UNL A   1      40.760  30.022  32.045  1.00  0.00    -0.354 N 
ATOM     49  C   UNL A   1      41.966  26.963  29.217  1.00  0.00     0.074 A 
ATOM     50  C   UNL A   1      41.018  26.860  28.131  1.00  0.00     0.031 C 
ATOM     51  C   UNL A   1      39.496  31.691  32.826  1.00  0.00     0.029 A 
ATOM     52  C   UNL A   1      40.682  30.885  33.111  1.00  0.00     0.049 A 
ATOM     53  H   UNL A   1      41.481  29.360  31.940  1.00  0.00     0.167 HD
ATOM     54  C   UNL A   1      43.092  26.218  29.313  1.00  0.00     0.037 A 
ATOM     55  C   UNL A   1      41.477  31.003  34.194  1.00  0.00     0.037 A 
ATOM     56  C   UNL A   1      44.030  26.321  30.398  1.00  0.00     0.049 A 
ATOM     57  C   UNL A   1      42.692  30.115  34.313  1.00  0.00     0.074 A 
ATOM     58  C   UNL A   1      45.204  25.615  30.591  1.00  0.00     0.029 A 
ATOM     59  N   UNL A   1      43.896  27.180  31.479  1.00  0.00    -0.354 N 
ATOM     60  N   UNL A   1      43.133  29.199  33.482  1.00  0.00    -0.248 NA
ATOM     61  C   UNL A   1      43.525  30.287  35.512  1.00  0.00     0.031 C 
ATOM     62  C   UNL A   1      45.753  26.010  31.815  1.00  0.00     0.029 A 
ATOM     63  C   UNL A   1      44.954  27.007  32.355  1.00  0.00     0.049 A 
ATOM     64  H   UNL A   1      43.158  27.820  31.604  1.00  0.00     0.167 HD
ATOM     65  C   UNL A   1      44.310  28.711  34.041  1.00  0.00     0.074 A 
ATOM     66  C   UNL A   1      44.518  29.442  35.274  1.00  0.00     0.031 C 
ATOM     67  C   UNL A   1      45.147  27.748  33.577  1.00  0.00     0.037 A 
BRANCH  54  68
ATOM     68  C   UNL A   1      43.347  25.206  28.230  1.00  0.00     0.058 A 
ATOM     69  C   UNL A   1      44.157  25.495  27.119  1.00  0.00     0.135 A 
ATOM     70  C   UNL A   1      42.786  23.922  28.312  1.00  0.00     0.135 A 
ATOM     71  F   UNL A   1      44.699  26.715  26.976  1.00  0.00    -0.206 F 
ATOM     72  C   UNL A   1      44.379  24.556  26.117  1.00  0.00     0.059 A 
ATOM     73  C   UNL A   1      43.019  22.957  27.338  1.00  0.00     0.059 A 
ATOM     74  F   UNL A   1      41.997  23.595  29.349  1.00  0.00    -0.206 F 
ATOM     75  C   UNL A   1      43.806  23.289  26.236  1.00  0.00     0.060 A 
BRANCH  75  76
ATOM     76  S   UNL A   1      44.111  22.078  24.933  1.00  0.00     0.124 S 
ATOM     77  O   UNL A   1      43.477  22.720  23.785  1.00  0.00    -0.237 OA
ATOM     78  O   UNL A   1      45.569  22.017  24.899  1.00  0.00    -0.237 OA
ATOM     79  O   UNL A   1      43.447  20.875  25.423  1.00  0.00    -0.744 OA
ENDBRANCH  75  76
ENDBRANCH  54  68
BRANCH  55  80
ATOM     80  C   UNL A   1      41.151  31.993  35.257  1.00  0.00     0.058 A 
ATOM     81  C   UNL A   1      40.204  31.713  36.252  1.00  0.00     0.135 A 
ATOM     82  C   UNL A   1      41.778  33.249  35.289  1.00  0.00     0.135 A 
ATOM     83  F   UNL A   1      39.568  30.531  36.259  1.00  0.00    -0.206 F 
ATOM     84  C   UNL A   1      39.876  32.646  37.231  1.00  0.00     0.059 A 
ATOM     85  C   UNL A   1      41.487  34.188  36.274  1.00  0.00     0.059 A 
ATOM     86  F   UNL A   1      42.698  33.566  34.365  1.00  0.00    -0.206 F 
ATOM     87  C   UNL A   1      40.526  33.880  37.236  1.00  0.00     0.060 A 
BRANCH  87  88
ATOM     88  S   UNL A   1      40.131  35.065  38.541  1.00  0.00     0.124 S 
ATOM     89  O   UNL A   1      40.780  34.458  39.697  1.00  0.00    -0.237 OA
ATOM     90  O   UNL A   1      40.741  36.291  38.034  1.00  0.00    -0.237 OA
ATOM     91  O   UNL A   1      38.671  35.065  38.562  1.00  0.00    -0.744 OA
ENDBRANCH  87  88
ENDBRANCH  55  80
BRANCH  67  92
ATOM     92  C   UNL A   1      46.387  27.459  34.381  1.00  0.00     0.058 A 
ATOM     93  C   UNL A   1      46.413  26.474  35.380  1.00  0.00     0.135 A 
ATOM     94  C   UNL A   1      47.577  28.160  34.122  1.00  0.00     0.135 A 
ATOM     95  F   UNL A   1      45.304  25.774  35.669  1.00  0.00    -0.206 F 
ATOM     96  C   UNL A   1      47.563  26.221  36.122  1.00  0.00     0.059 A 
ATOM     97  C   UNL A   1      48.747  27.901  34.830  1.00  0.00     0.059 A 
ATOM     98  F   UNL A   1      47.615  29.101  33.166  1.00  0.00    -0.206 F 
ATOM     99  C   UNL A   1      48.724  26.943  35.842  1.00  0.00     0.060 A 
BRANCH  99 100
ATOM    100  S   UNL A   1      50.209  26.605  36.810  1.00  0.00     0.124 S 
ATOM    101  O   UNL A   1      50.280  25.150  36.741  1.00  0.00    -0.237 OA
ATOM    102  O   UNL A   1      51.238  27.326  36.068  1.00  0.00    -0.237 OA
ATOM    103  O   UNL A   1      49.891  27.156  38.124  1.00  0.00    -0.744 OA
ENDBRANCH  99 100
ENDBRANCH  67  92
ENDBRANCH  41  42
ENDBRANCH  34  36
ENDBRANCH  33  34
ENDBRANCH  32  33
ENDBRANCH  31  32
ENDBRANCH  30  31
ENDBRANCH  29  30
ENDBRANCH  28  29
ENDBRANCH  27  28
ENDBRANCH   1  27
TORSDOF 29
ENDMDL
MODEL 3
REMARK VINA RESULT:      -6.7      4.595     11.794
REMARK SMILES CC[C@@]1(C(=O)OCCOCCOCCOCCOC(=O)c2ccc(-c3c4nc(c(-c5c(F)cc(S(=O)(=O)[O-])cc5F)c5ccc([nH]5)c(-c5c(F)cc(S(=O)(=O)[O-])cc5F)c5nc(c(-c6c(F)cc(S(=O)(=O)[O-])cc6F)c6ccc3[nH]6)C=C5)C=C4)cc2)CCN(C(=O)N(C)CCc2cccs2)C1
REMARK SMILES IDX 11 1 10 2 9 3 8 4 7 5 6 6 4 7 5 8 3 9 87 10 101 11 88 12
REMARK SMILES IDX 89 13 2 14 1 15 90 16 91 17 92 18 93 19 94 20 95 21 96 22
REMARK SMILES IDX 97 23 100 24 98 25 99 26 12 27 13 28 14 29 15 30 16 31 17 32
REMARK SMILES IDX 18 33 19 34 20 35 21 36 22 37 86 38 23 39 85 40 24 41 25 42
REMARK SMILES IDX 26 43 79 44 27 45 84 46 78 47 80 48 28 49 83 50 77 51 76 52
REMARK SMILES IDX 29 54 63 55 42 56 62 57 43 58 46 59 61 60 81 61 44 62 45 63
REMARK SMILES IDX 60 65 82 66 47 67 30 68 31 69 40 70 32 71 33 72 39 73 41 74
REMARK SMILES IDX 34 75 35 76 36 77 37 78 38 79 64 80 65 81 74 82 66 83 67 84
REMARK SMILES IDX 73 85 75 86 68 87 69 88 70 89 71 90 72 91 48 92 49 93 58 94
REMARK SMILES IDX 50 95 51 96 57 97 59 98 52 99 53 100 54 101 55 102 56 103
REMARK H PARENT 80 53 46 64
REMARK Flexibility Score: inf
ROOT
ATOM      1  C   UNL A   1      44.410  25.115  31.104  1.00  0.00     0.188 C 
ENDROOT
BRANCH   1   2
ATOM      2  C   UNL A   1      45.859  25.579  31.336  1.00  0.00     0.188 C 
BRANCH   2   3
ATOM      3  O   UNL A   1      46.591  25.094  32.440  1.00  0.00    -0.376 OA
BRANCH   3   4
ATOM      4  C   UNL A   1      46.971  25.847  33.572  1.00  0.00     0.202 C 
BRANCH   4   5
ATOM      5  C   UNL A   1      47.385  27.327  33.618  1.00  0.00     0.261 C 
BRANCH   5   6
ATOM      6  O   UNL A   1      46.739  28.197  34.550  1.00  0.00    -0.463 OA
BRANCH   6   7
ATOM      7  C   UNL A   1      46.128  29.281  34.007  1.00  0.00     0.314 C 
ATOM      8  O   UNL A   1      46.410  29.732  32.899  1.00  0.00    -0.252 OA
BRANCH   7   9
ATOM      9  C   UNL A   1      45.062  29.932  34.907  1.00  0.00     0.087 C 
ATOM     10  C   UNL A   1      44.960  29.412  36.358  1.00  0.00     0.042 C 
ATOM     11  C   UNL A   1      43.685  29.595  34.293  1.00  0.00     0.140 C 
ATOM     12  C   UNL A   1      43.622  28.685  36.506  1.00  0.00     0.122 C 
ATOM     13  N   UNL A   1      42.919  28.799  35.251  1.00  0.00    -0.323 N 
BRANCH   9  14
ATOM     14  C   UNL A   1      45.404  31.448  34.772  1.00  0.00     0.017 C 
ATOM     15  C   UNL A   1      44.456  32.453  35.398  1.00  0.00     0.005 C 
ENDBRANCH   9  14
BRANCH  13  16
ATOM     16  C   UNL A   1      41.674  28.338  34.864  1.00  0.00     0.319 C 
ATOM     17  O   UNL A   1      41.264  27.265  35.322  1.00  0.00    -0.248 OA
BRANCH  16  18
ATOM     18  N   UNL A   1      40.923  29.012  33.917  1.00  0.00    -0.327 N 
ATOM     19  C   UNL A   1      40.646  28.602  32.551  1.00  0.00     0.148 C 
BRANCH  18  20
ATOM     20  C   UNL A   1      40.354  30.319  34.308  1.00  0.00     0.126 C 
BRANCH  20  21
ATOM     21  C   UNL A   1      40.569  30.681  35.796  1.00  0.00     0.068 C 
BRANCH  21  22
ATOM     22  C   UNL A   1      40.587  32.166  36.026  1.00  0.00     0.006 A 
ATOM     23  C   UNL A   1      40.126  33.163  35.187  1.00  0.00     0.015 A 
ATOM     24  S   UNL A   1      41.258  32.826  37.458  1.00  0.00    -0.149 S 
ATOM     25  C   UNL A   1      40.553  34.455  35.609  1.00  0.00     0.012 A 
ATOM     26  C   UNL A   1      41.262  34.400  36.788  1.00  0.00     0.065 A 
ENDBRANCH  21  22
ENDBRANCH  20  21
ENDBRANCH  18  20
ENDBRANCH  16  18
ENDBRANCH  13  16
ENDBRANCH   7   9
ENDBRANCH   6   7
ENDBRANCH   5   6
ENDBRANCH   4   5
ENDBRANCH   3   4
ENDBRANCH   2   3
ENDBRANCH   1   2
BRANCH   1  27
ATOM     27  O   UNL A   1      43.991  23.779  30.924  1.00  0.00    -0.377 OA
BRANCH  27  28
ATOM     28  C   UNL A   1      44.575  23.057  29.865  1.00  0.00     0.188 C 
BRANCH  28  29
ATOM     29  C   UNL A   1      44.147  23.607  28.503  1.00  0.00     0.188 C 
BRANCH  29  30
ATOM     30  O   UNL A   1      43.975  22.602  27.520  1.00  0.00    -0.376 OA
BRANCH  30  31
ATOM     31  C   UNL A   1      42.681  22.161  27.133  1.00  0.00     0.202 C 
BRANCH  31  32
ATOM     32  C   UNL A   1      41.378  22.323  27.951  1.00  0.00     0.261 C 
BRANCH  32  33
ATOM     33  O   UNL A   1      40.144  21.832  27.419  1.00  0.00    -0.460 OA
BRANCH  33  34
ATOM     34  C   UNL A   1      39.465  22.613  26.560  1.00  0.00     0.338 C 
ATOM     35  O   UNL A   1      38.714  22.249  25.672  1.00  0.00    -0.246 OA
BRANCH  34  36
ATOM     36  C   UNL A   1      39.635  24.010  27.021  1.00  0.00     0.060 A 
ATOM     37  C   UNL A   1      40.112  24.961  26.110  1.00  0.00     0.016 A 
ATOM     38  C   UNL A   1      39.301  24.386  28.327  1.00  0.00     0.016 A 
ATOM     39  C   UNL A   1      40.304  26.279  26.516  1.00  0.00     0.010 A 
ATOM     40  C   UNL A   1      39.524  25.703  28.743  1.00  0.00     0.010 A 
ATOM     41  C   UNL A   1      40.073  26.640  27.849  1.00  0.00    -0.014 A 
BRANCH  41  42
ATOM     42  C   UNL A   1      40.672  27.901  28.346  1.00  0.00     0.031 A 
ATOM     43  C   UNL A   1      42.164  28.063  28.210  1.00  0.00     0.074 A 
ATOM     44  C   UNL A   1      39.916  28.907  28.818  1.00  0.00     0.049 A 
ATOM     45  N   UNL A   1      42.922  29.083  28.514  1.00  0.00    -0.248 NA
ATOM     46  C   UNL A   1      42.898  26.914  27.651  1.00  0.00     0.031 C 
ATOM     47  C   UNL A   1      38.461  28.881  28.953  1.00  0.00     0.029 A 
ATOM     48  N   UNL A   1      40.275  30.154  29.264  1.00  0.00    -0.354 N 
ATOM     49  C   UNL A   1      44.216  28.702  28.179  1.00  0.00     0.074 A 
ATOM     50  C   UNL A   1      44.149  27.344  27.690  1.00  0.00     0.031 C 
ATOM     51  C   UNL A   1      38.051  30.061  29.455  1.00  0.00     0.029 A 
ATOM     52  C   UNL A   1      39.214  30.914  29.694  1.00  0.00     0.049 A 
ATOM     53  H   UNL A   1      41.206  30.473  29.276  1.00  0.00     0.167 HD
ATOM     54  C   UNL A   1      45.358  29.425  28.258  1.00  0.00     0.037 A 
ATOM     55  C   UNL A   1      39.192  32.153  30.225  1.00  0.00     0.037 A 
ATOM     56  C   UNL A   1      45.419  30.774  28.750  1.00  0.00     0.049 A 
ATOM     57  C   UNL A   1      40.487  32.915  30.365  1.00  0.00     0.074 A 
ATOM     58  C   UNL A   1      46.523  31.598  28.870  1.00  0.00     0.029 A 
ATOM     59  N   UNL A   1      44.328  31.496  29.213  1.00  0.00    -0.354 N 
ATOM     60  N   UNL A   1      41.702  32.553  30.026  1.00  0.00    -0.248 NA
ATOM     61  C   UNL A   1      40.405  34.263  30.947  1.00  0.00     0.031 C 
ATOM     62  C   UNL A   1      46.110  32.799  29.454  1.00  0.00     0.029 A 
ATOM     63  C   UNL A   1      44.737  32.748  29.641  1.00  0.00     0.049 A 
ATOM     64  H   UNL A   1      43.400  31.167  29.234  1.00  0.00     0.167 HD
ATOM     65  C   UNL A   1      42.522  33.638  30.324  1.00  0.00     0.074 A 
ATOM     66  C   UNL A   1      41.662  34.673  30.857  1.00  0.00     0.031 C 
ATOM     67  C   UNL A   1      43.864  33.769  30.166  1.00  0.00     0.037 A 
BRANCH  54  68
ATOM     68  C   UNL A   1      46.633  28.753  27.831  1.00  0.00     0.058 A 
ATOM     69  C   UNL A   1      47.482  28.116  28.752  1.00  0.00     0.135 A 
ATOM     70  C   UNL A   1      47.006  28.732  26.477  1.00  0.00     0.135 A 
ATOM     71  F   UNL A   1      47.188  28.127  30.062  1.00  0.00    -0.206 F 
ATOM     72  C   UNL A   1      48.666  27.506  28.349  1.00  0.00     0.059 A 
ATOM     73  C   UNL A   1      48.169  28.101  26.048  1.00  0.00     0.059 A 
ATOM     74  F   UNL A   1      46.236  29.333  25.555  1.00  0.00    -0.206 F 
ATOM     75  C   UNL A   1      49.000  27.503  26.995  1.00  0.00     0.060 A 
BRANCH  75  76
ATOM     76  S   UNL A   1      50.534  26.699  26.486  1.00  0.00     0.124 S 
ATOM     77  O   UNL A   1      51.364  27.848  26.138  1.00  0.00    -0.237 OA
ATOM     78  O   UNL A   1      50.924  25.979  27.694  1.00  0.00    -0.237 OA
ATOM     79  O   UNL A   1      50.124  25.860  25.365  1.00  0.00    -0.744 OA
ENDBRANCH  75  76
ENDBRANCH  54  68
BRANCH  55  80
ATOM     80  C   UNL A   1      37.904  32.752  30.671  1.00  0.00     0.058 A 
ATOM     81  C   UNL A   1      37.475  32.657  32.003  1.00  0.00     0.135 A 
ATOM     82  C   UNL A   1      37.069  33.425  29.765  1.00  0.00     0.135 A 
ATOM     83  F   UNL A   1      38.231  32.013  32.906  1.00  0.00    -0.206 F 
ATOM     84  C   UNL A   1      36.260  33.191  32.419  1.00  0.00     0.059 A 
ATOM     85  C   UNL A   1      35.863  33.992  30.162  1.00  0.00     0.059 A 
ATOM     86  F   UNL A   1      37.435  33.553  28.480  1.00  0.00    -0.206 F 
ATOM     87  C   UNL A   1      35.461  33.861  31.491  1.00  0.00     0.060 A 
BRANCH  87  88
ATOM     88  S   UNL A   1      33.909  34.596  32.051  1.00  0.00     0.124 S 
ATOM     89  O   UNL A   1      33.199  34.781  30.791  1.00  0.00    -0.237 OA
ATOM     90  O   UNL A   1      33.384  33.561  32.937  1.00  0.00    -0.237 OA
ATOM     91  O   UNL A   1      34.341  35.820  32.720  1.00  0.00    -0.744 OA
ENDBRANCH  87  88
ENDBRANCH  55  80
BRANCH  67  92
ATOM     92  C   UNL A   1      44.479  35.093  30.534  1.00  0.00     0.058 A 
ATOM     93  C   UNL A   1      44.922  35.370  31.837  1.00  0.00     0.135 A 
ATOM     94  C   UNL A   1      44.658  36.087  29.557  1.00  0.00     0.135 A 
ATOM     95  F   UNL A   1      44.776  34.457  32.810  1.00  0.00    -0.206 F 
ATOM     96  C   UNL A   1      45.482  36.601  32.168  1.00  0.00     0.059 A 
ATOM     97  C   UNL A   1      45.246  37.311  29.858  1.00  0.00     0.059 A 
ATOM     98  F   UNL A   1      44.270  35.869  28.291  1.00  0.00    -0.206 F 
ATOM     99  C   UNL A   1      45.637  37.566  31.172  1.00  0.00     0.060 A 
BRANCH  99 100
ATOM    100  S   UNL A   1      46.366  39.157  31.613  1.00  0.00     0.124 S 
ATOM    101  O   UNL A   1      47.354  39.331  30.553  1.00  0.00    -0.237 OA
ATOM    102  O   UNL A   1      45.216  40.054  31.560  1.00  0.00    -0.237 OA
ATOM    103  O   UNL A   1      46.910  38.924  32.947  1.00  0.00    -0.744 OA
ENDBRANCH  99 100
ENDBRANCH  67  92
ENDBRANCH  41  42
ENDBRANCH  34  36
ENDBRANCH  33  34
ENDBRANCH  32  33
ENDBRANCH  31  32
ENDBRANCH  30  31
ENDBRANCH  29  30
ENDBRANCH  28  29
ENDBRANCH  27  28
ENDBRANCH   1  27
TORSDOF 29
ENDMDL
