MODEL 1
REMARK VINA RESULT:      -8.5      0.000      0.000
REMARK SMILES NS(=O)(=O)c1ccc(/N=C/c2ccc(O)c(C(=O)OCCOCCOCCOCCOC(=O)c3ccc(-c4c5nc(c(-c6c(F)cc(S(=O)(=O)[O-])cc6F)c6ccc([nH]6)c(-c6c(F)cc(S(=O)(=O)[O-])cc6F)c6nc(c(-c7c(F)cc(S(=O)(=O)[O-])cc7F)c7ccc4[nH]7)C=C6)C=C5)cc3)c2)cc1
REMARK SMILES IDX 24 1 23 2 22 3 21 4 20 5 19 6 17 7 18 8 16 9 11 10 12 11
REMARK SMILES IDX 100 12 13 13 14 14 10 15 9 16 8 17 5 18 6 19 102 20 7 21
REMARK SMILES IDX 101 22 2 23 3 24 4 25 1 26 15 29 25 31 26 32 27 33 28 34
REMARK SMILES IDX 29 35 30 36 31 37 32 38 33 39 34 40 35 41 99 42 36 43 98 44
REMARK SMILES IDX 37 45 38 46 39 47 92 48 40 49 97 50 91 51 93 52 41 53 96 54
REMARK SMILES IDX 90 55 89 56 42 58 76 59 55 60 75 61 56 62 59 63 74 64 94 65
REMARK SMILES IDX 57 66 58 67 73 69 95 70 60 71 43 72 44 73 53 74 45 75 46 76
REMARK SMILES IDX 52 77 54 78 47 79 48 80 49 81 50 82 51 83 77 84 78 85 87 86
REMARK SMILES IDX 79 87 80 88 86 89 88 90 81 91 82 92 83 93 84 94 85 95 61 96
REMARK SMILES IDX 62 97 71 98 63 99 64 100 70 101 72 102 65 103 66 104 67 105
REMARK SMILES IDX 68 106 69 107
REMARK H PARENT 1 27 1 28 15 30 93 57 59 68
REMARK Flexibility Score: inf
ROOT
ATOM      1  C   UNL A   1      46.472  25.922  30.514  1.00  0.00     0.188 C 
ENDROOT
BRANCH   1   2
ATOM      2  C   UNL A   1      45.622  24.952  31.358  1.00  0.00     0.188 C 
BRANCH   2   3
ATOM      3  O   UNL A   1      45.673  25.219  32.751  1.00  0.00    -0.376 OA
BRANCH   3   4
ATOM      4  C   UNL A   1      45.976  24.152  33.631  1.00  0.00     0.202 C 
BRANCH   4   5
ATOM      5  C   UNL A   1      47.334  24.161  34.353  1.00  0.00     0.261 C 
BRANCH   5   6
ATOM      6  O   UNL A   1      47.639  23.017  35.161  1.00  0.00    -0.460 OA
BRANCH   6   7
ATOM      7  C   UNL A   1      47.066  22.926  36.377  1.00  0.00     0.342 C 
ATOM      8  O   UNL A   1      46.183  23.635  36.833  1.00  0.00    -0.246 OA
BRANCH   7   9
ATOM      9  C   UNL A   1      47.455  21.631  36.982  1.00  0.00     0.102 A 
ATOM     10  C   UNL A   1      46.971  19.718  38.378  1.00  0.00    -0.006 A 
ATOM     11  C   UNL A   1      48.318  19.335  38.328  1.00  0.00     0.013 A 
ATOM     12  C   UNL A   1      46.537  20.874  37.722  1.00  0.00     0.029 A 
ATOM     13  C   UNL A   1      49.230  20.091  37.591  1.00  0.00     0.048 A 
ATOM     14  C   UNL A   1      48.796  21.223  36.906  1.00  0.00     0.130 A 
BRANCH  10  15
ATOM     15  C   UNL A   1      46.030  18.852  39.119  1.00  0.00     0.119 C 
ATOM     16  N   UNL A   1      45.306  17.964  38.521  1.00  0.00    -0.256 NA
BRANCH  16  17
ATOM     17  C   UNL A   1      44.459  17.110  39.251  1.00  0.00     0.063 A 
ATOM     18  C   UNL A   1      42.838  15.489  40.882  1.00  0.00     0.082 A 
ATOM     19  C   UNL A   1      43.575  16.527  41.453  1.00  0.00     0.024 A 
ATOM     20  C   UNL A   1      42.910  15.243  39.510  1.00  0.00     0.024 A 
ATOM     21  C   UNL A   1      44.378  17.327  40.634  1.00  0.00     0.030 A 
ATOM     22  C   UNL A   1      43.726  16.047  38.705  1.00  0.00     0.030 A 
BRANCH  18  23
ATOM     23  S   UNL A   1      41.840  14.445  41.903  1.00  0.00     0.238 S 
ATOM     24  O   UNL A   1      41.071  15.270  42.804  1.00  0.00    -0.207 OA
ATOM     25  O   UNL A   1      42.659  13.349  42.371  1.00  0.00    -0.207 OA
BRANCH  23  26
ATOM     26  N   UNL A   1      40.734  13.802  40.824  1.00  0.00    -0.225 NA
ATOM     27  H   UNL A   1      40.634  12.801  40.996  1.00  0.00     0.137 HD
ATOM     28  H   UNL A   1      41.064  13.951  39.870  1.00  0.00     0.137 HD
ENDBRANCH  23  26
ENDBRANCH  18  23
ENDBRANCH  16  17
ENDBRANCH  10  15
BRANCH  14  29
ATOM     29  O   UNL A   1      49.755  21.918  36.216  1.00  0.00    -0.507 OA
ATOM     30  H   UNL A   1      49.606  22.812  35.981  1.00  0.00     0.293 HD
ENDBRANCH  14  29
ENDBRANCH   7   9
ENDBRANCH   6   7
ENDBRANCH   5   6
ENDBRANCH   4   5
ENDBRANCH   3   4
ENDBRANCH   2   3
ENDBRANCH   1   2
BRANCH   1  31
ATOM     31  O   UNL A   1      46.180  26.013  29.132  1.00  0.00    -0.377 OA
BRANCH  31  32
ATOM     32  C   UNL A   1      47.076  26.702  28.262  1.00  0.00     0.188 C 
BRANCH  32  33
ATOM     33  C   UNL A   1      46.865  26.762  26.728  1.00  0.00     0.188 C 
BRANCH  33  34
ATOM     34  O   UNL A   1      45.510  26.800  26.305  1.00  0.00    -0.376 OA
BRANCH  34  35
ATOM     35  C   UNL A   1      45.092  25.807  25.384  1.00  0.00     0.202 C 
BRANCH  35  36
ATOM     36  C   UNL A   1      43.604  25.445  25.444  1.00  0.00     0.261 C 
BRANCH  36  37
ATOM     37  O   UNL A   1      42.693  26.543  25.296  1.00  0.00    -0.460 OA
BRANCH  37  38
ATOM     38  C   UNL A   1      41.442  26.383  25.785  1.00  0.00     0.338 C 
ATOM     39  O   UNL A   1      40.521  25.780  25.267  1.00  0.00    -0.246 OA
BRANCH  38  40
ATOM     40  C   UNL A   1      41.440  26.920  27.159  1.00  0.00     0.060 A 
ATOM     41  C   UNL A   1      40.619  26.331  28.131  1.00  0.00     0.016 A 
ATOM     42  C   UNL A   1      42.271  27.994  27.485  1.00  0.00     0.016 A 
ATOM     43  C   UNL A   1      40.605  26.840  29.430  1.00  0.00     0.010 A 
ATOM     44  C   UNL A   1      42.239  28.514  28.777  1.00  0.00     0.010 A 
ATOM     45  C   UNL A   1      41.381  27.962  29.745  1.00  0.00    -0.014 A 
BRANCH  45  46
ATOM     46  C   UNL A   1      41.139  28.718  30.996  1.00  0.00     0.031 A 
ATOM     47  C   UNL A   1      40.029  29.734  30.991  1.00  0.00     0.074 A 
ATOM     48  C   UNL A   1      41.898  28.540  32.091  1.00  0.00     0.049 A 
ATOM     49  N   UNL A   1      39.707  30.618  31.896  1.00  0.00    -0.248 NA
ATOM     50  C   UNL A   1      39.175  29.759  29.791  1.00  0.00     0.031 C 
ATOM     51  C   UNL A   1      42.970  27.556  32.228  1.00  0.00     0.029 A 
ATOM     52  N   UNL A   1      41.892  29.205  33.292  1.00  0.00    -0.354 N 
ATOM     53  C   UNL A   1      38.626  31.315  31.370  1.00  0.00     0.074 A 
ATOM     54  C   UNL A   1      38.361  30.768  30.058  1.00  0.00     0.031 C 
ATOM     55  C   UNL A   1      43.536  27.699  33.441  1.00  0.00     0.029 A 
ATOM     56  C   UNL A   1      42.895  28.808  34.145  1.00  0.00     0.049 A 
ATOM     57  H   UNL A   1      41.232  29.898  33.521  1.00  0.00     0.167 HD
ATOM     58  C   UNL A   1      37.916  32.321  31.932  1.00  0.00     0.037 A 
ATOM     59  C   UNL A   1      43.269  29.310  35.339  1.00  0.00     0.037 A 
ATOM     60  C   UNL A   1      38.191  32.860  33.236  1.00  0.00     0.049 A 
ATOM     61  C   UNL A   1      42.510  30.480  35.919  1.00  0.00     0.074 A 
ATOM     62  C   UNL A   1      37.527  33.874  33.903  1.00  0.00     0.029 A 
ATOM     63  N   UNL A   1      39.218  32.436  34.067  1.00  0.00    -0.354 N 
ATOM     64  N   UNL A   1      41.482  31.127  35.420  1.00  0.00    -0.248 NA
ATOM     65  C   UNL A   1      42.960  30.991  37.222  1.00  0.00     0.031 C 
ATOM     66  C   UNL A   1      38.186  34.099  35.116  1.00  0.00     0.029 A 
ATOM     67  C   UNL A   1      39.219  33.182  35.233  1.00  0.00     0.049 A 
ATOM     68  H   UNL A   1      39.851  31.712  33.858  1.00  0.00     0.167 HD
ATOM     69  C   UNL A   1      41.139  32.090  36.365  1.00  0.00     0.074 A 
ATOM     70  C   UNL A   1      42.070  31.945  37.463  1.00  0.00     0.031 C 
ATOM     71  C   UNL A   1      40.139  33.006  36.329  1.00  0.00     0.037 A 
BRANCH  58  72
ATOM     72  C   UNL A   1      36.799  32.920  31.124  1.00  0.00     0.058 A 
ATOM     73  C   UNL A   1      35.453  32.613  31.377  1.00  0.00     0.135 A 
ATOM     74  C   UNL A   1      37.081  33.835  30.096  1.00  0.00     0.135 A 
ATOM     75  F   UNL A   1      35.128  31.728  32.333  1.00  0.00    -0.206 F 
ATOM     76  C   UNL A   1      34.427  33.170  30.620  1.00  0.00     0.059 A 
ATOM     77  C   UNL A   1      36.069  34.427  29.347  1.00  0.00     0.059 A 
ATOM     78  F   UNL A   1      38.351  34.158  29.808  1.00  0.00    -0.206 F 
ATOM     79  C   UNL A   1      34.746  34.078  29.608  1.00  0.00     0.060 A 
BRANCH  79  80
ATOM     80  S   UNL A   1      33.402  34.797  28.642  1.00  0.00     0.124 S 
ATOM     81  O   UNL A   1      34.082  35.902  27.975  1.00  0.00    -0.237 OA
ATOM     82  O   UNL A   1      33.008  33.685  27.782  1.00  0.00    -0.237 OA
ATOM     83  O   UNL A   1      32.423  35.181  29.653  1.00  0.00    -0.744 OA
ENDBRANCH  79  80
ENDBRANCH  58  72
BRANCH  59  84
ATOM     84  C   UNL A   1      44.430  28.726  36.065  1.00  0.00     0.058 A 
ATOM     85  C   UNL A   1      45.724  29.242  35.899  1.00  0.00     0.135 A 
ATOM     86  C   UNL A   1      44.270  27.638  36.938  1.00  0.00     0.135 A 
ATOM     87  F   UNL A   1      45.933  30.271  35.065  1.00  0.00    -0.206 F 
ATOM     88  C   UNL A   1      46.820  28.693  36.558  1.00  0.00     0.059 A 
ATOM     89  C   UNL A   1      45.345  27.089  37.630  1.00  0.00     0.059 A 
ATOM     90  F   UNL A   1      43.054  27.108  37.138  1.00  0.00    -0.206 F 
ATOM     91  C   UNL A   1      46.619  27.618  37.425  1.00  0.00     0.060 A 
BRANCH  91  92
ATOM     92  S   UNL A   1      48.041  26.943  38.311  1.00  0.00     0.124 S 
ATOM     93  O   UNL A   1      47.413  25.918  39.137  1.00  0.00    -0.237 OA
ATOM     94  O   UNL A   1      48.880  26.460  37.219  1.00  0.00    -0.237 OA
ATOM     95  O   UNL A   1      48.568  28.099  39.031  1.00  0.00    -0.744 OA
ENDBRANCH  91  92
ENDBRANCH  59  84
BRANCH  71  96
ATOM     96  C   UNL A   1      39.943  33.886  37.534  1.00  0.00     0.058 A 
ATOM     97  C   UNL A   1      40.464  35.187  37.598  1.00  0.00     0.135 A 
ATOM     98  C   UNL A   1      39.136  33.449  38.598  1.00  0.00     0.135 A 
ATOM     99  F   UNL A   1      41.246  35.651  36.611  1.00  0.00    -0.206 F 
ATOM    100  C   UNL A   1      40.196  36.022  38.679  1.00  0.00     0.059 A 
ATOM    101  C   UNL A   1      38.833  34.277  39.674  1.00  0.00     0.059 A 
ATOM    102  F   UNL A   1      38.604  32.216  38.581  1.00  0.00    -0.206 F 
ATOM    103  C   UNL A   1      39.372  35.561  39.708  1.00  0.00     0.060 A 
BRANCH 103 104
ATOM    104  S   UNL A   1      38.982  36.678  41.072  1.00  0.00     0.124 S 
ATOM    105  O   UNL A   1      40.305  36.935  41.630  1.00  0.00    -0.237 OA
ATOM    106  O   UNL A   1      38.354  37.802  40.383  1.00  0.00    -0.237 OA
ATOM    107  O   UNL A   1      38.088  35.888  41.914  1.00  0.00    -0.744 OA
ENDBRANCH 103 104
ENDBRANCH  71  96
ENDBRANCH  45  46
ENDBRANCH  38  40
ENDBRANCH  37  38
ENDBRANCH  36  37
ENDBRANCH  35  36
ENDBRANCH  34  35
ENDBRANCH  33  34
ENDBRANCH  32  33
ENDBRANCH  31  32
ENDBRANCH   1  31
TORSDOF 28
ENDMDL
MODEL 2
REMARK VINA RESULT:      -8.4      8.068     15.000
REMARK SMILES NS(=O)(=O)c1ccc(/N=C/c2ccc(O)c(C(=O)OCCOCCOCCOCCOC(=O)c3ccc(-c4c5nc(c(-c6c(F)cc(S(=O)(=O)[O-])cc6F)c6ccc([nH]6)c(-c6c(F)cc(S(=O)(=O)[O-])cc6F)c6nc(c(-c7c(F)cc(S(=O)(=O)[O-])cc7F)c7ccc4[nH]7)C=C6)C=C5)cc3)c2)cc1
REMARK SMILES IDX 24 1 23 2 22 3 21 4 20 5 19 6 17 7 18 8 16 9 11 10 12 11
REMARK SMILES IDX 100 12 13 13 14 14 10 15 9 16 8 17 5 18 6 19 102 20 7 21
REMARK SMILES IDX 101 22 2 23 3 24 4 25 1 26 15 29 25 31 26 32 27 33 28 34
REMARK SMILES IDX 29 35 30 36 31 37 32 38 33 39 34 40 35 41 99 42 36 43 98 44
REMARK SMILES IDX 37 45 38 46 39 47 92 48 40 49 97 50 91 51 93 52 41 53 96 54
REMARK SMILES IDX 90 55 89 56 42 58 76 59 55 60 75 61 56 62 59 63 74 64 94 65
REMARK SMILES IDX 57 66 58 67 73 69 95 70 60 71 43 72 44 73 53 74 45 75 46 76
REMARK SMILES IDX 52 77 54 78 47 79 48 80 49 81 50 82 51 83 77 84 78 85 87 86
REMARK SMILES IDX 79 87 80 88 86 89 88 90 81 91 82 92 83 93 84 94 85 95 61 96
REMARK SMILES IDX 62 97 71 98 63 99 64 100 70 101 72 102 65 103 66 104 67 105
REMARK SMILES IDX 68 106 69 107
REMARK H PARENT 1 27 1 28 15 30 93 57 59 68
REMARK Flexibility Score: inf
ROOT
ATOM      1  C   UNL A   1      33.293  35.454  31.857  1.00  0.00     0.188 C 
ENDROOT
BRANCH   1   2
ATOM      2  C   UNL A   1      33.143  35.423  30.324  1.00  0.00     0.188 C 
BRANCH   2   3
ATOM      3  O   UNL A   1      34.080  34.575  29.680  1.00  0.00    -0.376 OA
BRANCH   3   4
ATOM      4  C   UNL A   1      33.643  33.802  28.577  1.00  0.00     0.202 C 
BRANCH   4   5
ATOM      5  C   UNL A   1      34.525  32.636  28.103  1.00  0.00     0.261 C 
BRANCH   5   6
ATOM      6  O   UNL A   1      33.902  31.347  28.028  1.00  0.00    -0.460 OA
BRANCH   6   7
ATOM      7  C   UNL A   1      34.532  30.374  27.343  1.00  0.00     0.342 C 
ATOM      8  O   UNL A   1      35.719  30.089  27.386  1.00  0.00    -0.246 OA
BRANCH   7   9
ATOM      9  C   UNL A   1      33.510  29.484  26.745  1.00  0.00     0.102 A 
ATOM     10  C   UNL A   1      32.814  27.330  25.897  1.00  0.00    -0.006 A 
ATOM     11  C   UNL A   1      31.656  27.909  25.364  1.00  0.00     0.013 A 
ATOM     12  C   UNL A   1      33.753  28.115  26.574  1.00  0.00     0.029 A 
ATOM     13  C   UNL A   1      31.416  29.273  25.535  1.00  0.00     0.048 A 
ATOM     14  C   UNL A   1      32.330  30.052  26.239  1.00  0.00     0.130 A 
BRANCH  10  15
ATOM     15  C   UNL A   1      32.995  25.871  25.745  1.00  0.00     0.119 C 
ATOM     16  N   UNL A   1      32.026  25.099  25.378  1.00  0.00    -0.256 NA
BRANCH  16  17
ATOM     17  C   UNL A   1      32.234  23.721  25.183  1.00  0.00     0.063 A 
ATOM     18  C   UNL A   1      32.759  20.965  24.964  1.00  0.00     0.082 A 
ATOM     19  C   UNL A   1      33.138  21.653  26.118  1.00  0.00     0.024 A 
ATOM     20  C   UNL A   1      32.132  21.639  23.915  1.00  0.00     0.024 A 
ATOM     21  C   UNL A   1      32.874  23.023  26.217  1.00  0.00     0.030 A 
ATOM     22  C   UNL A   1      31.882  23.012  24.025  1.00  0.00     0.030 A 
BRANCH  18  23
ATOM     23  S   UNL A   1      33.112  19.240  24.805  1.00  0.00     0.238 S 
ATOM     24  O   UNL A   1      32.863  18.836  23.441  1.00  0.00    -0.207 OA
ATOM     25  O   UNL A   1      32.527  18.549  25.932  1.00  0.00    -0.207 OA
BRANCH  23  26
ATOM     26  N   UNL A   1      34.774  19.172  24.999  1.00  0.00    -0.225 NA
ATOM     27  H   UNL A   1      35.220  19.797  24.328  1.00  0.00     0.137 HD
ATOM     28  H   UNL A   1      35.096  18.217  24.843  1.00  0.00     0.137 HD
ENDBRANCH  23  26
ENDBRANCH  18  23
ENDBRANCH  16  17
ENDBRANCH  10  15
BRANCH  14  29
ATOM     29  O   UNL A   1      32.028  31.384  26.353  1.00  0.00    -0.507 OA
ATOM     30  H   UNL A   1      31.578  31.699  27.112  1.00  0.00     0.293 HD
ENDBRANCH  14  29
ENDBRANCH   7   9
ENDBRANCH   6   7
ENDBRANCH   5   6
ENDBRANCH   4   5
ENDBRANCH   3   4
ENDBRANCH   2   3
ENDBRANCH   1   2
BRANCH   1  31
ATOM     31  O   UNL A   1      33.162  34.227  32.551  1.00  0.00    -0.377 OA
BRANCH  31  32
ATOM     32  C   UNL A   1      34.325  33.464  32.869  1.00  0.00     0.188 C 
BRANCH  32  33
ATOM     33  C   UNL A   1      34.873  32.354  31.937  1.00  0.00     0.188 C 
BRANCH  33  34
ATOM     34  O   UNL A   1      35.882  31.532  32.504  1.00  0.00    -0.376 OA
BRANCH  34  35
ATOM     35  C   UNL A   1      36.668  32.096  33.540  1.00  0.00     0.202 C 
BRANCH  35  36
ATOM     36  C   UNL A   1      37.798  31.202  34.063  1.00  0.00     0.261 C 
BRANCH  36  37
ATOM     37  O   UNL A   1      38.966  31.890  34.532  1.00  0.00    -0.460 OA
BRANCH  37  38
ATOM     38  C   UNL A   1      39.515  32.814  33.711  1.00  0.00     0.338 C 
ATOM     39  O   UNL A   1      39.370  34.021  33.759  1.00  0.00    -0.246 OA
BRANCH  38  40
ATOM     40  C   UNL A   1      40.478  32.107  32.843  1.00  0.00     0.060 A 
ATOM     41  C   UNL A   1      41.434  31.260  33.418  1.00  0.00     0.016 A 
ATOM     42  C   UNL A   1      40.412  32.272  31.458  1.00  0.00     0.016 A 
ATOM     43  C   UNL A   1      42.354  30.596  32.604  1.00  0.00     0.010 A 
ATOM     44  C   UNL A   1      41.344  31.626  30.649  1.00  0.00     0.010 A 
ATOM     45  C   UNL A   1      42.340  30.814  31.221  1.00  0.00    -0.014 A 
BRANCH  45  46
ATOM     46  C   UNL A   1      43.489  30.399  30.383  1.00  0.00     0.031 A 
ATOM     47  C   UNL A   1      43.404  29.063  29.698  1.00  0.00     0.074 A 
ATOM     48  C   UNL A   1      44.589  31.162  30.259  1.00  0.00     0.049 A 
ATOM     49  N   UNL A   1      44.317  28.408  29.033  1.00  0.00    -0.248 NA
ATOM     50  C   UNL A   1      42.108  28.366  29.790  1.00  0.00     0.031 C 
ATOM     51  C   UNL A   1      44.768  32.492  30.838  1.00  0.00     0.029 A 
ATOM     52  N   UNL A   1      45.777  30.909  29.617  1.00  0.00    -0.354 N 
ATOM     53  C   UNL A   1      43.716  27.218  28.642  1.00  0.00     0.074 A 
ATOM     54  C   UNL A   1      42.367  27.229  29.163  1.00  0.00     0.031 C 
ATOM     55  C   UNL A   1      46.007  32.929  30.544  1.00  0.00     0.029 A 
ATOM     56  C   UNL A   1      46.719  31.894  29.794  1.00  0.00     0.049 A 
ATOM     57  H   UNL A   1      45.938  30.099  29.081  1.00  0.00     0.167 HD
ATOM     58  C   UNL A   1      44.241  26.207  27.912  1.00  0.00     0.037 A 
ATOM     59  C   UNL A   1      48.014  31.935  29.424  1.00  0.00     0.037 A 
ATOM     60  C   UNL A   1      45.586  26.205  27.403  1.00  0.00     0.049 A 
ATOM     61  C   UNL A   1      48.604  30.765  28.672  1.00  0.00     0.074 A 
ATOM     62  C   UNL A   1      46.215  25.234  26.644  1.00  0.00     0.029 A 
ATOM     63  N   UNL A   1      46.511  27.218  27.608  1.00  0.00    -0.354 N 
ATOM     64  N   UNL A   1      48.025  29.648  28.297  1.00  0.00    -0.248 NA
ATOM     65  C   UNL A   1      50.022  30.859  28.293  1.00  0.00     0.031 C 
ATOM     66  C   UNL A   1      47.537  25.637  26.435  1.00  0.00     0.029 A 
ATOM     67  C   UNL A   1      47.713  26.887  27.007  1.00  0.00     0.049 A 
ATOM     68  H   UNL A   1      46.337  28.049  28.106  1.00  0.00     0.167 HD
ATOM     69  C   UNL A   1      48.995  28.928  27.604  1.00  0.00     0.074 A 
ATOM     70  C   UNL A   1      50.197  29.732  27.614  1.00  0.00     0.031 C 
ATOM     71  C   UNL A   1      48.894  27.714  27.006  1.00  0.00     0.037 A 
BRANCH  58  72
ATOM     72  C   UNL A   1      43.369  25.011  27.652  1.00  0.00     0.058 A 
ATOM     73  C   UNL A   1      42.632  24.873  26.465  1.00  0.00     0.135 A 
ATOM     74  C   UNL A   1      43.289  23.974  28.597  1.00  0.00     0.135 A 
ATOM     75  F   UNL A   1      42.655  25.844  25.538  1.00  0.00    -0.206 F 
ATOM     76  C   UNL A   1      41.825  23.763  26.236  1.00  0.00     0.059 A 
ATOM     77  C   UNL A   1      42.512  22.842  28.375  1.00  0.00     0.059 A 
ATOM     78  F   UNL A   1      43.967  24.058  29.752  1.00  0.00    -0.206 F 
ATOM     79  C   UNL A   1      41.773  22.752  27.197  1.00  0.00     0.060 A 
BRANCH  79  80
ATOM     80  S   UNL A   1      40.726  21.316  26.881  1.00  0.00     0.124 S 
ATOM     81  O   UNL A   1      39.446  21.950  26.583  1.00  0.00    -0.237 OA
ATOM     82  O   UNL A   1      41.398  20.685  25.749  1.00  0.00    -0.237 OA
ATOM     83  O   UNL A   1      40.781  20.572  28.135  1.00  0.00    -0.744 OA
ENDBRANCH  79  80
ENDBRANCH  58  72
BRANCH  59  84
ATOM     84  C   UNL A   1      48.855  33.113  29.771  1.00  0.00     0.058 A 
ATOM     85  C   UNL A   1      49.092  34.135  28.838  1.00  0.00     0.135 A 
ATOM     86  C   UNL A   1      49.440  33.242  31.040  1.00  0.00     0.135 A 
ATOM     87  F   UNL A   1      48.569  34.052  27.606  1.00  0.00    -0.206 F 
ATOM     88  C   UNL A   1      49.891  35.233  29.145  1.00  0.00     0.059 A 
ATOM     89  C   UNL A   1      50.218  34.344  31.381  1.00  0.00     0.059 A 
ATOM     90  F   UNL A   1      49.241  32.297  31.972  1.00  0.00    -0.206 F 
ATOM     91  C   UNL A   1      50.447  35.330  30.421  1.00  0.00     0.060 A 
BRANCH  91  92
ATOM     92  S   UNL A   1      51.443  36.782  30.824  1.00  0.00     0.124 S 
ATOM     93  O   UNL A   1      52.145  37.014  29.568  1.00  0.00    -0.237 OA
ATOM     94  O   UNL A   1      50.423  37.763  31.178  1.00  0.00    -0.237 OA
ATOM     95  O   UNL A   1      52.272  36.322  31.935  1.00  0.00    -0.744 OA
ENDBRANCH  91  92
ENDBRANCH  59  84
BRANCH  71  96
ATOM     96  C   UNL A   1      50.090  27.197  26.252  1.00  0.00     0.058 A 
ATOM     97  C   UNL A   1      50.265  27.433  24.880  1.00  0.00     0.135 A 
ATOM     98  C   UNL A   1      51.124  26.540  26.942  1.00  0.00     0.135 A 
ATOM     99  F   UNL A   1      49.306  28.051  24.174  1.00  0.00    -0.206 F 
ATOM    100  C   UNL A   1      51.419  27.029  24.217  1.00  0.00     0.059 A 
ATOM    101  C   UNL A   1      52.298  26.154  26.304  1.00  0.00     0.059 A 
ATOM    102  F   UNL A   1      51.012  26.299  28.258  1.00  0.00    -0.206 F 
ATOM    103  C   UNL A   1      52.435  26.398  24.939  1.00  0.00     0.060 A 
BRANCH 103 104
ATOM    104  S   UNL A   1      53.954  25.938  24.079  1.00  0.00     0.124 S 
ATOM    105  O   UNL A   1      54.861  27.003  24.492  1.00  0.00    -0.237 OA
ATOM    106  O   UNL A   1      54.235  24.616  24.630  1.00  0.00    -0.237 OA
ATOM    107  O   UNL A   1      53.566  25.954  22.671  1.00  0.00    -0.744 OA
ENDBRANCH 103 104
ENDBRANCH  71  96
ENDBRANCH  45  46
ENDBRANCH  38  40
ENDBRANCH  37  38
ENDBRANCH  36  37
ENDBRANCH  35  36
ENDBRANCH  34  35
ENDBRANCH  33  34
ENDBRANCH  32  33
ENDBRANCH  31  32
ENDBRANCH   1  31
TORSDOF 28
ENDMDL
MODEL 3
REMARK VINA RESULT:      -8.2      5.859     13.150
REMARK SMILES NS(=O)(=O)c1ccc(/N=C/c2ccc(O)c(C(=O)OCCOCCOCCOCCOC(=O)c3ccc(-c4c5nc(c(-c6c(F)cc(S(=O)(=O)[O-])cc6F)c6ccc([nH]6)c(-c6c(F)cc(S(=O)(=O)[O-])cc6F)c6nc(c(-c7c(F)cc(S(=O)(=O)[O-])cc7F)c7ccc4[nH]7)C=C6)C=C5)cc3)c2)cc1
REMARK SMILES IDX 24 1 23 2 22 3 21 4 20 5 19 6 17 7 18 8 16 9 11 10 12 11
REMARK SMILES IDX 100 12 13 13 14 14 10 15 9 16 8 17 5 18 6 19 102 20 7 21
REMARK SMILES IDX 101 22 2 23 3 24 4 25 1 26 15 29 25 31 26 32 27 33 28 34
REMARK SMILES IDX 29 35 30 36 31 37 32 38 33 39 34 40 35 41 99 42 36 43 98 44
REMARK SMILES IDX 37 45 38 46 39 47 92 48 40 49 97 50 91 51 93 52 41 53 96 54
REMARK SMILES IDX 90 55 89 56 42 58 76 59 55 60 75 61 56 62 59 63 74 64 94 65
REMARK SMILES IDX 57 66 58 67 73 69 95 70 60 71 43 72 44 73 53 74 45 75 46 76
REMARK SMILES IDX 52 77 54 78 47 79 48 80 49 81 50 82 51 83 77 84 78 85 87 86
REMARK SMILES IDX 79 87 80 88 86 89 88 90 81 91 82 92 83 93 84 94 85 95 61 96
REMARK SMILES IDX 62 97 71 98 63 99 64 100 70 101 72 102 65 103 66 104 67 105
REMARK SMILES IDX 68 106 69 107
REMARK H PARENT 1 27 1 28 15 30 93 57 59 68
REMARK Flexibility Score: inf
ROOT
ATOM      1  C   UNL A   1      36.207  33.526  28.311  1.00  0.00     0.188 C 
ENDROOT
BRANCH   1   2
ATOM      2  C   UNL A   1      37.646  33.391  28.846  1.00  0.00     0.188 C 
BRANCH   2   3
ATOM      3  O   UNL A   1      38.160  34.592  29.399  1.00  0.00    -0.376 OA
BRANCH   3   4
ATOM      4  C   UNL A   1      39.345  34.526  30.171  1.00  0.00     0.202 C 
BRANCH   4   5
ATOM      5  C   UNL A   1      39.522  33.350  31.145  1.00  0.00     0.261 C 
BRANCH   5   6
ATOM      6  O   UNL A   1      40.595  33.454  32.090  1.00  0.00    -0.460 OA
BRANCH   6   7
ATOM      7  C   UNL A   1      40.319  33.934  33.317  1.00  0.00     0.342 C 
ATOM      8  O   UNL A   1      40.205  35.105  33.644  1.00  0.00    -0.246 OA
BRANCH   7   9
ATOM      9  C   UNL A   1      39.866  32.811  34.169  1.00  0.00     0.102 A 
ATOM     10  C   UNL A   1      40.002  30.504  34.880  1.00  0.00    -0.006 A 
ATOM     11  C   UNL A   1      38.803  30.648  35.589  1.00  0.00     0.013 A 
ATOM     12  C   UNL A   1      40.529  31.577  34.154  1.00  0.00     0.029 A 
ATOM     13  C   UNL A   1      38.144  31.877  35.603  1.00  0.00     0.048 A 
ATOM     14  C   UNL A   1      38.684  32.959  34.912  1.00  0.00     0.130 A 
BRANCH  10  15
ATOM     15  C   UNL A   1      40.697  29.202  34.945  1.00  0.00     0.119 C 
ATOM     16  N   UNL A   1      41.966  29.096  34.728  1.00  0.00    -0.256 NA
BRANCH  16  17
ATOM     17  C   UNL A   1      42.621  27.856  34.853  1.00  0.00     0.063 A 
ATOM     18  C   UNL A   1      43.749  25.297  35.159  1.00  0.00     0.082 A 
ATOM     19  C   UNL A   1      42.368  25.462  35.267  1.00  0.00     0.024 A 
ATOM     20  C   UNL A   1      44.574  26.395  34.912  1.00  0.00     0.024 A 
ATOM     21  C   UNL A   1      41.816  26.738  35.114  1.00  0.00     0.030 A 
ATOM     22  C   UNL A   1      44.008  27.668  34.770  1.00  0.00     0.030 A 
BRANCH  18  23
ATOM     23  S   UNL A   1      44.471  23.698  35.381  1.00  0.00     0.238 S 
ATOM     24  O   UNL A   1      43.584  22.704  34.823  1.00  0.00    -0.207 OA
ATOM     25  O   UNL A   1      44.975  23.609  36.733  1.00  0.00    -0.207 OA
BRANCH  23  26
ATOM     26  N   UNL A   1      45.801  23.736  34.365  1.00  0.00    -0.225 NA
ATOM     27  H   UNL A   1      45.524  23.433  33.431  1.00  0.00     0.137 HD
ATOM     28  H   UNL A   1      46.522  23.112  34.726  1.00  0.00     0.137 HD
ENDBRANCH  23  26
ENDBRANCH  18  23
ENDBRANCH  16  17
ENDBRANCH  10  15
BRANCH  14  29
ATOM     29  O   UNL A   1      37.970  34.127  34.964  1.00  0.00    -0.507 OA
ATOM     30  H   UNL A   1      38.185  34.834  34.388  1.00  0.00     0.293 HD
ENDBRANCH  14  29
ENDBRANCH   7   9
ENDBRANCH   6   7
ENDBRANCH   5   6
ENDBRANCH   4   5
ENDBRANCH   3   4
ENDBRANCH   2   3
ENDBRANCH   1   2
BRANCH   1  31
ATOM     31  O   UNL A   1      35.451  34.641  28.745  1.00  0.00    -0.377 OA
BRANCH  31  32
ATOM     32  C   UNL A   1      34.538  34.501  29.831  1.00  0.00     0.188 C 
BRANCH  32  33
ATOM     33  C   UNL A   1      34.149  33.121  30.418  1.00  0.00     0.188 C 
BRANCH  33  34
ATOM     34  O   UNL A   1      34.088  33.062  31.835  1.00  0.00    -0.376 OA
BRANCH  34  35
ATOM     35  C   UNL A   1      35.322  33.020  32.534  1.00  0.00     0.202 C 
BRANCH  35  36
ATOM     36  C   UNL A   1      36.093  31.700  32.418  1.00  0.00     0.261 C 
BRANCH  36  37
ATOM     37  O   UNL A   1      36.668  31.430  31.132  1.00  0.00    -0.460 OA
BRANCH  37  38
ATOM     38  C   UNL A   1      36.813  30.133  30.776  1.00  0.00     0.338 C 
ATOM     39  O   UNL A   1      35.930  29.313  30.606  1.00  0.00    -0.246 OA
BRANCH  38  40
ATOM     40  C   UNL A   1      38.237  29.928  30.449  1.00  0.00     0.060 A 
ATOM     41  C   UNL A   1      38.659  30.005  29.115  1.00  0.00     0.016 A 
ATOM     42  C   UNL A   1      39.154  29.683  31.474  1.00  0.00     0.016 A 
ATOM     43  C   UNL A   1      40.003  29.802  28.798  1.00  0.00     0.010 A 
ATOM     44  C   UNL A   1      40.491  29.459  31.153  1.00  0.00     0.010 A 
ATOM     45  C   UNL A   1      40.915  29.483  29.812  1.00  0.00    -0.014 A 
BRANCH  45  46
ATOM     46  C   UNL A   1      42.253  28.942  29.478  1.00  0.00     0.031 A 
ATOM     47  C   UNL A   1      43.421  29.886  29.546  1.00  0.00     0.074 A 
ATOM     48  C   UNL A   1      42.426  27.666  29.091  1.00  0.00     0.049 A 
ATOM     49  N   UNL A   1      44.659  29.707  29.171  1.00  0.00    -0.248 NA
ATOM     50  C   UNL A   1      43.148  31.221  30.107  1.00  0.00     0.031 C 
ATOM     51  C   UNL A   1      41.378  26.649  29.030  1.00  0.00     0.029 A 
ATOM     52  N   UNL A   1      43.554  27.017  28.653  1.00  0.00    -0.354 N 
ATOM     53  C   UNL A   1      45.308  30.908  29.432  1.00  0.00     0.074 A 
ATOM     54  C   UNL A   1      44.323  31.816  29.976  1.00  0.00     0.031 C 
ATOM     55  C   UNL A   1      41.910  25.507  28.556  1.00  0.00     0.029 A 
ATOM     56  C   UNL A   1      43.322  25.726  28.243  1.00  0.00     0.049 A 
ATOM     57  H   UNL A   1      44.445  27.436  28.636  1.00  0.00     0.167 HD
ATOM     58  C   UNL A   1      46.609  31.224  29.237  1.00  0.00     0.037 A 
ATOM     59  C   UNL A   1      44.148  24.840  27.651  1.00  0.00     0.037 A 
ATOM     60  C   UNL A   1      47.579  30.313  28.691  1.00  0.00     0.049 A 
ATOM     61  C   UNL A   1      45.579  25.236  27.375  1.00  0.00     0.074 A 
ATOM     62  C   UNL A   1      48.925  30.530  28.460  1.00  0.00     0.029 A 
ATOM     63  N   UNL A   1      47.304  29.016  28.282  1.00  0.00    -0.354 N 
ATOM     64  N   UNL A   1      46.187  26.370  27.635  1.00  0.00    -0.248 NA
ATOM     65  C   UNL A   1      46.437  24.234  26.725  1.00  0.00     0.031 C 
ATOM     66  C   UNL A   1      49.453  29.382  27.863  1.00  0.00     0.029 A 
ATOM     67  C   UNL A   1      48.451  28.427  27.782  1.00  0.00     0.049 A 
ATOM     68  H   UNL A   1      46.422  28.580  28.341  1.00  0.00     0.167 HD
ATOM     69  C   UNL A   1      47.505  26.202  27.219  1.00  0.00     0.074 A 
ATOM     70  C   UNL A   1      47.606  24.860  26.687  1.00  0.00     0.031 C 
ATOM     71  C   UNL A   1      48.539  27.078  27.280  1.00  0.00     0.037 A 
BRANCH  58  72
ATOM     72  C   UNL A   1      47.045  32.619  29.586  1.00  0.00     0.058 A 
ATOM     73  C   UNL A   1      46.982  33.670  28.657  1.00  0.00     0.135 A 
ATOM     74  C   UNL A   1      47.512  32.913  30.878  1.00  0.00     0.135 A 
ATOM     75  F   UNL A   1      46.565  33.439  27.401  1.00  0.00    -0.206 F 
ATOM     76  C   UNL A   1      47.392  34.958  28.988  1.00  0.00     0.059 A 
ATOM     77  C   UNL A   1      47.898  34.200  31.239  1.00  0.00     0.059 A 
ATOM     78  F   UNL A   1      47.599  31.945  31.802  1.00  0.00    -0.206 F 
ATOM     79  C   UNL A   1      47.847  35.213  30.283  1.00  0.00     0.060 A 
BRANCH  79  80
ATOM     80  S   UNL A   1      48.368  36.890  30.697  1.00  0.00     0.124 S 
ATOM     81  O   UNL A   1      47.484  37.202  31.815  1.00  0.00    -0.237 OA
ATOM     82  O   UNL A   1      49.776  36.703  31.037  1.00  0.00    -0.237 OA
ATOM     83  O   UNL A   1      48.116  37.638  29.470  1.00  0.00    -0.744 OA
ENDBRANCH  79  80
ENDBRANCH  58  72
BRANCH  59  84
ATOM     84  C   UNL A   1      43.644  23.495  27.258  1.00  0.00     0.058 A 
ATOM     85  C   UNL A   1      43.311  23.205  25.926  1.00  0.00     0.135 A 
ATOM     86  C   UNL A   1      43.484  22.472  28.206  1.00  0.00     0.135 A 
ATOM     87  F   UNL A   1      43.432  24.153  24.984  1.00  0.00    -0.206 F 
ATOM     88  C   UNL A   1      42.822  21.958  25.550  1.00  0.00     0.059 A 
ATOM     89  C   UNL A   1      43.024  21.208  27.850  1.00  0.00     0.059 A 
ATOM     90  F   UNL A   1      43.792  22.693  29.493  1.00  0.00    -0.206 F 
ATOM     91  C   UNL A   1      42.686  20.964  26.520  1.00  0.00     0.060 A 
BRANCH  91  92
ATOM     92  S   UNL A   1      42.095  19.334  26.012  1.00  0.00     0.124 S 
ATOM     93  O   UNL A   1      42.419  18.527  27.182  1.00  0.00    -0.237 OA
ATOM     94  O   UNL A   1      40.676  19.583  25.780  1.00  0.00    -0.237 OA
ATOM     95  O   UNL A   1      42.878  19.051  24.813  1.00  0.00    -0.744 OA
ENDBRANCH  91  92
ENDBRANCH  59  84
BRANCH  71  96
ATOM     96  C   UNL A   1      49.894  26.605  26.824  1.00  0.00     0.058 A 
ATOM     97  C   UNL A   1      50.840  26.083  27.718  1.00  0.00     0.135 A 
ATOM     98  C   UNL A   1      50.204  26.584  25.453  1.00  0.00     0.135 A 
ATOM     99  F   UNL A   1      50.595  26.085  29.038  1.00  0.00    -0.206 F 
ATOM    100  C   UNL A   1      52.051  25.564  27.270  1.00  0.00     0.059 A 
ATOM    101  C   UNL A   1      51.396  26.044  24.982  1.00  0.00     0.059 A 
ATOM    102  F   UNL A   1      49.329  27.061  24.554  1.00  0.00    -0.206 F 
ATOM    103  C   UNL A   1      52.316  25.541  25.899  1.00  0.00     0.060 A 
BRANCH 103 104
ATOM    104  S   UNL A   1      53.863  24.805  25.328  1.00  0.00     0.124 S 
ATOM    105  O   UNL A   1      53.438  23.452  24.987  1.00  0.00    -0.237 OA
ATOM    106  O   UNL A   1      54.217  25.662  24.200  1.00  0.00    -0.237 OA
ATOM    107  O   UNL A   1      54.741  24.914  26.489  1.00  0.00    -0.744 OA
ENDBRANCH 103 104
ENDBRANCH  71  96
ENDBRANCH  45  46
ENDBRANCH  38  40
ENDBRANCH  37  38
ENDBRANCH  36  37
ENDBRANCH  35  36
ENDBRANCH  34  35
ENDBRANCH  33  34
ENDBRANCH  32  33
ENDBRANCH  31  32
ENDBRANCH   1  31
TORSDOF 28
ENDMDL
