MODEL 1
REMARK VINA RESULT:      -9.5      0.000      0.000
REMARK SMILES CC(C)(C)OC(=O)N[C@H](Cc1ccc(N=[N+]=[N-])cc1)C(=O)OCCOCCOCCOCCOC(=O)c1ccc(-c2c3nc(c(-c4c(F)cc(S(=O)(=O)[O-])cc4F)c4ccc([nH]4)c(-c4c(F)cc(S(=O)(=O)[O-])cc4F)c4nc(c(-c5c(F)cc(S(=O)(=O)[O-])cc5F)c5ccc2[nH]5)C=C4)C=C3)cc1
REMARK SMILES IDX 28 1 27 2 26 3 25 4 24 5 23 6 22 7 20 8 21 9 9 10 8 11 6 12
REMARK SMILES IDX 7 13 5 15 2 16 1 17 3 18 4 19 10 20 11 21 12 22 19 23 13 24
REMARK SMILES IDX 18 25 14 26 15 27 16 28 17 29 29 30 30 31 31 32 32 33 33 34
REMARK SMILES IDX 34 35 35 36 36 37 37 38 38 39 102 40 39 41 101 42 40 43
REMARK SMILES IDX 41 44 42 45 95 46 43 47 100 48 94 49 96 50 44 51 99 52 93 53
REMARK SMILES IDX 92 54 45 56 79 57 58 58 78 59 59 60 62 61 77 62 97 63 60 64
REMARK SMILES IDX 61 65 76 67 98 68 63 69 46 70 47 71 56 72 48 73 49 74 55 75
REMARK SMILES IDX 57 76 50 77 51 78 52 79 53 80 54 81 80 82 81 83 90 84 82 85
REMARK SMILES IDX 83 86 89 87 91 88 84 89 85 90 86 91 87 92 88 93 64 94 65 95
REMARK SMILES IDX 74 96 66 97 67 98 73 99 75 100 68 101 69 102 70 103 71 104
REMARK SMILES IDX 72 105
REMARK H PARENT 8 14 96 55 62 66
REMARK Flexibility Score: inf
ROOT
ATOM      1  O   UNL A   1      40.434  20.326  25.940  1.00  0.00    -0.377 OA
ENDROOT
BRANCH   1   2
ATOM      2  C   UNL A   1      40.059  21.434  26.728  1.00  0.00     0.188 C 
BRANCH   2   3
ATOM      3  C   UNL A   1      39.190  22.581  26.194  1.00  0.00     0.188 C 
BRANCH   3   4
ATOM      4  O   UNL A   1      37.886  22.336  25.712  1.00  0.00    -0.376 OA
BRANCH   4   5
ATOM      5  C   UNL A   1      36.730  23.131  25.852  1.00  0.00     0.202 C 
BRANCH   5   6
ATOM      6  C   UNL A   1      35.283  22.710  26.171  1.00  0.00     0.261 C 
BRANCH   6   7
ATOM      7  O   UNL A   1      34.193  23.083  25.337  1.00  0.00    -0.462 OA
BRANCH   7   8
ATOM      8  C   UNL A   1      34.469  23.237  24.017  1.00  0.00     0.329 C 
ATOM      9  O   UNL A   1      35.461  23.811  23.585  1.00  0.00    -0.250 OA
BRANCH   8  10
ATOM     10  C   UNL A   1      33.351  22.668  23.117  1.00  0.00     0.199 C 
BRANCH  10  11
ATOM     11  N   UNL A   1      32.609  23.749  22.470  1.00  0.00    -0.308 N 
ATOM     12  C   UNL A   1      31.719  24.568  23.107  1.00  0.00     0.408 C 
ATOM     13  O   UNL A   1      31.285  25.581  22.584  1.00  0.00    -0.225 OA
ATOM     14  H   UNL A   1      32.760  23.897  21.509  1.00  0.00     0.168 HD
BRANCH  12  15
ATOM     15  O   UNL A   1      31.350  24.067  24.303  1.00  0.00    -0.444 OA
BRANCH  15  16
ATOM     16  C   UNL A   1      31.096  24.893  25.462  1.00  0.00     0.106 C 
ATOM     17  C   UNL A   1      30.843  23.922  26.632  1.00  0.00     0.056 C 
ATOM     18  C   UNL A   1      29.826  25.724  25.256  1.00  0.00     0.056 C 
ATOM     19  C   UNL A   1      32.328  25.730  25.785  1.00  0.00     0.056 C 
ENDBRANCH  15  16
ENDBRANCH  12  15
ENDBRANCH  10  11
BRANCH  10  20
ATOM     20  C   UNL A   1      32.445  21.716  23.925  1.00  0.00     0.072 C 
BRANCH  20  21
ATOM     21  C   UNL A   1      32.709  20.238  23.818  1.00  0.00    -0.045 A 
ATOM     22  C   UNL A   1      33.475  19.603  24.806  1.00  0.00     0.004 A 
ATOM     23  C   UNL A   1      32.261  19.497  22.724  1.00  0.00     0.004 A 
ATOM     24  C   UNL A   1      33.761  18.242  24.714  1.00  0.00     0.010 A 
ATOM     25  C   UNL A   1      32.557  18.133  22.635  1.00  0.00     0.010 A 
ATOM     26  C   UNL A   1      33.296  17.484  23.637  1.00  0.00     0.038 A 
BRANCH  26  27
ATOM     27  N   UNL A   1      33.652  16.124  23.600  1.00  0.00    -0.061 NA
ATOM     28  N   UNL A   1      34.475  15.770  24.456  1.00  0.00     0.005 N 
ATOM     29  N   UNL A   1      35.223  15.431  25.255  1.00  0.00    -0.003 NA
ENDBRANCH  26  27
ENDBRANCH  20  21
ENDBRANCH  10  20
ENDBRANCH   8  10
ENDBRANCH   7   8
ENDBRANCH   6   7
ENDBRANCH   5   6
ENDBRANCH   4   5
ENDBRANCH   3   4
ENDBRANCH   2   3
ENDBRANCH   1   2
BRANCH   1  30
ATOM     30  C   UNL A   1      41.803  19.979  25.999  1.00  0.00     0.188 C 
BRANCH  30  31
ATOM     31  C   UNL A   1      42.656  21.200  26.355  1.00  0.00     0.188 C 
BRANCH  31  32
ATOM     32  O   UNL A   1      43.947  21.158  25.768  1.00  0.00    -0.376 OA
BRANCH  32  33
ATOM     33  C   UNL A   1      44.916  22.144  26.105  1.00  0.00     0.202 C 
BRANCH  33  34
ATOM     34  C   UNL A   1      44.706  23.666  25.916  1.00  0.00     0.261 C 
BRANCH  34  35
ATOM     35  O   UNL A   1      43.819  24.357  26.808  1.00  0.00    -0.460 OA
BRANCH  35  36
ATOM     36  C   UNL A   1      42.722  24.939  26.285  1.00  0.00     0.338 C 
ATOM     37  O   UNL A   1      42.134  24.609  25.271  1.00  0.00    -0.246 OA
BRANCH  36  38
ATOM     38  C   UNL A   1      42.214  25.907  27.287  1.00  0.00     0.060 A 
ATOM     39  C   UNL A   1      42.673  27.230  27.220  1.00  0.00     0.016 A 
ATOM     40  C   UNL A   1      41.282  25.533  28.261  1.00  0.00     0.016 A 
ATOM     41  C   UNL A   1      42.249  28.166  28.157  1.00  0.00     0.010 A 
ATOM     42  C   UNL A   1      40.885  26.466  29.226  1.00  0.00     0.010 A 
ATOM     43  C   UNL A   1      41.411  27.770  29.207  1.00  0.00    -0.014 A 
BRANCH  43  44
ATOM     44  C   UNL A   1      41.353  28.641  30.405  1.00  0.00     0.031 A 
ATOM     45  C   UNL A   1      40.245  29.660  30.473  1.00  0.00     0.074 A 
ATOM     46  C   UNL A   1      42.177  28.460  31.453  1.00  0.00     0.049 A 
ATOM     47  N   UNL A   1      39.926  30.482  31.438  1.00  0.00    -0.248 NA
ATOM     48  C   UNL A   1      39.372  29.757  29.290  1.00  0.00     0.031 C 
ATOM     49  C   UNL A   1      43.251  27.472  31.526  1.00  0.00     0.029 A 
ATOM     50  N   UNL A   1      42.223  29.100  32.666  1.00  0.00    -0.354 N 
ATOM     51  C   UNL A   1      38.820  31.190  30.979  1.00  0.00     0.074 A 
ATOM     52  C   UNL A   1      38.548  30.733  29.636  1.00  0.00     0.031 C 
ATOM     53  C   UNL A   1      43.853  27.572  32.725  1.00  0.00     0.029 A 
ATOM     54  C   UNL A   1      43.222  28.645  33.493  1.00  0.00     0.049 A 
ATOM     55  H   UNL A   1      41.599  29.817  32.921  1.00  0.00     0.167 HD
ATOM     56  C   UNL A   1      38.086  32.125  31.625  1.00  0.00     0.037 A 
ATOM     57  C   UNL A   1      43.586  29.055  34.725  1.00  0.00     0.037 A 
ATOM     58  C   UNL A   1      38.364  32.580  32.962  1.00  0.00     0.049 A 
ATOM     59  C   UNL A   1      42.793  30.147  35.400  1.00  0.00     0.074 A 
ATOM     60  C   UNL A   1      37.684  33.525  33.708  1.00  0.00     0.029 A 
ATOM     61  N   UNL A   1      39.412  32.127  33.750  1.00  0.00    -0.354 N 
ATOM     62  N   UNL A   1      41.742  30.800  34.962  1.00  0.00    -0.248 NA
ATOM     63  C   UNL A   1      43.227  30.546  36.746  1.00  0.00     0.031 C 
ATOM     64  C   UNL A   1      38.357  33.687  34.924  1.00  0.00     0.029 A 
ATOM     65  C   UNL A   1      39.411  32.790  34.966  1.00  0.00     0.049 A 
ATOM     66  H   UNL A   1      40.062  31.437  33.484  1.00  0.00     0.167 HD
ATOM     67  C   UNL A   1      41.366  31.657  35.993  1.00  0.00     0.074 A 
ATOM     68  C   UNL A   1      42.296  31.429  37.079  1.00  0.00     0.031 C 
ATOM     69  C   UNL A   1      40.341  32.548  36.042  1.00  0.00     0.037 A 
BRANCH  56  70
ATOM     70  C   UNL A   1      36.936  32.744  30.877  1.00  0.00     0.058 A 
ATOM     71  C   UNL A   1      35.629  32.237  30.964  1.00  0.00     0.135 A 
ATOM     72  C   UNL A   1      37.144  33.878  30.074  1.00  0.00     0.135 A 
ATOM     73  F   UNL A   1      35.376  31.141  31.697  1.00  0.00    -0.206 F 
ATOM     74  C   UNL A   1      34.575  32.814  30.262  1.00  0.00     0.059 A 
ATOM     75  C   UNL A   1      36.099  34.491  29.388  1.00  0.00     0.059 A 
ATOM     76  F   UNL A   1      38.374  34.399  29.946  1.00  0.00    -0.206 F 
ATOM     77  C   UNL A   1      34.821  33.944  29.479  1.00  0.00     0.060 A 
BRANCH  77  78
ATOM     78  S   UNL A   1      33.442  34.689  28.585  1.00  0.00     0.124 S 
ATOM     79  O   UNL A   1      32.540  35.042  29.678  1.00  0.00    -0.237 OA
ATOM     80  O   UNL A   1      34.082  35.810  27.904  1.00  0.00    -0.237 OA
ATOM     81  O   UNL A   1      32.979  33.612  27.715  1.00  0.00    -0.744 OA
ENDBRANCH  77  78
ENDBRANCH  56  70
BRANCH  57  82
ATOM     82  C   UNL A   1      44.757  28.436  35.405  1.00  0.00     0.058 A 
ATOM     83  C   UNL A   1      44.607  27.350  36.281  1.00  0.00     0.135 A 
ATOM     84  C   UNL A   1      46.055  28.933  35.200  1.00  0.00     0.135 A 
ATOM     85  F   UNL A   1      43.388  26.844  36.521  1.00  0.00    -0.206 F 
ATOM     86  C   UNL A   1      45.696  26.792  36.945  1.00  0.00     0.059 A 
ATOM     87  C   UNL A   1      47.162  28.371  35.828  1.00  0.00     0.059 A 
ATOM     88  F   UNL A   1      46.256  29.963  34.365  1.00  0.00    -0.206 F 
ATOM     89  C   UNL A   1      46.971  27.307  36.707  1.00  0.00     0.060 A 
BRANCH  89  90
ATOM     90  S   UNL A   1      48.383  26.542  37.535  1.00  0.00     0.124 S 
ATOM     91  O   UNL A   1      49.503  27.238  36.913  1.00  0.00    -0.237 OA
ATOM     92  O   UNL A   1      48.125  26.865  38.934  1.00  0.00    -0.237 OA
ATOM     93  O   UNL A   1      48.248  25.130  37.191  1.00  0.00    -0.744 OA
ENDBRANCH  89  90
ENDBRANCH  57  82
BRANCH  69  94
ATOM     94  C   UNL A   1      40.136  33.297  37.332  1.00  0.00     0.058 A 
ATOM     95  C   UNL A   1      39.150  32.933  38.263  1.00  0.00     0.135 A 
ATOM     96  C   UNL A   1      40.955  34.395  37.648  1.00  0.00     0.135 A 
ATOM     97  F   UNL A   1      38.340  31.891  38.017  1.00  0.00    -0.206 F 
ATOM     98  C   UNL A   1      38.944  33.665  39.429  1.00  0.00     0.059 A 
ATOM     99  C   UNL A   1      40.794  35.117  38.826  1.00  0.00     0.059 A 
ATOM    100  F   UNL A   1      41.929  34.778  36.806  1.00  0.00    -0.206 F 
ATOM    101  C   UNL A   1      39.767  34.759  39.698  1.00  0.00     0.060 A 
BRANCH 101 102
ATOM    102  S   UNL A   1      39.479  35.712  41.204  1.00  0.00     0.124 S 
ATOM    103  O   UNL A   1      40.832  36.139  41.543  1.00  0.00    -0.237 OA
ATOM    104  O   UNL A   1      38.579  36.763  40.740  1.00  0.00    -0.237 OA
ATOM    105  O   UNL A   1      38.881  34.740  42.113  1.00  0.00    -0.744 OA
ENDBRANCH 101 102
ENDBRANCH  69  94
ENDBRANCH  43  44
ENDBRANCH  36  38
ENDBRANCH  35  36
ENDBRANCH  34  35
ENDBRANCH  33  34
ENDBRANCH  32  33
ENDBRANCH  31  32
ENDBRANCH  30  31
ENDBRANCH   1  30
TORSDOF 29
ENDMDL
MODEL 2
REMARK VINA RESULT:      -9.4      1.767      8.600
REMARK SMILES CC(C)(C)OC(=O)N[C@H](Cc1ccc(N=[N+]=[N-])cc1)C(=O)OCCOCCOCCOCCOC(=O)c1ccc(-c2c3nc(c(-c4c(F)cc(S(=O)(=O)[O-])cc4F)c4ccc([nH]4)c(-c4c(F)cc(S(=O)(=O)[O-])cc4F)c4nc(c(-c5c(F)cc(S(=O)(=O)[O-])cc5F)c5ccc2[nH]5)C=C4)C=C3)cc1
REMARK SMILES IDX 28 1 27 2 26 3 25 4 24 5 23 6 22 7 20 8 21 9 9 10 8 11 6 12
REMARK SMILES IDX 7 13 5 15 2 16 1 17 3 18 4 19 10 20 11 21 12 22 19 23 13 24
REMARK SMILES IDX 18 25 14 26 15 27 16 28 17 29 29 30 30 31 31 32 32 33 33 34
REMARK SMILES IDX 34 35 35 36 36 37 37 38 38 39 102 40 39 41 101 42 40 43
REMARK SMILES IDX 41 44 42 45 95 46 43 47 100 48 94 49 96 50 44 51 99 52 93 53
REMARK SMILES IDX 92 54 45 56 79 57 58 58 78 59 59 60 62 61 77 62 97 63 60 64
REMARK SMILES IDX 61 65 76 67 98 68 63 69 46 70 47 71 56 72 48 73 49 74 55 75
REMARK SMILES IDX 57 76 50 77 51 78 52 79 53 80 54 81 80 82 81 83 90 84 82 85
REMARK SMILES IDX 83 86 89 87 91 88 84 89 85 90 86 91 87 92 88 93 64 94 65 95
REMARK SMILES IDX 74 96 66 97 67 98 73 99 75 100 68 101 69 102 70 103 71 104
REMARK SMILES IDX 72 105
REMARK H PARENT 8 14 96 55 62 66
REMARK Flexibility Score: inf
ROOT
ATOM      1  O   UNL A   1      38.995  24.015  26.920  1.00  0.00    -0.377 OA
ENDROOT
BRANCH   1   2
ATOM      2  C   UNL A   1      39.422  22.722  26.553  1.00  0.00     0.188 C 
BRANCH   2   3
ATOM      3  C   UNL A   1      38.557  21.761  25.727  1.00  0.00     0.188 C 
BRANCH   3   4
ATOM      4  O   UNL A   1      37.759  22.238  24.665  1.00  0.00    -0.376 OA
BRANCH   4   5
ATOM      5  C   UNL A   1      36.353  22.286  24.570  1.00  0.00     0.202 C 
BRANCH   5   6
ATOM      6  C   UNL A   1      35.452  23.327  23.881  1.00  0.00     0.261 C 
BRANCH   6   7
ATOM      7  O   UNL A   1      34.932  23.121  22.573  1.00  0.00    -0.462 OA
BRANCH   7   8
ATOM      8  C   UNL A   1      33.628  23.446  22.384  1.00  0.00     0.329 C 
ATOM      9  O   UNL A   1      33.248  24.404  21.722  1.00  0.00    -0.250 OA
BRANCH   8  10
ATOM     10  C   UNL A   1      32.676  22.511  23.162  1.00  0.00     0.199 C 
BRANCH  10  11
ATOM     11  N   UNL A   1      32.574  21.212  22.500  1.00  0.00    -0.308 N 
ATOM     12  C   UNL A   1      32.127  20.069  23.101  1.00  0.00     0.408 C 
ATOM     13  O   UNL A   1      31.862  19.065  22.461  1.00  0.00    -0.225 OA
ATOM     14  H   UNL A   1      32.848  21.156  21.556  1.00  0.00     0.168 HD
BRANCH  12  15
ATOM     15  O   UNL A   1      32.106  20.188  24.443  1.00  0.00    -0.444 OA
BRANCH  15  16
ATOM     16  C   UNL A   1      33.144  19.661  25.300  1.00  0.00     0.106 C 
ATOM     17  C   UNL A   1      33.408  20.743  26.367  1.00  0.00     0.056 C 
ATOM     18  C   UNL A   1      34.438  19.456  24.507  1.00  0.00     0.056 C 
ATOM     19  C   UNL A   1      32.651  18.401  26.002  1.00  0.00     0.056 C 
ENDBRANCH  15  16
ENDBRANCH  12  15
ENDBRANCH  10  11
BRANCH  10  20
ATOM     20  C   UNL A   1      31.307  23.192  23.366  1.00  0.00     0.072 C 
BRANCH  20  21
ATOM     21  C   UNL A   1      31.223  24.311  24.368  1.00  0.00    -0.045 A 
ATOM     22  C   UNL A   1      31.861  24.171  25.609  1.00  0.00     0.004 A 
ATOM     23  C   UNL A   1      30.473  25.460  24.115  1.00  0.00     0.004 A 
ATOM     24  C   UNL A   1      31.772  25.179  26.568  1.00  0.00     0.010 A 
ATOM     25  C   UNL A   1      30.383  26.464  25.084  1.00  0.00     0.010 A 
ATOM     26  C   UNL A   1      31.046  26.346  26.316  1.00  0.00     0.038 A 
BRANCH  26  27
ATOM     27  N   UNL A   1      30.979  27.302  27.344  1.00  0.00    -0.061 NA
ATOM     28  N   UNL A   1      31.806  28.222  27.265  1.00  0.00     0.005 N 
ATOM     29  N   UNL A   1      32.558  29.083  27.191  1.00  0.00    -0.003 NA
ENDBRANCH  26  27
ENDBRANCH  20  21
ENDBRANCH  10  20
ENDBRANCH   8  10
ENDBRANCH   7   8
ENDBRANCH   6   7
ENDBRANCH   5   6
ENDBRANCH   4   5
ENDBRANCH   3   4
ENDBRANCH   2   3
ENDBRANCH   1   2
BRANCH   1  30
ATOM     30  C   UNL A   1      39.997  24.852  27.462  1.00  0.00     0.188 C 
BRANCH  30  31
ATOM     31  C   UNL A   1      40.038  26.194  26.726  1.00  0.00     0.188 C 
BRANCH  31  32
ATOM     32  O   UNL A   1      41.255  26.401  26.027  1.00  0.00    -0.376 OA
BRANCH  32  33
ATOM     33  C   UNL A   1      41.984  25.289  25.520  1.00  0.00     0.202 C 
BRANCH  33  34
ATOM     34  C   UNL A   1      43.528  25.223  25.450  1.00  0.00     0.261 C 
BRANCH  34  35
ATOM     35  O   UNL A   1      44.245  24.618  26.537  1.00  0.00    -0.460 OA
BRANCH  35  36
ATOM     36  C   UNL A   1      45.031  25.406  27.295  1.00  0.00     0.338 C 
ATOM     37  O   UNL A   1      46.235  25.551  27.192  1.00  0.00    -0.246 OA
BRANCH  36  38
ATOM     38  C   UNL A   1      44.140  26.251  28.126  1.00  0.00     0.060 A 
ATOM     39  C   UNL A   1      44.301  27.642  28.064  1.00  0.00     0.016 A 
ATOM     40  C   UNL A   1      43.142  25.693  28.933  1.00  0.00     0.016 A 
ATOM     41  C   UNL A   1      43.509  28.474  28.848  1.00  0.00     0.010 A 
ATOM     42  C   UNL A   1      42.371  26.529  29.750  1.00  0.00     0.010 A 
ATOM     43  C   UNL A   1      42.592  27.917  29.748  1.00  0.00    -0.014 A 
BRANCH  43  44
ATOM     44  C   UNL A   1      42.115  28.774  30.860  1.00  0.00     0.031 A 
ATOM     45  C   UNL A   1      42.935  28.796  32.125  1.00  0.00     0.074 A 
ATOM     46  C   UNL A   1      41.061  29.598  30.718  1.00  0.00     0.049 A 
ATOM     47  N   UNL A   1      42.781  29.514  33.206  1.00  0.00    -0.248 NA
ATOM     48  C   UNL A   1      44.091  27.884  32.170  1.00  0.00     0.031 C 
ATOM     49  C   UNL A   1      40.225  29.705  29.524  1.00  0.00     0.029 A 
ATOM     50  N   UNL A   1      40.526  30.513  31.589  1.00  0.00    -0.354 N 
ATOM     51  C   UNL A   1      43.819  29.143  34.055  1.00  0.00     0.074 A 
ATOM     52  C   UNL A   1      44.568  28.106  33.385  1.00  0.00     0.031 C 
ATOM     53  C   UNL A   1      39.278  30.637  29.739  1.00  0.00     0.029 A 
ATOM     54  C   UNL A   1      39.429  31.174  31.091  1.00  0.00     0.049 A 
ATOM     55  H   UNL A   1      40.895  30.681  32.486  1.00  0.00     0.167 HD
ATOM     56  C   UNL A   1      44.128  29.633  35.278  1.00  0.00     0.037 A 
ATOM     57  C   UNL A   1      38.635  32.099  31.668  1.00  0.00     0.037 A 
ATOM     58  C   UNL A   1      43.374  30.662  35.943  1.00  0.00     0.049 A 
ATOM     59  C   UNL A   1      38.961  32.583  33.059  1.00  0.00     0.074 A 
ATOM     60  C   UNL A   1      43.601  31.229  37.184  1.00  0.00     0.029 A 
ATOM     61  N   UNL A   1      42.242  31.274  35.425  1.00  0.00    -0.354 N 
ATOM     62  N   UNL A   1      39.952  32.234  33.847  1.00  0.00    -0.248 NA
ATOM     63  C   UNL A   1      38.070  33.600  33.633  1.00  0.00     0.031 C 
ATOM     64  C   UNL A   1      42.572  32.140  37.442  1.00  0.00     0.029 A 
ATOM     65  C   UNL A   1      41.746  32.197  36.331  1.00  0.00     0.049 A 
ATOM     66  H   UNL A   1      41.848  31.081  34.544  1.00  0.00     0.167 HD
ATOM     67  C   UNL A   1      39.825  33.017  34.992  1.00  0.00     0.074 A 
ATOM     68  C   UNL A   1      38.669  33.865  34.786  1.00  0.00     0.031 C 
ATOM     69  C   UNL A   1      40.596  33.039  36.110  1.00  0.00     0.037 A 
BRANCH  56  70
ATOM     70  C   UNL A   1      45.311  29.031  35.988  1.00  0.00     0.058 A 
ATOM     71  C   UNL A   1      46.617  29.515  35.804  1.00  0.00     0.135 A 
ATOM     72  C   UNL A   1      45.131  27.964  36.882  1.00  0.00     0.135 A 
ATOM     73  F   UNL A   1      46.852  30.517  34.942  1.00  0.00    -0.206 F 
ATOM     74  C   UNL A   1      47.704  28.947  36.461  1.00  0.00     0.059 A 
ATOM     75  C   UNL A   1      46.199  27.401  37.575  1.00  0.00     0.059 A 
ATOM     76  F   UNL A   1      43.907  27.455  37.089  1.00  0.00    -0.206 F 
ATOM     77  C   UNL A   1      47.483  27.891  37.348  1.00  0.00     0.060 A 
BRANCH  77  78
ATOM     78  S   UNL A   1      48.901  27.173  38.202  1.00  0.00     0.124 S 
ATOM     79  O   UNL A   1      48.988  25.858  37.571  1.00  0.00    -0.237 OA
ATOM     80  O   UNL A   1      49.971  28.108  37.869  1.00  0.00    -0.237 OA
ATOM     81  O   UNL A   1      48.489  27.168  39.603  1.00  0.00    -0.744 OA
ENDBRANCH  77  78
ENDBRANCH  56  70
BRANCH  57  82
ATOM     82  C   UNL A   1      37.453  32.632  30.936  1.00  0.00     0.058 A 
ATOM     83  C   UNL A   1      36.158  32.155  31.187  1.00  0.00     0.135 A 
ATOM     84  C   UNL A   1      37.602  33.625  29.953  1.00  0.00     0.135 A 
ATOM     85  F   UNL A   1      35.962  31.198  32.107  1.00  0.00    -0.206 F 
ATOM     86  C   UNL A   1      35.056  32.626  30.479  1.00  0.00     0.059 A 
ATOM     87  C   UNL A   1      36.511  34.134  29.254  1.00  0.00     0.059 A 
ATOM     88  F   UNL A   1      38.817  34.124  29.679  1.00  0.00    -0.206 F 
ATOM     89  C   UNL A   1      35.243  33.620  29.517  1.00  0.00     0.060 A 
BRANCH  89  90
ATOM     90  S   UNL A   1      33.799  34.260  28.641  1.00  0.00     0.124 S 
ATOM     91  O   UNL A   1      33.442  33.128  27.794  1.00  0.00    -0.237 OA
ATOM     92  O   UNL A   1      32.884  34.554  29.739  1.00  0.00    -0.237 OA
ATOM     93  O   UNL A   1      34.323  35.430  27.942  1.00  0.00    -0.744 OA
ENDBRANCH  89  90
ENDBRANCH  57  82
BRANCH  69  94
ATOM     94  C   UNL A   1      40.251  34.053  37.170  1.00  0.00     0.058 A 
ATOM     95  C   UNL A   1      39.264  33.819  38.140  1.00  0.00     0.135 A 
ATOM     96  C   UNL A   1      40.937  35.279  37.221  1.00  0.00     0.135 A 
ATOM     97  F   UNL A   1      38.579  32.664  38.142  1.00  0.00    -0.206 F 
ATOM     98  C   UNL A   1      38.927  34.785  39.084  1.00  0.00     0.059 A 
ATOM     99  C   UNL A   1      40.644  36.244  38.180  1.00  0.00     0.059 A 
ATOM    100  F   UNL A   1      41.905  35.551  36.332  1.00  0.00    -0.206 F 
ATOM    101  C   UNL A   1      39.619  35.997  39.091  1.00  0.00     0.060 A 
BRANCH 101 102
ATOM    102  S   UNL A   1      39.161  37.250  40.307  1.00  0.00     0.124 S 
ATOM    103  O   UNL A   1      40.469  37.684  40.787  1.00  0.00    -0.237 OA
ATOM    104  O   UNL A   1      38.429  38.218  39.497  1.00  0.00    -0.237 OA
ATOM    105  O   UNL A   1      38.353  36.510  41.271  1.00  0.00    -0.744 OA
ENDBRANCH 101 102
ENDBRANCH  69  94
ENDBRANCH  43  44
ENDBRANCH  36  38
ENDBRANCH  35  36
ENDBRANCH  34  35
ENDBRANCH  33  34
ENDBRANCH  32  33
ENDBRANCH  31  32
ENDBRANCH  30  31
ENDBRANCH   1  30
TORSDOF 29
ENDMDL
MODEL 3
REMARK VINA RESULT:      -8.6      6.838      7.836
REMARK SMILES CC(C)(C)OC(=O)N[C@H](Cc1ccc(N=[N+]=[N-])cc1)C(=O)OCCOCCOCCOCCOC(=O)c1ccc(-c2c3nc(c(-c4c(F)cc(S(=O)(=O)[O-])cc4F)c4ccc([nH]4)c(-c4c(F)cc(S(=O)(=O)[O-])cc4F)c4nc(c(-c5c(F)cc(S(=O)(=O)[O-])cc5F)c5ccc2[nH]5)C=C4)C=C3)cc1
REMARK SMILES IDX 28 1 27 2 26 3 25 4 24 5 23 6 22 7 20 8 21 9 9 10 8 11 6 12
REMARK SMILES IDX 7 13 5 15 2 16 1 17 3 18 4 19 10 20 11 21 12 22 19 23 13 24
REMARK SMILES IDX 18 25 14 26 15 27 16 28 17 29 29 30 30 31 31 32 32 33 33 34
REMARK SMILES IDX 34 35 35 36 36 37 37 38 38 39 102 40 39 41 101 42 40 43
REMARK SMILES IDX 41 44 42 45 95 46 43 47 100 48 94 49 96 50 44 51 99 52 93 53
REMARK SMILES IDX 92 54 45 56 79 57 58 58 78 59 59 60 62 61 77 62 97 63 60 64
REMARK SMILES IDX 61 65 76 67 98 68 63 69 46 70 47 71 56 72 48 73 49 74 55 75
REMARK SMILES IDX 57 76 50 77 51 78 52 79 53 80 54 81 80 82 81 83 90 84 82 85
REMARK SMILES IDX 83 86 89 87 91 88 84 89 85 90 86 91 87 92 88 93 64 94 65 95
REMARK SMILES IDX 74 96 66 97 67 98 73 99 75 100 68 101 69 102 70 103 71 104
REMARK SMILES IDX 72 105
REMARK H PARENT 8 14 96 55 62 66
REMARK Flexibility Score: inf
ROOT
ATOM      1  O   UNL A   1      41.824  20.172  25.698  1.00  0.00    -0.377 OA
ENDROOT
BRANCH   1   2
ATOM      2  C   UNL A   1      40.975  20.713  26.684  1.00  0.00     0.188 C 
BRANCH   2   3
ATOM      3  C   UNL A   1      39.947  21.814  26.387  1.00  0.00     0.188 C 
BRANCH   3   4
ATOM      4  O   UNL A   1      38.642  21.488  25.958  1.00  0.00    -0.376 OA
BRANCH   4   5
ATOM      5  C   UNL A   1      37.727  22.280  25.235  1.00  0.00     0.202 C 
BRANCH   5   6
ATOM      6  C   UNL A   1      37.334  23.755  25.436  1.00  0.00     0.261 C 
BRANCH   6   7
ATOM      7  O   UNL A   1      35.985  24.150  25.651  1.00  0.00    -0.462 OA
BRANCH   7   8
ATOM      8  C   UNL A   1      35.071  23.678  24.766  1.00  0.00     0.329 C 
ATOM      9  O   UNL A   1      35.138  23.845  23.555  1.00  0.00    -0.250 OA
BRANCH   8  10
ATOM     10  C   UNL A   1      33.892  22.968  25.467  1.00  0.00     0.199 C 
BRANCH  10  11
ATOM     11  N   UNL A   1      33.189  23.890  26.356  1.00  0.00    -0.308 N 
ATOM     12  C   UNL A   1      32.004  24.503  26.058  1.00  0.00     0.408 C 
ATOM     13  O   UNL A   1      31.352  25.094  26.903  1.00  0.00    -0.225 OA
ATOM     14  H   UNL A   1      33.597  24.085  27.231  1.00  0.00     0.168 HD
BRANCH  12  15
ATOM     15  O   UNL A   1      31.724  24.430  24.742  1.00  0.00    -0.444 OA
BRANCH  15  16
ATOM     16  C   UNL A   1      31.670  25.589  23.879  1.00  0.00     0.106 C 
ATOM     17  C   UNL A   1      31.955  25.075  22.454  1.00  0.00     0.056 C 
ATOM     18  C   UNL A   1      32.773  26.583  24.251  1.00  0.00     0.056 C 
ATOM     19  C   UNL A   1      30.270  26.191  23.904  1.00  0.00     0.056 C 
ENDBRANCH  15  16
ENDBRANCH  12  15
ENDBRANCH  10  11
BRANCH  10  20
ATOM     20  C   UNL A   1      34.386  21.696  26.187  1.00  0.00     0.072 C 
BRANCH  20  21
ATOM     21  C   UNL A   1      34.111  20.369  25.533  1.00  0.00    -0.045 A 
ATOM     22  C   UNL A   1      32.807  19.855  25.544  1.00  0.00     0.004 A 
ATOM     23  C   UNL A   1      35.137  19.609  24.969  1.00  0.00     0.004 A 
ATOM     24  C   UNL A   1      32.530  18.613  24.974  1.00  0.00     0.010 A 
ATOM     25  C   UNL A   1      34.853  18.362  24.404  1.00  0.00     0.010 A 
ATOM     26  C   UNL A   1      33.544  17.855  24.383  1.00  0.00     0.038 A 
BRANCH  26  27
ATOM     27  N   UNL A   1      33.192  16.600  23.856  1.00  0.00    -0.061 NA
ATOM     28  N   UNL A   1      33.326  15.644  24.634  1.00  0.00     0.005 N 
ATOM     29  N   UNL A   1      33.433  14.757  25.351  1.00  0.00    -0.003 NA
ENDBRANCH  26  27
ENDBRANCH  20  21
ENDBRANCH  10  20
ENDBRANCH   8  10
ENDBRANCH   7   8
ENDBRANCH   6   7
ENDBRANCH   5   6
ENDBRANCH   4   5
ENDBRANCH   3   4
ENDBRANCH   2   3
ENDBRANCH   1   2
BRANCH   1  30
ATOM     30  C   UNL A   1      43.198  20.470  25.853  1.00  0.00     0.188 C 
BRANCH  30  31
ATOM     31  C   UNL A   1      43.506  21.882  25.348  1.00  0.00     0.188 C 
BRANCH  31  32
ATOM     32  O   UNL A   1      44.395  22.588  26.198  1.00  0.00    -0.376 OA
BRANCH  32  33
ATOM     33  C   UNL A   1      45.016  23.785  25.745  1.00  0.00     0.202 C 
BRANCH  33  34
ATOM     34  C   UNL A   1      44.329  25.172  25.742  1.00  0.00     0.261 C 
BRANCH  34  35
ATOM     35  O   UNL A   1      44.587  26.073  26.829  1.00  0.00    -0.460 OA
BRANCH  35  36
ATOM     36  C   UNL A   1      43.549  26.761  27.342  1.00  0.00     0.338 C 
ATOM     37  O   UNL A   1      42.500  26.300  27.753  1.00  0.00    -0.246 OA
BRANCH  36  38
ATOM     38  C   UNL A   1      44.000  28.160  27.540  1.00  0.00     0.060 A 
ATOM     39  C   UNL A   1      44.983  28.408  28.508  1.00  0.00     0.016 A 
ATOM     40  C   UNL A   1      43.489  29.211  26.770  1.00  0.00     0.016 A 
ATOM     41  C   UNL A   1      45.415  29.708  28.750  1.00  0.00     0.010 A 
ATOM     42  C   UNL A   1      43.896  30.523  27.040  1.00  0.00     0.010 A 
ATOM     43  C   UNL A   1      44.820  30.777  28.069  1.00  0.00    -0.014 A 
BRANCH  43  44
ATOM     44  C   UNL A   1      44.963  32.131  28.658  1.00  0.00     0.031 A 
ATOM     45  C   UNL A   1      43.972  32.537  29.719  1.00  0.00     0.074 A 
ATOM     46  C   UNL A   1      46.002  32.929  28.355  1.00  0.00     0.049 A 
ATOM     47  N   UNL A   1      43.925  33.624  30.442  1.00  0.00    -0.248 NA
ATOM     48  C   UNL A   1      42.891  31.578  30.006  1.00  0.00     0.031 C 
ATOM     49  C   UNL A   1      47.052  32.621  27.386  1.00  0.00     0.029 A 
ATOM     50  N   UNL A   1      46.348  34.161  28.849  1.00  0.00    -0.354 N 
ATOM     51  C   UNL A   1      42.815  33.479  31.267  1.00  0.00     0.074 A 
ATOM     52  C   UNL A   1      42.191  32.221  30.926  1.00  0.00     0.031 C 
ATOM     53  C   UNL A   1      47.928  33.643  27.356  1.00  0.00     0.029 A 
ATOM     54  C   UNL A   1      47.488  34.683  28.286  1.00  0.00     0.049 A 
ATOM     55  H   UNL A   1      45.828  34.628  29.543  1.00  0.00     0.167 HD
ATOM     56  C   UNL A   1      42.363  34.312  32.234  1.00  0.00     0.037 A 
ATOM     57  C   UNL A   1      48.098  35.867  28.494  1.00  0.00     0.037 A 
ATOM     58  C   UNL A   1      42.985  35.566  32.565  1.00  0.00     0.049 A 
ATOM     59  C   UNL A   1      47.538  36.810  29.531  1.00  0.00     0.074 A 
ATOM     60  C   UNL A   1      42.607  36.486  33.526  1.00  0.00     0.029 A 
ATOM     61  N   UNL A   1      44.112  36.080  31.941  1.00  0.00    -0.354 N 
ATOM     62  N   UNL A   1      46.495  36.656  30.313  1.00  0.00    -0.248 NA
ATOM     63  C   UNL A   1      48.249  38.081  29.724  1.00  0.00     0.031 C 
ATOM     64  C   UNL A   1      43.469  37.585  33.441  1.00  0.00     0.029 A 
ATOM     65  C   UNL A   1      44.430  37.316  32.480  1.00  0.00     0.049 A 
ATOM     66  H   UNL A   1      44.612  35.634  31.220  1.00  0.00     0.167 HD
ATOM     67  C   UNL A   1      46.449  37.792  31.118  1.00  0.00     0.074 A 
ATOM     68  C   UNL A   1      47.577  38.616  30.734  1.00  0.00     0.031 C 
ATOM     69  C   UNL A   1      45.561  38.123  32.091  1.00  0.00     0.037 A 
BRANCH  56  70
ATOM     70  C   UNL A   1      41.115  33.907  32.972  1.00  0.00     0.058 A 
ATOM     71  C   UNL A   1      41.161  33.178  34.171  1.00  0.00     0.135 A 
ATOM     72  C   UNL A   1      39.852  34.273  32.478  1.00  0.00     0.135 A 
ATOM     73  F   UNL A   1      42.339  32.780  34.676  1.00  0.00    -0.206 F 
ATOM     74  C   UNL A   1      40.000  32.804  34.842  1.00  0.00     0.059 A 
ATOM     75  C   UNL A   1      38.679  33.938  33.149  1.00  0.00     0.059 A 
ATOM     76  F   UNL A   1      39.748  34.962  31.331  1.00  0.00    -0.206 F 
ATOM     77  C   UNL A   1      38.763  33.193  34.323  1.00  0.00     0.060 A 
BRANCH  77  78
ATOM     78  S   UNL A   1      37.267  32.712  35.209  1.00  0.00     0.124 S 
ATOM     79  O   UNL A   1      36.804  33.998  35.723  1.00  0.00    -0.237 OA
ATOM     80  O   UNL A   1      36.454  32.122  34.151  1.00  0.00    -0.237 OA
ATOM     81  O   UNL A   1      37.755  31.774  36.217  1.00  0.00    -0.744 OA
ENDBRANCH  77  78
ENDBRANCH  56  70
BRANCH  57  82
ATOM     82  C   UNL A   1      49.307  36.235  27.707  1.00  0.00     0.058 A 
ATOM     83  C   UNL A   1      50.601  36.003  28.199  1.00  0.00     0.135 A 
ATOM     84  C   UNL A   1      49.189  36.843  26.447  1.00  0.00     0.135 A 
ATOM     85  F   UNL A   1      50.769  35.435  29.403  1.00  0.00    -0.206 F 
ATOM     86  C   UNL A   1      51.733  36.378  27.481  1.00  0.00     0.059 A 
ATOM     87  C   UNL A   1      50.306  37.199  25.697  1.00  0.00     0.059 A 
ATOM     88  F   UNL A   1      47.976  37.080  25.925  1.00  0.00    -0.206 F 
ATOM     89  C   UNL A   1      51.575  36.971  26.228  1.00  0.00     0.060 A 
BRANCH  89  90
ATOM     90  S   UNL A   1      53.051  37.407  25.283  1.00  0.00     0.124 S 
ATOM     91  O   UNL A   1      54.068  36.586  25.928  1.00  0.00    -0.237 OA
ATOM     92  O   UNL A   1      52.672  37.013  23.930  1.00  0.00    -0.237 OA
ATOM     93  O   UNL A   1      53.172  38.847  25.496  1.00  0.00    -0.744 OA
ENDBRANCH  89  90
ENDBRANCH  57  82
BRANCH  69  94
ATOM     94  C   UNL A   1      45.807  39.401  32.849  1.00  0.00     0.058 A 
ATOM     95  C   UNL A   1      46.607  39.448  34.002  1.00  0.00     0.135 A 
ATOM     96  C   UNL A   1      45.241  40.607  32.400  1.00  0.00     0.135 A 
ATOM     97  F   UNL A   1      47.177  38.328  34.475  1.00  0.00    -0.206 F 
ATOM     98  C   UNL A   1      46.787  40.629  34.716  1.00  0.00     0.059 A 
ATOM     99  C   UNL A   1      45.440  41.807  33.075  1.00  0.00     0.059 A 
ATOM    100  F   UNL A   1      44.484  40.629  31.292  1.00  0.00    -0.206 F 
ATOM    101  C   UNL A   1      46.194  41.802  34.247  1.00  0.00     0.060 A 
BRANCH 101 102
ATOM    102  S   UNL A   1      46.418  43.324  35.192  1.00  0.00     0.124 S 
ATOM    103  O   UNL A   1      45.037  43.683  35.500  1.00  0.00    -0.237 OA
ATOM    104  O   UNL A   1      47.225  42.876  36.321  1.00  0.00    -0.237 OA
ATOM    105  O   UNL A   1      47.101  44.210  34.253  1.00  0.00    -0.744 OA
ENDBRANCH 101 102
ENDBRANCH  69  94
ENDBRANCH  43  44
ENDBRANCH  36  38
ENDBRANCH  35  36
ENDBRANCH  34  35
ENDBRANCH  33  34
ENDBRANCH  32  33
ENDBRANCH  31  32
ENDBRANCH  30  31
ENDBRANCH   1  30
TORSDOF 29
ENDMDL
