MODEL 1
REMARK VINA RESULT:      -9.7      0.000      0.000
REMARK SMILES O=C(OCCOCCOCCOCCOC(=O)[C@@H]1C[C@@H](O)CN1C(=O)c1ccccc1)c1ccc(-c2c3nc(c(-c4c(F)cc(S(=O)(=O)[O-])cc4F)c4ccc([nH]4)c(-c4c(F)cc(S(=O)(=O)[O-])cc4F)c4nc(c(-c5c(F)cc(S(=O)(=O)[O-])cc5F)c5ccc2[nH]5)C=C4)C=C3)cc1
REMARK SMILES IDX 8 1 7 2 6 3 5 4 4 5 3 6 2 7 1 8 32 9 33 10 97 11 34 12 96 13
REMARK SMILES IDX 35 14 36 15 37 16 90 17 38 18 95 19 89 20 91 21 39 22 94 23
REMARK SMILES IDX 88 24 87 25 40 27 74 28 53 29 73 30 54 31 57 32 72 33 92 34
REMARK SMILES IDX 55 35 56 36 71 38 93 39 58 40 41 41 42 42 51 43 43 44 44 45
REMARK SMILES IDX 50 46 52 47 45 48 46 49 47 50 48 51 49 52 75 53 76 54 85 55
REMARK SMILES IDX 77 56 78 57 84 58 86 59 79 60 80 61 81 62 82 63 83 64 59 65
REMARK SMILES IDX 60 66 69 67 61 68 62 69 68 70 70 71 63 72 64 73 65 74 66 75
REMARK SMILES IDX 67 76 9 77 10 78 11 79 12 80 13 81 14 82 15 83 16 84 17 85
REMARK SMILES IDX 18 86 19 87 23 88 20 89 22 90 24 91 25 92 26 93 27 94 31 95
REMARK SMILES IDX 28 96 30 97 29 98 21 99
REMARK H PARENT 91 26 57 37 21 100
REMARK Flexibility Score: inf
ROOT
ATOM      1  C   UNL A   1      31.459  27.758  25.555  1.00  0.00     0.188 C 
ENDROOT
BRANCH   1   2
ATOM      2  C   UNL A   1      31.938  29.096  25.003  1.00  0.00     0.188 C 
BRANCH   2   3
ATOM      3  O   UNL A   1      32.769  29.786  25.932  1.00  0.00    -0.376 OA
BRANCH   3   4
ATOM      4  C   UNL A   1      32.190  30.917  26.580  1.00  0.00     0.202 C 
BRANCH   4   5
ATOM      5  C   UNL A   1      33.157  31.657  27.503  1.00  0.00     0.261 C 
BRANCH   5   6
ATOM      6  O   UNL A   1      34.142  30.790  28.078  1.00  0.00    -0.460 OA
BRANCH   6   7
ATOM      7  C   UNL A   1      35.167  31.119  28.905  1.00  0.00     0.338 C 
ATOM      8  O   UNL A   1      34.979  32.034  29.708  1.00  0.00    -0.246 OA
BRANCH   7   9
ATOM      9  C   UNL A   1      36.513  30.452  28.917  1.00  0.00     0.060 A 
ATOM     10  C   UNL A   1      37.186  29.959  30.038  1.00  0.00     0.016 A 
ATOM     11  C   UNL A   1      37.121  30.262  27.663  1.00  0.00     0.016 A 
ATOM     12  C   UNL A   1      38.427  29.351  29.941  1.00  0.00     0.010 A 
ATOM     13  C   UNL A   1      38.373  29.655  27.550  1.00  0.00     0.010 A 
ATOM     14  C   UNL A   1      39.042  29.233  28.702  1.00  0.00    -0.014 A 
BRANCH  14  15
ATOM     15  C   UNL A   1      40.475  28.904  28.692  1.00  0.00     0.031 A 
ATOM     16  C   UNL A   1      41.421  29.971  29.159  1.00  0.00     0.074 A 
ATOM     17  C   UNL A   1      40.879  27.646  28.445  1.00  0.00     0.049 A 
ATOM     18  N   UNL A   1      42.722  29.966  29.200  1.00  0.00    -0.248 NA
ATOM     19  C   UNL A   1      40.807  31.213  29.665  1.00  0.00     0.031 C 
ATOM     20  C   UNL A   1      39.991  26.518  28.145  1.00  0.00     0.029 A 
ATOM     21  N   UNL A   1      42.131  27.097  28.433  1.00  0.00    -0.354 N 
ATOM     22  C   UNL A   1      43.083  31.207  29.709  1.00  0.00     0.074 A 
ATOM     23  C   UNL A   1      41.869  31.949  29.950  1.00  0.00     0.031 C 
ATOM     24  C   UNL A   1      40.733  25.410  27.980  1.00  0.00     0.029 A 
ATOM     25  C   UNL A   1      42.143  25.766  28.093  1.00  0.00     0.049 A 
ATOM     26  H   UNL A   1      42.946  27.607  28.649  1.00  0.00     0.167 HD
ATOM     27  C   UNL A   1      44.327  31.678  29.949  1.00  0.00     0.037 A 
ATOM     28  C   UNL A   1      43.190  24.953  27.856  1.00  0.00     0.037 A 
ATOM     29  C   UNL A   1      45.508  30.902  29.690  1.00  0.00     0.049 A 
ATOM     30  C   UNL A   1      44.571  25.540  28.002  1.00  0.00     0.074 A 
ATOM     31  C   UNL A   1      46.833  31.274  29.802  1.00  0.00     0.029 A 
ATOM     32  N   UNL A   1      45.492  29.578  29.263  1.00  0.00    -0.354 N 
ATOM     33  N   UNL A   1      44.915  26.747  28.397  1.00  0.00    -0.248 NA
ATOM     34  C   UNL A   1      45.702  24.672  27.662  1.00  0.00     0.031 C 
ATOM     35  C   UNL A   1      47.617  30.189  29.395  1.00  0.00     0.029 A 
ATOM     36  C   UNL A   1      46.784  29.121  29.091  1.00  0.00     0.049 A 
ATOM     37  H   UNL A   1      44.679  29.046  29.106  1.00  0.00     0.167 HD
ATOM     38  C   UNL A   1      46.304  26.775  28.376  1.00  0.00     0.074 A 
ATOM     39  C   UNL A   1      46.733  25.456  27.947  1.00  0.00     0.031 C 
ATOM     40  C   UNL A   1      47.154  27.789  28.677  1.00  0.00     0.037 A 
BRANCH  27  41
ATOM     41  C   UNL A   1      44.448  33.093  30.438  1.00  0.00     0.058 A 
ATOM     42  C   UNL A   1      44.515  34.186  29.557  1.00  0.00     0.135 A 
ATOM     43  C   UNL A   1      44.539  33.359  31.814  1.00  0.00     0.135 A 
ATOM     44  F   UNL A   1      44.474  33.989  28.230  1.00  0.00    -0.206 F 
ATOM     45  C   UNL A   1      44.693  35.486  30.022  1.00  0.00     0.059 A 
ATOM     46  C   UNL A   1      44.689  34.653  32.303  1.00  0.00     0.059 A 
ATOM     47  F   UNL A   1      44.501  32.352  32.700  1.00  0.00    -0.206 F 
ATOM     48  C   UNL A   1      44.779  35.709  31.398  1.00  0.00     0.060 A 
BRANCH  48  49
ATOM     49  S   UNL A   1      45.013  37.400  31.984  1.00  0.00     0.124 S 
ATOM     50  O   UNL A   1      45.671  37.178  33.267  1.00  0.00    -0.237 OA
ATOM     51  O   UNL A   1      45.848  37.979  30.936  1.00  0.00    -0.237 OA
ATOM     52  O   UNL A   1      43.653  37.925  32.059  1.00  0.00    -0.744 OA
ENDBRANCH  48  49
ENDBRANCH  27  41
BRANCH  28  53
ATOM     53  C   UNL A   1      42.979  23.551  27.397  1.00  0.00     0.058 A 
ATOM     54  C   UNL A   1      42.962  23.219  26.034  1.00  0.00     0.135 A 
ATOM     55  C   UNL A   1      42.766  22.511  28.318  1.00  0.00     0.135 A 
ATOM     56  F   UNL A   1      43.156  24.171  25.109  1.00  0.00    -0.206 F 
ATOM     57  C   UNL A   1      42.713  21.918  25.601  1.00  0.00     0.059 A 
ATOM     58  C   UNL A   1      42.547  21.198  27.911  1.00  0.00     0.059 A 
ATOM     59  F   UNL A   1      42.779  22.765  29.636  1.00  0.00    -0.206 F 
ATOM     60  C   UNL A   1      42.504  20.914  26.548  1.00  0.00     0.060 A 
BRANCH  60  61
ATOM     61  S   UNL A   1      42.188  19.231  25.977  1.00  0.00     0.124 S 
ATOM     62  O   UNL A   1      42.655  18.444  27.112  1.00  0.00    -0.237 OA
ATOM     63  O   UNL A   1      40.745  19.247  25.761  1.00  0.00    -0.237 OA
ATOM     64  O   UNL A   1      42.995  19.130  24.764  1.00  0.00    -0.744 OA
ENDBRANCH  60  61
ENDBRANCH  28  53
BRANCH  40  65
ATOM     65  C   UNL A   1      48.622  27.489  28.600  1.00  0.00     0.058 A 
ATOM     66  C   UNL A   1      49.374  27.772  27.451  1.00  0.00     0.135 A 
ATOM     67  C   UNL A   1      49.291  26.974  29.722  1.00  0.00     0.135 A 
ATOM     68  F   UNL A   1      48.776  28.260  26.353  1.00  0.00    -0.206 F 
ATOM     69  C   UNL A   1      50.741  27.529  27.408  1.00  0.00     0.059 A 
ATOM     70  C   UNL A   1      50.662  26.756  29.712  1.00  0.00     0.059 A 
ATOM     71  F   UNL A   1      48.614  26.701  30.849  1.00  0.00    -0.206 F 
ATOM     72  C   UNL A   1      51.376  27.026  28.546  1.00  0.00     0.060 A 
BRANCH  72  73
ATOM     73  S   UNL A   1      53.158  26.756  28.489  1.00  0.00     0.124 S 
ATOM     74  O   UNL A   1      53.281  25.853  27.350  1.00  0.00    -0.237 OA
ATOM     75  O   UNL A   1      53.671  28.108  28.285  1.00  0.00    -0.237 OA
ATOM     76  O   UNL A   1      53.454  26.168  29.791  1.00  0.00    -0.744 OA
ENDBRANCH  72  73
ENDBRANCH  40  65
ENDBRANCH  14  15
ENDBRANCH   7   9
ENDBRANCH   6   7
ENDBRANCH   5   6
ENDBRANCH   4   5
ENDBRANCH   3   4
ENDBRANCH   2   3
ENDBRANCH   1   2
BRANCH   1  77
ATOM     77  O   UNL A   1      30.460  27.113  24.782  1.00  0.00    -0.377 OA
BRANCH  77  78
ATOM     78  C   UNL A   1      30.376  27.464  23.407  1.00  0.00     0.188 C 
BRANCH  78  79
ATOM     79  C   UNL A   1      31.127  26.604  22.348  1.00  0.00     0.188 C 
BRANCH  79  80
ATOM     80  O   UNL A   1      32.448  27.024  22.038  1.00  0.00    -0.376 OA
BRANCH  80  81
ATOM     81  C   UNL A   1      33.488  26.095  22.347  1.00  0.00     0.202 C 
BRANCH  81  82
ATOM     82  C   UNL A   1      33.233  24.675  21.831  1.00  0.00     0.261 C 
BRANCH  82  83
ATOM     83  O   UNL A   1      33.852  23.709  22.697  1.00  0.00    -0.462 OA
BRANCH  83  84
ATOM     84  C   UNL A   1      33.222  23.341  23.838  1.00  0.00     0.329 C 
ATOM     85  O   UNL A   1      32.006  23.207  23.953  1.00  0.00    -0.250 OA
BRANCH  84  86
ATOM     86  C   UNL A   1      34.262  23.037  24.935  1.00  0.00     0.198 C 
ATOM     87  C   UNL A   1      35.492  23.947  24.780  1.00  0.00     0.071 C 
ATOM     88  N   UNL A   1      34.769  21.680  24.922  1.00  0.00    -0.322 N 
ATOM     89  C   UNL A   1      36.667  23.019  25.055  1.00  0.00     0.136 C 
ATOM     90  C   UNL A   1      36.175  21.662  24.549  1.00  0.00     0.152 C 
BRANCH  88  91
ATOM     91  C   UNL A   1      33.966  20.669  25.405  1.00  0.00     0.254 C 
ATOM     92  O   UNL A   1      33.302  20.764  26.432  1.00  0.00    -0.269 OA
BRANCH  91  93
ATOM     93  C   UNL A   1      33.835  19.444  24.611  1.00  0.00     0.040 A 
ATOM     94  C   UNL A   1      34.911  18.555  24.632  1.00  0.00     0.014 A 
ATOM     95  C   UNL A   1      32.692  19.180  23.856  1.00  0.00     0.014 A 
ATOM     96  C   UNL A   1      34.811  17.347  23.952  1.00  0.00     0.001 A 
ATOM     97  C   UNL A   1      32.592  17.963  23.186  1.00  0.00     0.001 A 
ATOM     98  C   UNL A   1      33.645  17.044  23.246  1.00  0.00     0.000 A 
ENDBRANCH  91  93
ENDBRANCH  88  91
BRANCH  89  99
ATOM     99  O   UNL A   1      36.913  22.967  26.466  1.00  0.00    -0.391 OA
ATOM    100  H   UNL A   1      37.820  23.262  26.646  1.00  0.00     0.211 HD
ENDBRANCH  89  99
ENDBRANCH  84  86
ENDBRANCH  83  84
ENDBRANCH  82  83
ENDBRANCH  81  82
ENDBRANCH  80  81
ENDBRANCH  79  80
ENDBRANCH  78  79
ENDBRANCH  77  78
ENDBRANCH   1  77
TORSDOF 26
ENDMDL
MODEL 2
REMARK VINA RESULT:      -9.7      2.132      3.138
REMARK SMILES O=C(OCCOCCOCCOCCOC(=O)[C@@H]1C[C@@H](O)CN1C(=O)c1ccccc1)c1ccc(-c2c3nc(c(-c4c(F)cc(S(=O)(=O)[O-])cc4F)c4ccc([nH]4)c(-c4c(F)cc(S(=O)(=O)[O-])cc4F)c4nc(c(-c5c(F)cc(S(=O)(=O)[O-])cc5F)c5ccc2[nH]5)C=C4)C=C3)cc1
REMARK SMILES IDX 8 1 7 2 6 3 5 4 4 5 3 6 2 7 1 8 32 9 33 10 97 11 34 12 96 13
REMARK SMILES IDX 35 14 36 15 37 16 90 17 38 18 95 19 89 20 91 21 39 22 94 23
REMARK SMILES IDX 88 24 87 25 40 27 74 28 53 29 73 30 54 31 57 32 72 33 92 34
REMARK SMILES IDX 55 35 56 36 71 38 93 39 58 40 41 41 42 42 51 43 43 44 44 45
REMARK SMILES IDX 50 46 52 47 45 48 46 49 47 50 48 51 49 52 75 53 76 54 85 55
REMARK SMILES IDX 77 56 78 57 84 58 86 59 79 60 80 61 81 62 82 63 83 64 59 65
REMARK SMILES IDX 60 66 69 67 61 68 62 69 68 70 70 71 63 72 64 73 65 74 66 75
REMARK SMILES IDX 67 76 9 77 10 78 11 79 12 80 13 81 14 82 15 83 16 84 17 85
REMARK SMILES IDX 18 86 19 87 23 88 20 89 22 90 24 91 25 92 26 93 27 94 31 95
REMARK SMILES IDX 28 96 30 97 29 98 21 99
REMARK H PARENT 91 26 57 37 21 100
REMARK Flexibility Score: inf
ROOT
ATOM      1  C   UNL A   1      31.754  30.147  26.610  1.00  0.00     0.188 C 
ENDROOT
BRANCH   1   2
ATOM      2  C   UNL A   1      33.233  30.431  26.846  1.00  0.00     0.188 C 
BRANCH   2   3
ATOM      3  O   UNL A   1      33.426  31.559  27.696  1.00  0.00    -0.376 OA
BRANCH   3   4
ATOM      4  C   UNL A   1      34.764  31.807  28.125  1.00  0.00     0.202 C 
BRANCH   4   5
ATOM      5  C   UNL A   1      34.856  32.442  29.510  1.00  0.00     0.261 C 
BRANCH   5   6
ATOM      6  O   UNL A   1      35.556  31.616  30.450  1.00  0.00    -0.460 OA
BRANCH   6   7
ATOM      7  C   UNL A   1      36.805  31.791  30.951  1.00  0.00     0.338 C 
ATOM      8  O   UNL A   1      36.951  32.638  31.833  1.00  0.00    -0.246 OA
BRANCH   7   9
ATOM      9  C   UNL A   1      38.024  31.031  30.511  1.00  0.00     0.060 A 
ATOM     10  C   UNL A   1      38.993  30.463  31.343  1.00  0.00     0.016 A 
ATOM     11  C   UNL A   1      38.163  30.832  29.126  1.00  0.00     0.016 A 
ATOM     12  C   UNL A   1      40.082  29.772  30.836  1.00  0.00     0.010 A 
ATOM     13  C   UNL A   1      39.257  30.142  28.600  1.00  0.00     0.010 A 
ATOM     14  C   UNL A   1      40.238  29.643  29.462  1.00  0.00    -0.014 A 
BRANCH  14  15
ATOM     15  C   UNL A   1      41.557  29.214  28.973  1.00  0.00     0.031 A 
ATOM     16  C   UNL A   1      42.666  30.221  29.039  1.00  0.00     0.074 A 
ATOM     17  C   UNL A   1      41.775  27.927  28.656  1.00  0.00     0.049 A 
ATOM     18  N   UNL A   1      43.899  30.126  28.630  1.00  0.00    -0.248 NA
ATOM     19  C   UNL A   1      42.341  31.513  29.673  1.00  0.00     0.031 C 
ATOM     20  C   UNL A   1      40.773  26.858  28.729  1.00  0.00     0.029 A 
ATOM     21  N   UNL A   1      42.911  27.291  28.237  1.00  0.00    -0.354 N 
ATOM     22  C   UNL A   1      44.486  31.348  28.930  1.00  0.00     0.074 A 
ATOM     23  C   UNL A   1      43.477  32.179  29.542  1.00  0.00     0.031 C 
ATOM     24  C   UNL A   1      41.345  25.698  28.366  1.00  0.00     0.029 A 
ATOM     25  C   UNL A   1      42.725  25.955  27.971  1.00  0.00     0.049 A 
ATOM     26  H   UNL A   1      43.778  27.747  28.137  1.00  0.00     0.167 HD
ATOM     27  C   UNL A   1      45.762  31.736  28.707  1.00  0.00     0.037 A 
ATOM     28  C   UNL A   1      43.575  25.067  27.423  1.00  0.00     0.037 A 
ATOM     29  C   UNL A   1      46.732  30.873  28.091  1.00  0.00     0.049 A 
ATOM     30  C   UNL A   1      44.954  25.558  27.060  1.00  0.00     0.074 A 
ATOM     31  C   UNL A   1      48.033  31.155  27.723  1.00  0.00     0.029 A 
ATOM     32  N   UNL A   1      46.491  29.546  27.752  1.00  0.00    -0.354 N 
ATOM     33  N   UNL A   1      45.484  26.746  27.260  1.00  0.00    -0.248 NA
ATOM     34  C   UNL A   1      45.844  24.606  26.389  1.00  0.00     0.031 C 
ATOM     35  C   UNL A   1      48.562  30.009  27.118  1.00  0.00     0.029 A 
ATOM     36  C   UNL A   1      47.613  28.997  27.165  1.00  0.00     0.049 A 
ATOM     37  H   UNL A   1      45.644  29.069  27.908  1.00  0.00     0.167 HD
ATOM     38  C   UNL A   1      46.779  26.676  26.760  1.00  0.00     0.074 A 
ATOM     39  C   UNL A   1      46.954  25.322  26.266  1.00  0.00     0.031 C 
ATOM     40  C   UNL A   1      47.738  27.634  26.706  1.00  0.00     0.037 A 
BRANCH  27  41
ATOM     41  C   UNL A   1      46.128  33.148  29.063  1.00  0.00     0.058 A 
ATOM     42  C   UNL A   1      46.587  33.502  30.344  1.00  0.00     0.135 A 
ATOM     43  C   UNL A   1      45.978  34.176  28.118  1.00  0.00     0.135 A 
ATOM     44  F   UNL A   1      46.711  32.568  31.300  1.00  0.00    -0.206 F 
ATOM     45  C   UNL A   1      46.860  34.824  30.680  1.00  0.00     0.059 A 
ATOM     46  C   UNL A   1      46.271  35.501  28.423  1.00  0.00     0.059 A 
ATOM     47  F   UNL A   1      45.524  33.899  26.886  1.00  0.00    -0.206 F 
ATOM     48  C   UNL A   1      46.698  35.818  29.711  1.00  0.00     0.060 A 
BRANCH  48  49
ATOM     49  S   UNL A   1      47.054  37.529  30.165  1.00  0.00     0.124 S 
ATOM     50  O   UNL A   1      45.779  38.179  29.878  1.00  0.00    -0.237 OA
ATOM     51  O   UNL A   1      47.400  37.409  31.578  1.00  0.00    -0.237 OA
ATOM     52  O   UNL A   1      48.157  37.893  29.281  1.00  0.00    -0.744 OA
ENDBRANCH  48  49
ENDBRANCH  27  41
BRANCH  28  53
ATOM     53  C   UNL A   1      43.136  23.674  27.125  1.00  0.00     0.058 A 
ATOM     54  C   UNL A   1      43.031  22.704  28.133  1.00  0.00     0.135 A 
ATOM     55  C   UNL A   1      42.832  23.277  25.812  1.00  0.00     0.135 A 
ATOM     56  F   UNL A   1      43.312  23.026  29.405  1.00  0.00    -0.206 F 
ATOM     57  C   UNL A   1      42.670  21.389  27.849  1.00  0.00     0.059 A 
ATOM     58  C   UNL A   1      42.438  21.977  25.507  1.00  0.00     0.059 A 
ATOM     59  F   UNL A   1      42.905  24.162  24.805  1.00  0.00    -0.206 F 
ATOM     60  C   UNL A   1      42.378  21.034  26.530  1.00  0.00     0.060 A 
BRANCH  60  61
ATOM     61  S   UNL A   1      41.906  19.329  26.173  1.00  0.00     0.124 S 
ATOM     62  O   UNL A   1      40.469  19.460  25.962  1.00  0.00    -0.237 OA
ATOM     63  O   UNL A   1      42.702  19.034  24.985  1.00  0.00    -0.237 OA
ATOM     64  O   UNL A   1      42.304  18.610  27.380  1.00  0.00    -0.744 OA
ENDBRANCH  60  61
ENDBRANCH  28  53
BRANCH  40  65
ATOM     65  C   UNL A   1      49.068  27.230  26.142  1.00  0.00     0.058 A 
ATOM     66  C   UNL A   1      49.334  27.286  24.767  1.00  0.00     0.135 A 
ATOM     67  C   UNL A   1      50.108  26.848  27.005  1.00  0.00     0.135 A 
ATOM     68  F   UNL A   1      48.368  27.639  23.904  1.00  0.00    -0.206 F 
ATOM     69  C   UNL A   1      50.583  26.950  24.260  1.00  0.00     0.059 A 
ATOM     70  C   UNL A   1      51.374  26.542  26.522  1.00  0.00     0.059 A 
ATOM     71  F   UNL A   1      49.904  26.794  28.330  1.00  0.00    -0.206 F 
ATOM     72  C   UNL A   1      51.598  26.585  25.148  1.00  0.00     0.060 A 
BRANCH  72  73
ATOM     73  S   UNL A   1      53.226  26.192  24.480  1.00  0.00     0.124 S 
ATOM     74  O   UNL A   1      53.334  24.771  24.787  1.00  0.00    -0.237 OA
ATOM     75  O   UNL A   1      53.071  26.527  23.067  1.00  0.00    -0.237 OA
ATOM     76  O   UNL A   1      54.121  27.067  25.231  1.00  0.00    -0.744 OA
ENDBRANCH  72  73
ENDBRANCH  40  65
ENDBRANCH  14  15
ENDBRANCH   7   9
ENDBRANCH   6   7
ENDBRANCH   5   6
ENDBRANCH   4   5
ENDBRANCH   3   4
ENDBRANCH   2   3
ENDBRANCH   1   2
BRANCH   1  77
ATOM     77  O   UNL A   1      31.322  30.290  25.267  1.00  0.00    -0.377 OA
BRANCH  77  78
ATOM     78  C   UNL A   1      31.151  29.100  24.508  1.00  0.00     0.188 C 
BRANCH  78  79
ATOM     79  C   UNL A   1      30.083  29.057  23.376  1.00  0.00     0.188 C 
BRANCH  79  80
ATOM     80  O   UNL A   1      29.373  27.834  23.245  1.00  0.00    -0.376 OA
BRANCH  80  81
ATOM     81  C   UNL A   1      29.931  26.710  23.928  1.00  0.00     0.202 C 
BRANCH  81  82
ATOM     82  C   UNL A   1      30.955  25.923  23.105  1.00  0.00     0.261 C 
BRANCH  82  83
ATOM     83  O   UNL A   1      30.788  24.510  23.315  1.00  0.00    -0.462 OA
BRANCH  83  84
ATOM     84  C   UNL A   1      31.875  23.703  23.290  1.00  0.00     0.329 C 
ATOM     85  O   UNL A   1      32.520  23.430  22.281  1.00  0.00    -0.250 OA
BRANCH  84  86
ATOM     86  C   UNL A   1      32.223  23.251  24.723  1.00  0.00     0.198 C 
ATOM     87  C   UNL A   1      30.959  22.781  25.463  1.00  0.00     0.071 C 
ATOM     88  N   UNL A   1      32.807  24.284  25.552  1.00  0.00    -0.322 N 
ATOM     89  C   UNL A   1      31.125  23.354  26.863  1.00  0.00     0.136 C 
ATOM     90  C   UNL A   1      31.899  24.652  26.628  1.00  0.00     0.152 C 
BRANCH  88  91
ATOM     91  C   UNL A   1      34.124  24.635  25.344  1.00  0.00     0.254 C 
ATOM     92  O   UNL A   1      34.542  25.785  25.442  1.00  0.00    -0.269 OA
BRANCH  91  93
ATOM     93  C   UNL A   1      35.093  23.571  25.069  1.00  0.00     0.040 A 
ATOM     94  C   UNL A   1      35.682  23.559  23.803  1.00  0.00     0.014 A 
ATOM     95  C   UNL A   1      35.409  22.604  26.024  1.00  0.00     0.014 A 
ATOM     96  C   UNL A   1      36.659  22.614  23.514  1.00  0.00     0.001 A 
ATOM     97  C   UNL A   1      36.397  21.665  25.733  1.00  0.00     0.001 A 
ATOM     98  C   UNL A   1      37.028  21.680  24.485  1.00  0.00     0.000 A 
ENDBRANCH  91  93
ENDBRANCH  88  91
BRANCH  89  99
ATOM     99  O   UNL A   1      31.900  22.448  27.660  1.00  0.00    -0.391 OA
ATOM    100  H   UNL A   1      32.050  21.629  27.163  1.00  0.00     0.211 HD
ENDBRANCH  89  99
ENDBRANCH  84  86
ENDBRANCH  83  84
ENDBRANCH  82  83
ENDBRANCH  81  82
ENDBRANCH  80  81
ENDBRANCH  79  80
ENDBRANCH  78  79
ENDBRANCH  77  78
ENDBRANCH   1  77
TORSDOF 26
ENDMDL
MODEL 3
REMARK VINA RESULT:      -9.3      1.940      8.314
REMARK SMILES O=C(OCCOCCOCCOCCOC(=O)[C@@H]1C[C@@H](O)CN1C(=O)c1ccccc1)c1ccc(-c2c3nc(c(-c4c(F)cc(S(=O)(=O)[O-])cc4F)c4ccc([nH]4)c(-c4c(F)cc(S(=O)(=O)[O-])cc4F)c4nc(c(-c5c(F)cc(S(=O)(=O)[O-])cc5F)c5ccc2[nH]5)C=C4)C=C3)cc1
REMARK SMILES IDX 8 1 7 2 6 3 5 4 4 5 3 6 2 7 1 8 32 9 33 10 97 11 34 12 96 13
REMARK SMILES IDX 35 14 36 15 37 16 90 17 38 18 95 19 89 20 91 21 39 22 94 23
REMARK SMILES IDX 88 24 87 25 40 27 74 28 53 29 73 30 54 31 57 32 72 33 92 34
REMARK SMILES IDX 55 35 56 36 71 38 93 39 58 40 41 41 42 42 51 43 43 44 44 45
REMARK SMILES IDX 50 46 52 47 45 48 46 49 47 50 48 51 49 52 75 53 76 54 85 55
REMARK SMILES IDX 77 56 78 57 84 58 86 59 79 60 80 61 81 62 82 63 83 64 59 65
REMARK SMILES IDX 60 66 69 67 61 68 62 69 68 70 70 71 63 72 64 73 65 74 66 75
REMARK SMILES IDX 67 76 9 77 10 78 11 79 12 80 13 81 14 82 15 83 16 84 17 85
REMARK SMILES IDX 18 86 19 87 23 88 20 89 22 90 24 91 25 92 26 93 27 94 31 95
REMARK SMILES IDX 28 96 30 97 29 98 21 99
REMARK H PARENT 91 26 57 37 21 100
REMARK Flexibility Score: inf
ROOT
ATOM      1  C   UNL A   1      32.453  30.163  26.057  1.00  0.00     0.188 C 
ENDROOT
BRANCH   1   2
ATOM      2  C   UNL A   1      33.785  30.124  26.798  1.00  0.00     0.188 C 
BRANCH   2   3
ATOM      3  O   UNL A   1      33.811  31.039  27.890  1.00  0.00    -0.376 OA
BRANCH   3   4
ATOM      4  C   UNL A   1      34.895  31.966  27.914  1.00  0.00     0.202 C 
BRANCH   4   5
ATOM      5  C   UNL A   1      35.222  32.491  29.311  1.00  0.00     0.261 C 
BRANCH   5   6
ATOM      6  O   UNL A   1      35.903  31.521  30.118  1.00  0.00    -0.460 OA
BRANCH   6   7
ATOM      7  C   UNL A   1      37.084  31.658  30.773  1.00  0.00     0.338 C 
ATOM      8  O   UNL A   1      37.106  32.397  31.758  1.00  0.00    -0.246 OA
BRANCH   7   9
ATOM      9  C   UNL A   1      38.366  30.976  30.390  1.00  0.00     0.060 A 
ATOM     10  C   UNL A   1      39.410  30.626  31.250  1.00  0.00     0.016 A 
ATOM     11  C   UNL A   1      38.492  30.611  29.037  1.00  0.00     0.016 A 
ATOM     12  C   UNL A   1      40.554  29.989  30.795  1.00  0.00     0.010 A 
ATOM     13  C   UNL A   1      39.641  29.973  28.564  1.00  0.00     0.010 A 
ATOM     14  C   UNL A   1      40.690  29.697  29.445  1.00  0.00    -0.014 A 
BRANCH  14  15
ATOM     15  C   UNL A   1      42.035  29.344  28.966  1.00  0.00     0.031 A 
ATOM     16  C   UNL A   1      42.245  27.931  28.511  1.00  0.00     0.074 A 
ATOM     17  C   UNL A   1      42.962  30.301  28.787  1.00  0.00     0.049 A 
ATOM     18  N   UNL A   1      43.333  27.345  28.098  1.00  0.00    -0.248 NA
ATOM     19  C   UNL A   1      41.054  27.061  28.505  1.00  0.00     0.031 C 
ATOM     20  C   UNL A   1      42.765  31.728  29.057  1.00  0.00     0.029 A 
ATOM     21  N   UNL A   1      44.242  30.225  28.311  1.00  0.00    -0.354 N 
ATOM     22  C   UNL A   1      42.965  26.037  27.811  1.00  0.00     0.074 A 
ATOM     23  C   UNL A   1      41.558  25.904  28.108  1.00  0.00     0.031 C 
ATOM     24  C   UNL A   1      43.888  32.393  28.739  1.00  0.00     0.029 A 
ATOM     25  C   UNL A   1      44.900  31.432  28.313  1.00  0.00     0.049 A 
ATOM     26  H   UNL A   1      44.652  29.387  27.996  1.00  0.00     0.167 HD
ATOM     27  C   UNL A   1      43.744  25.037  27.341  1.00  0.00     0.037 A 
ATOM     28  C   UNL A   1      46.191  31.702  28.044  1.00  0.00     0.037 A 
ATOM     29  C   UNL A   1      45.141  25.217  27.062  1.00  0.00     0.049 A 
ATOM     30  C   UNL A   1      47.074  30.546  27.649  1.00  0.00     0.074 A 
ATOM     31  C   UNL A   1      46.074  24.279  26.665  1.00  0.00     0.029 A 
ATOM     32  N   UNL A   1      45.805  26.436  27.155  1.00  0.00    -0.354 N 
ATOM     33  N   UNL A   1      46.746  29.285  27.465  1.00  0.00    -0.248 NA
ATOM     34  C   UNL A   1      48.495  30.836  27.437  1.00  0.00     0.031 C 
ATOM     35  C   UNL A   1      47.312  24.924  26.565  1.00  0.00     0.029 A 
ATOM     36  C   UNL A   1      47.139  26.274  26.838  1.00  0.00     0.049 A 
ATOM     37  H   UNL A   1      45.384  27.289  27.409  1.00  0.00     0.167 HD
ATOM     38  C   UNL A   1      47.917  28.636  27.092  1.00  0.00     0.074 A 
ATOM     39  C   UNL A   1      48.955  29.650  27.061  1.00  0.00     0.031 C 
ATOM     40  C   UNL A   1      48.126  27.326  26.806  1.00  0.00     0.037 A 
BRANCH  27  41
ATOM     41  C   UNL A   1      43.111  23.684  27.182  1.00  0.00     0.058 A 
ATOM     42  C   UNL A   1      42.952  22.801  28.263  1.00  0.00     0.135 A 
ATOM     43  C   UNL A   1      42.693  23.245  25.915  1.00  0.00     0.135 A 
ATOM     44  F   UNL A   1      43.370  23.151  29.490  1.00  0.00    -0.206 F 
ATOM     45  C   UNL A   1      42.424  21.525  28.089  1.00  0.00     0.059 A 
ATOM     46  C   UNL A   1      42.137  21.984  25.722  1.00  0.00     0.059 A 
ATOM     47  F   UNL A   1      42.840  24.039  24.843  1.00  0.00    -0.206 F 
ATOM     48  C   UNL A   1      42.019  21.126  26.813  1.00  0.00     0.060 A 
BRANCH  48  49
ATOM     49  S   UNL A   1      41.340  19.466  26.605  1.00  0.00     0.124 S 
ATOM     50  O   UNL A   1      40.332  19.689  25.573  1.00  0.00    -0.237 OA
ATOM     51  O   UNL A   1      42.511  18.701  26.191  1.00  0.00    -0.237 OA
ATOM     52  O   UNL A   1      40.820  19.143  27.930  1.00  0.00    -0.744 OA
ENDBRANCH  48  49
ENDBRANCH  27  41
BRANCH  28  53
ATOM     53  C   UNL A   1      46.731  33.082  28.204  1.00  0.00     0.058 A 
ATOM     54  C   UNL A   1      46.792  33.978  27.126  1.00  0.00     0.135 A 
ATOM     55  C   UNL A   1      47.222  33.527  29.443  1.00  0.00     0.135 A 
ATOM     56  F   UNL A   1      46.342  33.606  25.919  1.00  0.00    -0.206 F 
ATOM     57  C   UNL A   1      47.344  35.250  27.263  1.00  0.00     0.059 A 
ATOM     58  C   UNL A   1      47.748  34.804  29.613  1.00  0.00     0.059 A 
ATOM     59  F   UNL A   1      47.182  32.719  30.515  1.00  0.00    -0.206 F 
ATOM     60  C   UNL A   1      47.823  35.653  28.511  1.00  0.00     0.060 A 
BRANCH  60  61
ATOM     61  S   UNL A   1      48.531  37.305  28.678  1.00  0.00     0.124 S 
ATOM     62  O   UNL A   1      48.620  37.729  27.286  1.00  0.00    -0.237 OA
ATOM     63  O   UNL A   1      47.529  37.987  29.492  1.00  0.00    -0.237 OA
ATOM     64  O   UNL A   1      49.807  37.058  29.345  1.00  0.00    -0.744 OA
ENDBRANCH  60  61
ENDBRANCH  28  53
BRANCH  40  65
ATOM     65  C   UNL A   1      49.514  26.937  26.386  1.00  0.00     0.058 A 
ATOM     66  C   UNL A   1      50.483  26.542  27.318  1.00  0.00     0.135 A 
ATOM     67  C   UNL A   1      49.847  26.897  25.023  1.00  0.00     0.135 A 
ATOM     68  F   UNL A   1      50.211  26.571  28.632  1.00  0.00    -0.206 F 
ATOM     69  C   UNL A   1      51.751  26.144  26.914  1.00  0.00     0.059 A 
ATOM     70  C   UNL A   1      51.097  26.469  24.595  1.00  0.00     0.059 A 
ATOM     71  F   UNL A   1      48.946  27.253  24.094  1.00  0.00    -0.206 F 
ATOM     72  C   UNL A   1      52.045  26.106  25.549  1.00  0.00     0.060 A 
BRANCH  72  73
ATOM     73  S   UNL A   1      53.681  25.546  25.036  1.00  0.00     0.124 S 
ATOM     74  O   UNL A   1      54.519  26.063  26.112  1.00  0.00    -0.237 OA
ATOM     75  O   UNL A   1      53.516  24.095  25.000  1.00  0.00    -0.237 OA
ATOM     76  O   UNL A   1      53.865  26.183  23.736  1.00  0.00    -0.744 OA
ENDBRANCH  72  73
ENDBRANCH  40  65
ENDBRANCH  14  15
ENDBRANCH   7   9
ENDBRANCH   6   7
ENDBRANCH   5   6
ENDBRANCH   4   5
ENDBRANCH   3   4
ENDBRANCH   2   3
ENDBRANCH   1   2
BRANCH   1  77
ATOM     77  O   UNL A   1      32.353  29.275  24.955  1.00  0.00    -0.377 OA
BRANCH  77  78
ATOM     78  C   UNL A   1      31.392  28.232  25.047  1.00  0.00     0.188 C 
BRANCH  78  79
ATOM     79  C   UNL A   1      30.524  27.875  23.805  1.00  0.00     0.188 C 
BRANCH  79  80
ATOM     80  O   UNL A   1      30.720  26.575  23.269  1.00  0.00    -0.376 OA
BRANCH  80  81
ATOM     81  C   UNL A   1      31.422  26.509  22.027  1.00  0.00     0.202 C 
BRANCH  81  82
ATOM     82  C   UNL A   1      32.534  25.456  21.991  1.00  0.00     0.261 C 
BRANCH  82  83
ATOM     83  O   UNL A   1      32.599  24.755  23.245  1.00  0.00    -0.462 OA
BRANCH  83  84
ATOM     84  C   UNL A   1      33.473  23.730  23.386  1.00  0.00     0.329 C 
ATOM     85  O   UNL A   1      34.130  23.239  22.471  1.00  0.00    -0.250 OA
BRANCH  84  86
ATOM     86  C   UNL A   1      33.578  23.334  24.874  1.00  0.00     0.198 C 
ATOM     87  C   UNL A   1      34.830  23.959  25.511  1.00  0.00     0.071 C 
ATOM     88  N   UNL A   1      33.681  21.909  25.109  1.00  0.00    -0.322 N 
ATOM     89  C   UNL A   1      35.383  22.845  26.390  1.00  0.00     0.136 C 
ATOM     90  C   UNL A   1      34.994  21.572  25.639  1.00  0.00     0.152 C 
BRANCH  88  91
ATOM     91  C   UNL A   1      32.549  21.133  24.983  1.00  0.00     0.254 C 
ATOM     92  O   UNL A   1      31.481  21.402  25.525  1.00  0.00    -0.269 OA
BRANCH  91  93
ATOM     93  C   UNL A   1      32.597  19.970  24.094  1.00  0.00     0.040 A 
ATOM     94  C   UNL A   1      33.013  18.760  24.652  1.00  0.00     0.014 A 
ATOM     95  C   UNL A   1      32.252  20.065  22.745  1.00  0.00     0.014 A 
ATOM     96  C   UNL A   1      33.011  17.611  23.869  1.00  0.00     0.001 A 
ATOM     97  C   UNL A   1      32.240  18.908  21.969  1.00  0.00     0.001 A 
ATOM     98  C   UNL A   1      32.607  17.683  22.534  1.00  0.00     0.000 A 
ENDBRANCH  91  93
ENDBRANCH  88  91
BRANCH  89  99
ATOM     99  O   UNL A   1      34.739  22.886  27.671  1.00  0.00    -0.391 OA
ATOM    100  H   UNL A   1      35.338  22.525  28.344  1.00  0.00     0.211 HD
ENDBRANCH  89  99
ENDBRANCH  84  86
ENDBRANCH  83  84
ENDBRANCH  82  83
ENDBRANCH  81  82
ENDBRANCH  80  81
ENDBRANCH  79  80
ENDBRANCH  78  79
ENDBRANCH  77  78
ENDBRANCH   1  77
TORSDOF 26
ENDMDL
