MODEL 1
REMARK VINA RESULT:     -10.2      0.000      0.000
REMARK SMILES CC(=O)NS(=O)(=O)c1cc(-c2ccn(C(F)F)c(=O)c2)ccc1C(=O)OCCOCCOCCOCCOC(=O)c1ccc(-c2c3nc(c(-c4c(F)cc(S(=O)(=O)[O-])cc4F)c4ccc([nH]4)c(-c4c(F)cc(S(=O)(=O)[O-])cc4F)c4nc(c(-c5c(F)cc(S(=O)(=O)[O-])cc5F)c5ccc2[nH]5)C=C4)C=C3)cc1
REMARK SMILES IDX 33 1 32 2 31 3 30 4 29 5 28 6 27 7 26 8 24 9 25 10 23 11
REMARK SMILES IDX 8 12 9 13 10 14 22 15 21 16 5 17 6 18 7 19 4 20 1 21 2 22
REMARK SMILES IDX 3 23 11 25 12 26 20 27 13 28 18 29 14 30 19 31 15 32 16 33
REMARK SMILES IDX 17 34 34 35 35 36 36 37 37 38 38 39 39 40 40 41 41 42 42 43
REMARK SMILES IDX 106 44 43 45 105 46 44 47 45 48 46 49 99 50 47 51 104 52
REMARK SMILES IDX 98 53 100 54 48 55 103 56 97 57 96 58 49 60 83 61 62 62
REMARK SMILES IDX 82 63 63 64 66 65 81 66 101 67 64 68 65 69 80 71 102 72
REMARK SMILES IDX 67 73 50 74 51 75 60 76 52 77 53 78 59 79 61 80 54 81 55 82
REMARK SMILES IDX 56 83 57 84 58 85 84 86 85 87 94 88 86 89 87 90 93 91 95 92
REMARK SMILES IDX 88 93 89 94 90 95 91 96 92 97 68 98 69 99 78 100 70 101
REMARK SMILES IDX 71 102 77 103 79 104 72 105 73 106 74 107 75 108 76 109
REMARK H PARENT 4 24 100 59 66 70
REMARK Flexibility Score: inf
ROOT
ATOM      1  C   UNL A   1      35.334  23.163  22.974  1.00  0.00     0.188 C 
ENDROOT
BRANCH   1   2
ATOM      2  O   UNL A   1      34.949  24.516  23.174  1.00  0.00    -0.377 OA
BRANCH   2   3
ATOM      3  C   UNL A   1      33.722  24.981  22.643  1.00  0.00     0.188 C 
BRANCH   3   4
ATOM      4  C   UNL A   1      33.606  26.420  22.105  1.00  0.00     0.188 C 
BRANCH   4   5
ATOM      5  O   UNL A   1      33.049  27.370  23.004  1.00  0.00    -0.376 OA
BRANCH   5   6
ATOM      6  C   UNL A   1      33.971  28.166  23.734  1.00  0.00     0.202 C 
BRANCH   6   7
ATOM      7  C   UNL A   1      33.686  28.227  25.236  1.00  0.00     0.261 C 
BRANCH   7   8
ATOM      8  O   UNL A   1      33.755  26.959  25.914  1.00  0.00    -0.460 OA
BRANCH   8   9
ATOM      9  C   UNL A   1      32.604  26.482  26.414  1.00  0.00     0.339 C 
ATOM     10  O   UNL A   1      31.739  27.089  27.021  1.00  0.00    -0.246 OA
BRANCH   9  11
ATOM     11  C   UNL A   1      32.464  25.066  26.057  1.00  0.00     0.080 A 
ATOM     12  C   UNL A   1      31.403  24.544  25.322  1.00  0.00     0.103 A 
ATOM     13  C   UNL A   1      31.391  23.173  24.997  1.00  0.00     0.032 A 
ATOM     14  C   UNL A   1      32.452  22.337  25.368  1.00  0.00    -0.017 A 
ATOM     15  C   UNL A   1      33.528  24.231  26.433  1.00  0.00     0.018 A 
ATOM     16  C   UNL A   1      33.518  22.878  26.097  1.00  0.00     0.010 A 
BRANCH  12  17
ATOM     17  S   UNL A   1      30.116  25.531  24.608  1.00  0.00     0.264 S 
ATOM     18  O   UNL A   1      29.049  25.566  25.575  1.00  0.00    -0.201 OA
ATOM     19  O   UNL A   1      29.906  25.011  23.270  1.00  0.00    -0.201 OA
BRANCH  17  20
ATOM     20  N   UNL A   1      30.672  27.073  24.440  1.00  0.00    -0.249 N 
ATOM     21  C   UNL A   1      28.711  28.136  23.297  1.00  0.00     0.115 C 
ATOM     22  C   UNL A   1      30.054  28.235  23.966  1.00  0.00     0.230 C 
ATOM     23  O   UNL A   1      30.670  29.290  24.024  1.00  0.00    -0.274 OA
ATOM     24  H   UNL A   1      31.605  27.199  24.725  1.00  0.00     0.183 HD
ENDBRANCH  17  20
ENDBRANCH  12  17
BRANCH  14  25
ATOM     25  C   UNL A   1      32.524  20.926  24.936  1.00  0.00    -0.011 A 
ATOM     26  C   UNL A   1      33.004  19.857  25.792  1.00  0.00     0.027 A 
ATOM     27  C   UNL A   1      32.227  20.646  23.653  1.00  0.00     0.080 A 
ATOM     28  C   UNL A   1      33.206  18.629  25.301  1.00  0.00     0.095 A 
ATOM     29  C   UNL A   1      32.426  19.280  23.098  1.00  0.00     0.255 A 
ATOM     30  N   UNL A   1      32.939  18.340  23.975  1.00  0.00    -0.258 N 
ATOM     31  O   UNL A   1      32.160  19.083  21.916  1.00  0.00    -0.269 OA
BRANCH  30  32
ATOM     32  C   UNL A   1      33.219  17.034  23.439  1.00  0.00     0.451 C 
ATOM     33  F   UNL A   1      34.280  17.060  22.598  1.00  0.00    -0.185 F 
ATOM     34  F   UNL A   1      33.493  16.153  24.433  1.00  0.00    -0.185 F 
ENDBRANCH  30  32
ENDBRANCH  14  25
ENDBRANCH   9  11
ENDBRANCH   8   9
ENDBRANCH   7   8
ENDBRANCH   6   7
ENDBRANCH   5   6
ENDBRANCH   4   5
ENDBRANCH   3   4
ENDBRANCH   2   3
ENDBRANCH   1   2
BRANCH   1  35
ATOM     35  C   UNL A   1      36.617  22.626  23.638  1.00  0.00     0.188 C 
BRANCH  35  36
ATOM     36  O   UNL A   1      36.408  21.931  24.863  1.00  0.00    -0.376 OA
BRANCH  36  37
ATOM     37  C   UNL A   1      37.076  20.682  24.989  1.00  0.00     0.202 C 
BRANCH  37  38
ATOM     38  C   UNL A   1      38.578  20.788  25.287  1.00  0.00     0.261 C 
BRANCH  38  39
ATOM     39  O   UNL A   1      38.952  21.845  26.184  1.00  0.00    -0.460 OA
BRANCH  39  40
ATOM     40  C   UNL A   1      40.274  22.021  26.408  1.00  0.00     0.338 C 
ATOM     41  O   UNL A   1      41.189  21.343  25.976  1.00  0.00    -0.246 OA
BRANCH  40  42
ATOM     42  C   UNL A   1      40.450  23.306  27.110  1.00  0.00     0.060 A 
ATOM     43  C   UNL A   1      39.757  24.427  26.637  1.00  0.00     0.016 A 
ATOM     44  C   UNL A   1      41.301  23.406  28.214  1.00  0.00     0.016 A 
ATOM     45  C   UNL A   1      39.966  25.670  27.228  1.00  0.00     0.010 A 
ATOM     46  C   UNL A   1      41.530  24.656  28.790  1.00  0.00     0.010 A 
ATOM     47  C   UNL A   1      40.905  25.799  28.261  1.00  0.00    -0.014 A 
BRANCH  47  48
ATOM     48  C   UNL A   1      41.446  27.147  28.556  1.00  0.00     0.031 A 
ATOM     49  C   UNL A   1      42.879  27.414  28.176  1.00  0.00     0.074 A 
ATOM     50  C   UNL A   1      40.686  28.120  29.086  1.00  0.00     0.049 A 
ATOM     51  N   UNL A   1      43.577  28.513  28.278  1.00  0.00    -0.248 NA
ATOM     52  C   UNL A   1      43.624  26.281  27.597  1.00  0.00     0.031 C 
ATOM     53  C   UNL A   1      39.283  27.989  29.470  1.00  0.00     0.029 A 
ATOM     54  N   UNL A   1      41.001  29.421  29.391  1.00  0.00    -0.354 N 
ATOM     55  C   UNL A   1      44.835  28.206  27.772  1.00  0.00     0.074 A 
ATOM     56  C   UNL A   1      44.819  26.810  27.397  1.00  0.00     0.031 C 
ATOM     57  C   UNL A   1      38.857  29.166  29.968  1.00  0.00     0.029 A 
ATOM     58  C   UNL A   1      39.963  30.124  29.950  1.00  0.00     0.049 A 
ATOM     59  H   UNL A   1      41.889  29.812  29.225  1.00  0.00     0.167 HD
ATOM     60  C   UNL A   1      45.909  29.016  27.622  1.00  0.00     0.037 A 
ATOM     61  C   UNL A   1      39.918  31.394  30.400  1.00  0.00     0.037 A 
ATOM     62  C   UNL A   1      45.929  30.400  28.008  1.00  0.00     0.049 A 
ATOM     63  C   UNL A   1      41.141  32.267  30.267  1.00  0.00     0.074 A 
ATOM     64  C   UNL A   1      46.963  31.310  27.897  1.00  0.00     0.029 A 
ATOM     65  N   UNL A   1      44.864  31.070  28.593  1.00  0.00    -0.354 N 
ATOM     66  N   UNL A   1      42.315  31.975  29.758  1.00  0.00    -0.248 NA
ATOM     67  C   UNL A   1      41.029  33.647  30.760  1.00  0.00     0.031 C 
ATOM     68  C   UNL A   1      46.537  32.523  28.452  1.00  0.00     0.029 A 
ATOM     69  C   UNL A   1      45.222  32.379  28.864  1.00  0.00     0.049 A 
ATOM     70  H   UNL A   1      43.985  30.673  28.786  1.00  0.00     0.167 HD
ATOM     71  C   UNL A   1      43.071  33.140  29.844  1.00  0.00     0.074 A 
ATOM     72  C   UNL A   1      42.217  34.146  30.444  1.00  0.00     0.031 C 
ATOM     73  C   UNL A   1      44.354  33.364  29.461  1.00  0.00     0.037 A 
BRANCH  60  74
ATOM     74  C   UNL A   1      47.152  28.406  27.040  1.00  0.00     0.058 A 
ATOM     75  C   UNL A   1      48.198  27.945  27.854  1.00  0.00     0.135 A 
ATOM     76  C   UNL A   1      47.301  28.288  25.649  1.00  0.00     0.135 A 
ATOM     77  F   UNL A   1      48.118  28.059  29.190  1.00  0.00    -0.206 F 
ATOM     78  C   UNL A   1      49.362  27.411  27.310  1.00  0.00     0.059 A 
ATOM     79  C   UNL A   1      48.446  27.736  25.084  1.00  0.00     0.059 A 
ATOM     80  F   UNL A   1      46.335  28.724  24.826  1.00  0.00    -0.206 F 
ATOM     81  C   UNL A   1      49.477  27.314  25.921  1.00  0.00     0.060 A 
BRANCH  81  82
ATOM     82  S   UNL A   1      50.994  26.626  25.227  1.00  0.00     0.124 S 
ATOM     83  O   UNL A   1      50.650  26.534  23.811  1.00  0.00    -0.237 OA
ATOM     84  O   UNL A   1      51.986  27.638  25.573  1.00  0.00    -0.237 OA
ATOM     85  O   UNL A   1      51.137  25.350  25.921  1.00  0.00    -0.744 OA
ENDBRANCH  81  82
ENDBRANCH  60  74
BRANCH  61  86
ATOM     86  C   UNL A   1      38.672  31.923  31.016  1.00  0.00     0.058 A 
ATOM     87  C   UNL A   1      37.753  32.677  30.271  1.00  0.00     0.135 A 
ATOM     88  C   UNL A   1      38.379  31.688  32.368  1.00  0.00     0.135 A 
ATOM     89  F   UNL A   1      37.995  32.940  28.978  1.00  0.00    -0.206 F 
ATOM     90  C   UNL A   1      36.595  33.192  30.846  1.00  0.00     0.059 A 
ATOM     91  C   UNL A   1      37.216  32.172  32.961  1.00  0.00     0.059 A 
ATOM     92  F   UNL A   1      39.222  30.967  33.124  1.00  0.00    -0.206 F 
ATOM     93  C   UNL A   1      36.334  32.931  32.193  1.00  0.00     0.060 A 
BRANCH  93  94
ATOM     94  S   UNL A   1      34.802  33.557  32.917  1.00  0.00     0.124 S 
ATOM     95  O   UNL A   1      35.049  33.362  34.341  1.00  0.00    -0.237 OA
ATOM     96  O   UNL A   1      34.788  34.942  32.455  1.00  0.00    -0.237 OA
ATOM     97  O   UNL A   1      33.779  32.698  32.329  1.00  0.00    -0.744 OA
ENDBRANCH  93  94
ENDBRANCH  61  86
BRANCH  73  98
ATOM     98  C   UNL A   1      44.898  34.754  29.643  1.00  0.00     0.058 A 
ATOM     99  C   UNL A   1      45.574  35.137  30.812  1.00  0.00     0.135 A 
ATOM    100  C   UNL A   1      44.771  35.706  28.618  1.00  0.00     0.135 A 
ATOM    101  F   UNL A   1      45.723  34.265  31.822  1.00  0.00    -0.206 F 
ATOM    102  C   UNL A   1      46.072  36.426  30.975  1.00  0.00     0.059 A 
ATOM    103  C   UNL A   1      45.286  36.992  28.748  1.00  0.00     0.059 A 
ATOM    104  F   UNL A   1      44.149  35.387  27.472  1.00  0.00    -0.206 F 
ATOM    105  C   UNL A   1      45.918  37.348  29.938  1.00  0.00     0.060 A 
BRANCH 105 106
ATOM    106  S   UNL A   1      46.570  39.017  30.155  1.00  0.00     0.124 S 
ATOM    107  O   UNL A   1      47.880  38.904  29.523  1.00  0.00    -0.237 OA
ATOM    108  O   UNL A   1      45.591  39.834  29.443  1.00  0.00    -0.237 OA
ATOM    109  O   UNL A   1      46.584  39.190  31.606  1.00  0.00    -0.744 OA
ENDBRANCH 105 106
ENDBRANCH  73  98
ENDBRANCH  47  48
ENDBRANCH  40  42
ENDBRANCH  39  40
ENDBRANCH  38  39
ENDBRANCH  37  38
ENDBRANCH  36  37
ENDBRANCH  35  36
ENDBRANCH   1  35
TORSDOF 27
ENDMDL
MODEL 2
REMARK VINA RESULT:      -9.7      1.198      2.088
REMARK SMILES CC(=O)NS(=O)(=O)c1cc(-c2ccn(C(F)F)c(=O)c2)ccc1C(=O)OCCOCCOCCOCCOC(=O)c1ccc(-c2c3nc(c(-c4c(F)cc(S(=O)(=O)[O-])cc4F)c4ccc([nH]4)c(-c4c(F)cc(S(=O)(=O)[O-])cc4F)c4nc(c(-c5c(F)cc(S(=O)(=O)[O-])cc5F)c5ccc2[nH]5)C=C4)C=C3)cc1
REMARK SMILES IDX 33 1 32 2 31 3 30 4 29 5 28 6 27 7 26 8 24 9 25 10 23 11
REMARK SMILES IDX 8 12 9 13 10 14 22 15 21 16 5 17 6 18 7 19 4 20 1 21 2 22
REMARK SMILES IDX 3 23 11 25 12 26 20 27 13 28 18 29 14 30 19 31 15 32 16 33
REMARK SMILES IDX 17 34 34 35 35 36 36 37 37 38 38 39 39 40 40 41 41 42 42 43
REMARK SMILES IDX 106 44 43 45 105 46 44 47 45 48 46 49 99 50 47 51 104 52
REMARK SMILES IDX 98 53 100 54 48 55 103 56 97 57 96 58 49 60 83 61 62 62
REMARK SMILES IDX 82 63 63 64 66 65 81 66 101 67 64 68 65 69 80 71 102 72
REMARK SMILES IDX 67 73 50 74 51 75 60 76 52 77 53 78 59 79 61 80 54 81 55 82
REMARK SMILES IDX 56 83 57 84 58 85 84 86 85 87 94 88 86 89 87 90 93 91 95 92
REMARK SMILES IDX 88 93 89 94 90 95 91 96 92 97 68 98 69 99 78 100 70 101
REMARK SMILES IDX 71 102 77 103 79 104 72 105 73 106 74 107 75 108 76 109
REMARK H PARENT 4 24 100 59 66 70
REMARK Flexibility Score: inf
ROOT
ATOM      1  C   UNL A   1      34.091  24.131  26.127  1.00  0.00     0.188 C 
ENDROOT
BRANCH   1   2
ATOM      2  O   UNL A   1      33.465  25.406  26.155  1.00  0.00    -0.377 OA
BRANCH   2   3
ATOM      3  C   UNL A   1      34.201  26.556  25.780  1.00  0.00     0.188 C 
BRANCH   3   4
ATOM      4  C   UNL A   1      33.905  27.915  26.442  1.00  0.00     0.188 C 
BRANCH   4   5
ATOM      5  O   UNL A   1      33.217  28.858  25.631  1.00  0.00    -0.376 OA
BRANCH   5   6
ATOM      6  C   UNL A   1      31.869  29.131  25.983  1.00  0.00     0.202 C 
BRANCH   6   7
ATOM      7  C   UNL A   1      30.841  28.395  25.122  1.00  0.00     0.261 C 
BRANCH   7   8
ATOM      8  O   UNL A   1      31.096  26.989  24.950  1.00  0.00    -0.460 OA
BRANCH   8   9
ATOM      9  C   UNL A   1      30.525  26.401  23.886  1.00  0.00     0.339 C 
ATOM     10  O   UNL A   1      29.766  26.895  23.071  1.00  0.00    -0.246 OA
BRANCH   9  11
ATOM     11  C   UNL A   1      31.012  25.022  23.768  1.00  0.00     0.080 A 
ATOM     12  C   UNL A   1      31.962  24.602  22.842  1.00  0.00     0.103 A 
ATOM     13  C   UNL A   1      32.391  23.261  22.845  1.00  0.00     0.032 A 
ATOM     14  C   UNL A   1      31.905  22.353  23.796  1.00  0.00    -0.017 A 
ATOM     15  C   UNL A   1      30.521  24.115  24.721  1.00  0.00     0.018 A 
ATOM     16  C   UNL A   1      30.959  22.792  24.729  1.00  0.00     0.010 A 
BRANCH  12  17
ATOM     17  S   UNL A   1      32.812  25.695  21.736  1.00  0.00     0.264 S 
ATOM     18  O   UNL A   1      32.367  25.354  20.409  1.00  0.00    -0.201 OA
ATOM     19  O   UNL A   1      34.214  25.627  22.102  1.00  0.00    -0.201 OA
BRANCH  17  20
ATOM     20  N   UNL A   1      32.313  27.236  22.036  1.00  0.00    -0.249 N 
ATOM     21  C   UNL A   1      34.523  28.367  22.374  1.00  0.00     0.115 C 
ATOM     22  C   UNL A   1      33.029  28.423  22.221  1.00  0.00     0.230 C 
ATOM     23  O   UNL A   1      32.405  29.467  22.349  1.00  0.00    -0.274 OA
ATOM     24  H   UNL A   1      31.336  27.339  22.096  1.00  0.00     0.183 HD
ENDBRANCH  17  20
ENDBRANCH  12  17
BRANCH  14  25
ATOM     25  C   UNL A   1      32.428  20.975  23.900  1.00  0.00    -0.011 A 
ATOM     26  C   UNL A   1      33.464  20.589  24.840  1.00  0.00     0.027 A 
ATOM     27  C   UNL A   1      31.991  20.067  23.008  1.00  0.00     0.080 A 
ATOM     28  C   UNL A   1      34.019  19.373  24.781  1.00  0.00     0.095 A 
ATOM     29  C   UNL A   1      32.583  18.704  22.944  1.00  0.00     0.255 A 
ATOM     30  N   UNL A   1      33.603  18.445  23.844  1.00  0.00    -0.258 N 
ATOM     31  O   UNL A   1      32.163  17.921  22.097  1.00  0.00    -0.269 OA
BRANCH  30  32
ATOM     32  C   UNL A   1      34.249  17.163  23.745  1.00  0.00     0.451 C 
ATOM     33  F   UNL A   1      34.655  16.907  22.478  1.00  0.00    -0.185 F 
ATOM     34  F   UNL A   1      35.336  17.106  24.554  1.00  0.00    -0.185 F 
ENDBRANCH  30  32
ENDBRANCH  14  25
ENDBRANCH   9  11
ENDBRANCH   8   9
ENDBRANCH   7   8
ENDBRANCH   6   7
ENDBRANCH   5   6
ENDBRANCH   4   5
ENDBRANCH   3   4
ENDBRANCH   2   3
ENDBRANCH   1   2
BRANCH   1  35
ATOM     35  C   UNL A   1      35.390  23.931  25.324  1.00  0.00     0.188 C 
BRANCH  35  36
ATOM     36  O   UNL A   1      36.262  22.931  25.840  1.00  0.00    -0.376 OA
BRANCH  36  37
ATOM     37  C   UNL A   1      36.924  22.127  24.872  1.00  0.00     0.202 C 
BRANCH  37  38
ATOM     38  C   UNL A   1      38.274  21.557  25.330  1.00  0.00     0.261 C 
BRANCH  38  39
ATOM     39  O   UNL A   1      39.269  22.535  25.670  1.00  0.00    -0.460 OA
BRANCH  39  40
ATOM     40  C   UNL A   1      40.004  22.303  26.781  1.00  0.00     0.338 C 
ATOM     41  O   UNL A   1      40.537  21.257  27.103  1.00  0.00    -0.246 OA
BRANCH  40  42
ATOM     42  C   UNL A   1      40.228  23.594  27.458  1.00  0.00     0.060 A 
ATOM     43  C   UNL A   1      39.388  24.669  27.143  1.00  0.00     0.016 A 
ATOM     44  C   UNL A   1      41.264  23.745  28.383  1.00  0.00     0.016 A 
ATOM     45  C   UNL A   1      39.626  25.921  27.705  1.00  0.00     0.010 A 
ATOM     46  C   UNL A   1      41.518  25.005  28.926  1.00  0.00     0.010 A 
ATOM     47  C   UNL A   1      40.733  26.106  28.544  1.00  0.00    -0.014 A 
BRANCH  47  48
ATOM     48  C   UNL A   1      41.232  27.486  28.754  1.00  0.00     0.031 A 
ATOM     49  C   UNL A   1      42.675  27.757  28.413  1.00  0.00     0.074 A 
ATOM     50  C   UNL A   1      40.431  28.479  29.174  1.00  0.00     0.049 A 
ATOM     51  N   UNL A   1      43.345  28.877  28.458  1.00  0.00    -0.248 NA
ATOM     52  C   UNL A   1      43.467  26.600  27.956  1.00  0.00     0.031 C 
ATOM     53  C   UNL A   1      39.015  28.345  29.509  1.00  0.00     0.029 A 
ATOM     54  N   UNL A   1      40.706  29.806  29.388  1.00  0.00    -0.354 N 
ATOM     55  C   UNL A   1      44.630  28.562  28.029  1.00  0.00     0.074 A 
ATOM     56  C   UNL A   1      44.658  27.141  27.765  1.00  0.00     0.031 C 
ATOM     57  C   UNL A   1      38.545  29.546  29.895  1.00  0.00     0.029 A 
ATOM     58  C   UNL A   1      39.630  30.527  29.847  1.00  0.00     0.049 A 
ATOM     59  H   UNL A   1      41.591  30.205  29.228  1.00  0.00     0.167 HD
ATOM     60  C   UNL A   1      45.692  29.383  27.861  1.00  0.00     0.037 A 
ATOM     61  C   UNL A   1      39.540  31.826  30.193  1.00  0.00     0.037 A 
ATOM     62  C   UNL A   1      45.667  30.793  28.137  1.00  0.00     0.049 A 
ATOM     63  C   UNL A   1      40.749  32.715  30.043  1.00  0.00     0.074 A 
ATOM     64  C   UNL A   1      46.686  31.716  27.997  1.00  0.00     0.029 A 
ATOM     65  N   UNL A   1      44.564  31.481  28.623  1.00  0.00    -0.354 N 
ATOM     66  N   UNL A   1      41.950  32.412  29.607  1.00  0.00    -0.248 NA
ATOM     67  C   UNL A   1      40.588  34.126  30.421  1.00  0.00     0.031 C 
ATOM     68  C   UNL A   1      46.212  32.958  28.437  1.00  0.00     0.029 A 
ATOM     69  C   UNL A   1      44.883  32.815  28.805  1.00  0.00     0.049 A 
ATOM     70  H   UNL A   1      43.686  31.079  28.810  1.00  0.00     0.167 HD
ATOM     71  C   UNL A   1      42.677  33.599  29.632  1.00  0.00     0.074 A 
ATOM     72  C   UNL A   1      41.777  34.627  30.115  1.00  0.00     0.031 C 
ATOM     73  C   UNL A   1      43.970  33.822  29.286  1.00  0.00     0.037 A 
BRANCH  60  74
ATOM     74  C   UNL A   1      46.971  28.760  27.380  1.00  0.00     0.058 A 
ATOM     75  C   UNL A   1      48.008  28.425  28.266  1.00  0.00     0.135 A 
ATOM     76  C   UNL A   1      47.166  28.499  26.015  1.00  0.00     0.135 A 
ATOM     77  F   UNL A   1      47.884  28.679  29.579  1.00  0.00    -0.206 F 
ATOM     78  C   UNL A   1      49.204  27.879  27.813  1.00  0.00     0.059 A 
ATOM     79  C   UNL A   1      48.344  27.931  25.542  1.00  0.00     0.059 A 
ATOM     80  F   UNL A   1      46.210  28.810  25.124  1.00  0.00    -0.206 F 
ATOM     81  C   UNL A   1      49.363  27.639  26.446  1.00  0.00     0.060 A 
BRANCH  81  82
ATOM     82  S   UNL A   1      50.922  26.935  25.869  1.00  0.00     0.124 S 
ATOM     83  O   UNL A   1      50.619  25.507  25.884  1.00  0.00    -0.237 OA
ATOM     84  O   UNL A   1      51.069  27.537  24.548  1.00  0.00    -0.237 OA
ATOM     85  O   UNL A   1      51.887  27.382  26.869  1.00  0.00    -0.744 OA
ENDBRANCH  81  82
ENDBRANCH  60  74
BRANCH  61  86
ATOM     86  C   UNL A   1      38.257  32.371  30.714  1.00  0.00     0.058 A 
ATOM     87  C   UNL A   1      37.955  32.338  32.084  1.00  0.00     0.135 A 
ATOM     88  C   UNL A   1      37.306  32.931  29.848  1.00  0.00     0.135 A 
ATOM     89  F   UNL A   1      38.826  31.800  32.950  1.00  0.00    -0.206 F 
ATOM     90  C   UNL A   1      36.749  32.828  32.576  1.00  0.00     0.059 A 
ATOM     91  C   UNL A   1      36.103  33.450  30.319  1.00  0.00     0.059 A 
ATOM     92  F   UNL A   1      37.550  32.994  28.530  1.00  0.00    -0.206 F 
ATOM     93  C   UNL A   1      35.829  33.385  31.685  1.00  0.00     0.060 A 
BRANCH  93  94
ATOM     94  S   UNL A   1      34.290  34.069  32.339  1.00  0.00     0.124 S 
ATOM     95  O   UNL A   1      33.697  34.654  31.142  1.00  0.00    -0.237 OA
ATOM     96  O   UNL A   1      33.626  32.880  32.865  1.00  0.00    -0.237 OA
ATOM     97  O   UNL A   1      34.749  35.019  33.347  1.00  0.00    -0.744 OA
ENDBRANCH  93  94
ENDBRANCH  61  86
BRANCH  73  98
ATOM     98  C   UNL A   1      44.477  35.235  29.381  1.00  0.00     0.058 A 
ATOM     99  C   UNL A   1      45.104  35.721  30.539  1.00  0.00     0.135 A 
ATOM    100  C   UNL A   1      44.365  36.104  28.283  1.00  0.00     0.135 A 
ATOM    101  F   UNL A   1      45.238  34.930  31.615  1.00  0.00    -0.206 F 
ATOM    102  C   UNL A   1      45.568  37.030  30.619  1.00  0.00     0.059 A 
ATOM    103  C   UNL A   1      44.847  37.408  28.332  1.00  0.00     0.059 A 
ATOM    104  F   UNL A   1      43.789  35.685  27.145  1.00  0.00    -0.206 F 
ATOM    105  C   UNL A   1      45.429  37.867  29.512  1.00  0.00     0.060 A 
BRANCH 105 106
ATOM    106  S   UNL A   1      46.037  39.564  29.624  1.00  0.00     0.124 S 
ATOM    107  O   UNL A   1      47.479  39.364  29.537  1.00  0.00    -0.237 OA
ATOM    108  O   UNL A   1      45.415  40.199  28.466  1.00  0.00    -0.237 OA
ATOM    109  O   UNL A   1      45.542  40.017  30.921  1.00  0.00    -0.744 OA
ENDBRANCH 105 106
ENDBRANCH  73  98
ENDBRANCH  47  48
ENDBRANCH  40  42
ENDBRANCH  39  40
ENDBRANCH  38  39
ENDBRANCH  37  38
ENDBRANCH  36  37
ENDBRANCH  35  36
ENDBRANCH   1  35
TORSDOF 27
ENDMDL
MODEL 3
REMARK VINA RESULT:      -8.9      1.350      7.880
REMARK SMILES CC(=O)NS(=O)(=O)c1cc(-c2ccn(C(F)F)c(=O)c2)ccc1C(=O)OCCOCCOCCOCCOC(=O)c1ccc(-c2c3nc(c(-c4c(F)cc(S(=O)(=O)[O-])cc4F)c4ccc([nH]4)c(-c4c(F)cc(S(=O)(=O)[O-])cc4F)c4nc(c(-c5c(F)cc(S(=O)(=O)[O-])cc5F)c5ccc2[nH]5)C=C4)C=C3)cc1
REMARK SMILES IDX 33 1 32 2 31 3 30 4 29 5 28 6 27 7 26 8 24 9 25 10 23 11
REMARK SMILES IDX 8 12 9 13 10 14 22 15 21 16 5 17 6 18 7 19 4 20 1 21 2 22
REMARK SMILES IDX 3 23 11 25 12 26 20 27 13 28 18 29 14 30 19 31 15 32 16 33
REMARK SMILES IDX 17 34 34 35 35 36 36 37 37 38 38 39 39 40 40 41 41 42 42 43
REMARK SMILES IDX 106 44 43 45 105 46 44 47 45 48 46 49 99 50 47 51 104 52
REMARK SMILES IDX 98 53 100 54 48 55 103 56 97 57 96 58 49 60 83 61 62 62
REMARK SMILES IDX 82 63 63 64 66 65 81 66 101 67 64 68 65 69 80 71 102 72
REMARK SMILES IDX 67 73 50 74 51 75 60 76 52 77 53 78 59 79 61 80 54 81 55 82
REMARK SMILES IDX 56 83 57 84 58 85 84 86 85 87 94 88 86 89 87 90 93 91 95 92
REMARK SMILES IDX 88 93 89 94 90 95 91 96 92 97 68 98 69 99 78 100 70 101
REMARK SMILES IDX 71 102 77 103 79 104 72 105 73 106 74 107 75 108 76 109
REMARK H PARENT 4 24 100 59 66 70
REMARK Flexibility Score: inf
ROOT
ATOM      1  C   UNL A   1      34.881  23.831  26.394  1.00  0.00     0.188 C 
ENDROOT
BRANCH   1   2
ATOM      2  O   UNL A   1      34.012  24.913  26.087  1.00  0.00    -0.377 OA
BRANCH   2   3
ATOM      3  C   UNL A   1      34.553  26.142  25.641  1.00  0.00     0.188 C 
BRANCH   3   4
ATOM      4  C   UNL A   1      34.360  27.422  26.477  1.00  0.00     0.188 C 
BRANCH   4   5
ATOM      5  O   UNL A   1      33.193  28.179  26.183  1.00  0.00    -0.376 OA
BRANCH   5   6
ATOM      6  C   UNL A   1      32.313  28.432  27.268  1.00  0.00     0.202 C 
BRANCH   6   7
ATOM      7  C   UNL A   1      31.039  27.585  27.246  1.00  0.00     0.261 C 
BRANCH   7   8
ATOM      8  O   UNL A   1      31.242  26.200  26.912  1.00  0.00    -0.460 OA
BRANCH   8   9
ATOM      9  C   UNL A   1      30.403  25.671  26.008  1.00  0.00     0.339 C 
ATOM     10  O   UNL A   1      29.350  26.129  25.600  1.00  0.00    -0.246 OA
BRANCH   9  11
ATOM     11  C   UNL A   1      30.973  24.427  25.478  1.00  0.00     0.080 A 
ATOM     12  C   UNL A   1      31.547  24.303  24.216  1.00  0.00     0.103 A 
ATOM     13  C   UNL A   1      32.106  23.071  23.824  1.00  0.00     0.032 A 
ATOM     14  C   UNL A   1      32.129  21.981  24.704  1.00  0.00    -0.017 A 
ATOM     15  C   UNL A   1      30.992  23.337  26.361  1.00  0.00     0.018 A 
ATOM     16  C   UNL A   1      31.559  22.123  25.974  1.00  0.00     0.010 A 
BRANCH  12  17
ATOM     17  S   UNL A   1      31.777  25.659  23.099  1.00  0.00     0.264 S 
ATOM     18  O   UNL A   1      30.758  25.529  22.089  1.00  0.00    -0.201 OA
ATOM     19  O   UNL A   1      33.186  25.661  22.753  1.00  0.00    -0.201 OA
BRANCH  17  20
ATOM     20  N   UNL A   1      31.481  27.062  23.910  1.00  0.00    -0.249 N 
ATOM     21  C   UNL A   1      31.085  28.620  21.988  1.00  0.00     0.115 C 
ATOM     22  C   UNL A   1      31.089  28.329  23.462  1.00  0.00     0.230 C 
ATOM     23  O   UNL A   1      30.852  29.194  24.293  1.00  0.00    -0.274 OA
ATOM     24  H   UNL A   1      31.602  26.998  24.885  1.00  0.00     0.183 HD
ENDBRANCH  17  20
ENDBRANCH  12  17
BRANCH  14  25
ATOM     25  C   UNL A   1      32.817  20.718  24.365  1.00  0.00    -0.011 A 
ATOM     26  C   UNL A   1      32.149  19.597  23.728  1.00  0.00     0.027 A 
ATOM     27  C   UNL A   1      34.094  20.570  24.763  1.00  0.00     0.080 A 
ATOM     28  C   UNL A   1      32.771  18.420  23.594  1.00  0.00     0.095 A 
ATOM     29  C   UNL A   1      34.806  19.274  24.603  1.00  0.00     0.255 A 
ATOM     30  N   UNL A   1      34.071  18.247  24.034  1.00  0.00    -0.258 N 
ATOM     31  O   UNL A   1      35.963  19.187  25.003  1.00  0.00    -0.269 OA
BRANCH  30  32
ATOM     32  C   UNL A   1      34.710  16.961  23.945  1.00  0.00     0.451 C 
ATOM     33  F   UNL A   1      34.778  16.355  25.155  1.00  0.00    -0.185 F 
ATOM     34  F   UNL A   1      34.032  16.143  23.103  1.00  0.00    -0.185 F 
ENDBRANCH  30  32
ENDBRANCH  14  25
ENDBRANCH   9  11
ENDBRANCH   8   9
ENDBRANCH   7   8
ENDBRANCH   6   7
ENDBRANCH   5   6
ENDBRANCH   4   5
ENDBRANCH   3   4
ENDBRANCH   2   3
ENDBRANCH   1   2
BRANCH   1  35
ATOM     35  C   UNL A   1      36.237  23.709  25.673  1.00  0.00     0.188 C 
BRANCH  35  36
ATOM     36  O   UNL A   1      37.071  22.657  26.146  1.00  0.00    -0.376 OA
BRANCH  36  37
ATOM     37  C   UNL A   1      37.799  21.948  25.151  1.00  0.00     0.202 C 
BRANCH  37  38
ATOM     38  C   UNL A   1      38.911  21.041  25.697  1.00  0.00     0.261 C 
BRANCH  38  39
ATOM     39  O   UNL A   1      40.143  21.705  26.015  1.00  0.00    -0.460 OA
BRANCH  39  40
ATOM     40  C   UNL A   1      40.560  21.644  27.300  1.00  0.00     0.338 C 
ATOM     41  O   UNL A   1      40.781  20.640  27.953  1.00  0.00    -0.246 OA
BRANCH  40  42
ATOM     42  C   UNL A   1      40.900  23.012  27.735  1.00  0.00     0.060 A 
ATOM     43  C   UNL A   1      40.238  24.089  27.133  1.00  0.00     0.016 A 
ATOM     44  C   UNL A   1      41.870  23.228  28.717  1.00  0.00     0.016 A 
ATOM     45  C   UNL A   1      40.595  25.393  27.465  1.00  0.00     0.010 A 
ATOM     46  C   UNL A   1      42.246  24.535  29.030  1.00  0.00     0.010 A 
ATOM     47  C   UNL A   1      41.647  25.618  28.363  1.00  0.00    -0.014 A 
BRANCH  47  48
ATOM     48  C   UNL A   1      42.308  26.945  28.354  1.00  0.00     0.031 A 
ATOM     49  C   UNL A   1      41.530  28.107  28.914  1.00  0.00     0.074 A 
ATOM     50  C   UNL A   1      43.568  27.111  27.921  1.00  0.00     0.049 A 
ATOM     51  N   UNL A   1      41.889  29.353  29.067  1.00  0.00    -0.248 NA
ATOM     52  C   UNL A   1      40.157  27.817  29.367  1.00  0.00     0.031 C 
ATOM     53  C   UNL A   1      44.428  26.060  27.382  1.00  0.00     0.029 A 
ATOM     54  N   UNL A   1      44.344  28.242  27.871  1.00  0.00    -0.354 N 
ATOM     55  C   UNL A   1      40.793  29.991  29.638  1.00  0.00     0.074 A 
ATOM     56  C   UNL A   1      39.744  29.007  29.771  1.00  0.00     0.031 C 
ATOM     57  C   UNL A   1      45.616  26.598  27.048  1.00  0.00     0.029 A 
ATOM     58  C   UNL A   1      45.592  28.033  27.337  1.00  0.00     0.049 A 
ATOM     59  H   UNL A   1      44.035  29.121  28.188  1.00  0.00     0.167 HD
ATOM     60  C   UNL A   1      40.672  31.282  30.028  1.00  0.00     0.037 A 
ATOM     61  C   UNL A   1      46.593  28.904  27.104  1.00  0.00     0.037 A 
ATOM     62  C   UNL A   1      41.712  32.264  29.883  1.00  0.00     0.049 A 
ATOM     63  C   UNL A   1      46.421  30.349  27.501  1.00  0.00     0.074 A 
ATOM     64  C   UNL A   1      41.694  33.597  30.248  1.00  0.00     0.029 A 
ATOM     65  N   UNL A   1      42.954  32.018  29.315  1.00  0.00    -0.354 N 
ATOM     66  N   UNL A   1      45.392  30.934  28.069  1.00  0.00    -0.248 NA
ATOM     67  C   UNL A   1      47.551  31.250  27.237  1.00  0.00     0.031 C 
ATOM     68  C   UNL A   1      42.913  34.169  29.863  1.00  0.00     0.029 A 
ATOM     69  C   UNL A   1      43.705  33.180  29.304  1.00  0.00     0.049 A 
ATOM     70  H   UNL A   1      43.255  31.146  28.972  1.00  0.00     0.167 HD
ATOM     71  C   UNL A   1      45.761  32.264  28.255  1.00  0.00     0.074 A 
ATOM     72  C   UNL A   1      47.113  32.393  27.750  1.00  0.00     0.031 C 
ATOM     73  C   UNL A   1      45.051  33.285  28.797  1.00  0.00     0.037 A 
BRANCH  60  74
ATOM     74  C   UNL A   1      39.357  31.699  30.621  1.00  0.00     0.058 A 
ATOM     75  C   UNL A   1      38.303  32.169  29.821  1.00  0.00     0.135 A 
ATOM     76  C   UNL A   1      39.150  31.633  32.007  1.00  0.00     0.135 A 
ATOM     77  F   UNL A   1      38.458  32.277  28.492  1.00  0.00    -0.206 F 
ATOM     78  C   UNL A   1      37.098  32.586  30.378  1.00  0.00     0.059 A 
ATOM     79  C   UNL A   1      37.945  32.022  32.584  1.00  0.00     0.059 A 
ATOM     80  F   UNL A   1      40.129  31.201  32.818  1.00  0.00    -0.206 F 
ATOM     81  C   UNL A   1      36.931  32.511  31.763  1.00  0.00     0.060 A 
BRANCH  81  82
ATOM     82  S   UNL A   1      35.365  33.060  32.474  1.00  0.00     0.124 S 
ATOM     83  O   UNL A   1      34.406  32.261  31.716  1.00  0.00    -0.237 OA
ATOM     84  O   UNL A   1      35.516  32.702  33.880  1.00  0.00    -0.237 OA
ATOM     85  O   UNL A   1      35.348  34.492  32.193  1.00  0.00    -0.744 OA
ENDBRANCH  81  82
ENDBRANCH  60  74
BRANCH  61  86
ATOM     86  C   UNL A   1      47.853  28.439  26.463  1.00  0.00     0.058 A 
ATOM     87  C   UNL A   1      49.043  28.322  27.196  1.00  0.00     0.135 A 
ATOM     88  C   UNL A   1      47.890  28.109  25.100  1.00  0.00     0.135 A 
ATOM     89  F   UNL A   1      49.061  28.639  28.499  1.00  0.00    -0.206 F 
ATOM     90  C   UNL A   1      50.229  27.907  26.599  1.00  0.00     0.059 A 
ATOM     91  C   UNL A   1      49.059  27.668  24.485  1.00  0.00     0.059 A 
ATOM     92  F   UNL A   1      46.777  28.197  24.355  1.00  0.00    -0.206 F 
ATOM     93  C   UNL A   1      50.226  27.579  25.241  1.00  0.00     0.060 A 
BRANCH  93  94
ATOM     94  S   UNL A   1      51.758  26.988  24.487  1.00  0.00     0.124 S 
ATOM     95  O   UNL A   1      51.385  26.922  23.079  1.00  0.00    -0.237 OA
ATOM     96  O   UNL A   1      52.703  28.041  24.849  1.00  0.00    -0.237 OA
ATOM     97  O   UNL A   1      51.980  25.704  25.144  1.00  0.00    -0.744 OA
ENDBRANCH  93  94
ENDBRANCH  61  86
BRANCH  73  98
ATOM     98  C   UNL A   1      45.734  34.621  28.905  1.00  0.00     0.058 A 
ATOM     99  C   UNL A   1      46.505  34.970  30.024  1.00  0.00     0.135 A 
ATOM    100  C   UNL A   1      45.645  35.550  27.855  1.00  0.00     0.135 A 
ATOM    101  F   UNL A   1      46.624  34.117  31.054  1.00  0.00    -0.206 F 
ATOM    102  C   UNL A   1      47.132  36.208  30.117  1.00  0.00     0.059 A 
ATOM    103  C   UNL A   1      46.287  36.783  27.915  1.00  0.00     0.059 A 
ATOM    104  F   UNL A   1      44.935  35.260  26.753  1.00  0.00    -0.206 F 
ATOM    105  C   UNL A   1      47.012  37.110  29.059  1.00  0.00     0.060 A 
BRANCH 105 106
ATOM    106  S   UNL A   1      47.831  38.714  29.186  1.00  0.00     0.124 S 
ATOM    107  O   UNL A   1      49.049  38.482  28.417  1.00  0.00    -0.237 OA
ATOM    108  O   UNL A   1      46.859  39.615  28.576  1.00  0.00    -0.237 OA
ATOM    109  O   UNL A   1      48.019  38.886  30.625  1.00  0.00    -0.744 OA
ENDBRANCH 105 106
ENDBRANCH  73  98
ENDBRANCH  47  48
ENDBRANCH  40  42
ENDBRANCH  39  40
ENDBRANCH  38  39
ENDBRANCH  37  38
ENDBRANCH  36  37
ENDBRANCH  35  36
ENDBRANCH   1  35
TORSDOF 27
ENDMDL
