MODEL 1
REMARK VINA RESULT:      -8.6      0.000      0.000
REMARK SMILES O=C(OCCOCCOCCOCCOC(=O)c1sccc1[S@](=O)[O-])c1ccc(-c2c3nc(c(-c4c(F)cc(S(=O)(=O)[O-])cc4F)c4ccc([nH]4)c(-c4c(F)cc(S(=O)(=O)[O-])cc4F)c4nc(c(-c5c(F)cc(S(=O)(=O)[O-])cc5F)c5ccc2[nH]5)C=C4)C=C3)cc1
REMARK SMILES IDX 8 1 7 2 6 3 5 4 4 5 3 6 2 7 1 8 26 9 27 10 91 11 28 12 90 13
REMARK SMILES IDX 29 14 30 15 31 16 84 17 32 18 89 19 83 20 85 21 33 22 88 23
REMARK SMILES IDX 82 24 81 25 34 27 68 28 47 29 67 30 48 31 51 32 66 33 86 34
REMARK SMILES IDX 49 35 50 36 65 38 87 39 52 40 35 41 36 42 45 43 37 44 38 45
REMARK SMILES IDX 44 46 46 47 39 48 40 49 41 50 42 51 43 52 69 53 70 54 79 55
REMARK SMILES IDX 71 56 72 57 78 58 80 59 73 60 74 61 75 62 76 63 77 64 53 65
REMARK SMILES IDX 54 66 63 67 55 68 56 69 62 70 64 71 57 72 58 73 59 74 60 75
REMARK SMILES IDX 61 76 9 77 10 78 11 79 12 80 13 81 14 82 15 83 16 84 17 85
REMARK SMILES IDX 18 86 19 87 22 88 20 89 21 90 23 91 25 92 24 93
REMARK H PARENT 85 26 51 37
REMARK Flexibility Score: inf
ROOT
ATOM      1  C   UNL A   1      32.604  28.848  22.660  1.00  0.00     0.188 C 
ENDROOT
BRANCH   1   2
ATOM      2  C   UNL A   1      33.338  29.079  23.978  1.00  0.00     0.188 C 
BRANCH   2   3
ATOM      3  O   UNL A   1      32.509  28.779  25.101  1.00  0.00    -0.376 OA
BRANCH   3   4
ATOM      4  C   UNL A   1      31.911  29.899  25.753  1.00  0.00     0.202 C 
BRANCH   4   5
ATOM      5  C   UNL A   1      32.302  30.081  27.223  1.00  0.00     0.261 C 
BRANCH   5   6
ATOM      6  O   UNL A   1      33.671  29.739  27.488  1.00  0.00    -0.460 OA
BRANCH   6   7
ATOM      7  C   UNL A   1      34.600  30.486  28.137  1.00  0.00     0.338 C 
ATOM      8  O   UNL A   1      34.278  31.615  28.510  1.00  0.00    -0.246 OA
BRANCH   7   9
ATOM      9  C   UNL A   1      35.996  30.028  28.424  1.00  0.00     0.060 A 
ATOM     10  C   UNL A   1      36.428  29.451  29.619  1.00  0.00     0.016 A 
ATOM     11  C   UNL A   1      36.928  30.126  27.377  1.00  0.00     0.016 A 
ATOM     12  C   UNL A   1      37.739  29.051  29.811  1.00  0.00     0.010 A 
ATOM     13  C   UNL A   1      38.250  29.705  27.548  1.00  0.00     0.010 A 
ATOM     14  C   UNL A   1      38.662  29.196  28.785  1.00  0.00    -0.014 A 
BRANCH  14  15
ATOM     15  C   UNL A   1      40.079  29.001  29.124  1.00  0.00     0.031 A 
ATOM     16  C   UNL A   1      40.713  27.707  28.713  1.00  0.00     0.074 A 
ATOM     17  C   UNL A   1      40.798  30.023  29.622  1.00  0.00     0.049 A 
ATOM     18  N   UNL A   1      41.920  27.268  28.932  1.00  0.00    -0.248 NA
ATOM     19  C   UNL A   1      39.869  26.785  27.929  1.00  0.00     0.031 C 
ATOM     20  C   UNL A   1      40.279  31.368  29.892  1.00  0.00     0.029 A 
ATOM     21  N   UNL A   1      42.121  30.103  29.959  1.00  0.00    -0.354 N 
ATOM     22  C   UNL A   1      41.967  26.007  28.352  1.00  0.00     0.074 A 
ATOM     23  C   UNL A   1      40.672  25.747  27.771  1.00  0.00     0.031 C 
ATOM     24  C   UNL A   1      41.279  32.141  30.341  1.00  0.00     0.029 A 
ATOM     25  C   UNL A   1      42.485  31.330  30.461  1.00  0.00     0.049 A 
ATOM     26  H   UNL A   1      42.752  29.355  29.851  1.00  0.00     0.167 HD
ATOM     27  C   UNL A   1      43.009  25.144  28.324  1.00  0.00     0.037 A 
ATOM     28  C   UNL A   1      43.655  31.724  30.998  1.00  0.00     0.037 A 
ATOM     29  C   UNL A   1      44.281  25.451  28.914  1.00  0.00     0.049 A 
ATOM     30  C   UNL A   1      44.767  30.709  31.057  1.00  0.00     0.074 A 
ATOM     31  C   UNL A   1      45.402  24.652  29.025  1.00  0.00     0.029 A 
ATOM     32  N   UNL A   1      44.597  26.674  29.498  1.00  0.00    -0.354 N 
ATOM     33  N   UNL A   1      44.785  29.480  30.591  1.00  0.00    -0.248 NA
ATOM     34  C   UNL A   1      46.005  31.118  31.726  1.00  0.00     0.031 C 
ATOM     35  C   UNL A   1      46.377  25.375  29.720  1.00  0.00     0.029 A 
ATOM     36  C   UNL A   1      45.887  26.646  29.991  1.00  0.00     0.049 A 
ATOM     37  H   UNL A   1      43.989  27.447  29.551  1.00  0.00     0.167 HD
ATOM     38  C   UNL A   1      46.040  28.972  30.897  1.00  0.00     0.074 A 
ATOM     39  C   UNL A   1      46.759  30.036  31.573  1.00  0.00     0.031 C 
ATOM     40  C   UNL A   1      46.557  27.741  30.652  1.00  0.00     0.037 A 
BRANCH  27  41
ATOM     41  C   UNL A   1      42.760  23.790  27.723  1.00  0.00     0.058 A 
ATOM     42  C   UNL A   1      42.406  22.674  28.499  1.00  0.00     0.135 A 
ATOM     43  C   UNL A   1      42.939  23.593  26.343  1.00  0.00     0.135 A 
ATOM     44  F   UNL A   1      42.260  22.795  29.828  1.00  0.00    -0.206 F 
ATOM     45  C   UNL A   1      42.275  21.407  27.936  1.00  0.00     0.059 A 
ATOM     46  C   UNL A   1      42.786  22.341  25.755  1.00  0.00     0.059 A 
ATOM     47  F   UNL A   1      43.295  24.619  25.555  1.00  0.00    -0.206 F 
ATOM     48  C   UNL A   1      42.472  21.250  26.564  1.00  0.00     0.060 A 
BRANCH  48  49
ATOM     49  S   UNL A   1      42.327  19.597  25.851  1.00  0.00     0.124 S 
ATOM     50  O   UNL A   1      43.293  19.666  24.758  1.00  0.00    -0.237 OA
ATOM     51  O   UNL A   1      42.702  18.741  26.972  1.00  0.00    -0.237 OA
ATOM     52  O   UNL A   1      40.928  19.521  25.447  1.00  0.00    -0.744 OA
ENDBRANCH  48  49
ENDBRANCH  27  41
BRANCH  28  53
ATOM     53  C   UNL A   1      43.804  33.092  31.566  1.00  0.00     0.058 A 
ATOM     54  C   UNL A   1      44.240  34.170  30.782  1.00  0.00     0.135 A 
ATOM     55  C   UNL A   1      43.498  33.355  32.913  1.00  0.00     0.135 A 
ATOM     56  F   UNL A   1      44.555  33.977  29.492  1.00  0.00    -0.206 F 
ATOM     57  C   UNL A   1      44.379  35.452  31.312  1.00  0.00     0.059 A 
ATOM     58  C   UNL A   1      43.601  34.631  33.458  1.00  0.00     0.059 A 
ATOM     59  F   UNL A   1      43.069  32.365  33.710  1.00  0.00    -0.206 F 
ATOM     60  C   UNL A   1      44.054  35.673  32.651  1.00  0.00     0.060 A 
BRANCH  60  61
ATOM     61  S   UNL A   1      44.204  37.344  33.321  1.00  0.00     0.124 S 
ATOM     62  O   UNL A   1      42.876  37.553  33.888  1.00  0.00    -0.237 OA
ATOM     63  O   UNL A   1      45.291  37.192  34.283  1.00  0.00    -0.237 OA
ATOM     64  O   UNL A   1      44.523  38.151  32.148  1.00  0.00    -0.744 OA
ENDBRANCH  60  61
ENDBRANCH  28  53
BRANCH  40  65
ATOM     65  C   UNL A   1      47.972  27.502  31.086  1.00  0.00     0.058 A 
ATOM     66  C   UNL A   1      49.059  27.826  30.261  1.00  0.00     0.135 A 
ATOM     67  C   UNL A   1      48.239  27.009  32.374  1.00  0.00     0.135 A 
ATOM     68  F   UNL A   1      48.851  28.294  29.020  1.00  0.00    -0.206 F 
ATOM     69  C   UNL A   1      50.368  27.652  30.692  1.00  0.00     0.059 A 
ATOM     70  C   UNL A   1      49.540  26.857  32.836  1.00  0.00     0.059 A 
ATOM     71  F   UNL A   1      47.230  26.698  33.202  1.00  0.00    -0.206 F 
ATOM     72  C   UNL A   1      50.598  27.172  31.984  1.00  0.00     0.060 A 
BRANCH  72  73
ATOM     73  S   UNL A   1      52.302  26.998  32.549  1.00  0.00     0.124 S 
ATOM     74  O   UNL A   1      52.441  25.547  32.617  1.00  0.00    -0.237 OA
ATOM     75  O   UNL A   1      53.052  27.658  31.486  1.00  0.00    -0.237 OA
ATOM     76  O   UNL A   1      52.305  27.691  33.834  1.00  0.00    -0.744 OA
ENDBRANCH  72  73
ENDBRANCH  40  65
ENDBRANCH  14  15
ENDBRANCH   7   9
ENDBRANCH   6   7
ENDBRANCH   5   6
ENDBRANCH   4   5
ENDBRANCH   3   4
ENDBRANCH   2   3
ENDBRANCH   1   2
BRANCH   1  77
ATOM     77  O   UNL A   1      31.184  28.936  22.735  1.00  0.00    -0.377 OA
BRANCH  77  78
ATOM     78  C   UNL A   1      30.454  27.731  22.541  1.00  0.00     0.188 C 
BRANCH  78  79
ATOM     79  C   UNL A   1      31.020  26.392  23.072  1.00  0.00     0.188 C 
BRANCH  79  80
ATOM     80  O   UNL A   1      31.428  25.464  22.077  1.00  0.00    -0.376 OA
BRANCH  80  81
ATOM     81  C   UNL A   1      32.785  25.592  21.651  1.00  0.00     0.202 C 
BRANCH  81  82
ATOM     82  C   UNL A   1      33.829  25.201  22.707  1.00  0.00     0.261 C 
BRANCH  82  83
ATOM     83  O   UNL A   1      33.603  23.915  23.307  1.00  0.00    -0.459 OA
BRANCH  83  84
ATOM     84  C   UNL A   1      34.666  23.107  23.547  1.00  0.00     0.349 C 
ATOM     85  O   UNL A   1      35.708  23.114  22.899  1.00  0.00    -0.245 OA
BRANCH  84  86
ATOM     86  C   UNL A   1      34.452  22.427  24.809  1.00  0.00     0.127 A 
ATOM     87  S   UNL A   1      35.214  23.078  26.217  1.00  0.00    -0.136 S 
ATOM     88  C   UNL A   1      33.671  21.339  25.148  1.00  0.00     0.050 A 
ATOM     89  C   UNL A   1      34.273  22.104  27.261  1.00  0.00     0.067 A 
ATOM     90  C   UNL A   1      33.543  21.172  26.563  1.00  0.00     0.029 A 
BRANCH  88  91
ATOM     91  S   UNL A   1      32.934  20.219  24.043  1.00  0.00    -0.020 S 
ATOM     92  O   UNL A   1      32.165  19.407  25.190  1.00  0.00    -0.768 OA
ATOM     93  O   UNL A   1      31.943  20.944  23.196  1.00  0.00    -0.269 OA
ENDBRANCH  88  91
ENDBRANCH  84  86
ENDBRANCH  83  84
ENDBRANCH  82  83
ENDBRANCH  81  82
ENDBRANCH  80  81
ENDBRANCH  79  80
ENDBRANCH  78  79
ENDBRANCH  77  78
ENDBRANCH   1  77
TORSDOF 24
ENDMDL
MODEL 2
REMARK VINA RESULT:      -8.6      2.610      8.444
REMARK SMILES O=C(OCCOCCOCCOCCOC(=O)c1sccc1[S@](=O)[O-])c1ccc(-c2c3nc(c(-c4c(F)cc(S(=O)(=O)[O-])cc4F)c4ccc([nH]4)c(-c4c(F)cc(S(=O)(=O)[O-])cc4F)c4nc(c(-c5c(F)cc(S(=O)(=O)[O-])cc5F)c5ccc2[nH]5)C=C4)C=C3)cc1
REMARK SMILES IDX 8 1 7 2 6 3 5 4 4 5 3 6 2 7 1 8 26 9 27 10 91 11 28 12 90 13
REMARK SMILES IDX 29 14 30 15 31 16 84 17 32 18 89 19 83 20 85 21 33 22 88 23
REMARK SMILES IDX 82 24 81 25 34 27 68 28 47 29 67 30 48 31 51 32 66 33 86 34
REMARK SMILES IDX 49 35 50 36 65 38 87 39 52 40 35 41 36 42 45 43 37 44 38 45
REMARK SMILES IDX 44 46 46 47 39 48 40 49 41 50 42 51 43 52 69 53 70 54 79 55
REMARK SMILES IDX 71 56 72 57 78 58 80 59 73 60 74 61 75 62 76 63 77 64 53 65
REMARK SMILES IDX 54 66 63 67 55 68 56 69 62 70 64 71 57 72 58 73 59 74 60 75
REMARK SMILES IDX 61 76 9 77 10 78 11 79 12 80 13 81 14 82 15 83 16 84 17 85
REMARK SMILES IDX 18 86 19 87 22 88 20 89 21 90 23 91 25 92 24 93
REMARK H PARENT 85 26 51 37
REMARK Flexibility Score: inf
ROOT
ATOM      1  C   UNL A   1      30.758  28.681  23.628  1.00  0.00     0.188 C 
ENDROOT
BRANCH   1   2
ATOM      2  C   UNL A   1      30.449  30.046  24.235  1.00  0.00     0.188 C 
BRANCH   2   3
ATOM      3  O   UNL A   1      31.357  30.371  25.288  1.00  0.00    -0.376 OA
BRANCH   3   4
ATOM      4  C   UNL A   1      31.877  29.267  26.027  1.00  0.00     0.202 C 
BRANCH   4   5
ATOM      5  C   UNL A   1      32.727  29.641  27.245  1.00  0.00     0.261 C 
BRANCH   5   6
ATOM      6  O   UNL A   1      33.703  30.654  26.961  1.00  0.00    -0.460 OA
BRANCH   6   7
ATOM      7  C   UNL A   1      34.529  31.277  27.839  1.00  0.00     0.338 C 
ATOM      8  O   UNL A   1      34.181  32.370  28.286  1.00  0.00    -0.246 OA
BRANCH   7   9
ATOM      9  C   UNL A   1      35.843  30.723  28.295  1.00  0.00     0.060 A 
ATOM     10  C   UNL A   1      36.095  29.383  28.597  1.00  0.00     0.016 A 
ATOM     11  C   UNL A   1      36.927  31.616  28.356  1.00  0.00     0.016 A 
ATOM     12  C   UNL A   1      37.340  28.944  29.013  1.00  0.00     0.010 A 
ATOM     13  C   UNL A   1      38.195  31.183  28.753  1.00  0.00     0.010 A 
ATOM     14  C   UNL A   1      38.390  29.845  29.115  1.00  0.00    -0.014 A 
BRANCH  14  15
ATOM     15  C   UNL A   1      39.605  29.384  29.803  1.00  0.00     0.031 A 
ATOM     16  C   UNL A   1      39.926  30.011  31.126  1.00  0.00     0.074 A 
ATOM     17  C   UNL A   1      40.283  28.322  29.332  1.00  0.00     0.049 A 
ATOM     18  N   UNL A   1      40.952  29.822  31.906  1.00  0.00    -0.248 NA
ATOM     19  C   UNL A   1      38.940  30.975  31.649  1.00  0.00     0.031 C 
ATOM     20  C   UNL A   1      39.925  27.555  28.134  1.00  0.00     0.029 A 
ATOM     21  N   UNL A   1      41.389  27.682  29.819  1.00  0.00    -0.354 N 
ATOM     22  C   UNL A   1      40.757  30.673  32.987  1.00  0.00     0.074 A 
ATOM     23  C   UNL A   1      39.517  31.379  32.767  1.00  0.00     0.031 C 
ATOM     24  C   UNL A   1      40.793  26.541  27.988  1.00  0.00     0.029 A 
ATOM     25  C   UNL A   1      41.804  26.631  29.035  1.00  0.00     0.049 A 
ATOM     26  H   UNL A   1      41.844  27.947  30.650  1.00  0.00     0.167 HD
ATOM     27  C   UNL A   1      41.560  30.847  34.062  1.00  0.00     0.037 A 
ATOM     28  C   UNL A   1      42.907  25.867  29.138  1.00  0.00     0.037 A 
ATOM     29  C   UNL A   1      42.783  30.116  34.238  1.00  0.00     0.049 A 
ATOM     30  C   UNL A   1      43.845  26.154  30.282  1.00  0.00     0.074 A 
ATOM     31  C   UNL A   1      43.730  30.237  35.236  1.00  0.00     0.029 A 
ATOM     32  N   UNL A   1      43.226  29.116  33.378  1.00  0.00    -0.354 N 
ATOM     33  N   UNL A   1      43.709  27.024  31.258  1.00  0.00    -0.248 NA
ATOM     34  C   UNL A   1      45.088  25.379  30.333  1.00  0.00     0.031 C 
ATOM     35  C   UNL A   1      44.770  29.345  34.951  1.00  0.00     0.029 A 
ATOM     36  C   UNL A   1      44.444  28.625  33.808  1.00  0.00     0.049 A 
ATOM     37  H   UNL A   1      42.743  28.804  32.579  1.00  0.00     0.167 HD
ATOM     38  C   UNL A   1      44.842  26.892  32.050  1.00  0.00     0.074 A 
ATOM     39  C   UNL A   1      45.643  25.844  31.446  1.00  0.00     0.031 C 
ATOM     40  C   UNL A   1      45.197  27.572  33.169  1.00  0.00     0.037 A 
BRANCH  27  41
ATOM     41  C   UNL A   1      41.169  31.916  35.043  1.00  0.00     0.058 A 
ATOM     42  C   UNL A   1      40.238  31.691  36.070  1.00  0.00     0.135 A 
ATOM     43  C   UNL A   1      41.695  33.212  34.913  1.00  0.00     0.135 A 
ATOM     44  F   UNL A   1      39.673  30.482  36.218  1.00  0.00    -0.206 F 
ATOM     45  C   UNL A   1      39.817  32.720  36.909  1.00  0.00     0.059 A 
ATOM     46  C   UNL A   1      41.309  34.249  35.758  1.00  0.00     0.059 A 
ATOM     47  F   UNL A   1      42.575  33.489  33.938  1.00  0.00    -0.206 F 
ATOM     48  C   UNL A   1      40.355  33.996  36.741  1.00  0.00     0.060 A 
BRANCH  48  49
ATOM     49  S   UNL A   1      39.779  35.328  37.816  1.00  0.00     0.124 S 
ATOM     50  O   UNL A   1      38.519  34.779  38.311  1.00  0.00    -0.237 OA
ATOM     51  O   UNL A   1      40.855  35.422  38.798  1.00  0.00    -0.237 OA
ATOM     52  O   UNL A   1      39.655  36.467  36.913  1.00  0.00    -0.744 OA
ENDBRANCH  48  49
ENDBRANCH  27  41
BRANCH  28  53
ATOM     53  C   UNL A   1      43.205  24.827  28.114  1.00  0.00     0.058 A 
ATOM     54  C   UNL A   1      43.872  25.140  26.921  1.00  0.00     0.135 A 
ATOM     55  C   UNL A   1      42.837  23.485  28.316  1.00  0.00     0.135 A 
ATOM     56  F   UNL A   1      44.240  26.406  26.670  1.00  0.00    -0.206 F 
ATOM     57  C   UNL A   1      44.152  24.168  25.962  1.00  0.00     0.059 A 
ATOM     58  C   UNL A   1      43.131  22.491  27.388  1.00  0.00     0.059 A 
ATOM     59  F   UNL A   1      42.202  23.125  29.442  1.00  0.00    -0.206 F 
ATOM     60  C   UNL A   1      43.780  22.845  26.207  1.00  0.00     0.060 A 
BRANCH  60  61
ATOM     61  S   UNL A   1      44.178  21.585  24.975  1.00  0.00     0.124 S 
ATOM     62  O   UNL A   1      45.535  21.216  25.360  1.00  0.00    -0.237 OA
ATOM     63  O   UNL A   1      43.149  20.580  25.222  1.00  0.00    -0.237 OA
ATOM     64  O   UNL A   1      44.054  22.300  23.708  1.00  0.00    -0.744 OA
ENDBRANCH  60  61
ENDBRANCH  28  53
BRANCH  40  65
ATOM     65  C   UNL A   1      46.487  27.175  33.822  1.00  0.00     0.058 A 
ATOM     66  C   UNL A   1      46.542  26.149  34.777  1.00  0.00     0.135 A 
ATOM     67  C   UNL A   1      47.691  27.783  33.431  1.00  0.00     0.135 A 
ATOM     68  F   UNL A   1      45.415  25.544  35.186  1.00  0.00    -0.206 F 
ATOM     69  C   UNL A   1      47.749  25.749  35.338  1.00  0.00     0.059 A 
ATOM     70  C   UNL A   1      48.912  27.377  33.955  1.00  0.00     0.059 A 
ATOM     71  F   UNL A   1      47.687  28.760  32.510  1.00  0.00    -0.206 F 
ATOM     72  C   UNL A   1      48.929  26.367  34.915  1.00  0.00     0.060 A 
BRANCH  72  73
ATOM     73  S   UNL A   1      50.494  25.805  35.614  1.00  0.00     0.124 S 
ATOM     74  O   UNL A   1      51.080  25.091  34.484  1.00  0.00    -0.237 OA
ATOM     75  O   UNL A   1      51.143  27.062  35.975  1.00  0.00    -0.237 OA
ATOM     76  O   UNL A   1      50.083  24.972  36.739  1.00  0.00    -0.744 OA
ENDBRANCH  72  73
ENDBRANCH  40  65
ENDBRANCH  14  15
ENDBRANCH   7   9
ENDBRANCH   6   7
ENDBRANCH   5   6
ENDBRANCH   4   5
ENDBRANCH   3   4
ENDBRANCH   2   3
ENDBRANCH   1   2
BRANCH   1  77
ATOM     77  O   UNL A   1      29.636  27.818  23.475  1.00  0.00    -0.377 OA
BRANCH  77  78
ATOM     78  C   UNL A   1      29.607  26.649  24.285  1.00  0.00     0.188 C 
BRANCH  78  79
ATOM     79  C   UNL A   1      30.875  25.773  24.419  1.00  0.00     0.188 C 
BRANCH  79  80
ATOM     80  O   UNL A   1      31.133  24.900  23.328  1.00  0.00    -0.376 OA
BRANCH  80  81
ATOM     81  C   UNL A   1      31.837  25.491  22.235  1.00  0.00     0.202 C 
BRANCH  81  82
ATOM     82  C   UNL A   1      33.364  25.502  22.386  1.00  0.00     0.261 C 
BRANCH  82  83
ATOM     83  O   UNL A   1      33.849  24.745  23.508  1.00  0.00    -0.459 OA
BRANCH  83  84
ATOM     84  C   UNL A   1      34.410  23.530  23.288  1.00  0.00     0.349 C 
ATOM     85  O   UNL A   1      35.489  23.350  22.734  1.00  0.00    -0.245 OA
BRANCH  84  86
ATOM     86  C   UNL A   1      33.646  22.534  24.012  1.00  0.00     0.127 A 
ATOM     87  S   UNL A   1      32.541  21.554  23.115  1.00  0.00    -0.136 S 
ATOM     88  C   UNL A   1      33.665  22.143  25.337  1.00  0.00     0.050 A 
ATOM     89  C   UNL A   1      32.341  20.464  24.417  1.00  0.00     0.067 A 
ATOM     90  C   UNL A   1      32.938  20.931  25.564  1.00  0.00     0.029 A 
BRANCH  88  91
ATOM     91  S   UNL A   1      34.419  22.995  26.649  1.00  0.00    -0.020 S 
ATOM     92  O   UNL A   1      34.030  21.895  27.747  1.00  0.00    -0.768 OA
ATOM     93  O   UNL A   1      35.898  22.998  26.450  1.00  0.00    -0.269 OA
ENDBRANCH  88  91
ENDBRANCH  84  86
ENDBRANCH  83  84
ENDBRANCH  82  83
ENDBRANCH  81  82
ENDBRANCH  80  81
ENDBRANCH  79  80
ENDBRANCH  78  79
ENDBRANCH  77  78
ENDBRANCH   1  77
TORSDOF 24
ENDMDL
MODEL 3
REMARK VINA RESULT:      -8.4      2.687      8.510
REMARK SMILES O=C(OCCOCCOCCOCCOC(=O)c1sccc1[S@](=O)[O-])c1ccc(-c2c3nc(c(-c4c(F)cc(S(=O)(=O)[O-])cc4F)c4ccc([nH]4)c(-c4c(F)cc(S(=O)(=O)[O-])cc4F)c4nc(c(-c5c(F)cc(S(=O)(=O)[O-])cc5F)c5ccc2[nH]5)C=C4)C=C3)cc1
REMARK SMILES IDX 8 1 7 2 6 3 5 4 4 5 3 6 2 7 1 8 26 9 27 10 91 11 28 12 90 13
REMARK SMILES IDX 29 14 30 15 31 16 84 17 32 18 89 19 83 20 85 21 33 22 88 23
REMARK SMILES IDX 82 24 81 25 34 27 68 28 47 29 67 30 48 31 51 32 66 33 86 34
REMARK SMILES IDX 49 35 50 36 65 38 87 39 52 40 35 41 36 42 45 43 37 44 38 45
REMARK SMILES IDX 44 46 46 47 39 48 40 49 41 50 42 51 43 52 69 53 70 54 79 55
REMARK SMILES IDX 71 56 72 57 78 58 80 59 73 60 74 61 75 62 76 63 77 64 53 65
REMARK SMILES IDX 54 66 63 67 55 68 56 69 62 70 64 71 57 72 58 73 59 74 60 75
REMARK SMILES IDX 61 76 9 77 10 78 11 79 12 80 13 81 14 82 15 83 16 84 17 85
REMARK SMILES IDX 18 86 19 87 22 88 20 89 21 90 23 91 25 92 24 93
REMARK H PARENT 85 26 51 37
REMARK Flexibility Score: inf
ROOT
ATOM      1  C   UNL A   1      33.253  27.725  23.305  1.00  0.00     0.188 C 
ENDROOT
BRANCH   1   2
ATOM      2  C   UNL A   1      33.636  27.889  24.773  1.00  0.00     0.188 C 
BRANCH   2   3
ATOM      3  O   UNL A   1      32.489  28.114  25.593  1.00  0.00    -0.376 OA
BRANCH   3   4
ATOM      4  C   UNL A   1      32.749  28.533  26.932  1.00  0.00     0.202 C 
BRANCH   4   5
ATOM      5  C   UNL A   1      32.432  30.001  27.228  1.00  0.00     0.261 C 
BRANCH   5   6
ATOM      6  O   UNL A   1      33.536  30.880  26.966  1.00  0.00    -0.460 OA
BRANCH   6   7
ATOM      7  C   UNL A   1      34.341  31.491  27.871  1.00  0.00     0.338 C 
ATOM      8  O   UNL A   1      33.971  32.567  28.342  1.00  0.00    -0.246 OA
BRANCH   7   9
ATOM      9  C   UNL A   1      35.656  30.944  28.332  1.00  0.00     0.060 A 
ATOM     10  C   UNL A   1      35.889  29.627  28.733  1.00  0.00     0.016 A 
ATOM     11  C   UNL A   1      36.760  31.812  28.289  1.00  0.00     0.016 A 
ATOM     12  C   UNL A   1      37.136  29.192  29.147  1.00  0.00     0.010 A 
ATOM     13  C   UNL A   1      38.031  31.382  28.682  1.00  0.00     0.010 A 
ATOM     14  C   UNL A   1      38.208  30.073  29.144  1.00  0.00    -0.014 A 
BRANCH  14  15
ATOM     15  C   UNL A   1      39.434  29.639  29.832  1.00  0.00     0.031 A 
ATOM     16  C   UNL A   1      39.752  30.289  31.144  1.00  0.00     0.074 A 
ATOM     17  C   UNL A   1      40.125  28.582  29.371  1.00  0.00     0.049 A 
ATOM     18  N   UNL A   1      40.786  30.126  31.921  1.00  0.00    -0.248 NA
ATOM     19  C   UNL A   1      38.755  31.245  31.660  1.00  0.00     0.031 C 
ATOM     20  C   UNL A   1      39.773  27.794  28.185  1.00  0.00     0.029 A 
ATOM     21  N   UNL A   1      41.244  27.965  29.859  1.00  0.00    -0.354 N 
ATOM     22  C   UNL A   1      40.584  30.987  32.992  1.00  0.00     0.074 A 
ATOM     23  C   UNL A   1      39.332  31.671  32.770  1.00  0.00     0.031 C 
ATOM     24  C   UNL A   1      40.654  26.792  28.047  1.00  0.00     0.029 A 
ATOM     25  C   UNL A   1      41.670  26.911  29.086  1.00  0.00     0.049 A 
ATOM     26  H   UNL A   1      41.699  28.248  30.684  1.00  0.00     0.167 HD
ATOM     27  C   UNL A   1      41.390  31.188  34.059  1.00  0.00     0.037 A 
ATOM     28  C   UNL A   1      42.785  26.164  29.193  1.00  0.00     0.037 A 
ATOM     29  C   UNL A   1      42.626  30.478  34.238  1.00  0.00     0.049 A 
ATOM     30  C   UNL A   1      43.724  26.480  30.328  1.00  0.00     0.074 A 
ATOM     31  C   UNL A   1      43.576  30.626  35.229  1.00  0.00     0.029 A 
ATOM     32  N   UNL A   1      43.079  29.473  33.388  1.00  0.00    -0.354 N 
ATOM     33  N   UNL A   1      43.581  27.361  31.293  1.00  0.00    -0.248 NA
ATOM     34  C   UNL A   1      44.980  25.726  30.382  1.00  0.00     0.031 C 
ATOM     35  C   UNL A   1      44.627  29.746  34.949  1.00  0.00     0.029 A 
ATOM     36  C   UNL A   1      44.306  29.007  33.818  1.00  0.00     0.049 A 
ATOM     37  H   UNL A   1      42.596  29.144  32.597  1.00  0.00     0.167 HD
ATOM     38  C   UNL A   1      44.720  27.257  32.080  1.00  0.00     0.074 A 
ATOM     39  C   UNL A   1      45.534  26.213  31.485  1.00  0.00     0.031 C 
ATOM     40  C   UNL A   1      45.072  27.957  33.188  1.00  0.00     0.037 A 
BRANCH  27  41
ATOM     41  C   UNL A   1      40.988  32.263  35.028  1.00  0.00     0.058 A 
ATOM     42  C   UNL A   1      41.429  33.591  34.905  1.00  0.00     0.135 A 
ATOM     43  C   UNL A   1      40.191  31.942  36.139  1.00  0.00     0.135 A 
ATOM     44  F   UNL A   1      42.226  33.947  33.884  1.00  0.00    -0.206 F 
ATOM     45  C   UNL A   1      41.125  34.552  35.866  1.00  0.00     0.059 A 
ATOM     46  C   UNL A   1      39.852  32.893  37.098  1.00  0.00     0.059 A 
ATOM     47  F   UNL A   1      39.755  30.686  36.318  1.00  0.00    -0.206 F 
ATOM     48  C   UNL A   1      40.340  34.192  36.962  1.00  0.00     0.060 A 
BRANCH  48  49
ATOM     49  S   UNL A   1      39.976  35.439  38.216  1.00  0.00     0.124 S 
ATOM     50  O   UNL A   1      38.729  34.931  38.779  1.00  0.00    -0.237 OA
ATOM     51  O   UNL A   1      41.144  35.352  39.088  1.00  0.00    -0.237 OA
ATOM     52  O   UNL A   1      39.861  36.673  37.447  1.00  0.00    -0.744 OA
ENDBRANCH  48  49
ENDBRANCH  27  41
BRANCH  28  53
ATOM     53  C   UNL A   1      43.093  25.116  28.181  1.00  0.00     0.058 A 
ATOM     54  C   UNL A   1      43.648  25.438  26.934  1.00  0.00     0.135 A 
ATOM     55  C   UNL A   1      42.849  23.757  28.448  1.00  0.00     0.135 A 
ATOM     56  F   UNL A   1      43.894  26.719  26.620  1.00  0.00    -0.206 F 
ATOM     57  C   UNL A   1      43.937  24.458  25.986  1.00  0.00     0.059 A 
ATOM     58  C   UNL A   1      43.156  22.758  27.531  1.00  0.00     0.059 A 
ATOM     59  F   UNL A   1      42.325  23.388  29.628  1.00  0.00    -0.206 F 
ATOM     60  C   UNL A   1      43.690  23.119  26.296  1.00  0.00     0.060 A 
BRANCH  60  61
ATOM     61  S   UNL A   1      44.100  21.852  25.076  1.00  0.00     0.124 S 
ATOM     62  O   UNL A   1      43.042  20.874  25.301  1.00  0.00    -0.237 OA
ATOM     63  O   UNL A   1      44.025  22.597  23.823  1.00  0.00    -0.237 OA
ATOM     64  O   UNL A   1      45.442  21.429  25.466  1.00  0.00    -0.744 OA
ENDBRANCH  60  61
ENDBRANCH  28  53
BRANCH  40  65
ATOM     65  C   UNL A   1      46.371  27.587  33.839  1.00  0.00     0.058 A 
ATOM     66  C   UNL A   1      47.569  28.241  33.512  1.00  0.00     0.135 A 
ATOM     67  C   UNL A   1      46.399  26.616  34.853  1.00  0.00     0.135 A 
ATOM     68  F   UNL A   1      47.590  29.171  32.545  1.00  0.00    -0.206 F 
ATOM     69  C   UNL A   1      48.759  27.930  34.158  1.00  0.00     0.059 A 
ATOM     70  C   UNL A   1      47.572  26.313  35.533  1.00  0.00     0.059 A 
ATOM     71  F   UNL A   1      45.275  25.975  35.207  1.00  0.00    -0.206 F 
ATOM     72  C   UNL A   1      48.748  26.968  35.172  1.00  0.00     0.060 A 
BRANCH  72  73
ATOM     73  S   UNL A   1      50.290  26.609  36.036  1.00  0.00     0.124 S 
ATOM     74  O   UNL A   1      50.340  27.697  37.007  1.00  0.00    -0.237 OA
ATOM     75  O   UNL A   1      50.038  25.280  36.585  1.00  0.00    -0.237 OA
ATOM     76  O   UNL A   1      51.293  26.664  34.978  1.00  0.00    -0.744 OA
ENDBRANCH  72  73
ENDBRANCH  40  65
ENDBRANCH  14  15
ENDBRANCH   7   9
ENDBRANCH   6   7
ENDBRANCH   5   6
ENDBRANCH   4   5
ENDBRANCH   3   4
ENDBRANCH   2   3
ENDBRANCH   1   2
BRANCH   1  77
ATOM     77  O   UNL A   1      31.930  28.134  22.975  1.00  0.00    -0.377 OA
BRANCH  77  78
ATOM     78  C   UNL A   1      30.975  27.104  22.746  1.00  0.00     0.188 C 
BRANCH  78  79
ATOM     79  C   UNL A   1      29.731  26.991  23.659  1.00  0.00     0.188 C 
BRANCH  79  80
ATOM     80  O   UNL A   1      29.823  26.031  24.701  1.00  0.00    -0.376 OA
BRANCH  80  81
ATOM     81  C   UNL A   1      30.924  25.128  24.596  1.00  0.00     0.202 C 
BRANCH  81  82
ATOM     82  C   UNL A   1      30.848  23.910  25.527  1.00  0.00     0.261 C 
BRANCH  82  83
ATOM     83  O   UNL A   1      30.958  22.646  24.851  1.00  0.00    -0.459 OA
BRANCH  83  84
ATOM     84  C   UNL A   1      31.900  21.762  25.261  1.00  0.00     0.349 C 
ATOM     85  O   UNL A   1      31.761  20.543  25.260  1.00  0.00    -0.245 OA
BRANCH  84  86
ATOM     86  C   UNL A   1      33.144  22.477  25.466  1.00  0.00     0.127 A 
ATOM     87  S   UNL A   1      33.748  22.600  27.080  1.00  0.00    -0.136 S 
ATOM     88  C   UNL A   1      34.027  23.063  24.580  1.00  0.00     0.050 A 
ATOM     89  C   UNL A   1      35.275  23.150  26.541  1.00  0.00     0.067 A 
ATOM     90  C   UNL A   1      35.268  23.422  25.194  1.00  0.00     0.029 A 
BRANCH  88  91
ATOM     91  S   UNL A   1      33.723  23.406  22.904  1.00  0.00    -0.020 S 
ATOM     92  O   UNL A   1      35.263  23.293  22.477  1.00  0.00    -0.768 OA
ATOM     93  O   UNL A   1      32.956  22.278  22.300  1.00  0.00    -0.269 OA
ENDBRANCH  88  91
ENDBRANCH  84  86
ENDBRANCH  83  84
ENDBRANCH  82  83
ENDBRANCH  81  82
ENDBRANCH  80  81
ENDBRANCH  79  80
ENDBRANCH  78  79
ENDBRANCH  77  78
ENDBRANCH   1  77
TORSDOF 24
ENDMDL
