MODEL 1
REMARK VINA RESULT:     -10.2      0.000      0.000
REMARK SMILES O=C(OCCOCCOCCOCCOC(=O)[C@H]1CC2=c3ccccc3=N[C@H]2[C@@H](c2ccccc2)[NH2+]1)c1ccc(-c2c3nc(c(-c4c(F)cc(S(=O)(=O)[O-])cc4F)c4ccc([nH]4)c(-c4c(F)cc(S(=O)(=O)[O-])cc4F)c4nc(c(-c5c(F)cc(S(=O)(=O)[O-])cc5F)c5ccc2[nH]5)C=C4)C=C3)cc1
REMARK SMILES IDX 8 1 7 2 6 3 5 4 4 5 3 6 2 7 1 8 37 9 38 10 102 11 39 12
REMARK SMILES IDX 101 13 40 14 41 15 42 16 95 17 43 18 100 19 94 20 96 21
REMARK SMILES IDX 44 22 99 23 93 24 92 25 45 27 79 28 58 29 78 30 59 31 62 32
REMARK SMILES IDX 77 33 97 34 60 35 61 36 76 38 98 39 63 40 46 41 47 42 56 43
REMARK SMILES IDX 48 44 49 45 55 46 57 47 50 48 51 49 52 50 53 51 54 52 80 53
REMARK SMILES IDX 81 54 90 55 82 56 83 57 89 58 91 59 84 60 85 61 86 62 87 63
REMARK SMILES IDX 88 64 64 65 65 66 74 67 66 68 67 69 73 70 75 71 68 72 69 73
REMARK SMILES IDX 70 74 71 75 72 76 9 77 10 78 11 79 12 80 13 81 14 82 15 83
REMARK SMILES IDX 16 84 17 85 18 86 19 87 36 88 20 89 29 90 21 93 28 94 22 95
REMARK SMILES IDX 26 96 27 97 23 98 25 99 24 100 30 101 31 102 35 103 32 104
REMARK SMILES IDX 34 105 33 106
REMARK H PARENT 96 26 62 37 36 91 36 92
REMARK Flexibility Score: inf
ROOT
ATOM      1  C   UNL A   1      31.425  26.205  25.576  1.00  0.00     0.188 C 
ENDROOT
BRANCH   1   2
ATOM      2  C   UNL A   1      32.830  26.669  25.976  1.00  0.00     0.188 C 
BRANCH   2   3
ATOM      3  O   UNL A   1      32.955  27.689  26.958  1.00  0.00    -0.376 OA
BRANCH   3   4
ATOM      4  C   UNL A   1      33.871  28.741  26.680  1.00  0.00     0.202 C 
BRANCH   4   5
ATOM      5  C   UNL A   1      33.314  30.161  26.732  1.00  0.00     0.261 C 
BRANCH   5   6
ATOM      6  O   UNL A   1      33.730  30.912  27.876  1.00  0.00    -0.460 OA
BRANCH   6   7
ATOM      7  C   UNL A   1      34.918  31.541  28.055  1.00  0.00     0.338 C 
ATOM      8  O   UNL A   1      35.041  32.672  27.584  1.00  0.00    -0.246 OA
BRANCH   7   9
ATOM      9  C   UNL A   1      36.142  30.876  28.623  1.00  0.00     0.060 A 
ATOM     10  C   UNL A   1      37.371  31.503  28.344  1.00  0.00     0.016 A 
ATOM     11  C   UNL A   1      36.177  29.703  29.385  1.00  0.00     0.016 A 
ATOM     12  C   UNL A   1      38.581  30.971  28.802  1.00  0.00     0.010 A 
ATOM     13  C   UNL A   1      37.380  29.141  29.810  1.00  0.00     0.010 A 
ATOM     14  C   UNL A   1      38.585  29.787  29.545  1.00  0.00    -0.014 A 
BRANCH  14  15
ATOM     15  C   UNL A   1      39.788  29.351  30.276  1.00  0.00     0.031 A 
ATOM     16  C   UNL A   1      40.233  30.017  31.536  1.00  0.00     0.074 A 
ATOM     17  C   UNL A   1      40.521  28.389  29.688  1.00  0.00     0.049 A 
ATOM     18  N   UNL A   1      41.214  29.681  32.330  1.00  0.00    -0.248 NA
ATOM     19  C   UNL A   1      39.502  31.223  31.952  1.00  0.00     0.031 C 
ATOM     20  C   UNL A   1      40.201  27.774  28.395  1.00  0.00     0.029 A 
ATOM     21  N   UNL A   1      41.675  27.769  30.076  1.00  0.00    -0.354 N 
ATOM     22  C   UNL A   1      41.204  30.610  33.361  1.00  0.00     0.074 A 
ATOM     23  C   UNL A   1      40.156  31.562  33.057  1.00  0.00     0.031 C 
ATOM     24  C   UNL A   1      41.125  26.848  28.108  1.00  0.00     0.029 A 
ATOM     25  C   UNL A   1      42.099  26.807  29.191  1.00  0.00     0.049 A 
ATOM     26  H   UNL A   1      42.155  27.990  30.906  1.00  0.00     0.167 HD
ATOM     27  C   UNL A   1      41.993  30.638  34.463  1.00  0.00     0.037 A 
ATOM     28  C   UNL A   1      43.145  25.966  29.260  1.00  0.00     0.037 A 
ATOM     29  C   UNL A   1      43.056  29.689  34.694  1.00  0.00     0.049 A 
ATOM     30  C   UNL A   1      44.000  26.007  30.491  1.00  0.00     0.074 A 
ATOM     31  C   UNL A   1      43.877  29.563  35.800  1.00  0.00     0.029 A 
ATOM     32  N   UNL A   1      43.461  28.718  33.784  1.00  0.00    -0.354 N 
ATOM     33  N   UNL A   1      43.887  26.789  31.538  1.00  0.00    -0.248 NA
ATOM     34  C   UNL A   1      45.109  25.052  30.562  1.00  0.00     0.031 C 
ATOM     35  C   UNL A   1      44.814  28.557  35.534  1.00  0.00     0.029 A 
ATOM     36  C   UNL A   1      44.548  28.017  34.284  1.00  0.00     0.049 A 
ATOM     37  H   UNL A   1      43.039  28.552  32.911  1.00  0.00     0.167 HD
ATOM     38  C   UNL A   1      44.912  26.423  32.399  1.00  0.00     0.074 A 
ATOM     39  C   UNL A   1      45.616  25.327  31.757  1.00  0.00     0.031 C 
ATOM     40  C   UNL A   1      45.244  26.949  33.605  1.00  0.00     0.037 A 
BRANCH  27  41
ATOM     41  C   UNL A   1      41.732  31.705  35.494  1.00  0.00     0.058 A 
ATOM     42  C   UNL A   1      42.569  32.829  35.610  1.00  0.00     0.135 A 
ATOM     43  C   UNL A   1      40.616  31.641  36.344  1.00  0.00     0.135 A 
ATOM     44  F   UNL A   1      43.654  32.949  34.828  1.00  0.00    -0.206 F 
ATOM     45  C   UNL A   1      42.331  33.826  36.551  1.00  0.00     0.059 A 
ATOM     46  C   UNL A   1      40.341  32.642  37.276  1.00  0.00     0.059 A 
ATOM     47  F   UNL A   1      39.774  30.597  36.277  1.00  0.00    -0.206 F 
ATOM     48  C   UNL A   1      41.215  33.724  37.383  1.00  0.00     0.060 A 
BRANCH  48  49
ATOM     49  S   UNL A   1      40.934  35.020  38.608  1.00  0.00     0.124 S 
ATOM     50  O   UNL A   1      40.640  34.232  39.802  1.00  0.00    -0.237 OA
ATOM     51  O   UNL A   1      42.218  35.721  38.616  1.00  0.00    -0.237 OA
ATOM     52  O   UNL A   1      39.815  35.773  38.063  1.00  0.00    -0.744 OA
ENDBRANCH  48  49
ENDBRANCH  27  41
BRANCH  28  53
ATOM     53  C   UNL A   1      43.347  24.983  28.167  1.00  0.00     0.058 A 
ATOM     54  C   UNL A   1      44.073  25.333  27.020  1.00  0.00     0.135 A 
ATOM     55  C   UNL A   1      42.944  23.645  28.304  1.00  0.00     0.135 A 
ATOM     56  F   UNL A   1      44.488  26.598  26.849  1.00  0.00    -0.206 F 
ATOM     57  C   UNL A   1      44.406  24.389  26.054  1.00  0.00     0.059 A 
ATOM     58  C   UNL A   1      43.283  22.679  27.362  1.00  0.00     0.059 A 
ATOM     59  F   UNL A   1      42.273  23.254  29.400  1.00  0.00    -0.206 F 
ATOM     60  C   UNL A   1      44.017  23.061  26.240  1.00  0.00     0.060 A 
BRANCH  60  61
ATOM     61  S   UNL A   1      44.543  21.832  25.027  1.00  0.00     0.124 S 
ATOM     62  O   UNL A   1      43.652  20.718  25.329  1.00  0.00    -0.237 OA
ATOM     63  O   UNL A   1      44.293  22.525  23.766  1.00  0.00    -0.237 OA
ATOM     64  O   UNL A   1      45.950  21.619  25.348  1.00  0.00    -0.744 OA
ENDBRANCH  60  61
ENDBRANCH  28  53
BRANCH  40  65
ATOM     65  C   UNL A   1      46.451  26.372  34.288  1.00  0.00     0.058 A 
ATOM     66  C   UNL A   1      47.721  26.944  34.117  1.00  0.00     0.135 A 
ATOM     67  C   UNL A   1      46.327  25.298  35.184  1.00  0.00     0.135 A 
ATOM     68  F   UNL A   1      47.894  27.965  33.261  1.00  0.00    -0.206 F 
ATOM     69  C   UNL A   1      48.828  26.470  34.811  1.00  0.00     0.059 A 
ATOM     70  C   UNL A   1      47.415  24.825  35.909  1.00  0.00     0.059 A 
ATOM     71  F   UNL A   1      45.131  24.719  35.383  1.00  0.00    -0.206 F 
ATOM     72  C   UNL A   1      48.662  25.418  35.714  1.00  0.00     0.060 A 
BRANCH  72  73
ATOM     73  S   UNL A   1      50.098  24.864  36.655  1.00  0.00     0.124 S 
ATOM     74  O   UNL A   1      51.178  25.075  35.697  1.00  0.00    -0.237 OA
ATOM     75  O   UNL A   1      50.082  25.769  37.802  1.00  0.00    -0.237 OA
ATOM     76  O   UNL A   1      49.791  23.471  36.959  1.00  0.00    -0.744 OA
ENDBRANCH  72  73
ENDBRANCH  40  65
ENDBRANCH  14  15
ENDBRANCH   7   9
ENDBRANCH   6   7
ENDBRANCH   5   6
ENDBRANCH   4   5
ENDBRANCH   3   4
ENDBRANCH   2   3
ENDBRANCH   1   2
BRANCH   1  77
ATOM     77  O   UNL A   1      30.595  27.034  24.778  1.00  0.00    -0.377 OA
BRANCH  77  78
ATOM     78  C   UNL A   1      31.041  28.336  24.405  1.00  0.00     0.188 C 
BRANCH  78  79
ATOM     79  C   UNL A   1      31.208  28.727  22.932  1.00  0.00     0.188 C 
BRANCH  79  80
ATOM     80  O   UNL A   1      30.707  27.750  22.043  1.00  0.00    -0.376 OA
BRANCH  80  81
ATOM     81  C   UNL A   1      31.592  26.737  21.564  1.00  0.00     0.202 C 
BRANCH  81  82
ATOM     82  C   UNL A   1      33.097  26.758  21.930  1.00  0.00     0.261 C 
BRANCH  82  83
ATOM     83  O   UNL A   1      33.742  25.488  21.703  1.00  0.00    -0.459 OA
BRANCH  83  84
ATOM     84  C   UNL A   1      33.290  24.445  22.473  1.00  0.00     0.365 C 
ATOM     85  O   UNL A   1      32.144  24.013  22.448  1.00  0.00    -0.245 OA
BRANCH  84  86
ATOM     86  C   UNL A   1      34.488  23.690  23.096  1.00  0.00     0.298 C 
ATOM     87  C   UNL A   1      35.278  24.314  24.296  1.00  0.00     0.111 C 
ATOM     88  N   UNL A   1      34.065  22.250  23.232  1.00  0.00    -0.326 N 
ATOM     89  C   UNL A   1      36.405  23.363  24.698  1.00  0.00    -0.024 C 
ATOM     90  C   UNL A   1      34.734  21.529  24.352  1.00  0.00     0.243 C 
ATOM     91  H   UNL A   1      34.286  21.767  22.360  1.00  0.00     0.347 HD
ATOM     92  H   UNL A   1      33.065  22.251  23.432  1.00  0.00     0.347 HD
ATOM     93  C   UNL A   1      37.447  23.379  25.532  1.00  0.00     0.002 A 
ATOM     94  C   UNL A   1      36.224  21.955  24.181  1.00  0.00     0.196 C 
ATOM     95  C   UNL A   1      37.995  24.257  26.519  1.00  0.00     0.010 A 
ATOM     96  C   UNL A   1      37.972  21.990  25.427  1.00  0.00     0.066 A 
ATOM     97  N   UNL A   1      37.247  21.101  24.820  1.00  0.00    -0.270 NA
ATOM     98  C   UNL A   1      39.092  23.866  27.196  1.00  0.00     0.001 A 
ATOM     99  C   UNL A   1      39.275  21.709  26.054  1.00  0.00     0.028 A 
ATOM    100  C   UNL A   1      39.794  22.632  26.876  1.00  0.00     0.002 A 
BRANCH  90 101
ATOM    101  C   UNL A   1      34.005  21.803  25.693  1.00  0.00     0.012 A 
ATOM    102  C   UNL A   1      34.631  21.695  26.945  1.00  0.00     0.010 A 
ATOM    103  C   UNL A   1      32.660  22.230  25.701  1.00  0.00     0.010 A 
ATOM    104  C   UNL A   1      34.013  22.155  28.117  1.00  0.00     0.001 A 
ATOM    105  C   UNL A   1      32.035  22.676  26.868  1.00  0.00     0.001 A 
ATOM    106  C   UNL A   1      32.723  22.668  28.074  1.00  0.00     0.000 A 
ENDBRANCH  90 101
ENDBRANCH  84  86
ENDBRANCH  83  84
ENDBRANCH  82  83
ENDBRANCH  81  82
ENDBRANCH  80  81
ENDBRANCH  79  80
ENDBRANCH  78  79
ENDBRANCH  77  78
ENDBRANCH   1  77
TORSDOF 24
ENDMDL
MODEL 2
REMARK VINA RESULT:     -10.1      0.652      7.906
REMARK SMILES O=C(OCCOCCOCCOCCOC(=O)[C@H]1CC2=c3ccccc3=N[C@H]2[C@@H](c2ccccc2)[NH2+]1)c1ccc(-c2c3nc(c(-c4c(F)cc(S(=O)(=O)[O-])cc4F)c4ccc([nH]4)c(-c4c(F)cc(S(=O)(=O)[O-])cc4F)c4nc(c(-c5c(F)cc(S(=O)(=O)[O-])cc5F)c5ccc2[nH]5)C=C4)C=C3)cc1
REMARK SMILES IDX 8 1 7 2 6 3 5 4 4 5 3 6 2 7 1 8 37 9 38 10 102 11 39 12
REMARK SMILES IDX 101 13 40 14 41 15 42 16 95 17 43 18 100 19 94 20 96 21
REMARK SMILES IDX 44 22 99 23 93 24 92 25 45 27 79 28 58 29 78 30 59 31 62 32
REMARK SMILES IDX 77 33 97 34 60 35 61 36 76 38 98 39 63 40 46 41 47 42 56 43
REMARK SMILES IDX 48 44 49 45 55 46 57 47 50 48 51 49 52 50 53 51 54 52 80 53
REMARK SMILES IDX 81 54 90 55 82 56 83 57 89 58 91 59 84 60 85 61 86 62 87 63
REMARK SMILES IDX 88 64 64 65 65 66 74 67 66 68 67 69 73 70 75 71 68 72 69 73
REMARK SMILES IDX 70 74 71 75 72 76 9 77 10 78 11 79 12 80 13 81 14 82 15 83
REMARK SMILES IDX 16 84 17 85 18 86 19 87 36 88 20 89 29 90 21 93 28 94 22 95
REMARK SMILES IDX 26 96 27 97 23 98 25 99 24 100 30 101 31 102 35 103 32 104
REMARK SMILES IDX 34 105 33 106
REMARK H PARENT 96 26 62 37 36 91 36 92
REMARK Flexibility Score: inf
ROOT
ATOM      1  C   UNL A   1      31.370  26.173  25.248  1.00  0.00     0.188 C 
ENDROOT
BRANCH   1   2
ATOM      2  C   UNL A   1      32.763  26.728  25.566  1.00  0.00     0.188 C 
BRANCH   2   3
ATOM      3  O   UNL A   1      32.885  27.720  26.577  1.00  0.00    -0.376 OA
BRANCH   3   4
ATOM      4  C   UNL A   1      33.729  28.828  26.292  1.00  0.00     0.202 C 
BRANCH   4   5
ATOM      5  C   UNL A   1      33.106  30.214  26.438  1.00  0.00     0.261 C 
BRANCH   5   6
ATOM      6  O   UNL A   1      33.451  30.887  27.652  1.00  0.00    -0.460 OA
BRANCH   6   7
ATOM      7  C   UNL A   1      34.591  31.575  27.911  1.00  0.00     0.338 C 
ATOM      8  O   UNL A   1      34.645  32.748  27.542  1.00  0.00    -0.246 OA
BRANCH   7   9
ATOM      9  C   UNL A   1      35.848  30.944  28.446  1.00  0.00     0.060 A 
ATOM     10  C   UNL A   1      37.019  31.719  28.345  1.00  0.00     0.016 A 
ATOM     11  C   UNL A   1      35.965  29.672  29.018  1.00  0.00     0.016 A 
ATOM     12  C   UNL A   1      38.253  31.236  28.792  1.00  0.00     0.010 A 
ATOM     13  C   UNL A   1      37.197  29.164  29.426  1.00  0.00     0.010 A 
ATOM     14  C   UNL A   1      38.341  29.954  29.341  1.00  0.00    -0.014 A 
BRANCH  14  15
ATOM     15  C   UNL A   1      39.546  29.520  30.071  1.00  0.00     0.031 A 
ATOM     16  C   UNL A   1      40.384  28.376  29.606  1.00  0.00     0.074 A 
ATOM     17  C   UNL A   1      39.790  30.146  31.236  1.00  0.00     0.049 A 
ATOM     18  N   UNL A   1      41.517  27.946  30.095  1.00  0.00    -0.248 NA
ATOM     19  C   UNL A   1      39.885  27.600  28.462  1.00  0.00     0.031 C 
ATOM     20  C   UNL A   1      38.941  31.200  31.805  1.00  0.00     0.029 A 
ATOM     21  N   UNL A   1      40.792  29.993  32.152  1.00  0.00    -0.354 N 
ATOM     22  C   UNL A   1      41.889  26.869  29.302  1.00  0.00     0.074 A 
ATOM     23  C   UNL A   1      40.827  26.673  28.337  1.00  0.00     0.031 C 
ATOM     24  C   UNL A   1      39.473  31.614  32.963  1.00  0.00     0.029 A 
ATOM     25  C   UNL A   1      40.691  30.856  33.216  1.00  0.00     0.049 A 
ATOM     26  H   UNL A   1      41.513  29.331  32.058  1.00  0.00     0.167 HD
ATOM     27  C   UNL A   1      43.027  26.137  29.376  1.00  0.00     0.037 A 
ATOM     28  C   UNL A   1      41.509  31.033  34.269  1.00  0.00     0.037 A 
ATOM     29  C   UNL A   1      44.034  26.346  30.390  1.00  0.00     0.049 A 
ATOM     30  C   UNL A   1      42.766  30.220  34.327  1.00  0.00     0.074 A 
ATOM     31  C   UNL A   1      45.261  25.725  30.531  1.00  0.00     0.029 A 
ATOM     32  N   UNL A   1      43.912  27.233  31.454  1.00  0.00    -0.354 N 
ATOM     33  N   UNL A   1      43.189  29.308  33.483  1.00  0.00    -0.248 NA
ATOM     34  C   UNL A   1      43.662  30.461  35.461  1.00  0.00     0.031 C 
ATOM     35  C   UNL A   1      45.853  26.191  31.710  1.00  0.00     0.029 A 
ATOM     36  C   UNL A   1      45.021  27.145  32.281  1.00  0.00     0.049 A 
ATOM     37  H   UNL A   1      43.148  27.836  31.601  1.00  0.00     0.167 HD
ATOM     38  C   UNL A   1      44.405  28.862  33.982  1.00  0.00     0.074 A 
ATOM     39  C   UNL A   1      44.659  29.629  35.189  1.00  0.00     0.031 C 
ATOM     40  C   UNL A   1      45.230  27.904  33.492  1.00  0.00     0.037 A 
BRANCH  27  41
ATOM     41  C   UNL A   1      43.249  25.065  28.340  1.00  0.00     0.058 A 
ATOM     42  C   UNL A   1      43.715  25.380  27.052  1.00  0.00     0.135 A 
ATOM     43  C   UNL A   1      43.044  23.708  28.639  1.00  0.00     0.135 A 
ATOM     44  F   UNL A   1      43.929  26.659  26.703  1.00  0.00    -0.206 F 
ATOM     45  C   UNL A   1      43.935  24.397  26.091  1.00  0.00     0.059 A 
ATOM     46  C   UNL A   1      43.284  22.703  27.702  1.00  0.00     0.059 A 
ATOM     47  F   UNL A   1      42.606  23.341  29.854  1.00  0.00    -0.206 F 
ATOM     48  C   UNL A   1      43.714  23.060  26.424  1.00  0.00     0.060 A 
BRANCH  48  49
ATOM     49  S   UNL A   1      43.989  21.803  25.157  1.00  0.00     0.124 S 
ATOM     50  O   UNL A   1      43.824  22.583  23.933  1.00  0.00    -0.237 OA
ATOM     51  O   UNL A   1      45.354  21.366  25.447  1.00  0.00    -0.237 OA
ATOM     52  O   UNL A   1      42.949  20.819  25.417  1.00  0.00    -0.744 OA
ENDBRANCH  48  49
ENDBRANCH  27  41
BRANCH  28  53
ATOM     53  C   UNL A   1      41.177  32.082  35.265  1.00  0.00     0.058 A 
ATOM     54  C   UNL A   1      40.244  31.831  36.280  1.00  0.00     0.135 A 
ATOM     55  C   UNL A   1      41.880  33.297  35.307  1.00  0.00     0.135 A 
ATOM     56  F   UNL A   1      39.554  30.679  36.286  1.00  0.00    -0.206 F 
ATOM     57  C   UNL A   1      40.029  32.739  37.311  1.00  0.00     0.059 A 
ATOM     58  C   UNL A   1      41.698  34.212  36.340  1.00  0.00     0.059 A 
ATOM     59  F   UNL A   1      42.806  33.571  34.374  1.00  0.00    -0.206 F 
ATOM     60  C   UNL A   1      40.770  33.921  37.340  1.00  0.00     0.060 A 
BRANCH  60  61
ATOM     61  S   UNL A   1      40.550  35.041  38.739  1.00  0.00     0.124 S 
ATOM     62  O   UNL A   1      41.317  34.367  39.781  1.00  0.00    -0.237 OA
ATOM     63  O   UNL A   1      41.124  36.282  38.227  1.00  0.00    -0.237 OA
ATOM     64  O   UNL A   1      39.104  35.060  38.933  1.00  0.00    -0.744 OA
ENDBRANCH  60  61
ENDBRANCH  28  53
BRANCH  40  65
ATOM     65  C   UNL A   1      46.466  27.600  34.289  1.00  0.00     0.058 A 
ATOM     66  C   UNL A   1      46.470  26.588  35.262  1.00  0.00     0.135 A 
ATOM     67  C   UNL A   1      47.676  28.260  34.021  1.00  0.00     0.135 A 
ATOM     68  F   UNL A   1      45.335  25.937  35.564  1.00  0.00    -0.206 F 
ATOM     69  C   UNL A   1      47.630  26.243  35.944  1.00  0.00     0.059 A 
ATOM     70  C   UNL A   1      48.855  27.912  34.670  1.00  0.00     0.059 A 
ATOM     71  F   UNL A   1      47.725  29.233  33.096  1.00  0.00    -0.206 F 
ATOM     72  C   UNL A   1      48.821  26.903  35.632  1.00  0.00     0.060 A 
BRANCH  72  73
ATOM     73  S   UNL A   1      50.329  26.391  36.478  1.00  0.00     0.124 S 
ATOM     74  O   UNL A   1      51.128  25.874  35.371  1.00  0.00    -0.237 OA
ATOM     75  O   UNL A   1      50.795  27.645  37.064  1.00  0.00    -0.237 OA
ATOM     76  O   UNL A   1      49.863  25.393  37.434  1.00  0.00    -0.744 OA
ENDBRANCH  72  73
ENDBRANCH  40  65
ENDBRANCH  14  15
ENDBRANCH   7   9
ENDBRANCH   6   7
ENDBRANCH   5   6
ENDBRANCH   4   5
ENDBRANCH   3   4
ENDBRANCH   2   3
ENDBRANCH   1   2
BRANCH   1  77
ATOM     77  O   UNL A   1      30.336  27.038  24.804  1.00  0.00    -0.377 OA
BRANCH  77  78
ATOM     78  C   UNL A   1      30.656  28.349  24.346  1.00  0.00     0.188 C 
BRANCH  78  79
ATOM     79  C   UNL A   1      31.223  28.583  22.940  1.00  0.00     0.188 C 
BRANCH  79  80
ATOM     80  O   UNL A   1      30.734  27.660  21.989  1.00  0.00    -0.376 OA
BRANCH  80  81
ATOM     81  C   UNL A   1      31.608  26.637  21.512  1.00  0.00     0.202 C 
BRANCH  81  82
ATOM     82  C   UNL A   1      33.111  26.638  21.882  1.00  0.00     0.261 C 
BRANCH  82  83
ATOM     83  O   UNL A   1      33.737  25.356  21.669  1.00  0.00    -0.459 OA
BRANCH  83  84
ATOM     84  C   UNL A   1      33.287  24.334  22.467  1.00  0.00     0.365 C 
ATOM     85  O   UNL A   1      32.139  23.908  22.463  1.00  0.00    -0.245 OA
BRANCH  84  86
ATOM     86  C   UNL A   1      34.487  23.586  23.096  1.00  0.00     0.298 C 
ATOM     87  C   UNL A   1      35.294  24.235  24.272  1.00  0.00     0.111 C 
ATOM     88  N   UNL A   1      34.057  22.153  23.270  1.00  0.00    -0.326 N 
ATOM     89  C   UNL A   1      36.419  23.287  24.685  1.00  0.00    -0.024 C 
ATOM     90  C   UNL A   1      34.733  21.455  24.401  1.00  0.00     0.243 C 
ATOM     91  H   UNL A   1      34.266  21.647  22.409  1.00  0.00     0.347 HD
ATOM     92  H   UNL A   1      33.059  22.165  23.482  1.00  0.00     0.347 HD
ATOM     93  C   UNL A   1      37.470  23.316  25.507  1.00  0.00     0.002 A 
ATOM     94  C   UNL A   1      36.225  21.868  24.204  1.00  0.00     0.196 C 
ATOM     95  C   UNL A   1      38.033  24.215  26.467  1.00  0.00     0.010 A 
ATOM     96  C   UNL A   1      37.985  21.922  25.431  1.00  0.00     0.066 A 
ATOM     97  N   UNL A   1      37.249  21.023  24.853  1.00  0.00    -0.270 NA
ATOM     98  C   UNL A   1      39.135  23.833  27.142  1.00  0.00     0.001 A 
ATOM     99  C   UNL A   1      39.294  21.648  26.051  1.00  0.00     0.028 A 
ATOM    100  C   UNL A   1      39.827  22.588  26.845  1.00  0.00     0.002 A 
BRANCH  90 101
ATOM    101  C   UNL A   1      34.020  21.766  25.742  1.00  0.00     0.012 A 
ATOM    102  C   UNL A   1      34.656  21.674  26.991  1.00  0.00     0.010 A 
ATOM    103  C   UNL A   1      32.682  22.212  25.753  1.00  0.00     0.010 A 
ATOM    104  C   UNL A   1      34.056  22.166  28.159  1.00  0.00     0.001 A 
ATOM    105  C   UNL A   1      32.073  22.690  26.917  1.00  0.00     0.001 A 
ATOM    106  C   UNL A   1      32.772  22.696  28.116  1.00  0.00     0.000 A 
ENDBRANCH  90 101
ENDBRANCH  84  86
ENDBRANCH  83  84
ENDBRANCH  82  83
ENDBRANCH  81  82
ENDBRANCH  80  81
ENDBRANCH  79  80
ENDBRANCH  78  79
ENDBRANCH  77  78
ENDBRANCH   1  77
TORSDOF 24
ENDMDL
MODEL 3
REMARK VINA RESULT:     -10.0      5.110      9.318
REMARK SMILES O=C(OCCOCCOCCOCCOC(=O)[C@H]1CC2=c3ccccc3=N[C@H]2[C@@H](c2ccccc2)[NH2+]1)c1ccc(-c2c3nc(c(-c4c(F)cc(S(=O)(=O)[O-])cc4F)c4ccc([nH]4)c(-c4c(F)cc(S(=O)(=O)[O-])cc4F)c4nc(c(-c5c(F)cc(S(=O)(=O)[O-])cc5F)c5ccc2[nH]5)C=C4)C=C3)cc1
REMARK SMILES IDX 8 1 7 2 6 3 5 4 4 5 3 6 2 7 1 8 37 9 38 10 102 11 39 12
REMARK SMILES IDX 101 13 40 14 41 15 42 16 95 17 43 18 100 19 94 20 96 21
REMARK SMILES IDX 44 22 99 23 93 24 92 25 45 27 79 28 58 29 78 30 59 31 62 32
REMARK SMILES IDX 77 33 97 34 60 35 61 36 76 38 98 39 63 40 46 41 47 42 56 43
REMARK SMILES IDX 48 44 49 45 55 46 57 47 50 48 51 49 52 50 53 51 54 52 80 53
REMARK SMILES IDX 81 54 90 55 82 56 83 57 89 58 91 59 84 60 85 61 86 62 87 63
REMARK SMILES IDX 88 64 64 65 65 66 74 67 66 68 67 69 73 70 75 71 68 72 69 73
REMARK SMILES IDX 70 74 71 75 72 76 9 77 10 78 11 79 12 80 13 81 14 82 15 83
REMARK SMILES IDX 16 84 17 85 18 86 19 87 36 88 20 89 29 90 21 93 28 94 22 95
REMARK SMILES IDX 26 96 27 97 23 98 25 99 24 100 30 101 31 102 35 103 32 104
REMARK SMILES IDX 34 105 33 106
REMARK H PARENT 96 26 62 37 36 91 36 92
REMARK Flexibility Score: inf
ROOT
ATOM      1  C   UNL A   1      34.121  28.658  26.691  1.00  0.00     0.188 C 
ENDROOT
BRANCH   1   2
ATOM      2  C   UNL A   1      34.475  29.820  27.624  1.00  0.00     0.188 C 
BRANCH   2   3
ATOM      3  O   UNL A   1      34.084  31.135  27.252  1.00  0.00    -0.376 OA
BRANCH   3   4
ATOM      4  C   UNL A   1      34.487  32.193  28.111  1.00  0.00     0.202 C 
BRANCH   4   5
ATOM      5  C   UNL A   1      34.786  31.818  29.561  1.00  0.00     0.261 C 
BRANCH   5   6
ATOM      6  O   UNL A   1      36.176  31.654  29.849  1.00  0.00    -0.460 OA
BRANCH   6   7
ATOM      7  C   UNL A   1      36.838  30.487  30.051  1.00  0.00     0.338 C 
ATOM      8  O   UNL A   1      36.350  29.684  30.847  1.00  0.00    -0.246 OA
BRANCH   7   9
ATOM      9  C   UNL A   1      38.213  30.198  29.512  1.00  0.00     0.060 A 
ATOM     10  C   UNL A   1      39.276  30.332  30.426  1.00  0.00     0.016 A 
ATOM     11  C   UNL A   1      38.534  29.823  28.203  1.00  0.00     0.016 A 
ATOM     12  C   UNL A   1      40.601  30.107  30.040  1.00  0.00     0.010 A 
ATOM     13  C   UNL A   1      39.854  29.639  27.796  1.00  0.00     0.010 A 
ATOM     14  C   UNL A   1      40.891  29.753  28.719  1.00  0.00    -0.014 A 
BRANCH  14  15
ATOM     15  C   UNL A   1      42.221  29.240  28.345  1.00  0.00     0.031 A 
ATOM     16  C   UNL A   1      42.454  27.798  28.034  1.00  0.00     0.074 A 
ATOM     17  C   UNL A   1      43.234  30.123  28.400  1.00  0.00     0.049 A 
ATOM     18  N   UNL A   1      43.546  27.226  27.602  1.00  0.00    -0.248 NA
ATOM     19  C   UNL A   1      41.331  26.875  28.252  1.00  0.00     0.031 C 
ATOM     20  C   UNL A   1      43.091  31.525  28.808  1.00  0.00     0.029 A 
ATOM     21  N   UNL A   1      44.567  29.987  28.133  1.00  0.00    -0.354 N 
ATOM     22  C   UNL A   1      43.240  25.879  27.462  1.00  0.00     0.074 A 
ATOM     23  C   UNL A   1      41.875  25.710  27.916  1.00  0.00     0.031 C 
ATOM     24  C   UNL A   1      44.286  32.126  28.742  1.00  0.00     0.029 A 
ATOM     25  C   UNL A   1      45.274  31.154  28.291  1.00  0.00     0.049 A 
ATOM     26  H   UNL A   1      44.979  29.138  27.855  1.00  0.00     0.167 HD
ATOM     27  C   UNL A   1      44.033  24.892  26.979  1.00  0.00     0.037 A 
ATOM     28  C   UNL A   1      46.574  31.417  28.071  1.00  0.00     0.037 A 
ATOM     29  C   UNL A   1      45.405  25.107  26.582  1.00  0.00     0.049 A 
ATOM     30  C   UNL A   1      47.431  30.315  27.527  1.00  0.00     0.074 A 
ATOM     31  C   UNL A   1      46.290  24.212  26.010  1.00  0.00     0.029 A 
ATOM     32  N   UNL A   1      46.097  26.303  26.746  1.00  0.00    -0.354 N 
ATOM     33  N   UNL A   1      47.093  29.077  27.248  1.00  0.00    -0.248 NA
ATOM     34  C   UNL A   1      48.835  30.636  27.256  1.00  0.00     0.031 C 
ATOM     35  C   UNL A   1      47.531  24.847  25.883  1.00  0.00     0.029 A 
ATOM     36  C   UNL A   1      47.410  26.157  26.326  1.00  0.00     0.049 A 
ATOM     37  H   UNL A   1      45.711  27.132  27.108  1.00  0.00     0.167 HD
ATOM     38  C   UNL A   1      48.242  28.468  26.766  1.00  0.00     0.074 A 
ATOM     39  C   UNL A   1      49.278  29.485  26.766  1.00  0.00     0.031 C 
ATOM     40  C   UNL A   1      48.425  27.184  26.367  1.00  0.00     0.037 A 
BRANCH  27  41
ATOM     41  C   UNL A   1      43.442  23.513  26.839  1.00  0.00     0.058 A 
ATOM     42  C   UNL A   1      43.176  22.715  27.966  1.00  0.00     0.135 A 
ATOM     43  C   UNL A   1      43.092  22.993  25.582  1.00  0.00     0.135 A 
ATOM     44  F   UNL A   1      43.489  23.154  29.195  1.00  0.00    -0.206 F 
ATOM     45  C   UNL A   1      42.619  21.445  27.850  1.00  0.00     0.059 A 
ATOM     46  C   UNL A   1      42.508  21.734  25.443  1.00  0.00     0.059 A 
ATOM     47  F   UNL A   1      43.314  23.708  24.468  1.00  0.00    -0.206 F 
ATOM     48  C   UNL A   1      42.290  20.960  26.583  1.00  0.00     0.060 A 
BRANCH  48  49
ATOM     49  S   UNL A   1      41.585  19.303  26.454  1.00  0.00     0.124 S 
ATOM     50  O   UNL A   1      42.391  18.727  25.380  1.00  0.00    -0.237 OA
ATOM     51  O   UNL A   1      41.832  18.758  27.789  1.00  0.00    -0.237 OA
ATOM     52  O   UNL A   1      40.189  19.547  26.127  1.00  0.00    -0.744 OA
ENDBRANCH  48  49
ENDBRANCH  27  41
BRANCH  28  53
ATOM     53  C   UNL A   1      47.072  32.798  28.286  1.00  0.00     0.058 A 
ATOM     54  C   UNL A   1      46.946  33.765  27.280  1.00  0.00     0.135 A 
ATOM     55  C   UNL A   1      47.552  33.215  29.538  1.00  0.00     0.135 A 
ATOM     56  F   UNL A   1      46.483  33.417  26.069  1.00  0.00    -0.206 F 
ATOM     57  C   UNL A   1      47.265  35.099  27.509  1.00  0.00     0.059 A 
ATOM     58  C   UNL A   1      47.857  34.547  29.799  1.00  0.00     0.059 A 
ATOM     59  F   UNL A   1      47.662  32.331  30.544  1.00  0.00    -0.206 F 
ATOM     60  C   UNL A   1      47.707  35.483  28.776  1.00  0.00     0.060 A 
BRANCH  60  61
ATOM     61  S   UNL A   1      48.020  37.235  29.085  1.00  0.00     0.124 S 
ATOM     62  O   UNL A   1      49.477  37.288  29.030  1.00  0.00    -0.237 OA
ATOM     63  O   UNL A   1      47.316  37.868  27.973  1.00  0.00    -0.237 OA
ATOM     64  O   UNL A   1      47.430  37.458  30.400  1.00  0.00    -0.744 OA
ENDBRANCH  60  61
ENDBRANCH  28  53
BRANCH  40  65
ATOM     65  C   UNL A   1      49.811  26.797  25.938  1.00  0.00     0.058 A 
ATOM     66  C   UNL A   1      50.269  27.069  24.640  1.00  0.00     0.135 A 
ATOM     67  C   UNL A   1      50.716  26.232  26.851  1.00  0.00     0.135 A 
ATOM     68  F   UNL A   1      49.438  27.597  23.726  1.00  0.00    -0.206 F 
ATOM     69  C   UNL A   1      51.577  26.792  24.260  1.00  0.00     0.059 A 
ATOM     70  C   UNL A   1      52.037  25.973  26.502  1.00  0.00     0.059 A 
ATOM     71  F   UNL A   1      50.326  25.957  28.107  1.00  0.00    -0.206 F 
ATOM     72  C   UNL A   1      52.457  26.255  25.202  1.00  0.00     0.060 A 
BRANCH  72  73
ATOM     73  S   UNL A   1      54.168  25.968  24.709  1.00  0.00     0.124 S 
ATOM     74  O   UNL A   1      54.130  26.322  23.294  1.00  0.00    -0.237 OA
ATOM     75  O   UNL A   1      54.897  26.892  25.574  1.00  0.00    -0.237 OA
ATOM     76  O   UNL A   1      54.374  24.553  24.997  1.00  0.00    -0.744 OA
ENDBRANCH  72  73
ENDBRANCH  40  65
ENDBRANCH  14  15
ENDBRANCH   7   9
ENDBRANCH   6   7
ENDBRANCH   5   6
ENDBRANCH   4   5
ENDBRANCH   3   4
ENDBRANCH   2   3
ENDBRANCH   1   2
BRANCH   1  77
ATOM     77  O   UNL A   1      32.944  27.895  26.906  1.00  0.00    -0.377 OA
BRANCH  77  78
ATOM     78  C   UNL A   1      31.700  28.347  26.376  1.00  0.00     0.188 C 
BRANCH  78  79
ATOM     79  C   UNL A   1      31.624  29.051  25.016  1.00  0.00     0.188 C 
BRANCH  79  80
ATOM     80  O   UNL A   1      31.163  28.206  23.983  1.00  0.00    -0.376 OA
BRANCH  80  81
ATOM     81  C   UNL A   1      30.497  26.992  24.332  1.00  0.00     0.202 C 
BRANCH  81  82
ATOM     82  C   UNL A   1      31.291  25.677  24.524  1.00  0.00     0.261 C 
BRANCH  82  83
ATOM     83  O   UNL A   1      30.741  24.579  23.767  1.00  0.00    -0.459 OA
BRANCH  83  84
ATOM     84  C   UNL A   1      31.650  23.824  23.068  1.00  0.00     0.365 C 
ATOM     85  O   UNL A   1      32.390  24.264  22.197  1.00  0.00    -0.245 OA
BRANCH  84  86
ATOM     86  C   UNL A   1      31.848  22.457  23.766  1.00  0.00     0.298 C 
ATOM     87  C   UNL A   1      32.490  21.259  22.986  1.00  0.00     0.111 C 
ATOM     88  N   UNL A   1      32.394  22.750  25.139  1.00  0.00    -0.326 N 
ATOM     89  C   UNL A   1      32.554  20.042  23.910  1.00  0.00    -0.024 C 
ATOM     90  C   UNL A   1      33.249  21.661  25.692  1.00  0.00     0.243 C 
ATOM     91  H   UNL A   1      31.608  22.895  25.773  1.00  0.00     0.347 HD
ATOM     92  H   UNL A   1      32.983  23.578  25.055  1.00  0.00     0.347 HD
ATOM     93  C   UNL A   1      32.870  18.750  23.805  1.00  0.00     0.002 A 
ATOM     94  C   UNL A   1      32.410  20.385  25.375  1.00  0.00     0.196 C 
ATOM     95  C   UNL A   1      33.376  17.868  22.800  1.00  0.00     0.010 A 
ATOM     96  C   UNL A   1      32.804  18.280  25.216  1.00  0.00     0.066 A 
ATOM     97  N   UNL A   1      32.712  19.168  26.157  1.00  0.00    -0.270 NA
ATOM     98  C   UNL A   1      33.601  16.579  23.125  1.00  0.00     0.001 A 
ATOM     99  C   UNL A   1      32.880  16.828  25.450  1.00  0.00     0.028 A 
ATOM    100  C   UNL A   1      33.242  16.040  24.428  1.00  0.00     0.002 A 
BRANCH  90 101
ATOM    101  C   UNL A   1      34.700  21.780  25.159  1.00  0.00     0.012 A 
ATOM    102  C   UNL A   1      35.215  22.953  24.586  1.00  0.00     0.010 A 
ATOM    103  C   UNL A   1      35.596  20.696  25.277  1.00  0.00     0.010 A 
ATOM    104  C   UNL A   1      36.583  23.099  24.313  1.00  0.00     0.001 A 
ATOM    105  C   UNL A   1      36.958  20.831  24.993  1.00  0.00     0.001 A 
ATOM    106  C   UNL A   1      37.458  22.043  24.540  1.00  0.00     0.000 A 
ENDBRANCH  90 101
ENDBRANCH  84  86
ENDBRANCH  83  84
ENDBRANCH  82  83
ENDBRANCH  81  82
ENDBRANCH  80  81
ENDBRANCH  79  80
ENDBRANCH  78  79
ENDBRANCH  77  78
ENDBRANCH   1  77
TORSDOF 24
ENDMDL
