MODEL 1
REMARK VINA RESULT:      -9.3      0.000      0.000
REMARK SMILES CC(C)[C@H](C)CNC(=O)N[C@H]1C=C[C@@H](C(=O)OCCOCCOCCOCCOC(=O)c2ccc(-c3c4nc(c(-c5c(F)cc(S(=O)(=O)[O-])cc5F)c5ccc([nH]5)c(-c5c(F)cc(S(=O)(=O)[O-])cc5F)c5nc(c(-c6c(F)cc(S(=O)(=O)[O-])cc6F)c6ccc3[nH]6)C=C5)C=C4)cc2)C1
REMARK SMILES IDX 22 1 21 2 20 3 19 4 18 5 17 6 15 7 16 8 14 9 11 10 12 11
REMARK SMILES IDX 98 12 13 13 10 14 7 15 8 16 9 18 6 20 4 21 5 22 2 23 1 24
REMARK SMILES IDX 3 25 23 26 24 27 25 28 26 29 27 30 28 31 29 32 30 33 31 34
REMARK SMILES IDX 32 35 33 36 97 37 34 38 96 39 35 40 36 41 37 42 90 43 38 44
REMARK SMILES IDX 95 45 89 46 91 47 39 48 94 49 88 50 87 51 40 53 74 54 53 55
REMARK SMILES IDX 73 56 54 57 57 58 72 59 92 60 55 61 56 62 71 64 93 65 58 66
REMARK SMILES IDX 41 67 42 68 51 69 43 70 44 71 50 72 52 73 45 74 46 75 47 76
REMARK SMILES IDX 48 77 49 78 75 79 76 80 85 81 77 82 78 83 84 84 86 85 79 86
REMARK SMILES IDX 80 87 81 88 82 89 83 90 59 91 60 92 69 93 61 94 62 95 68 96
REMARK SMILES IDX 70 97 63 98 64 99 65 100 66 101 67 102
REMARK H PARENT 7 17 10 19 91 52 57 63
REMARK Flexibility Score: inf
ROOT
ATOM      1  C   UNL A   1      32.469  36.003  30.930  1.00  0.00     0.188 C 
ENDROOT
BRANCH   1   2
ATOM      2  C   UNL A   1      32.897  35.848  29.460  1.00  0.00     0.188 C 
BRANCH   2   3
ATOM      3  O   UNL A   1      33.482  34.570  29.210  1.00  0.00    -0.376 OA
BRANCH   3   4
ATOM      4  C   UNL A   1      32.952  33.853  28.091  1.00  0.00     0.202 C 
BRANCH   4   5
ATOM      5  C   UNL A   1      33.787  32.630  27.673  1.00  0.00     0.261 C 
BRANCH   5   6
ATOM      6  O   UNL A   1      33.016  31.527  27.140  1.00  0.00    -0.463 OA
BRANCH   6   7
ATOM      7  C   UNL A   1      33.603  30.309  27.376  1.00  0.00     0.312 C 
ATOM      8  O   UNL A   1      34.739  30.186  27.830  1.00  0.00    -0.252 OA
BRANCH   7   9
ATOM      9  C   UNL A   1      32.668  29.111  27.156  1.00  0.00     0.124 C 
ATOM     10  C   UNL A   1      31.702  27.738  25.313  1.00  0.00     0.107 C 
ATOM     11  C   UNL A   1      32.903  27.097  25.941  1.00  0.00    -0.006 C 
ATOM     12  C   UNL A   1      31.785  29.146  25.908  1.00  0.00     0.048 C 
ATOM     13  C   UNL A   1      33.430  27.838  26.926  1.00  0.00    -0.014 C 
BRANCH  10  14
ATOM     14  N   UNL A   1      31.841  27.651  23.873  1.00  0.00    -0.332 N 
ATOM     15  N   UNL A   1      31.843  25.361  23.248  1.00  0.00    -0.338 N 
ATOM     16  C   UNL A   1      32.167  26.645  23.048  1.00  0.00     0.315 C 
ATOM     17  H   UNL A   1      32.389  24.727  22.730  1.00  0.00     0.165 HD
ATOM     18  O   UNL A   1      32.787  26.920  22.019  1.00  0.00    -0.249 OA
ATOM     19  H   UNL A   1      31.661  28.500  23.408  1.00  0.00     0.165 HD
BRANCH  15  20
ATOM     20  C   UNL A   1      30.842  24.722  24.083  1.00  0.00     0.121 C 
BRANCH  20  21
ATOM     21  C   UNL A   1      31.418  24.310  25.445  1.00  0.00     0.008 C 
ATOM     22  C   UNL A   1      30.314  23.932  26.455  1.00  0.00     0.010 C 
BRANCH  21  23
ATOM     23  C   UNL A   1      32.468  23.167  25.414  1.00  0.00    -0.013 C 
ATOM     24  C   UNL A   1      33.274  22.902  26.688  1.00  0.00     0.008 C 
ATOM     25  C   UNL A   1      31.739  21.896  24.970  1.00  0.00     0.008 C 
ENDBRANCH  21  23
ENDBRANCH  20  21
ENDBRANCH  15  20
ENDBRANCH  10  14
ENDBRANCH   7   9
ENDBRANCH   6   7
ENDBRANCH   5   6
ENDBRANCH   4   5
ENDBRANCH   3   4
ENDBRANCH   2   3
ENDBRANCH   1   2
BRANCH   1  26
ATOM     26  O   UNL A   1      32.865  37.288  31.382  1.00  0.00    -0.377 OA
BRANCH  26  27
ATOM     27  C   UNL A   1      34.012  37.366  32.211  1.00  0.00     0.188 C 
BRANCH  27  28
ATOM     28  C   UNL A   1      33.919  36.632  33.554  1.00  0.00     0.188 C 
BRANCH  28  29
ATOM     29  O   UNL A   1      34.903  35.660  33.898  1.00  0.00    -0.376 OA
BRANCH  29  30
ATOM     30  C   UNL A   1      35.416  34.791  32.898  1.00  0.00     0.202 C 
BRANCH  30  31
ATOM     31  C   UNL A   1      35.596  33.321  33.266  1.00  0.00     0.261 C 
BRANCH  31  32
ATOM     32  O   UNL A   1      36.600  32.667  32.477  1.00  0.00    -0.460 OA
BRANCH  32  33
ATOM     33  C   UNL A   1      36.120  31.983  31.415  1.00  0.00     0.338 C 
ATOM     34  O   UNL A   1      34.992  32.011  30.957  1.00  0.00    -0.246 OA
BRANCH  33  35
ATOM     35  C   UNL A   1      37.170  31.118  30.865  1.00  0.00     0.060 A 
ATOM     36  C   UNL A   1      37.930  30.329  31.729  1.00  0.00     0.016 A 
ATOM     37  C   UNL A   1      37.518  31.255  29.518  1.00  0.00     0.016 A 
ATOM     38  C   UNL A   1      39.097  29.728  31.256  1.00  0.00     0.010 A 
ATOM     39  C   UNL A   1      38.673  30.634  29.042  1.00  0.00     0.010 A 
ATOM     40  C   UNL A   1      39.499  29.917  29.923  1.00  0.00    -0.014 A 
BRANCH  40  41
ATOM     41  C   UNL A   1      40.867  29.524  29.504  1.00  0.00     0.031 A 
ATOM     42  C   UNL A   1      41.973  30.546  29.568  1.00  0.00     0.074 A 
ATOM     43  C   UNL A   1      41.126  28.267  29.099  1.00  0.00     0.049 A 
ATOM     44  N   UNL A   1      43.238  30.421  29.258  1.00  0.00    -0.248 NA
ATOM     45  C   UNL A   1      41.602  31.890  30.041  1.00  0.00     0.031 C 
ATOM     46  C   UNL A   1      40.142  27.190  29.006  1.00  0.00     0.029 A 
ATOM     47  N   UNL A   1      42.301  27.689  28.690  1.00  0.00    -0.354 N 
ATOM     48  C   UNL A   1      43.812  31.665  29.496  1.00  0.00     0.074 A 
ATOM     49  C   UNL A   1      42.752  32.542  29.942  1.00  0.00     0.031 C 
ATOM     50  C   UNL A   1      40.755  26.079  28.563  1.00  0.00     0.029 A 
ATOM     51  C   UNL A   1      42.167  26.372  28.323  1.00  0.00     0.049 A 
ATOM     52  H   UNL A   1      43.158  28.172  28.661  1.00  0.00     0.167 HD
ATOM     53  C   UNL A   1      45.109  32.039  29.370  1.00  0.00     0.037 A 
ATOM     54  C   UNL A   1      43.078  25.506  27.839  1.00  0.00     0.037 A 
ATOM     55  C   UNL A   1      46.162  31.162  28.931  1.00  0.00     0.049 A 
ATOM     56  C   UNL A   1      44.507  25.956  27.671  1.00  0.00     0.074 A 
ATOM     57  C   UNL A   1      47.511  31.438  28.792  1.00  0.00     0.029 A 
ATOM     58  N   UNL A   1      45.984  29.840  28.554  1.00  0.00    -0.354 N 
ATOM     59  N   UNL A   1      45.041  27.125  27.934  1.00  0.00    -0.248 NA
ATOM     60  C   UNL A   1      45.458  24.964  27.149  1.00  0.00     0.031 C 
ATOM     61  C   UNL A   1      48.143  30.293  28.294  1.00  0.00     0.029 A 
ATOM     62  C   UNL A   1      47.194  29.291  28.164  1.00  0.00     0.049 A 
ATOM     63  H   UNL A   1      45.124  29.361  28.562  1.00  0.00     0.167 HD
ATOM     64  C   UNL A   1      46.392  27.004  27.629  1.00  0.00     0.074 A 
ATOM     65  C   UNL A   1      46.596  25.642  27.177  1.00  0.00     0.031 C 
ATOM     66  C   UNL A   1      47.377  27.933  27.714  1.00  0.00     0.037 A 
BRANCH  53  67
ATOM     67  C   UNL A   1      45.454  33.464  29.702  1.00  0.00     0.058 A 
ATOM     68  C   UNL A   1      45.371  34.486  28.742  1.00  0.00     0.135 A 
ATOM     69  C   UNL A   1      45.852  33.818  31.001  1.00  0.00     0.135 A 
ATOM     70  F   UNL A   1      45.015  34.199  27.479  1.00  0.00    -0.206 F 
ATOM     71  C   UNL A   1      45.691  35.804  29.052  1.00  0.00     0.059 A 
ATOM     72  C   UNL A   1      46.155  35.134  31.339  1.00  0.00     0.059 A 
ATOM     73  F   UNL A   1      45.951  32.880  31.956  1.00  0.00    -0.206 F 
ATOM     74  C   UNL A   1      46.085  36.117  30.354  1.00  0.00     0.060 A 
BRANCH  74  75
ATOM     75  S   UNL A   1      46.495  37.833  30.743  1.00  0.00     0.124 S 
ATOM     76  O   UNL A   1      46.203  38.497  29.477  1.00  0.00    -0.237 OA
ATOM     77  O   UNL A   1      45.581  38.133  31.841  1.00  0.00    -0.237 OA
ATOM     78  O   UNL A   1      47.907  37.769  31.108  1.00  0.00    -0.744 OA
ENDBRANCH  74  75
ENDBRANCH  53  67
BRANCH  54  79
ATOM     79  C   UNL A   1      42.670  24.123  27.478  1.00  0.00     0.058 A 
ATOM     80  C   UNL A   1      42.552  23.124  28.455  1.00  0.00     0.135 A 
ATOM     81  C   UNL A   1      42.388  23.775  26.149  1.00  0.00     0.135 A 
ATOM     82  F   UNL A   1      42.821  23.407  29.739  1.00  0.00    -0.206 F 
ATOM     83  C   UNL A   1      42.181  21.825  28.126  1.00  0.00     0.059 A 
ATOM     84  C   UNL A   1      41.991  22.488  25.797  1.00  0.00     0.059 A 
ATOM     85  F   UNL A   1      42.476  24.698  25.179  1.00  0.00    -0.206 F 
ATOM     86  C   UNL A   1      41.901  21.517  26.794  1.00  0.00     0.060 A 
BRANCH  86  87
ATOM     87  S   UNL A   1      41.366  19.841  26.385  1.00  0.00     0.124 S 
ATOM     88  O   UNL A   1      39.970  20.058  26.026  1.00  0.00    -0.237 OA
ATOM     89  O   UNL A   1      42.261  19.492  25.286  1.00  0.00    -0.237 OA
ATOM     90  O   UNL A   1      41.596  19.105  27.624  1.00  0.00    -0.744 OA
ENDBRANCH  86  87
ENDBRANCH  54  79
BRANCH  66  91
ATOM     91  C   UNL A   1      48.766  27.500  27.334  1.00  0.00     0.058 A 
ATOM     92  C   UNL A   1      49.680  27.035  28.292  1.00  0.00     0.135 A 
ATOM     93  C   UNL A   1      49.177  27.525  25.992  1.00  0.00     0.135 A 
ATOM     94  F   UNL A   1      49.338  26.996  29.590  1.00  0.00    -0.206 F 
ATOM     95  C   UNL A   1      50.966  26.641  27.937  1.00  0.00     0.059 A 
ATOM     96  C   UNL A   1      50.449  27.111  25.611  1.00  0.00     0.059 A 
ATOM     97  F   UNL A   1      48.337  27.948  25.034  1.00  0.00    -0.206 F 
ATOM     98  C   UNL A   1      51.343  26.687  26.593  1.00  0.00     0.060 A 
BRANCH  98  99
ATOM     99  S   UNL A   1      53.012  26.166  26.141  1.00  0.00     0.124 S 
ATOM    100  O   UNL A   1      53.803  26.751  27.219  1.00  0.00    -0.237 OA
ATOM    101  O   UNL A   1      52.902  24.710  26.153  1.00  0.00    -0.237 OA
ATOM    102  O   UNL A   1      53.206  26.763  24.823  1.00  0.00    -0.744 OA
ENDBRANCH  98  99
ENDBRANCH  66  91
ENDBRANCH  40  41
ENDBRANCH  33  35
ENDBRANCH  32  33
ENDBRANCH  31  32
ENDBRANCH  30  31
ENDBRANCH  29  30
ENDBRANCH  28  29
ENDBRANCH  27  28
ENDBRANCH  26  27
ENDBRANCH   1  26
TORSDOF 27
ENDMDL
MODEL 2
REMARK VINA RESULT:      -9.0      3.038      4.244
REMARK SMILES CC(C)[C@H](C)CNC(=O)N[C@H]1C=C[C@@H](C(=O)OCCOCCOCCOCCOC(=O)c2ccc(-c3c4nc(c(-c5c(F)cc(S(=O)(=O)[O-])cc5F)c5ccc([nH]5)c(-c5c(F)cc(S(=O)(=O)[O-])cc5F)c5nc(c(-c6c(F)cc(S(=O)(=O)[O-])cc6F)c6ccc3[nH]6)C=C5)C=C4)cc2)C1
REMARK SMILES IDX 22 1 21 2 20 3 19 4 18 5 17 6 15 7 16 8 14 9 11 10 12 11
REMARK SMILES IDX 98 12 13 13 10 14 7 15 8 16 9 18 6 20 4 21 5 22 2 23 1 24
REMARK SMILES IDX 3 25 23 26 24 27 25 28 26 29 27 30 28 31 29 32 30 33 31 34
REMARK SMILES IDX 32 35 33 36 97 37 34 38 96 39 35 40 36 41 37 42 90 43 38 44
REMARK SMILES IDX 95 45 89 46 91 47 39 48 94 49 88 50 87 51 40 53 74 54 53 55
REMARK SMILES IDX 73 56 54 57 57 58 72 59 92 60 55 61 56 62 71 64 93 65 58 66
REMARK SMILES IDX 41 67 42 68 51 69 43 70 44 71 50 72 52 73 45 74 46 75 47 76
REMARK SMILES IDX 48 77 49 78 75 79 76 80 85 81 77 82 78 83 84 84 86 85 79 86
REMARK SMILES IDX 80 87 81 88 82 89 83 90 59 91 60 92 69 93 61 94 62 95 68 96
REMARK SMILES IDX 70 97 63 98 64 99 65 100 66 101 67 102
REMARK H PARENT 7 17 10 19 91 52 57 63
REMARK Flexibility Score: inf
ROOT
ATOM      1  C   UNL A   1      32.407  35.840  31.009  1.00  0.00     0.188 C 
ENDROOT
BRANCH   1   2
ATOM      2  C   UNL A   1      33.231  35.388  29.791  1.00  0.00     0.188 C 
BRANCH   2   3
ATOM      3  O   UNL A   1      33.710  34.051  29.943  1.00  0.00    -0.376 OA
BRANCH   3   4
ATOM      4  C   UNL A   1      34.277  33.459  28.770  1.00  0.00     0.202 C 
BRANCH   4   5
ATOM      5  C   UNL A   1      34.164  31.925  28.722  1.00  0.00     0.261 C 
BRANCH   5   6
ATOM      6  O   UNL A   1      33.856  31.384  27.415  1.00  0.00    -0.463 OA
BRANCH   6   7
ATOM      7  C   UNL A   1      34.272  30.084  27.269  1.00  0.00     0.312 C 
ATOM      8  O   UNL A   1      35.116  29.563  27.994  1.00  0.00    -0.252 OA
BRANCH   7   9
ATOM      9  C   UNL A   1      33.489  29.292  26.212  1.00  0.00     0.124 C 
ATOM     10  C   UNL A   1      32.368  27.087  25.901  1.00  0.00     0.107 C 
ATOM     11  C   UNL A   1      31.406  28.177  26.264  1.00  0.00    -0.006 C 
ATOM     12  C   UNL A   1      33.704  27.778  26.186  1.00  0.00     0.048 C 
ATOM     13  C   UNL A   1      32.006  29.361  26.442  1.00  0.00    -0.014 C 
BRANCH  10  14
ATOM     14  N   UNL A   1      32.070  25.927  26.716  1.00  0.00    -0.332 N 
ATOM     15  N   UNL A   1      31.898  24.029  25.300  1.00  0.00    -0.338 N 
ATOM     16  C   UNL A   1      31.612  24.700  26.423  1.00  0.00     0.315 C 
ATOM     17  H   UNL A   1      31.272  23.296  25.103  1.00  0.00     0.165 HD
ATOM     18  O   UNL A   1      30.898  24.137  27.254  1.00  0.00    -0.249 OA
ATOM     19  H   UNL A   1      32.237  26.066  27.676  1.00  0.00     0.165 HD
BRANCH  15  20
ATOM     20  C   UNL A   1      32.955  24.174  24.314  1.00  0.00     0.121 C 
BRANCH  20  21
ATOM     21  C   UNL A   1      34.128  23.226  24.597  1.00  0.00     0.008 C 
ATOM     22  C   UNL A   1      35.252  23.360  23.548  1.00  0.00     0.010 C 
BRANCH  21  23
ATOM     23  C   UNL A   1      34.759  23.339  26.011  1.00  0.00    -0.013 C 
ATOM     24  C   UNL A   1      34.412  22.259  27.038  1.00  0.00     0.008 C 
ATOM     25  C   UNL A   1      36.277  23.427  25.823  1.00  0.00     0.008 C 
ENDBRANCH  21  23
ENDBRANCH  20  21
ENDBRANCH  15  20
ENDBRANCH  10  14
ENDBRANCH   7   9
ENDBRANCH   6   7
ENDBRANCH   5   6
ENDBRANCH   4   5
ENDBRANCH   3   4
ENDBRANCH   2   3
ENDBRANCH   1   2
BRANCH   1  26
ATOM     26  O   UNL A   1      32.701  37.204  31.271  1.00  0.00    -0.377 OA
BRANCH  26  27
ATOM     27  C   UNL A   1      33.844  37.487  32.059  1.00  0.00     0.188 C 
BRANCH  27  28
ATOM     28  C   UNL A   1      33.709  37.209  33.561  1.00  0.00     0.188 C 
BRANCH  28  29
ATOM     29  O   UNL A   1      34.382  36.093  34.137  1.00  0.00    -0.376 OA
BRANCH  29  30
ATOM     30  C   UNL A   1      34.909  35.076  33.295  1.00  0.00     0.202 C 
BRANCH  30  31
ATOM     31  C   UNL A   1      35.074  33.682  33.894  1.00  0.00     0.261 C 
BRANCH  31  32
ATOM     32  O   UNL A   1      36.247  33.007  33.419  1.00  0.00    -0.460 OA
BRANCH  32  33
ATOM     33  C   UNL A   1      36.016  32.105  32.439  1.00  0.00     0.338 C 
ATOM     34  O   UNL A   1      34.952  31.612  32.113  1.00  0.00    -0.246 OA
BRANCH  33  35
ATOM     35  C   UNL A   1      37.283  31.733  31.798  1.00  0.00     0.060 A 
ATOM     36  C   UNL A   1      38.403  31.478  32.589  1.00  0.00     0.016 A 
ATOM     37  C   UNL A   1      37.391  31.841  30.408  1.00  0.00     0.016 A 
ATOM     38  C   UNL A   1      39.661  31.403  31.988  1.00  0.00     0.010 A 
ATOM     39  C   UNL A   1      38.646  31.742  29.808  1.00  0.00     0.010 A 
ATOM     40  C   UNL A   1      39.793  31.582  30.601  1.00  0.00    -0.014 A 
BRANCH  40  41
ATOM     41  C   UNL A   1      41.139  31.787  30.011  1.00  0.00     0.031 A 
ATOM     42  C   UNL A   1      41.800  33.135  30.149  1.00  0.00     0.074 A 
ATOM     43  C   UNL A   1      41.775  30.780  29.387  1.00  0.00     0.049 A 
ATOM     44  N   UNL A   1      42.969  33.535  29.718  1.00  0.00    -0.248 NA
ATOM     45  C   UNL A   1      41.038  34.173  30.865  1.00  0.00     0.031 C 
ATOM     46  C   UNL A   1      41.242  29.431  29.200  1.00  0.00     0.029 A 
ATOM     47  N   UNL A   1      43.011  30.741  28.791  1.00  0.00    -0.354 N 
ATOM     48  C   UNL A   1      43.083  34.865  30.108  1.00  0.00     0.074 A 
ATOM     49  C   UNL A   1      41.851  35.217  30.778  1.00  0.00     0.031 C 
ATOM     50  C   UNL A   1      42.147  28.696  28.532  1.00  0.00     0.029 A 
ATOM     51  C   UNL A   1      43.311  29.525  28.226  1.00  0.00     0.049 A 
ATOM     52  H   UNL A   1      43.623  31.511  28.771  1.00  0.00     0.167 HD
ATOM     53  C   UNL A   1      44.126  35.712  29.937  1.00  0.00     0.037 A 
ATOM     54  C   UNL A   1      44.397  29.133  27.533  1.00  0.00     0.037 A 
ATOM     55  C   UNL A   1      45.354  35.357  29.274  1.00  0.00     0.049 A 
ATOM     56  C   UNL A   1      45.529  30.105  27.323  1.00  0.00     0.074 A 
ATOM     57  C   UNL A   1      46.479  36.136  29.071  1.00  0.00     0.029 A 
ATOM     58  N   UNL A   1      45.613  34.122  28.702  1.00  0.00    -0.354 N 
ATOM     59  N   UNL A   1      45.637  31.347  27.728  1.00  0.00    -0.248 NA
ATOM     60  C   UNL A   1      46.692  29.615  26.568  1.00  0.00     0.031 C 
ATOM     61  C   UNL A   1      47.406  35.382  28.340  1.00  0.00     0.029 A 
ATOM     62  C   UNL A   1      46.874  34.120  28.128  1.00  0.00     0.049 A 
ATOM     63  H   UNL A   1      44.994  33.357  28.704  1.00  0.00     0.167 HD
ATOM     64  C   UNL A   1      46.885  31.783  27.296  1.00  0.00     0.074 A 
ATOM     65  C   UNL A   1      47.502  30.664  26.612  1.00  0.00     0.031 C 
ATOM     66  C   UNL A   1      47.470  32.997  27.449  1.00  0.00     0.037 A 
BRANCH  53  67
ATOM     67  C   UNL A   1      43.978  37.111  30.467  1.00  0.00     0.058 A 
ATOM     68  C   UNL A   1      44.272  37.429  31.803  1.00  0.00     0.135 A 
ATOM     69  C   UNL A   1      43.557  38.153  29.625  1.00  0.00     0.135 A 
ATOM     70  F   UNL A   1      44.660  36.468  32.656  1.00  0.00    -0.206 F 
ATOM     71  C   UNL A   1      44.134  38.725  32.291  1.00  0.00     0.059 A 
ATOM     72  C   UNL A   1      43.434  39.460  30.085  1.00  0.00     0.059 A 
ATOM     73  F   UNL A   1      43.259  37.903  28.340  1.00  0.00    -0.206 F 
ATOM     74  C   UNL A   1      43.711  39.734  31.423  1.00  0.00     0.060 A 
BRANCH  74  75
ATOM     75  S   UNL A   1      43.538  41.412  32.069  1.00  0.00     0.124 S 
ATOM     76  O   UNL A   1      43.660  42.207  30.851  1.00  0.00    -0.237 OA
ATOM     77  O   UNL A   1      42.211  41.380  32.675  1.00  0.00    -0.237 OA
ATOM     78  O   UNL A   1      44.650  41.530  33.009  1.00  0.00    -0.744 OA
ENDBRANCH  74  75
ENDBRANCH  53  67
BRANCH  54  79
ATOM     79  C   UNL A   1      44.469  27.752  26.986  1.00  0.00     0.058 A 
ATOM     80  C   UNL A   1      43.838  27.416  25.781  1.00  0.00     0.135 A 
ATOM     81  C   UNL A   1      45.173  26.743  27.660  1.00  0.00     0.135 A 
ATOM     82  F   UNL A   1      43.144  28.345  25.105  1.00  0.00    -0.206 F 
ATOM     83  C   UNL A   1      43.890  26.124  25.267  1.00  0.00     0.059 A 
ATOM     84  C   UNL A   1      45.261  25.449  27.155  1.00  0.00     0.059 A 
ATOM     85  F   UNL A   1      45.803  27.018  28.813  1.00  0.00    -0.206 F 
ATOM     86  C   UNL A   1      44.607  25.148  25.961  1.00  0.00     0.060 A 
BRANCH  86  87
ATOM     87  S   UNL A   1      44.716  23.488  25.258  1.00  0.00     0.124 S 
ATOM     88  O   UNL A   1      44.953  22.680  26.449  1.00  0.00    -0.237 OA
ATOM     89  O   UNL A   1      43.407  23.333  24.631  1.00  0.00    -0.237 OA
ATOM     90  O   UNL A   1      45.837  23.592  24.329  1.00  0.00    -0.744 OA
ENDBRANCH  86  87
ENDBRANCH  54  79
BRANCH  66  91
ATOM     91  C   UNL A   1      48.855  33.169  26.888  1.00  0.00     0.058 A 
ATOM     92  C   UNL A   1      49.963  32.519  27.453  1.00  0.00     0.135 A 
ATOM     93  C   UNL A   1      49.071  33.972  25.756  1.00  0.00     0.135 A 
ATOM     94  F   UNL A   1      49.811  31.743  28.538  1.00  0.00    -0.206 F 
ATOM     95  C   UNL A   1      51.244  32.685  26.934  1.00  0.00     0.059 A 
ATOM     96  C   UNL A   1      50.338  34.131  25.207  1.00  0.00     0.059 A 
ATOM     97  F   UNL A   1      48.042  34.605  25.170  1.00  0.00    -0.206 F 
ATOM     98  C   UNL A   1      51.421  33.498  25.813  1.00  0.00     0.060 A 
BRANCH  98  99
ATOM     99  S   UNL A   1      53.086  33.701  25.143  1.00  0.00     0.124 S 
ATOM    100  O   UNL A   1      53.098  32.698  24.083  1.00  0.00    -0.237 OA
ATOM    101  O   UNL A   1      53.081  35.091  24.701  1.00  0.00    -0.237 OA
ATOM    102  O   UNL A   1      53.947  33.416  26.287  1.00  0.00    -0.744 OA
ENDBRANCH  98  99
ENDBRANCH  66  91
ENDBRANCH  40  41
ENDBRANCH  33  35
ENDBRANCH  32  33
ENDBRANCH  31  32
ENDBRANCH  30  31
ENDBRANCH  29  30
ENDBRANCH  28  29
ENDBRANCH  27  28
ENDBRANCH  26  27
ENDBRANCH   1  26
TORSDOF 27
ENDMDL
MODEL 3
REMARK VINA RESULT:      -8.6      1.477      8.137
REMARK SMILES CC(C)[C@H](C)CNC(=O)N[C@H]1C=C[C@@H](C(=O)OCCOCCOCCOCCOC(=O)c2ccc(-c3c4nc(c(-c5c(F)cc(S(=O)(=O)[O-])cc5F)c5ccc([nH]5)c(-c5c(F)cc(S(=O)(=O)[O-])cc5F)c5nc(c(-c6c(F)cc(S(=O)(=O)[O-])cc6F)c6ccc3[nH]6)C=C5)C=C4)cc2)C1
REMARK SMILES IDX 22 1 21 2 20 3 19 4 18 5 17 6 15 7 16 8 14 9 11 10 12 11
REMARK SMILES IDX 98 12 13 13 10 14 7 15 8 16 9 18 6 20 4 21 5 22 2 23 1 24
REMARK SMILES IDX 3 25 23 26 24 27 25 28 26 29 27 30 28 31 29 32 30 33 31 34
REMARK SMILES IDX 32 35 33 36 97 37 34 38 96 39 35 40 36 41 37 42 90 43 38 44
REMARK SMILES IDX 95 45 89 46 91 47 39 48 94 49 88 50 87 51 40 53 74 54 53 55
REMARK SMILES IDX 73 56 54 57 57 58 72 59 92 60 55 61 56 62 71 64 93 65 58 66
REMARK SMILES IDX 41 67 42 68 51 69 43 70 44 71 50 72 52 73 45 74 46 75 47 76
REMARK SMILES IDX 48 77 49 78 75 79 76 80 85 81 77 82 78 83 84 84 86 85 79 86
REMARK SMILES IDX 80 87 81 88 82 89 83 90 59 91 60 92 69 93 61 94 62 95 68 96
REMARK SMILES IDX 70 97 63 98 64 99 65 100 66 101 67 102
REMARK H PARENT 7 17 10 19 91 52 57 63
REMARK Flexibility Score: inf
ROOT
ATOM      1  C   UNL A   1      32.535  36.130  30.452  1.00  0.00     0.188 C 
ENDROOT
BRANCH   1   2
ATOM      2  C   UNL A   1      33.373  35.488  29.333  1.00  0.00     0.188 C 
BRANCH   2   3
ATOM      3  O   UNL A   1      32.553  34.804  28.383  1.00  0.00    -0.376 OA
BRANCH   3   4
ATOM      4  C   UNL A   1      33.150  33.665  27.756  1.00  0.00     0.202 C 
BRANCH   4   5
ATOM      5  C   UNL A   1      32.202  32.463  27.601  1.00  0.00     0.261 C 
BRANCH   5   6
ATOM      6  O   UNL A   1      32.693  31.417  26.729  1.00  0.00    -0.463 OA
BRANCH   6   7
ATOM      7  C   UNL A   1      33.506  30.523  27.381  1.00  0.00     0.312 C 
ATOM      8  O   UNL A   1      34.252  30.843  28.304  1.00  0.00    -0.252 OA
BRANCH   7   9
ATOM      9  C   UNL A   1      33.298  29.063  26.955  1.00  0.00     0.124 C 
ATOM     10  C   UNL A   1      31.934  27.695  25.379  1.00  0.00     0.107 C 
ATOM     11  C   UNL A   1      33.303  27.994  24.847  1.00  0.00    -0.006 C 
ATOM     12  C   UNL A   1      31.875  28.652  26.573  1.00  0.00     0.048 C 
ATOM     13  C   UNL A   1      34.035  28.737  25.687  1.00  0.00    -0.014 C 
BRANCH  10  14
ATOM     14  N   UNL A   1      30.972  27.942  24.324  1.00  0.00    -0.332 N 
ATOM     15  N   UNL A   1      30.998  26.098  22.827  1.00  0.00    -0.338 N 
ATOM     16  C   UNL A   1      30.781  27.388  23.116  1.00  0.00     0.315 C 
ATOM     17  H   UNL A   1      31.095  25.916  21.865  1.00  0.00     0.165 HD
ATOM     18  O   UNL A   1      30.352  28.107  22.213  1.00  0.00    -0.249 OA
ATOM     19  H   UNL A   1      30.331  28.658  24.534  1.00  0.00     0.165 HD
BRANCH  15  20
ATOM     20  C   UNL A   1      31.119  24.915  23.660  1.00  0.00     0.121 C 
BRANCH  20  21
ATOM     21  C   UNL A   1      32.063  23.877  23.037  1.00  0.00     0.008 C 
ATOM     22  C   UNL A   1      32.976  24.495  21.957  1.00  0.00     0.010 C 
BRANCH  21  23
ATOM     23  C   UNL A   1      32.949  23.087  24.037  1.00  0.00    -0.013 C 
ATOM     24  C   UNL A   1      32.899  21.558  23.983  1.00  0.00     0.008 C 
ATOM     25  C   UNL A   1      34.387  23.579  23.854  1.00  0.00     0.008 C 
ENDBRANCH  21  23
ENDBRANCH  20  21
ENDBRANCH  15  20
ENDBRANCH  10  14
ENDBRANCH   7   9
ENDBRANCH   6   7
ENDBRANCH   5   6
ENDBRANCH   4   5
ENDBRANCH   3   4
ENDBRANCH   2   3
ENDBRANCH   1   2
BRANCH   1  26
ATOM     26  O   UNL A   1      33.418  36.692  31.410  1.00  0.00    -0.377 OA
BRANCH  26  27
ATOM     27  C   UNL A   1      34.270  35.805  32.114  1.00  0.00     0.188 C 
BRANCH  27  28
ATOM     28  C   UNL A   1      33.571  34.712  32.932  1.00  0.00     0.188 C 
BRANCH  28  29
ATOM     29  O   UNL A   1      33.691  33.348  32.539  1.00  0.00    -0.376 OA
BRANCH  29  30
ATOM     30  C   UNL A   1      34.650  32.979  31.555  1.00  0.00     0.202 C 
BRANCH  30  31
ATOM     31  C   UNL A   1      35.585  31.819  31.884  1.00  0.00     0.261 C 
BRANCH  31  32
ATOM     32  O   UNL A   1      36.921  32.027  31.404  1.00  0.00    -0.460 OA
BRANCH  32  33
ATOM     33  C   UNL A   1      37.891  31.619  32.252  1.00  0.00     0.338 C 
ATOM     34  O   UNL A   1      38.010  31.884  33.434  1.00  0.00    -0.246 OA
BRANCH  33  35
ATOM     35  C   UNL A   1      38.868  30.796  31.530  1.00  0.00     0.060 A 
ATOM     36  C   UNL A   1      39.758  29.998  32.250  1.00  0.00     0.016 A 
ATOM     37  C   UNL A   1      39.021  30.985  30.153  1.00  0.00     0.016 A 
ATOM     38  C   UNL A   1      40.858  29.440  31.597  1.00  0.00     0.010 A 
ATOM     39  C   UNL A   1      40.109  30.407  29.498  1.00  0.00     0.010 A 
ATOM     40  C   UNL A   1      41.064  29.682  30.228  1.00  0.00    -0.014 A 
BRANCH  40  41
ATOM     41  C   UNL A   1      42.366  29.334  29.608  1.00  0.00     0.031 A 
ATOM     42  C   UNL A   1      42.554  27.958  29.024  1.00  0.00     0.074 A 
ATOM     43  C   UNL A   1      43.358  30.241  29.542  1.00  0.00     0.049 A 
ATOM     44  N   UNL A   1      43.600  27.443  28.431  1.00  0.00    -0.248 NA
ATOM     45  C   UNL A   1      41.408  27.037  29.124  1.00  0.00     0.031 C 
ATOM     46  C   UNL A   1      43.291  31.606  30.062  1.00  0.00     0.029 A 
ATOM     47  N   UNL A   1      44.618  30.144  29.007  1.00  0.00    -0.354 N 
ATOM     48  C   UNL A   1      43.242  26.143  28.091  1.00  0.00     0.074 A 
ATOM     49  C   UNL A   1      41.895  25.934  28.574  1.00  0.00     0.031 C 
ATOM     50  C   UNL A   1      44.462  32.220  29.823  1.00  0.00     0.029 A 
ATOM     51  C   UNL A   1      45.366  31.287  29.153  1.00  0.00     0.049 A 
ATOM     52  H   UNL A   1      44.953  29.333  28.563  1.00  0.00     0.167 HD
ATOM     53  C   UNL A   1      43.964  25.212  27.421  1.00  0.00     0.037 A 
ATOM     54  C   UNL A   1      46.639  31.544  28.795  1.00  0.00     0.037 A 
ATOM     55  C   UNL A   1      45.303  25.424  26.937  1.00  0.00     0.049 A 
ATOM     56  C   UNL A   1      47.435  30.480  28.086  1.00  0.00     0.074 A 
ATOM     57  C   UNL A   1      46.111  24.553  26.228  1.00  0.00     0.029 A 
ATOM     58  N   UNL A   1      46.033  26.589  27.118  1.00  0.00    -0.354 N 
ATOM     59  N   UNL A   1      47.071  29.269  27.740  1.00  0.00    -0.248 NA
ATOM     60  C   UNL A   1      48.815  30.824  27.710  1.00  0.00     0.031 C 
ATOM     61  C   UNL A   1      47.346  25.178  26.014  1.00  0.00     0.029 A 
ATOM     62  C   UNL A   1      47.289  26.454  26.551  1.00  0.00     0.049 A 
ATOM     63  H   UNL A   1      45.706  27.394  27.581  1.00  0.00     0.167 HD
ATOM     64  C   UNL A   1      48.167  28.712  27.089  1.00  0.00     0.074 A 
ATOM     65  C   UNL A   1      49.202  29.727  27.076  1.00  0.00     0.031 C 
ATOM     66  C   UNL A   1      48.308  27.475  26.550  1.00  0.00     0.037 A 
BRANCH  53  67
ATOM     67  C   UNL A   1      43.322  23.873  27.185  1.00  0.00     0.058 A 
ATOM     68  C   UNL A   1      43.321  22.872  28.170  1.00  0.00     0.135 A 
ATOM     69  C   UNL A   1      42.678  23.595  25.969  1.00  0.00     0.135 A 
ATOM     70  F   UNL A   1      43.939  23.078  29.344  1.00  0.00    -0.206 F 
ATOM     71  C   UNL A   1      42.725  21.634  27.949  1.00  0.00     0.059 A 
ATOM     72  C   UNL A   1      42.055  22.373  25.735  1.00  0.00     0.059 A 
ATOM     73  F   UNL A   1      42.652  24.516  24.993  1.00  0.00    -0.206 F 
ATOM     74  C   UNL A   1      42.096  21.394  26.725  1.00  0.00     0.060 A 
BRANCH  74  75
ATOM     75  S   UNL A   1      41.324  19.784  26.453  1.00  0.00     0.124 S 
ATOM     76  O   UNL A   1      41.259  19.258  27.813  1.00  0.00    -0.237 OA
ATOM     77  O   UNL A   1      40.044  20.147  25.853  1.00  0.00    -0.237 OA
ATOM     78  O   UNL A   1      42.260  19.105  25.561  1.00  0.00    -0.744 OA
ENDBRANCH  74  75
ENDBRANCH  53  67
BRANCH  54  79
ATOM     79  C   UNL A   1      47.241  32.869  29.100  1.00  0.00     0.058 A 
ATOM     80  C   UNL A   1      47.888  33.108  30.320  1.00  0.00     0.135 A 
ATOM     81  C   UNL A   1      47.183  33.921  28.173  1.00  0.00     0.135 A 
ATOM     82  F   UNL A   1      47.960  32.136  31.243  1.00  0.00    -0.206 F 
ATOM     83  C   UNL A   1      48.445  34.347  30.619  1.00  0.00     0.059 A 
ATOM     84  C   UNL A   1      47.754  35.162  28.437  1.00  0.00     0.059 A 
ATOM     85  F   UNL A   1      46.585  33.738  26.986  1.00  0.00    -0.206 F 
ATOM     86  C   UNL A   1      48.375  35.367  29.669  1.00  0.00     0.060 A 
BRANCH  86  87
ATOM     87  S   UNL A   1      49.150  36.956  30.043  1.00  0.00     0.124 S 
ATOM     88  O   UNL A   1      49.815  37.261  28.782  1.00  0.00    -0.237 OA
ATOM     89  O   UNL A   1      47.998  37.789  30.376  1.00  0.00    -0.237 OA
ATOM     90  O   UNL A   1      50.030  36.642  31.164  1.00  0.00    -0.744 OA
ENDBRANCH  86  87
ENDBRANCH  54  79
BRANCH  66  91
ATOM     91  C   UNL A   1      49.617  27.161  25.881  1.00  0.00     0.058 A 
ATOM     92  C   UNL A   1      50.721  26.691  26.609  1.00  0.00     0.135 A 
ATOM     93  C   UNL A   1      49.760  27.304  24.492  1.00  0.00     0.135 A 
ATOM     94  F   UNL A   1      50.638  26.540  27.941  1.00  0.00    -0.206 F 
ATOM     95  C   UNL A   1      51.933  26.407  25.987  1.00  0.00     0.059 A 
ATOM     96  C   UNL A   1      50.953  27.002  23.846  1.00  0.00     0.059 A 
ATOM     97  F   UNL A   1      48.730  27.737  23.747  1.00  0.00    -0.206 F 
ATOM     98  C   UNL A   1      52.040  26.570  24.605  1.00  0.00     0.060 A 
BRANCH  98  99
ATOM     99  S   UNL A   1      53.615  26.190  23.805  1.00  0.00     0.124 S 
ATOM    100  O   UNL A   1      53.589  24.731  23.787  1.00  0.00    -0.237 OA
ATOM    101  O   UNL A   1      53.476  26.843  22.508  1.00  0.00    -0.237 OA
ATOM    102  O   UNL A   1      54.600  26.790  24.700  1.00  0.00    -0.744 OA
ENDBRANCH  98  99
ENDBRANCH  66  91
ENDBRANCH  40  41
ENDBRANCH  33  35
ENDBRANCH  32  33
ENDBRANCH  31  32
ENDBRANCH  30  31
ENDBRANCH  29  30
ENDBRANCH  28  29
ENDBRANCH  27  28
ENDBRANCH  26  27
ENDBRANCH   1  26
TORSDOF 27
ENDMDL
