MODEL 1
REMARK VINA RESULT:      -9.9      0.000      0.000
REMARK SMILES COC(=O)c1ccc(C)c(NC(=O)[C@H]2CC=CC[C@H]2C(=O)OCCOCCOCCOCCOC(=O)c2ccc(-c3c4nc(c(-c5c(F)cc(S(=O)(=O)[O-])cc5F)c5ccc([nH]5)c(-c5c(F)cc(S(=O)(=O)[O-])cc5F)c5nc(c(-c6c(F)cc(S(=O)(=O)[O-])cc6F)c6ccc3[nH]6)C=C5)C=C4)cc2)c1
REMARK SMILES IDX 27 1 26 2 25 3 24 4 23 5 22 6 20 7 21 8 19 9 14 10 15 11
REMARK SMILES IDX 16 12 18 13 17 14 12 15 11 16 13 18 10 19 5 20 6 21 103 22
REMARK SMILES IDX 7 23 8 24 9 25 3 26 4 27 2 28 1 29 28 30 29 31 30 32 31 33
REMARK SMILES IDX 32 34 33 35 34 36 35 37 36 38 37 39 38 40 102 41 39 42
REMARK SMILES IDX 101 43 40 44 41 45 42 46 95 47 43 48 100 49 94 50 96 51
REMARK SMILES IDX 44 52 99 53 93 54 92 55 45 57 79 58 58 59 78 60 59 61 62 62
REMARK SMILES IDX 77 63 97 64 60 65 61 66 76 68 98 69 63 70 46 71 47 72 56 73
REMARK SMILES IDX 48 74 49 75 55 76 57 77 50 78 51 79 52 80 53 81 54 82 80 83
REMARK SMILES IDX 81 84 90 85 82 86 83 87 89 88 91 89 84 90 85 91 86 92 87 93
REMARK SMILES IDX 88 94 64 95 65 96 74 97 66 98 67 99 73 100 75 101 68 102
REMARK SMILES IDX 69 103 70 104 71 105 72 106
REMARK H PARENT 11 17 96 56 62 67
REMARK Flexibility Score: inf
ROOT
ATOM      1  C   UNL A   1      38.662  23.465  26.100  1.00  0.00     0.188 C 
ENDROOT
BRANCH   1   2
ATOM      2  C   UNL A   1      37.565  22.788  25.282  1.00  0.00     0.188 C 
BRANCH   2   3
ATOM      3  O   UNL A   1      37.401  21.436  25.639  1.00  0.00    -0.376 OA
BRANCH   3   4
ATOM      4  C   UNL A   1      36.683  20.625  24.746  1.00  0.00     0.202 C 
BRANCH   4   5
ATOM      5  C   UNL A   1      35.232  20.327  25.013  1.00  0.00     0.261 C 
BRANCH   5   6
ATOM      6  O   UNL A   1      34.395  21.448  24.893  1.00  0.00    -0.463 OA
BRANCH   6   7
ATOM      7  C   UNL A   1      33.838  21.904  26.040  1.00  0.00     0.310 C 
ATOM      8  O   UNL A   1      34.318  21.821  27.161  1.00  0.00    -0.252 OA
BRANCH   7   9
ATOM      9  C   UNL A   1      32.554  22.639  25.763  1.00  0.00     0.116 C 
ATOM     10  C   UNL A   1      32.602  23.948  26.495  1.00  0.00     0.097 C 
ATOM     11  C   UNL A   1      31.158  24.471  26.553  1.00  0.00     0.041 C 
ATOM     12  C   UNL A   1      30.657  24.734  25.165  1.00  0.00    -0.030 C 
ATOM     13  C   UNL A   1      32.128  22.913  24.307  1.00  0.00     0.043 C 
ATOM     14  C   UNL A   1      31.130  24.027  24.130  1.00  0.00    -0.030 C 
BRANCH  10  15
ATOM     15  C   UNL A   1      33.588  24.952  25.877  1.00  0.00     0.228 C 
ATOM     16  N   UNL A   1      33.532  26.291  25.643  1.00  0.00    -0.326 N 
ATOM     17  H   UNL A   1      34.350  26.434  25.113  1.00  0.00     0.169 HD
ATOM     18  O   UNL A   1      34.648  24.458  25.430  1.00  0.00    -0.274 OA
BRANCH  16  19
ATOM     19  C   UNL A   1      32.987  27.635  25.709  1.00  0.00     0.044 A 
ATOM     20  C   UNL A   1      33.697  29.757  26.882  1.00  0.00     0.062 A 
ATOM     21  C   UNL A   1      32.604  30.449  26.427  1.00  0.00     0.016 A 
ATOM     22  C   UNL A   1      33.870  28.404  26.524  1.00  0.00     0.042 A 
ATOM     23  C   UNL A   1      31.734  29.775  25.604  1.00  0.00     0.006 A 
ATOM     24  C   UNL A   1      31.876  28.391  25.221  1.00  0.00    -0.027 A 
ATOM     25  C   UNL A   1      30.740  28.176  24.256  1.00  0.00     0.046 C 
BRANCH  20  26
ATOM     26  C   UNL A   1      34.740  30.512  27.605  1.00  0.00     0.337 C 
ATOM     27  O   UNL A   1      34.659  31.688  27.913  1.00  0.00    -0.246 OA
BRANCH  26  28
ATOM     28  O   UNL A   1      35.813  29.712  27.787  1.00  0.00    -0.465 OA
ATOM     29  C   UNL A   1      36.259  29.700  29.136  1.00  0.00     0.282 C 
ENDBRANCH  26  28
ENDBRANCH  20  26
ENDBRANCH  16  19
ENDBRANCH  10  15
ENDBRANCH   7   9
ENDBRANCH   6   7
ENDBRANCH   5   6
ENDBRANCH   4   5
ENDBRANCH   3   4
ENDBRANCH   2   3
ENDBRANCH   1   2
BRANCH   1  30
ATOM     30  O   UNL A   1      38.187  24.375  27.072  1.00  0.00    -0.377 OA
BRANCH  30  31
ATOM     31  C   UNL A   1      39.287  24.968  27.738  1.00  0.00     0.188 C 
BRANCH  31  32
ATOM     32  C   UNL A   1      40.371  25.483  26.772  1.00  0.00     0.188 C 
BRANCH  32  33
ATOM     33  O   UNL A   1      40.797  26.865  26.899  1.00  0.00    -0.376 OA
BRANCH  33  34
ATOM     34  C   UNL A   1      42.101  27.574  27.040  1.00  0.00     0.202 C 
BRANCH  34  35
ATOM     35  C   UNL A   1      43.705  27.994  26.203  1.00  0.00     0.261 C 
BRANCH  35  36
ATOM     36  O   UNL A   1      45.255  28.841  26.465  1.00  0.00    -0.460 OA
BRANCH  36  37
ATOM     37  C   UNL A   1      46.409  29.895  26.396  1.00  0.00     0.338 C 
ATOM     38  O   UNL A   1      47.219  29.681  25.480  1.00  0.00    -0.246 OA
BRANCH  37  39
ATOM     39  C   UNL A   1      47.006  31.112  27.603  1.00  0.00     0.060 A 
ATOM     40  C   UNL A   1      46.329  31.327  28.812  1.00  0.00     0.016 A 
ATOM     41  C   UNL A   1      48.036  32.090  27.515  1.00  0.00     0.016 A 
ATOM     42  C   UNL A   1      46.339  32.622  29.489  1.00  0.00     0.010 A 
ATOM     43  C   UNL A   1      47.923  33.449  28.048  1.00  0.00     0.010 A 
ATOM     44  C   UNL A   1      46.935  33.794  28.946  1.00  0.00    -0.014 A 
BRANCH  44  45
ATOM     45  C   UNL A   1      46.214  35.160  28.967  1.00  0.00     0.031 A 
ATOM     46  C   UNL A   1      45.956  36.419  28.049  1.00  0.00     0.074 A 
ATOM     47  C   UNL A   1      45.233  35.118  29.884  1.00  0.00     0.049 A 
ATOM     48  N   UNL A   1      45.633  37.640  28.492  1.00  0.00    -0.248 NA
ATOM     49  C   UNL A   1      45.977  36.402  26.589  1.00  0.00     0.031 C 
ATOM     50  C   UNL A   1      43.845  35.284  29.527  1.00  0.00     0.029 A 
ATOM     51  N   UNL A   1      45.160  34.634  31.157  1.00  0.00    -0.354 N 
ATOM     52  C   UNL A   1      45.323  38.507  27.400  1.00  0.00     0.074 A 
ATOM     53  C   UNL A   1      45.604  37.656  26.251  1.00  0.00     0.031 C 
ATOM     54  C   UNL A   1      43.085  35.224  30.609  1.00  0.00     0.029 A 
ATOM     55  C   UNL A   1      43.974  34.948  31.727  1.00  0.00     0.049 A 
ATOM     56  H   UNL A   1      45.875  34.125  31.601  1.00  0.00     0.167 HD
ATOM     57  C   UNL A   1      44.728  39.783  27.478  1.00  0.00     0.037 A 
ATOM     58  C   UNL A   1      43.417  34.544  32.873  1.00  0.00     0.037 A 
ATOM     59  C   UNL A   1      44.125  40.091  28.832  1.00  0.00     0.049 A 
ATOM     60  C   UNL A   1      43.142  36.059  33.275  1.00  0.00     0.074 A 
ATOM     61  C   UNL A   1      42.862  40.577  29.183  1.00  0.00     0.029 A 
ATOM     62  N   UNL A   1      44.658  39.634  30.049  1.00  0.00    -0.354 N 
ATOM     63  N   UNL A   1      43.023  37.128  32.480  1.00  0.00    -0.248 NA
ATOM     64  C   UNL A   1      43.529  36.502  34.630  1.00  0.00     0.031 C 
ATOM     65  C   UNL A   1      42.601  40.298  30.537  1.00  0.00     0.029 A 
ATOM     66  C   UNL A   1      43.705  39.674  31.074  1.00  0.00     0.049 A 
ATOM     67  H   UNL A   1      45.585  39.325  30.167  1.00  0.00     0.167 HD
ATOM     68  C   UNL A   1      43.596  38.255  33.089  1.00  0.00     0.074 A 
ATOM     69  C   UNL A   1      43.751  37.819  34.468  1.00  0.00     0.031 C 
ATOM     70  C   UNL A   1      44.012  39.436  32.480  1.00  0.00     0.037 A 
BRANCH  57  71
ATOM     71  C   UNL A   1      44.341  40.773  26.221  1.00  0.00     0.058 A 
ATOM     72  C   UNL A   1      45.305  41.463  25.409  1.00  0.00     0.135 A 
ATOM     73  C   UNL A   1      43.033  41.010  25.727  1.00  0.00     0.135 A 
ATOM     74  F   UNL A   1      46.614  41.202  25.474  1.00  0.00    -0.206 F 
ATOM     75  C   UNL A   1      45.016  42.385  24.374  1.00  0.00     0.059 A 
ATOM     76  C   UNL A   1      42.713  41.906  24.658  1.00  0.00     0.059 A 
ATOM     77  F   UNL A   1      41.992  40.302  26.186  1.00  0.00    -0.206 F 
ATOM     78  C   UNL A   1      43.711  42.611  23.997  1.00  0.00     0.060 A 
BRANCH  78  79
ATOM     79  S   UNL A   1      43.386  43.677  22.558  1.00  0.00     0.124 S 
ATOM     80  O   UNL A   1      43.211  42.711  21.479  1.00  0.00    -0.237 OA
ATOM     81  O   UNL A   1      42.176  44.391  22.959  1.00  0.00    -0.237 OA
ATOM     82  O   UNL A   1      44.585  44.505  22.465  1.00  0.00    -0.744 OA
ENDBRANCH  78  79
ENDBRANCH  57  71
BRANCH  58  83
ATOM     83  C   UNL A   1      42.913  33.102  32.455  1.00  0.00     0.058 A 
ATOM     84  C   UNL A   1      43.568  31.872  32.640  1.00  0.00     0.135 A 
ATOM     85  C   UNL A   1      41.577  32.899  32.798  1.00  0.00     0.135 A 
ATOM     86  F   UNL A   1      44.700  31.656  31.953  1.00  0.00    -0.206 F 
ATOM     87  C   UNL A   1      43.109  30.785  33.565  1.00  0.00     0.059 A 
ATOM     88  C   UNL A   1      41.116  31.824  33.666  1.00  0.00     0.059 A 
ATOM     89  F   UNL A   1      40.682  33.881  32.563  1.00  0.00    -0.206 F 
ATOM     90  C   UNL A   1      41.876  30.787  34.272  1.00  0.00     0.060 A 
BRANCH  90  91
ATOM     91  S   UNL A   1      41.212  29.353  35.881  1.00  0.00     0.124 S 
ATOM     92  O   UNL A   1      41.214  27.938  35.474  1.00  0.00    -0.237 OA
ATOM     93  O   UNL A   1      42.169  29.298  36.992  1.00  0.00    -0.237 OA
ATOM     94  O   UNL A   1      39.921  29.830  36.231  1.00  0.00    -0.744 OA
ENDBRANCH  90  91
ENDBRANCH  58  83
BRANCH  70  95
ATOM     95  C   UNL A   1      44.646  40.661  33.187  1.00  0.00     0.058 A 
ATOM     96  C   UNL A   1      43.918  41.752  33.674  1.00  0.00     0.135 A 
ATOM     97  C   UNL A   1      46.048  40.724  33.472  1.00  0.00     0.135 A 
ATOM     98  F   UNL A   1      42.579  41.753  33.651  1.00  0.00    -0.206 F 
ATOM     99  C   UNL A   1      44.531  42.873  34.253  1.00  0.00     0.059 A 
ATOM    100  C   UNL A   1      46.670  41.799  34.105  1.00  0.00     0.059 A 
ATOM    101  F   UNL A   1      46.896  39.739  33.153  1.00  0.00    -0.206 F 
ATOM    102  C   UNL A   1      45.909  42.897  34.451  1.00  0.00     0.060 A 
BRANCH 102 103
ATOM    103  S   UNL A   1      46.695  44.324  35.220  1.00  0.00     0.124 S 
ATOM    104  O   UNL A   1      46.979  43.816  36.558  1.00  0.00    -0.237 OA
ATOM    105  O   UNL A   1      47.863  44.538  34.370  1.00  0.00    -0.237 OA
ATOM    106  O   UNL A   1      45.674  45.363  35.139  1.00  0.00    -0.744 OA
ENDBRANCH 102 103
ENDBRANCH  70  95
ENDBRANCH  44  45
ENDBRANCH  37  39
ENDBRANCH  36  37
ENDBRANCH  35  36
ENDBRANCH  34  35
ENDBRANCH  33  34
ENDBRANCH  32  33
ENDBRANCH  31  32
ENDBRANCH  30  31
ENDBRANCH   1  30
TORSDOF 27
ENDMDL
MODEL 2
REMARK VINA RESULT:      -9.6      4.859     12.181
REMARK SMILES COC(=O)c1ccc(C)c(NC(=O)[C@H]2CC=CC[C@H]2C(=O)OCCOCCOCCOCCOC(=O)c2ccc(-c3c4nc(c(-c5c(F)cc(S(=O)(=O)[O-])cc5F)c5ccc([nH]5)c(-c5c(F)cc(S(=O)(=O)[O-])cc5F)c5nc(c(-c6c(F)cc(S(=O)(=O)[O-])cc6F)c6ccc3[nH]6)C=C5)C=C4)cc2)c1
REMARK SMILES IDX 27 1 26 2 25 3 24 4 23 5 22 6 20 7 21 8 19 9 14 10 15 11
REMARK SMILES IDX 16 12 18 13 17 14 12 15 11 16 13 18 10 19 5 20 6 21 103 22
REMARK SMILES IDX 7 23 8 24 9 25 3 26 4 27 2 28 1 29 28 30 29 31 30 32 31 33
REMARK SMILES IDX 32 34 33 35 34 36 35 37 36 38 37 39 38 40 102 41 39 42
REMARK SMILES IDX 101 43 40 44 41 45 42 46 95 47 43 48 100 49 94 50 96 51
REMARK SMILES IDX 44 52 99 53 93 54 92 55 45 57 79 58 58 59 78 60 59 61 62 62
REMARK SMILES IDX 77 63 97 64 60 65 61 66 76 68 98 69 63 70 46 71 47 72 56 73
REMARK SMILES IDX 48 74 49 75 55 76 57 77 50 78 51 79 52 80 53 81 54 82 80 83
REMARK SMILES IDX 81 84 90 85 82 86 83 87 89 88 91 89 84 90 85 91 86 92 87 93
REMARK SMILES IDX 88 94 64 95 65 96 74 97 66 98 67 99 73 100 75 101 68 102
REMARK SMILES IDX 69 103 70 104 71 105 72 106
REMARK H PARENT 11 17 96 56 62 67
REMARK Flexibility Score: inf
ROOT
ATOM      1  C   UNL A   1      33.489  24.839  24.715  1.00  0.00     0.188 C 
ENDROOT
BRANCH   1   2
ATOM      2  C   UNL A   1      34.606  24.230  25.558  1.00  0.00     0.188 C 
BRANCH   2   3
ATOM      3  O   UNL A   1      35.403  23.340  24.813  1.00  0.00    -0.376 OA
BRANCH   3   4
ATOM      4  C   UNL A   1      36.769  23.648  24.704  1.00  0.00     0.202 C 
BRANCH   4   5
ATOM      5  C   UNL A   1      37.697  23.334  25.845  1.00  0.00     0.261 C 
BRANCH   5   6
ATOM      6  O   UNL A   1      38.344  24.464  26.372  1.00  0.00    -0.463 OA
BRANCH   6   7
ATOM      7  C   UNL A   1      39.301  24.226  27.301  1.00  0.00     0.310 C 
ATOM      8  O   UNL A   1      39.760  23.135  27.605  1.00  0.00    -0.252 OA
BRANCH   7   9
ATOM      9  C   UNL A   1      39.827  25.513  27.877  1.00  0.00     0.116 C 
ATOM     10  C   UNL A   1      41.315  25.533  27.683  1.00  0.00     0.097 C 
ATOM     11  C   UNL A   1      41.865  26.611  28.630  1.00  0.00     0.041 C 
ATOM     12  C   UNL A   1      41.328  27.954  28.239  1.00  0.00    -0.030 C 
ATOM     13  C   UNL A   1      39.256  26.860  27.389  1.00  0.00     0.043 C 
ATOM     14  C   UNL A   1      40.133  28.057  27.643  1.00  0.00    -0.030 C 
BRANCH  10  15
ATOM     15  C   UNL A   1      41.732  25.741  26.218  1.00  0.00     0.228 C 
ATOM     16  N   UNL A   1      42.884  25.508  25.535  1.00  0.00    -0.326 N 
ATOM     17  H   UNL A   1      42.689  25.931  24.667  1.00  0.00     0.169 HD
ATOM     18  O   UNL A   1      40.878  26.295  25.490  1.00  0.00    -0.274 OA
BRANCH  16  19
ATOM     19  C   UNL A   1      44.231  25.007  25.320  1.00  0.00     0.044 A 
ATOM     20  C   UNL A   1      45.245  22.694  25.231  1.00  0.00     0.062 A 
ATOM     21  C   UNL A   1      46.510  23.188  25.046  1.00  0.00     0.016 A 
ATOM     22  C   UNL A   1      44.156  23.582  25.357  1.00  0.00     0.042 A 
ATOM     23  C   UNL A   1      46.644  24.554  24.963  1.00  0.00     0.006 A 
ATOM     24  C   UNL A   1      45.555  25.491  25.091  1.00  0.00    -0.027 A 
ATOM     25  C   UNL A   1      46.209  26.824  24.830  1.00  0.00     0.046 C 
BRANCH  20  26
ATOM     26  C   UNL A   1      45.052  21.233  25.130  1.00  0.00     0.337 C 
ATOM     27  O   UNL A   1      43.979  20.686  24.949  1.00  0.00    -0.246 OA
BRANCH  26  28
ATOM     28  O   UNL A   1      46.234  20.619  25.355  1.00  0.00    -0.465 OA
ATOM     29  C   UNL A   1      46.458  19.534  24.468  1.00  0.00     0.282 C 
ENDBRANCH  26  28
ENDBRANCH  20  26
ENDBRANCH  16  19
ENDBRANCH  10  15
ENDBRANCH   7   9
ENDBRANCH   6   7
ENDBRANCH   5   6
ENDBRANCH   4   5
ENDBRANCH   3   4
ENDBRANCH   2   3
ENDBRANCH   1   2
BRANCH   1  30
ATOM     30  O   UNL A   1      32.940  26.029  25.244  1.00  0.00    -0.377 OA
BRANCH  30  31
ATOM     31  C   UNL A   1      31.675  26.267  24.655  1.00  0.00     0.188 C 
BRANCH  31  32
ATOM     32  C   UNL A   1      31.261  27.751  24.695  1.00  0.00     0.188 C 
BRANCH  32  33
ATOM     33  O   UNL A   1      32.189  28.703  25.277  1.00  0.00    -0.376 OA
BRANCH  33  34
ATOM     34  C   UNL A   1      32.084  30.040  25.929  1.00  0.00     0.202 C 
BRANCH  34  35
ATOM     35  C   UNL A   1      32.745  31.136  27.273  1.00  0.00     0.261 C 
BRANCH  35  36
ATOM     36  O   UNL A   1      34.221  31.478  28.218  1.00  0.00    -0.460 OA
BRANCH  36  37
ATOM     37  C   UNL A   1      35.339  31.422  29.311  1.00  0.00     0.338 C 
ATOM     38  O   UNL A   1      35.235  32.311  30.170  1.00  0.00    -0.246 OA
BRANCH  37  39
ATOM     39  C   UNL A   1      36.947  30.580  29.351  1.00  0.00     0.060 A 
ATOM     40  C   UNL A   1      37.099  29.337  29.982  1.00  0.00     0.016 A 
ATOM     41  C   UNL A   1      38.244  31.019  28.964  1.00  0.00     0.016 A 
ATOM     42  C   UNL A   1      38.360  28.925  30.595  1.00  0.00     0.010 A 
ATOM     43  C   UNL A   1      39.464  30.738  29.722  1.00  0.00     0.010 A 
ATOM     44  C   UNL A   1      39.500  29.769  30.702  1.00  0.00    -0.014 A 
BRANCH  44  45
ATOM     45  C   UNL A   1      40.309  29.884  32.013  1.00  0.00     0.031 A 
ATOM     46  C   UNL A   1      41.031  28.978  33.087  1.00  0.00     0.074 A 
ATOM     47  C   UNL A   1      40.867  31.105  32.072  1.00  0.00     0.049 A 
ATOM     48  N   UNL A   1      41.299  29.344  34.346  1.00  0.00    -0.248 NA
ATOM     49  C   UNL A   1      41.553  27.638  32.830  1.00  0.00     0.031 C 
ATOM     50  C   UNL A   1      42.297  31.291  32.103  1.00  0.00     0.029 A 
ATOM     51  N   UNL A   1      40.406  32.360  31.803  1.00  0.00    -0.354 N 
ATOM     52  C   UNL A   1      42.089  28.350  35.002  1.00  0.00     0.074 A 
ATOM     53  C   UNL A   1      42.163  27.306  33.988  1.00  0.00     0.031 C 
ATOM     54  C   UNL A   1      42.588  32.580  32.183  1.00  0.00     0.029 A 
ATOM     55  C   UNL A   1      41.321  33.295  32.144  1.00  0.00     0.049 A 
ATOM     56  H   UNL A   1      39.524  32.557  31.413  1.00  0.00     0.167 HD
ATOM     57  C   UNL A   1      42.752  28.482  36.240  1.00  0.00     0.037 A 
ATOM     58  C   UNL A   1      41.362  34.610  31.907  1.00  0.00     0.037 A 
ATOM     59  C   UNL A   1      42.837  29.909  36.736  1.00  0.00     0.049 A 
ATOM     60  C   UNL A   1      41.635  34.882  33.450  1.00  0.00     0.074 A 
ATOM     61  C   UNL A   1      43.925  30.652  37.206  1.00  0.00     0.029 A 
ATOM     62  N   UNL A   1      41.841  30.876  36.516  1.00  0.00    -0.354 N 
ATOM     63  N   UNL A   1      42.161  34.059  34.365  1.00  0.00    -0.248 NA
ATOM     64  C   UNL A   1      40.824  35.911  34.132  1.00  0.00     0.031 C 
ATOM     65  C   UNL A   1      43.629  32.026  37.142  1.00  0.00     0.029 A 
ATOM     66  C   UNL A   1      42.342  32.174  36.675  1.00  0.00     0.049 A 
ATOM     67  H   UNL A   1      40.909  30.667  36.281  1.00  0.00     0.167 HD
ATOM     68  C   UNL A   1      41.533  34.244  35.606  1.00  0.00     0.074 A 
ATOM     69  C   UNL A   1      40.828  35.502  35.414  1.00  0.00     0.031 C 
ATOM     70  C   UNL A   1      41.509  33.371  36.690  1.00  0.00     0.037 A 
BRANCH  57  71
ATOM     71  C   UNL A   1      43.687  27.351  36.987  1.00  0.00     0.058 A 
ATOM     72  C   UNL A   1      43.171  26.280  37.794  1.00  0.00     0.135 A 
ATOM     73  C   UNL A   1      45.096  27.236  36.869  1.00  0.00     0.135 A 
ATOM     74  F   UNL A   1      41.869  25.985  37.845  1.00  0.00    -0.206 F 
ATOM     75  C   UNL A   1      43.941  25.337  38.518  1.00  0.00     0.059 A 
ATOM     76  C   UNL A   1      45.896  26.270  37.559  1.00  0.00     0.059 A 
ATOM     77  F   UNL A   1      45.771  27.990  35.993  1.00  0.00    -0.206 F 
ATOM     78  C   UNL A   1      45.313  25.333  38.403  1.00  0.00     0.060 A 
BRANCH  78  79
ATOM     79  S   UNL A   1      46.258  24.009  39.219  1.00  0.00     0.124 S 
ATOM     80  O   UNL A   1      47.186  24.755  40.063  1.00  0.00    -0.237 OA
ATOM     81  O   UNL A   1      45.220  23.271  39.933  1.00  0.00    -0.237 OA
ATOM     82  O   UNL A   1      46.871  23.287  38.107  1.00  0.00    -0.744 OA
ENDBRANCH  78  79
ENDBRANCH  57  71
BRANCH  58  83
ATOM     83  C   UNL A   1      41.821  34.614  30.390  1.00  0.00     0.058 A 
ATOM     84  C   UNL A   1      41.036  34.867  29.252  1.00  0.00     0.135 A 
ATOM     85  C   UNL A   1      43.018  35.306  30.212  1.00  0.00     0.135 A 
ATOM     86  F   UNL A   1      40.078  33.979  28.942  1.00  0.00    -0.206 F 
ATOM     87  C   UNL A   1      41.170  36.068  28.365  1.00  0.00     0.059 A 
ATOM     88  C   UNL A   1      43.169  36.452  29.324  1.00  0.00     0.059 A 
ATOM     89  F   UNL A   1      44.025  35.112  31.088  1.00  0.00    -0.206 F 
ATOM     90  C   UNL A   1      42.201  37.041  28.467  1.00  0.00     0.060 A 
BRANCH  90  91
ATOM     91  S   UNL A   1      42.346  39.009  27.375  1.00  0.00     0.124 S 
ATOM     92  O   UNL A   1      41.193  39.314  26.512  1.00  0.00    -0.237 OA
ATOM     93  O   UNL A   1      42.281  40.151  28.296  1.00  0.00    -0.237 OA
ATOM     94  O   UNL A   1      43.565  38.895  26.656  1.00  0.00    -0.744 OA
ENDBRANCH  90  91
ENDBRANCH  58  83
BRANCH  70  95
ATOM     95  C   UNL A   1      40.799  33.610  38.047  1.00  0.00     0.058 A 
ATOM     96  C   UNL A   1      39.557  33.065  38.392  1.00  0.00     0.135 A 
ATOM     97  C   UNL A   1      41.417  34.356  39.100  1.00  0.00     0.135 A 
ATOM     98  F   UNL A   1      38.938  32.193  37.585  1.00  0.00    -0.206 F 
ATOM     99  C   UNL A   1      38.914  33.353  39.605  1.00  0.00     0.059 A 
ATOM    100  C   UNL A   1      40.826  34.600  40.338  1.00  0.00     0.059 A 
ATOM    101  F   UNL A   1      42.640  34.890  38.986  1.00  0.00    -0.206 F 
ATOM    102  C   UNL A   1      39.548  34.135  40.567  1.00  0.00     0.060 A 
BRANCH 102 103
ATOM    103  S   UNL A   1      38.736  34.483  42.137  1.00  0.00     0.124 S 
ATOM    104  O   UNL A   1      39.544  33.697  43.065  1.00  0.00    -0.237 OA
ATOM    105  O   UNL A   1      38.880  35.931  42.254  1.00  0.00    -0.237 OA
ATOM    106  O   UNL A   1      37.371  34.012  41.929  1.00  0.00    -0.744 OA
ENDBRANCH 102 103
ENDBRANCH  70  95
ENDBRANCH  44  45
ENDBRANCH  37  39
ENDBRANCH  36  37
ENDBRANCH  35  36
ENDBRANCH  34  35
ENDBRANCH  33  34
ENDBRANCH  32  33
ENDBRANCH  31  32
ENDBRANCH  30  31
ENDBRANCH   1  30
TORSDOF 27
ENDMDL
MODEL 3
REMARK VINA RESULT:      -9.5      6.053     16.437
REMARK SMILES COC(=O)c1ccc(C)c(NC(=O)[C@H]2CC=CC[C@H]2C(=O)OCCOCCOCCOCCOC(=O)c2ccc(-c3c4nc(c(-c5c(F)cc(S(=O)(=O)[O-])cc5F)c5ccc([nH]5)c(-c5c(F)cc(S(=O)(=O)[O-])cc5F)c5nc(c(-c6c(F)cc(S(=O)(=O)[O-])cc6F)c6ccc3[nH]6)C=C5)C=C4)cc2)c1
REMARK SMILES IDX 27 1 26 2 25 3 24 4 23 5 22 6 20 7 21 8 19 9 14 10 15 11
REMARK SMILES IDX 16 12 18 13 17 14 12 15 11 16 13 18 10 19 5 20 6 21 103 22
REMARK SMILES IDX 7 23 8 24 9 25 3 26 4 27 2 28 1 29 28 30 29 31 30 32 31 33
REMARK SMILES IDX 32 34 33 35 34 36 35 37 36 38 37 39 38 40 102 41 39 42
REMARK SMILES IDX 101 43 40 44 41 45 42 46 95 47 43 48 100 49 94 50 96 51
REMARK SMILES IDX 44 52 99 53 93 54 92 55 45 57 79 58 58 59 78 60 59 61 62 62
REMARK SMILES IDX 77 63 97 64 60 65 61 66 76 68 98 69 63 70 46 71 47 72 56 73
REMARK SMILES IDX 48 74 49 75 55 76 57 77 50 78 51 79 52 80 53 81 54 82 80 83
REMARK SMILES IDX 81 84 90 85 82 86 83 87 89 88 91 89 84 90 85 91 86 92 87 93
REMARK SMILES IDX 88 94 64 95 65 96 74 97 66 98 67 99 73 100 75 101 68 102
REMARK SMILES IDX 69 103 70 104 71 105 72 106
REMARK H PARENT 11 17 96 56 62 67
REMARK Flexibility Score: inf
ROOT
ATOM      1  C   UNL A   1      45.610  41.230  36.428  1.00  0.00     0.188 C 
ENDROOT
BRANCH   1   2
ATOM      2  C   UNL A   1      44.633  41.728  35.366  1.00  0.00     0.188 C 
BRANCH   2   3
ATOM      3  O   UNL A   1      43.785  40.702  34.908  1.00  0.00    -0.376 OA
BRANCH   3   4
ATOM      4  C   UNL A   1      43.641  40.568  33.518  1.00  0.00     0.202 C 
BRANCH   4   5
ATOM      5  C   UNL A   1      44.851  40.299  32.666  1.00  0.00     0.261 C 
BRANCH   5   6
ATOM      6  O   UNL A   1      44.584  39.494  31.546  1.00  0.00    -0.463 OA
BRANCH   6   7
ATOM      7  C   UNL A   1      45.444  39.612  30.506  1.00  0.00     0.310 C 
ATOM      8  O   UNL A   1      46.453  40.300  30.476  1.00  0.00    -0.252 OA
BRANCH   7   9
ATOM      9  C   UNL A   1      45.058  38.692  29.378  1.00  0.00     0.116 C 
ATOM     10  C   UNL A   1      43.577  38.464  29.454  1.00  0.00     0.097 C 
ATOM     11  C   UNL A   1      43.281  37.225  28.594  1.00  0.00     0.041 C 
ATOM     12  C   UNL A   1      43.636  37.501  27.165  1.00  0.00    -0.030 C 
ATOM     13  C   UNL A   1      45.417  39.069  27.927  1.00  0.00     0.043 C 
ATOM     14  C   UNL A   1      44.607  38.374  26.866  1.00  0.00    -0.030 C 
BRANCH  10  15
ATOM     15  C   UNL A   1      42.752  39.696  29.048  1.00  0.00     0.228 C 
ATOM     16  N   UNL A   1      42.990  41.034  29.092  1.00  0.00    -0.326 N 
ATOM     17  H   UNL A   1      42.109  41.400  28.847  1.00  0.00     0.169 HD
ATOM     18  O   UNL A   1      41.590  39.455  28.647  1.00  0.00    -0.274 OA
BRANCH  16  19
ATOM     19  C   UNL A   1      43.768  42.245  29.284  1.00  0.00     0.044 A 
ATOM     20  C   UNL A   1      43.755  44.076  31.026  1.00  0.00     0.062 A 
ATOM     21  C   UNL A   1      44.744  44.777  30.387  1.00  0.00     0.016 A 
ATOM     22  C   UNL A   1      43.298  42.856  30.486  1.00  0.00     0.042 A 
ATOM     23  C   UNL A   1      45.267  44.223  29.242  1.00  0.00     0.006 A 
ATOM     24  C   UNL A   1      44.822  42.981  28.659  1.00  0.00    -0.027 A 
ATOM     25  C   UNL A   1      45.764  42.781  27.500  1.00  0.00     0.046 C 
BRANCH  20  26
ATOM     26  C   UNL A   1      43.316  44.554  32.353  1.00  0.00     0.337 C 
ATOM     27  O   UNL A   1      43.795  45.507  32.941  1.00  0.00    -0.246 OA
BRANCH  26  28
ATOM     28  O   UNL A   1      42.370  43.716  32.829  1.00  0.00    -0.465 OA
ATOM     29  C   UNL A   1      42.021  44.001  34.176  1.00  0.00     0.282 C 
ENDBRANCH  26  28
ENDBRANCH  20  26
ENDBRANCH  16  19
ENDBRANCH  10  15
ENDBRANCH   7   9
ENDBRANCH   6   7
ENDBRANCH   5   6
ENDBRANCH   4   5
ENDBRANCH   3   4
ENDBRANCH   2   3
ENDBRANCH   1   2
BRANCH   1  30
ATOM     30  O   UNL A   1      46.764  42.030  36.580  1.00  0.00    -0.377 OA
BRANCH  30  31
ATOM     31  C   UNL A   1      47.907  41.286  36.200  1.00  0.00     0.188 C 
BRANCH  31  32
ATOM     32  C   UNL A   1      47.597  40.196  35.156  1.00  0.00     0.188 C 
BRANCH  32  33
ATOM     33  O   UNL A   1      47.519  38.819  35.609  1.00  0.00    -0.376 OA
BRANCH  33  34
ATOM     34  C   UNL A   1      46.503  37.728  35.551  1.00  0.00     0.202 C 
BRANCH  34  35
ATOM     35  C   UNL A   1      44.839  37.230  34.897  1.00  0.00     0.261 C 
BRANCH  35  36
ATOM     36  O   UNL A   1      43.587  35.966  35.037  1.00  0.00    -0.460 OA
BRANCH  36  37
ATOM     37  C   UNL A   1      42.550  34.951  35.625  1.00  0.00     0.338 C 
ATOM     38  O   UNL A   1      42.725  34.710  36.830  1.00  0.00    -0.246 OA
BRANCH  37  39
ATOM     39  C   UNL A   1      41.416  33.783  34.823  1.00  0.00     0.060 A 
ATOM     40  C   UNL A   1      40.971  32.632  35.489  1.00  0.00     0.016 A 
ATOM     41  C   UNL A   1      40.947  33.704  33.482  1.00  0.00     0.016 A 
ATOM     42  C   UNL A   1      40.625  31.405  34.775  1.00  0.00     0.010 A 
ATOM     43  C   UNL A   1      40.796  32.452  32.739  1.00  0.00     0.010 A 
ATOM     44  C   UNL A   1      40.802  31.228  33.375  1.00  0.00    -0.014 A 
BRANCH  44  45
ATOM     45  C   UNL A   1      41.431  29.945  32.789  1.00  0.00     0.031 A 
ATOM     46  C   UNL A   1      42.386  28.755  33.198  1.00  0.00     0.074 A 
ATOM     47  C   UNL A   1      40.675  29.522  31.761  1.00  0.00     0.049 A 
ATOM     48  N   UNL A   1      43.084  28.000  32.341  1.00  0.00    -0.248 NA
ATOM     49  C   UNL A   1      42.588  28.283  34.565  1.00  0.00     0.031 C 
ATOM     50  C   UNL A   1      40.012  28.242  31.774  1.00  0.00     0.029 A 
ATOM     51  N   UNL A   1      40.075  30.160  30.715  1.00  0.00    -0.354 N 
ATOM     52  C   UNL A   1      43.726  26.923  33.025  1.00  0.00     0.074 A 
ATOM     53  C   UNL A   1      43.389  27.205  34.415  1.00  0.00     0.031 C 
ATOM     54  C   UNL A   1      39.353  28.057  30.642  1.00  0.00     0.029 A 
ATOM     55  C   UNL A   1      39.522  29.271  29.858  1.00  0.00     0.049 A 
ATOM     56  H   UNL A   1      40.050  31.137  30.599  1.00  0.00     0.167 HD
ATOM     57  C   UNL A   1      44.351  25.803  32.437  1.00  0.00     0.037 A 
ATOM     58  C   UNL A   1      38.709  29.450  28.813  1.00  0.00     0.037 A 
ATOM     59  C   UNL A   1      44.038  25.635  30.967  1.00  0.00     0.049 A 
ATOM     60  C   UNL A   1      39.671  28.560  27.911  1.00  0.00     0.074 A 
ATOM     61  C   UNL A   1      43.603  24.518  30.245  1.00  0.00     0.029 A 
ATOM     62  N   UNL A   1      43.836  26.706  30.080  1.00  0.00    -0.354 N 
ATOM     63  N   UNL A   1      40.546  27.622  28.293  1.00  0.00    -0.248 NA
ATOM     64  C   UNL A   1      40.065  29.081  26.586  1.00  0.00     0.031 C 
ATOM     65  C   UNL A   1      43.039  24.929  29.023  1.00  0.00     0.029 A 
ATOM     66  C   UNL A   1      43.146  26.298  28.932  1.00  0.00     0.049 A 
ATOM     67  H   UNL A   1      44.141  27.626  30.245  1.00  0.00     0.167 HD
ATOM     68  C   UNL A   1      41.691  27.664  27.482  1.00  0.00     0.074 A 
ATOM     69  C   UNL A   1      41.253  28.488  26.366  1.00  0.00     0.031 C 
ATOM     70  C   UNL A   1      42.951  27.142  27.758  1.00  0.00     0.037 A 
BRANCH  57  71
ATOM     71  C   UNL A   1      45.066  24.544  33.221  1.00  0.00     0.058 A 
ATOM     72  C   UNL A   1      46.378  24.595  33.804  1.00  0.00     0.135 A 
ATOM     73  C   UNL A   1      44.461  23.291  33.494  1.00  0.00     0.135 A 
ATOM     74  F   UNL A   1      47.058  25.737  33.940  1.00  0.00    -0.206 F 
ATOM     75  C   UNL A   1      47.061  23.514  34.415  1.00  0.00     0.059 A 
ATOM     76  C   UNL A   1      45.113  22.193  34.142  1.00  0.00     0.059 A 
ATOM     77  F   UNL A   1      43.161  23.090  33.240  1.00  0.00    -0.206 F 
ATOM     78  C   UNL A   1      46.426  22.304  34.582  1.00  0.00     0.060 A 
BRANCH  78  79
ATOM     79  S   UNL A   1      47.275  20.990  35.512  1.00  0.00     0.124 S 
ATOM     80  O   UNL A   1      48.469  20.751  34.708  1.00  0.00    -0.237 OA
ATOM     81  O   UNL A   1      47.511  21.619  36.809  1.00  0.00    -0.237 OA
ATOM     82  O   UNL A   1      46.306  19.897  35.526  1.00  0.00    -0.744 OA
ENDBRANCH  78  79
ENDBRANCH  57  71
BRANCH  58  83
ATOM     83  C   UNL A   1      37.333  29.695  29.558  1.00  0.00     0.058 A 
ATOM     84  C   UNL A   1      37.024  30.698  30.493  1.00  0.00     0.135 A 
ATOM     85  C   UNL A   1      36.248  29.615  28.685  1.00  0.00     0.135 A 
ATOM     86  F   UNL A   1      37.640  30.655  31.684  1.00  0.00    -0.206 F 
ATOM     87  C   UNL A   1      36.071  31.830  30.255  1.00  0.00     0.059 A 
ATOM     88  C   UNL A   1      35.295  30.695  28.473  1.00  0.00     0.059 A 
ATOM     89  F   UNL A   1      36.209  28.618  27.776  1.00  0.00    -0.206 F 
ATOM     90  C   UNL A   1      35.240  31.966  29.109  1.00  0.00     0.060 A 
BRANCH  90  91
ATOM     91  S   UNL A   1      33.984  33.745  28.524  1.00  0.00     0.124 S 
ATOM     92  O   UNL A   1      32.812  33.416  27.695  1.00  0.00    -0.237 OA
ATOM     93  O   UNL A   1      33.313  34.345  29.684  1.00  0.00    -0.237 OA
ATOM     94  O   UNL A   1      34.910  34.597  27.866  1.00  0.00    -0.744 OA
ENDBRANCH  90  91
ENDBRANCH  58  83
BRANCH  70  95
ATOM     95  C   UNL A   1      44.197  27.213  26.837  1.00  0.00     0.058 A 
ATOM     96  C   UNL A   1      45.187  28.198  26.926  1.00  0.00     0.135 A 
ATOM     97  C   UNL A   1      44.470  26.202  25.861  1.00  0.00     0.135 A 
ATOM     98  F   UNL A   1      45.169  29.106  27.911  1.00  0.00    -0.206 F 
ATOM     99  C   UNL A   1      46.268  28.268  26.035  1.00  0.00     0.059 A 
ATOM    100  C   UNL A   1      45.573  26.215  25.010  1.00  0.00     0.059 A 
ATOM    101  F   UNL A   1      43.679  25.137  25.682  1.00  0.00    -0.206 F 
ATOM    102  C   UNL A   1      46.446  27.281  25.069  1.00  0.00     0.060 A 
BRANCH 102 103
ATOM    103  S   UNL A   1      47.850  27.353  23.942  1.00  0.00     0.124 S 
ATOM    104  O   UNL A   1      48.861  27.996  24.775  1.00  0.00    -0.237 OA
ATOM    105  O   UNL A   1      48.088  25.944  23.642  1.00  0.00    -0.237 OA
ATOM    106  O   UNL A   1      47.352  28.147  22.824  1.00  0.00    -0.744 OA
ENDBRANCH 102 103
ENDBRANCH  70  95
ENDBRANCH  44  45
ENDBRANCH  37  39
ENDBRANCH  36  37
ENDBRANCH  35  36
ENDBRANCH  34  35
ENDBRANCH  33  34
ENDBRANCH  32  33
ENDBRANCH  31  32
ENDBRANCH  30  31
ENDBRANCH   1  30
TORSDOF 27
ENDMDL
