MODEL 1
REMARK VINA RESULT:      -9.7      0.000      0.000
REMARK SMILES O=C(OCCOCCOCCOCCOC(=O)[C@@H]1CCCN(C(=O)/C=C/c2cccc(F)c2)C1)c1ccc(-c2c3nc(c(-c4c(F)cc(S(=O)(=O)[O-])cc4F)c4ccc([nH]4)c(-c4c(F)cc(S(=O)(=O)[O-])cc4F)c4nc(c(-c5c(F)cc(S(=O)(=O)[O-])cc5F)c5ccc2[nH]5)C=C4)C=C3)cc1
REMARK SMILES IDX 9 1 8 2 7 3 6 4 5 5 4 6 3 7 2 8 1 9 35 10 36 11 100 12 37 13
REMARK SMILES IDX 99 14 38 15 39 16 40 17 93 18 41 19 98 20 92 21 94 22 42 23
REMARK SMILES IDX 97 24 91 25 90 26 43 28 77 29 56 30 76 31 57 32 60 33 75 34
REMARK SMILES IDX 95 35 58 36 59 37 74 39 96 40 61 41 44 42 45 43 54 44 46 45
REMARK SMILES IDX 47 46 53 47 55 48 48 49 49 50 50 51 51 52 52 53 78 54 79 55
REMARK SMILES IDX 88 56 80 57 81 58 87 59 89 60 82 61 83 62 84 63 85 64 86 65
REMARK SMILES IDX 62 66 63 67 72 68 64 69 65 70 71 71 73 72 66 73 67 74 68 75
REMARK SMILES IDX 69 76 70 77 10 78 11 79 12 80 13 81 14 82 15 83 16 84 17 85
REMARK SMILES IDX 18 86 19 87 34 88 20 89 22 90 21 91 23 92 24 93 25 94 26 95
REMARK SMILES IDX 27 96 28 97 33 98 29 99 31 100 30 101 32 102
REMARK H PARENT 94 27 60 38
REMARK Flexibility Score: inf
ROOT
ATOM      1  O   UNL A   1      38.361  22.690  26.035  1.00  0.00    -0.377 OA
ENDROOT
BRANCH   1   2
ATOM      2  C   UNL A   1      38.223  21.455  25.363  1.00  0.00     0.188 C 
BRANCH   2   3
ATOM      3  C   UNL A   1      39.437  20.565  25.553  1.00  0.00     0.188 C 
BRANCH   3   4
ATOM      4  O   UNL A   1      40.147  20.897  26.742  1.00  0.00    -0.376 OA
BRANCH   4   5
ATOM      5  C   UNL A   1      41.099  19.945  27.195  1.00  0.00     0.202 C 
BRANCH   5   6
ATOM      6  C   UNL A   1      41.744  19.060  26.118  1.00  0.00     0.261 C 
BRANCH   6   7
ATOM      7  O   UNL A   1      43.157  19.307  25.914  1.00  0.00    -0.460 OA
BRANCH   7   8
ATOM      8  C   UNL A   1      43.700  20.312  25.165  1.00  0.00     0.338 C 
ATOM      9  O   UNL A   1      44.134  20.090  24.037  1.00  0.00    -0.246 OA
BRANCH   8  10
ATOM     10  C   UNL A   1      43.807  21.679  25.730  1.00  0.00     0.060 A 
ATOM     11  C   UNL A   1      43.690  22.795  24.919  1.00  0.00     0.016 A 
ATOM     12  C   UNL A   1      43.988  21.885  27.092  1.00  0.00     0.016 A 
ATOM     13  C   UNL A   1      44.097  24.036  25.311  1.00  0.00     0.010 A 
ATOM     14  C   UNL A   1      44.197  23.188  27.561  1.00  0.00     0.010 A 
ATOM     15  C   UNL A   1      44.327  24.253  26.651  1.00  0.00    -0.014 A 
BRANCH  15  16
ATOM     16  C   UNL A   1      44.865  25.567  27.016  1.00  0.00     0.031 A 
ATOM     17  C   UNL A   1      43.928  26.499  27.709  1.00  0.00     0.074 A 
ATOM     18  C   UNL A   1      46.182  25.824  26.887  1.00  0.00     0.049 A 
ATOM     19  N   UNL A   1      44.039  27.777  27.906  1.00  0.00    -0.248 NA
ATOM     20  C   UNL A   1      42.679  25.911  28.238  1.00  0.00     0.031 C 
ATOM     21  C   UNL A   1      47.201  24.866  26.427  1.00  0.00     0.029 A 
ATOM     22  N   UNL A   1      46.903  26.948  27.169  1.00  0.00    -0.354 N 
ATOM     23  C   UNL A   1      42.841  28.164  28.490  1.00  0.00     0.074 A 
ATOM     24  C   UNL A   1      42.022  26.987  28.641  1.00  0.00     0.031 C 
ATOM     25  C   UNL A   1      48.413  25.433  26.504  1.00  0.00     0.029 A 
ATOM     26  C   UNL A   1      48.242  26.828  26.870  1.00  0.00     0.049 A 
ATOM     27  H   UNL A   1      46.506  27.765  27.549  1.00  0.00     0.167 HD
ATOM     28  C   UNL A   1      42.477  29.416  28.833  1.00  0.00     0.037 A 
ATOM     29  C   UNL A   1      49.197  27.774  26.822  1.00  0.00     0.037 A 
ATOM     30  C   UNL A   1      43.379  30.526  28.689  1.00  0.00     0.049 A 
ATOM     31  C   UNL A   1      48.751  29.179  27.119  1.00  0.00     0.074 A 
ATOM     32  C   UNL A   1      43.148  31.869  28.898  1.00  0.00     0.029 A 
ATOM     33  N   UNL A   1      44.712  30.392  28.309  1.00  0.00    -0.354 N 
ATOM     34  N   UNL A   1      47.563  29.597  27.499  1.00  0.00    -0.248 NA
ATOM     35  C   UNL A   1      49.739  30.245  26.940  1.00  0.00     0.031 C 
ATOM     36  C   UNL A   1      44.336  32.550  28.609  1.00  0.00     0.029 A 
ATOM     37  C   UNL A   1      45.321  31.628  28.269  1.00  0.00     0.049 A 
ATOM     38  H   UNL A   1      45.156  29.538  28.101  1.00  0.00     0.167 HD
ATOM     39  C   UNL A   1      47.656  30.974  27.606  1.00  0.00     0.074 A 
ATOM     40  C   UNL A   1      49.028  31.315  27.271  1.00  0.00     0.031 C 
ATOM     41  C   UNL A   1      46.704  31.881  27.937  1.00  0.00     0.037 A 
BRANCH  28  42
ATOM     42  C   UNL A   1      41.063  29.629  29.288  1.00  0.00     0.058 A 
ATOM     43  C   UNL A   1      40.015  29.587  28.354  1.00  0.00     0.135 A 
ATOM     44  C   UNL A   1      40.725  29.826  30.636  1.00  0.00     0.135 A 
ATOM     45  F   UNL A   1      40.274  29.365  27.055  1.00  0.00    -0.206 F 
ATOM     46  C   UNL A   1      38.687  29.747  28.737  1.00  0.00     0.059 A 
ATOM     47  C   UNL A   1      39.401  29.964  31.047  1.00  0.00     0.059 A 
ATOM     48  F   UNL A   1      41.683  29.820  31.579  1.00  0.00    -0.206 F 
ATOM     49  C   UNL A   1      38.389  29.935  30.087  1.00  0.00     0.060 A 
BRANCH  49  50
ATOM     50  S   UNL A   1      36.657  30.097  30.570  1.00  0.00     0.124 S 
ATOM     51  O   UNL A   1      35.970  29.525  29.418  1.00  0.00    -0.237 OA
ATOM     52  O   UNL A   1      36.605  29.310  31.798  1.00  0.00    -0.237 OA
ATOM     53  O   UNL A   1      36.490  31.537  30.752  1.00  0.00    -0.744 OA
ENDBRANCH  49  50
ENDBRANCH  28  42
BRANCH  29  54
ATOM     54  C   UNL A   1      50.582  27.432  26.394  1.00  0.00     0.058 A 
ATOM     55  C   UNL A   1      51.545  26.980  27.316  1.00  0.00     0.135 A 
ATOM     56  C   UNL A   1      50.997  27.599  25.064  1.00  0.00     0.135 A 
ATOM     57  F   UNL A   1      51.214  26.802  28.604  1.00  0.00    -0.206 F 
ATOM     58  C   UNL A   1      52.866  26.746  26.947  1.00  0.00     0.059 A 
ATOM     59  C   UNL A   1      52.308  27.341  24.663  1.00  0.00     0.059 A 
ATOM     60  F   UNL A   1      50.119  28.016  24.139  1.00  0.00    -0.206 F 
ATOM     61  C   UNL A   1      53.240  26.932  25.616  1.00  0.00     0.060 A 
BRANCH  61  62
ATOM     62  S   UNL A   1      54.961  26.611  25.165  1.00  0.00     0.124 S 
ATOM     63  O   UNL A   1      55.588  27.899  25.468  1.00  0.00    -0.237 OA
ATOM     64  O   UNL A   1      55.311  25.513  26.038  1.00  0.00    -0.237 OA
ATOM     65  O   UNL A   1      54.876  26.283  23.737  1.00  0.00    -0.744 OA
ENDBRANCH  61  62
ENDBRANCH  29  54
BRANCH  41  66
ATOM     66  C   UNL A   1      47.130  33.313  27.976  1.00  0.00     0.058 A 
ATOM     67  C   UNL A   1      46.975  34.120  26.839  1.00  0.00     0.135 A 
ATOM     68  C   UNL A   1      47.800  33.841  29.089  1.00  0.00     0.135 A 
ATOM     69  F   UNL A   1      46.345  33.646  25.752  1.00  0.00    -0.206 F 
ATOM     70  C   UNL A   1      47.504  35.400  26.792  1.00  0.00     0.059 A 
ATOM     71  C   UNL A   1      48.314  35.130  29.073  1.00  0.00     0.059 A 
ATOM     72  F   UNL A   1      47.957  33.100  30.198  1.00  0.00    -0.206 F 
ATOM     73  C   UNL A   1      48.180  35.891  27.910  1.00  0.00     0.060 A 
BRANCH  73  74
ATOM     74  S   UNL A   1      48.884  37.548  27.819  1.00  0.00     0.124 S 
ATOM     75  O   UNL A   1      48.701  37.870  26.408  1.00  0.00    -0.237 OA
ATOM     76  O   UNL A   1      48.044  38.290  28.755  1.00  0.00    -0.237 OA
ATOM     77  O   UNL A   1      50.265  37.352  28.246  1.00  0.00    -0.744 OA
ENDBRANCH  73  74
ENDBRANCH  41  66
ENDBRANCH  15  16
ENDBRANCH   8  10
ENDBRANCH   7   8
ENDBRANCH   6   7
ENDBRANCH   5   6
ENDBRANCH   4   5
ENDBRANCH   3   4
ENDBRANCH   2   3
ENDBRANCH   1   2
BRANCH   1  78
ATOM     78  C   UNL A   1      37.188  23.481  26.073  1.00  0.00     0.188 C 
BRANCH  78  79
ATOM     79  C   UNL A   1      35.807  22.852  26.243  1.00  0.00     0.188 C 
BRANCH  79  80
ATOM     80  O   UNL A   1      35.068  22.411  25.121  1.00  0.00    -0.376 OA
BRANCH  80  81
ATOM     81  C   UNL A   1      34.060  21.425  25.262  1.00  0.00     0.202 C 
BRANCH  81  82
ATOM     82  C   UNL A   1      32.934  21.681  26.276  1.00  0.00     0.261 C 
BRANCH  82  83
ATOM     83  O   UNL A   1      31.684  22.165  25.718  1.00  0.00    -0.463 OA
BRANCH  83  84
ATOM     84  C   UNL A   1      31.245  23.403  26.094  1.00  0.00     0.310 C 
ATOM     85  O   UNL A   1      31.401  23.879  27.214  1.00  0.00    -0.252 OA
BRANCH  84  86
ATOM     86  C   UNL A   1      30.562  24.195  24.957  1.00  0.00     0.119 C 
ATOM     87  C   UNL A   1      31.019  23.778  23.554  1.00  0.00     0.019 C 
ATOM     88  C   UNL A   1      30.440  25.741  25.164  1.00  0.00     0.135 C 
ATOM     89  C   UNL A   1      32.016  24.740  22.921  1.00  0.00     0.022 C 
ATOM     90  N   UNL A   1      31.308  26.598  24.306  1.00  0.00    -0.338 N 
ATOM     91  C   UNL A   1      31.454  26.147  22.937  1.00  0.00     0.120 C 
BRANCH  90  92
ATOM     92  C   UNL A   1      31.666  27.873  24.728  1.00  0.00     0.246 C 
ATOM     93  O   UNL A   1      32.542  28.058  25.575  1.00  0.00    -0.270 OA
BRANCH  92  94
ATOM     94  C   UNL A   1      30.989  29.107  24.176  1.00  0.00     0.072 C 
ATOM     95  C   UNL A   1      29.753  29.173  23.643  1.00  0.00     0.014 C 
BRANCH  95  96
ATOM     96  C   UNL A   1      29.217  30.334  22.895  1.00  0.00    -0.023 A 
ATOM     97  C   UNL A   1      28.583  30.150  21.650  1.00  0.00     0.008 A 
ATOM     98  C   UNL A   1      29.272  31.631  23.406  1.00  0.00     0.047 A 
ATOM     99  C   UNL A   1      28.073  31.222  20.909  1.00  0.00     0.004 A 
ATOM    100  C   UNL A   1      28.721  32.693  22.682  1.00  0.00     0.123 A 
ATOM    101  C   UNL A   1      28.133  32.503  21.435  1.00  0.00     0.039 A 
ATOM    102  F   UNL A   1      28.749  33.926  23.205  1.00  0.00    -0.207 F 
ENDBRANCH  95  96
ENDBRANCH  92  94
ENDBRANCH  90  92
ENDBRANCH  84  86
ENDBRANCH  83  84
ENDBRANCH  82  83
ENDBRANCH  81  82
ENDBRANCH  80  81
ENDBRANCH  79  80
ENDBRANCH  78  79
ENDBRANCH   1  78
TORSDOF 26
ENDMDL
MODEL 2
REMARK VINA RESULT:      -9.5      5.390      9.606
REMARK SMILES O=C(OCCOCCOCCOCCOC(=O)[C@@H]1CCCN(C(=O)/C=C/c2cccc(F)c2)C1)c1ccc(-c2c3nc(c(-c4c(F)cc(S(=O)(=O)[O-])cc4F)c4ccc([nH]4)c(-c4c(F)cc(S(=O)(=O)[O-])cc4F)c4nc(c(-c5c(F)cc(S(=O)(=O)[O-])cc5F)c5ccc2[nH]5)C=C4)C=C3)cc1
REMARK SMILES IDX 9 1 8 2 7 3 6 4 5 5 4 6 3 7 2 8 1 9 35 10 36 11 100 12 37 13
REMARK SMILES IDX 99 14 38 15 39 16 40 17 93 18 41 19 98 20 92 21 94 22 42 23
REMARK SMILES IDX 97 24 91 25 90 26 43 28 77 29 56 30 76 31 57 32 60 33 75 34
REMARK SMILES IDX 95 35 58 36 59 37 74 39 96 40 61 41 44 42 45 43 54 44 46 45
REMARK SMILES IDX 47 46 53 47 55 48 48 49 49 50 50 51 51 52 52 53 78 54 79 55
REMARK SMILES IDX 88 56 80 57 81 58 87 59 89 60 82 61 83 62 84 63 85 64 86 65
REMARK SMILES IDX 62 66 63 67 72 68 64 69 65 70 71 71 73 72 66 73 67 74 68 75
REMARK SMILES IDX 69 76 70 77 10 78 11 79 12 80 13 81 14 82 15 83 16 84 17 85
REMARK SMILES IDX 18 86 19 87 34 88 20 89 22 90 21 91 23 92 24 93 25 94 26 95
REMARK SMILES IDX 27 96 28 97 33 98 29 99 31 100 30 101 32 102
REMARK H PARENT 94 27 60 38
REMARK Flexibility Score: inf
ROOT
ATOM      1  O   UNL A   1      38.466  22.923  26.069  1.00  0.00    -0.377 OA
ENDROOT
BRANCH   1   2
ATOM      2  C   UNL A   1      38.275  21.598  25.616  1.00  0.00     0.188 C 
BRANCH   2   3
ATOM      3  C   UNL A   1      39.531  20.760  25.764  1.00  0.00     0.188 C 
BRANCH   3   4
ATOM      4  O   UNL A   1      40.108  20.908  27.057  1.00  0.00    -0.376 OA
BRANCH   4   5
ATOM      5  C   UNL A   1      41.409  20.366  27.232  1.00  0.00     0.202 C 
BRANCH   5   6
ATOM      6  C   UNL A   1      42.399  20.579  26.077  1.00  0.00     0.261 C 
BRANCH   6   7
ATOM      7  O   UNL A   1      43.221  21.765  26.209  1.00  0.00    -0.460 OA
BRANCH   7   8
ATOM      8  C   UNL A   1      42.977  22.982  25.638  1.00  0.00     0.338 C 
ATOM      9  O   UNL A   1      43.175  23.162  24.437  1.00  0.00    -0.246 OA
BRANCH   8  10
ATOM     10  C   UNL A   1      42.511  24.111  26.476  1.00  0.00     0.060 A 
ATOM     11  C   UNL A   1      42.878  25.413  26.184  1.00  0.00     0.016 A 
ATOM     12  C   UNL A   1      41.660  23.907  27.555  1.00  0.00     0.016 A 
ATOM     13  C   UNL A   1      42.757  26.433  27.083  1.00  0.00     0.010 A 
ATOM     14  C   UNL A   1      41.339  24.989  28.385  1.00  0.00     0.010 A 
ATOM     15  C   UNL A   1      41.957  26.237  28.185  1.00  0.00    -0.014 A 
BRANCH  15  16
ATOM     16  C   UNL A   1      41.939  27.316  29.178  1.00  0.00     0.031 A 
ATOM     17  C   UNL A   1      43.121  27.402  30.085  1.00  0.00     0.074 A 
ATOM     18  C   UNL A   1      40.988  28.269  29.131  1.00  0.00     0.049 A 
ATOM     19  N   UNL A   1      43.257  28.062  31.195  1.00  0.00    -0.248 NA
ATOM     20  C   UNL A   1      44.313  26.617  29.699  1.00  0.00     0.031 C 
ATOM     21  C   UNL A   1      39.927  28.372  28.116  1.00  0.00     0.029 A 
ATOM     22  N   UNL A   1      40.779  29.360  29.925  1.00  0.00    -0.354 N 
ATOM     23  C   UNL A   1      44.503  27.700  31.687  1.00  0.00     0.074 A 
ATOM     24  C   UNL A   1      45.099  26.781  30.750  1.00  0.00     0.031 C 
ATOM     25  C   UNL A   1      39.215  29.487  28.328  1.00  0.00     0.029 A 
ATOM     26  C   UNL A   1      39.668  30.092  29.568  1.00  0.00     0.049 A 
ATOM     27  H   UNL A   1      41.365  29.601  30.679  1.00  0.00     0.167 HD
ATOM     28  C   UNL A   1      45.060  28.100  32.848  1.00  0.00     0.037 A 
ATOM     29  C   UNL A   1      39.050  31.085  30.229  1.00  0.00     0.037 A 
ATOM     30  C   UNL A   1      44.411  29.058  33.700  1.00  0.00     0.049 A 
ATOM     31  C   UNL A   1      39.632  31.455  31.565  1.00  0.00     0.074 A 
ATOM     32  C   UNL A   1      44.784  29.506  34.950  1.00  0.00     0.029 A 
ATOM     33  N   UNL A   1      43.242  29.732  33.354  1.00  0.00    -0.354 N 
ATOM     34  N   UNL A   1      40.719  30.988  32.140  1.00  0.00    -0.248 NA
ATOM     35  C   UNL A   1      38.898  32.438  32.365  1.00  0.00     0.031 C 
ATOM     36  C   UNL A   1      43.818  30.426  35.373  1.00  0.00     0.029 A 
ATOM     37  C   UNL A   1      42.870  30.589  34.368  1.00  0.00     0.049 A 
ATOM     38  H   UNL A   1      42.753  29.614  32.508  1.00  0.00     0.167 HD
ATOM     39  C   UNL A   1      40.805  31.618  33.370  1.00  0.00     0.074 A 
ATOM     40  C   UNL A   1      39.666  32.518  33.445  1.00  0.00     0.031 C 
ATOM     41  C   UNL A   1      41.723  31.467  34.357  1.00  0.00     0.037 A 
BRANCH  28  42
ATOM     42  C   UNL A   1      46.342  27.443  33.267  1.00  0.00     0.058 A 
ATOM     43  C   UNL A   1      47.570  28.051  32.960  1.00  0.00     0.135 A 
ATOM     44  C   UNL A   1      46.373  26.251  34.007  1.00  0.00     0.135 A 
ATOM     45  F   UNL A   1      47.602  29.211  32.286  1.00  0.00    -0.206 F 
ATOM     46  C   UNL A   1      48.781  27.493  33.357  1.00  0.00     0.059 A 
ATOM     47  C   UNL A   1      47.572  25.687  34.437  1.00  0.00     0.059 A 
ATOM     48  F   UNL A   1      45.226  25.656  34.376  1.00  0.00    -0.206 F 
ATOM     49  C   UNL A   1      48.773  26.310  34.096  1.00  0.00     0.060 A 
BRANCH  49  50
ATOM     50  S   UNL A   1      50.352  25.625  34.639  1.00  0.00     0.124 S 
ATOM     51  O   UNL A   1      49.953  24.833  35.797  1.00  0.00    -0.237 OA
ATOM     52  O   UNL A   1      50.780  24.868  33.467  1.00  0.00    -0.237 OA
ATOM     53  O   UNL A   1      51.153  26.811  34.934  1.00  0.00    -0.744 OA
ENDBRANCH  49  50
ENDBRANCH  28  42
BRANCH  29  54
ATOM     54  C   UNL A   1      37.800  31.691  29.690  1.00  0.00     0.058 A 
ATOM     55  C   UNL A   1      37.789  32.989  29.144  1.00  0.00     0.135 A 
ATOM     56  C   UNL A   1      36.573  31.013  29.754  1.00  0.00     0.135 A 
ATOM     57  F   UNL A   1      38.928  33.693  29.057  1.00  0.00    -0.206 F 
ATOM     58  C   UNL A   1      36.613  33.602  28.722  1.00  0.00     0.059 A 
ATOM     59  C   UNL A   1      35.386  31.594  29.308  1.00  0.00     0.059 A 
ATOM     60  F   UNL A   1      36.525  29.768  30.253  1.00  0.00    -0.206 F 
ATOM     61  C   UNL A   1      35.413  32.896  28.811  1.00  0.00     0.060 A 
BRANCH  61  62
ATOM     62  S   UNL A   1      33.904  33.715  28.246  1.00  0.00     0.124 S 
ATOM     63  O   UNL A   1      33.431  34.343  29.482  1.00  0.00    -0.237 OA
ATOM     64  O   UNL A   1      34.399  34.611  27.227  1.00  0.00    -0.237 OA
ATOM     65  O   UNL A   1      33.080  32.600  27.764  1.00  0.00    -0.744 OA
ENDBRANCH  61  62
ENDBRANCH  29  54
BRANCH  41  66
ATOM     66  C   UNL A   1      41.540  32.314  35.575  1.00  0.00     0.058 A 
ATOM     67  C   UNL A   1      40.534  31.998  36.500  1.00  0.00     0.135 A 
ATOM     68  C   UNL A   1      42.272  33.495  35.755  1.00  0.00     0.135 A 
ATOM     69  F   UNL A   1      39.807  30.878  36.356  1.00  0.00    -0.206 F 
ATOM     70  C   UNL A   1      40.236  32.849  37.552  1.00  0.00     0.059 A 
ATOM     71  C   UNL A   1      42.008  34.348  36.816  1.00  0.00     0.059 A 
ATOM     72  F   UNL A   1      43.250  33.822  34.894  1.00  0.00    -0.206 F 
ATOM     73  C   UNL A   1      40.972  34.027  37.695  1.00  0.00     0.060 A 
BRANCH  73  74
ATOM     74  S   UNL A   1      40.551  35.135  39.053  1.00  0.00     0.124 S 
ATOM     75  O   UNL A   1      41.870  35.573  39.496  1.00  0.00    -0.237 OA
ATOM     76  O   UNL A   1      39.737  36.145  38.384  1.00  0.00    -0.237 OA
ATOM     77  O   UNL A   1      39.830  34.271  39.982  1.00  0.00    -0.744 OA
ENDBRANCH  73  74
ENDBRANCH  41  66
ENDBRANCH  15  16
ENDBRANCH   8  10
ENDBRANCH   7   8
ENDBRANCH   6   7
ENDBRANCH   5   6
ENDBRANCH   4   5
ENDBRANCH   3   4
ENDBRANCH   2   3
ENDBRANCH   1   2
BRANCH   1  78
ATOM     78  C   UNL A   1      37.409  23.815  25.765  1.00  0.00     0.188 C 
BRANCH  78  79
ATOM     79  C   UNL A   1      35.950  23.439  26.020  1.00  0.00     0.188 C 
BRANCH  79  80
ATOM     80  O   UNL A   1      35.434  22.198  25.580  1.00  0.00    -0.376 OA
BRANCH  80  81
ATOM     81  C   UNL A   1      34.858  21.288  26.500  1.00  0.00     0.202 C 
BRANCH  81  82
ATOM     82  C   UNL A   1      33.480  21.629  27.089  1.00  0.00     0.261 C 
BRANCH  82  83
ATOM     83  O   UNL A   1      32.361  21.527  26.170  1.00  0.00    -0.463 OA
BRANCH  83  84
ATOM     84  C   UNL A   1      31.821  22.681  25.678  1.00  0.00     0.310 C 
ATOM     85  O   UNL A   1      31.501  23.642  26.371  1.00  0.00    -0.252 OA
BRANCH  84  86
ATOM     86  C   UNL A   1      31.683  22.700  24.139  1.00  0.00     0.119 C 
ATOM     87  C   UNL A   1      32.811  21.959  23.411  1.00  0.00     0.019 C 
ATOM     88  C   UNL A   1      31.288  24.070  23.495  1.00  0.00     0.135 C 
ATOM     89  C   UNL A   1      33.863  22.882  22.808  1.00  0.00     0.022 C 
ATOM     90  N   UNL A   1      32.351  24.772  22.720  1.00  0.00    -0.338 N 
ATOM     91  C   UNL A   1      33.196  23.911  21.918  1.00  0.00     0.120 C 
BRANCH  90  92
ATOM     92  C   UNL A   1      32.300  26.151  22.555  1.00  0.00     0.246 C 
ATOM     93  O   UNL A   1      33.301  26.812  22.270  1.00  0.00    -0.270 OA
BRANCH  92  94
ATOM     94  C   UNL A   1      31.011  26.922  22.728  1.00  0.00     0.072 C 
ATOM     95  C   UNL A   1      30.790  28.205  22.376  1.00  0.00     0.014 C 
BRANCH  95  96
ATOM     96  C   UNL A   1      29.605  28.998  22.778  1.00  0.00    -0.023 A 
ATOM     97  C   UNL A   1      29.722  30.382  23.016  1.00  0.00     0.008 A 
ATOM     98  C   UNL A   1      28.337  28.428  22.887  1.00  0.00     0.047 A 
ATOM     99  C   UNL A   1      28.628  31.164  23.406  1.00  0.00     0.004 A 
ATOM    100  C   UNL A   1      27.240  29.223  23.234  1.00  0.00     0.123 A 
ATOM    101  C   UNL A   1      27.375  30.580  23.505  1.00  0.00     0.039 A 
ATOM    102  F   UNL A   1      26.023  28.666  23.297  1.00  0.00    -0.207 F 
ENDBRANCH  95  96
ENDBRANCH  92  94
ENDBRANCH  90  92
ENDBRANCH  84  86
ENDBRANCH  83  84
ENDBRANCH  82  83
ENDBRANCH  81  82
ENDBRANCH  80  81
ENDBRANCH  79  80
ENDBRANCH  78  79
ENDBRANCH   1  78
TORSDOF 26
ENDMDL
MODEL 3
REMARK VINA RESULT:      -9.4      2.358      8.408
REMARK SMILES O=C(OCCOCCOCCOCCOC(=O)[C@@H]1CCCN(C(=O)/C=C/c2cccc(F)c2)C1)c1ccc(-c2c3nc(c(-c4c(F)cc(S(=O)(=O)[O-])cc4F)c4ccc([nH]4)c(-c4c(F)cc(S(=O)(=O)[O-])cc4F)c4nc(c(-c5c(F)cc(S(=O)(=O)[O-])cc5F)c5ccc2[nH]5)C=C4)C=C3)cc1
REMARK SMILES IDX 9 1 8 2 7 3 6 4 5 5 4 6 3 7 2 8 1 9 35 10 36 11 100 12 37 13
REMARK SMILES IDX 99 14 38 15 39 16 40 17 93 18 41 19 98 20 92 21 94 22 42 23
REMARK SMILES IDX 97 24 91 25 90 26 43 28 77 29 56 30 76 31 57 32 60 33 75 34
REMARK SMILES IDX 95 35 58 36 59 37 74 39 96 40 61 41 44 42 45 43 54 44 46 45
REMARK SMILES IDX 47 46 53 47 55 48 48 49 49 50 50 51 51 52 52 53 78 54 79 55
REMARK SMILES IDX 88 56 80 57 81 58 87 59 89 60 82 61 83 62 84 63 85 64 86 65
REMARK SMILES IDX 62 66 63 67 72 68 64 69 65 70 71 71 73 72 66 73 67 74 68 75
REMARK SMILES IDX 69 76 70 77 10 78 11 79 12 80 13 81 14 82 15 83 16 84 17 85
REMARK SMILES IDX 18 86 19 87 34 88 20 89 22 90 21 91 23 92 24 93 25 94 26 95
REMARK SMILES IDX 27 96 28 97 33 98 29 99 31 100 30 101 32 102
REMARK H PARENT 94 27 60 38
REMARK Flexibility Score: inf
ROOT
ATOM      1  O   UNL A   1      36.191  31.784  30.151  1.00  0.00    -0.377 OA
ENDROOT
BRANCH   1   2
ATOM      2  C   UNL A   1      35.361  31.676  31.290  1.00  0.00     0.188 C 
BRANCH   2   3
ATOM      3  C   UNL A   1      35.842  32.557  32.428  1.00  0.00     0.188 C 
BRANCH   3   4
ATOM      4  O   UNL A   1      37.246  32.784  32.355  1.00  0.00    -0.376 OA
BRANCH   4   5
ATOM      5  C   UNL A   1      37.944  32.817  33.591  1.00  0.00     0.202 C 
BRANCH   5   6
ATOM      6  C   UNL A   1      38.441  31.467  34.131  1.00  0.00     0.261 C 
BRANCH   6   7
ATOM      7  O   UNL A   1      37.697  30.322  33.645  1.00  0.00    -0.460 OA
BRANCH   7   8
ATOM      8  C   UNL A   1      38.204  29.279  32.924  1.00  0.00     0.338 C 
ATOM      9  O   UNL A   1      37.602  28.208  32.862  1.00  0.00    -0.246 OA
BRANCH   8  10
ATOM     10  C   UNL A   1      39.514  29.418  32.243  1.00  0.00     0.060 A 
ATOM     11  C   UNL A   1      39.614  30.048  31.016  1.00  0.00     0.016 A 
ATOM     12  C   UNL A   1      40.685  28.957  32.831  1.00  0.00     0.016 A 
ATOM     13  C   UNL A   1      40.705  29.919  30.207  1.00  0.00     0.010 A 
ATOM     14  C   UNL A   1      41.879  29.007  32.100  1.00  0.00     0.010 A 
ATOM     15  C   UNL A   1      41.865  29.421  30.756  1.00  0.00    -0.014 A 
BRANCH  15  16
ATOM     16  C   UNL A   1      42.980  29.199  29.830  1.00  0.00     0.031 A 
ATOM     17  C   UNL A   1      42.980  27.903  29.089  1.00  0.00     0.074 A 
ATOM     18  C   UNL A   1      43.840  30.197  29.547  1.00  0.00     0.049 A 
ATOM     19  N   UNL A   1      43.943  27.336  28.428  1.00  0.00    -0.248 NA
ATOM     20  C   UNL A   1      41.723  27.126  29.113  1.00  0.00     0.031 C 
ATOM     21  C   UNL A   1      43.758  31.572  30.066  1.00  0.00     0.029 A 
ATOM     22  N   UNL A   1      44.926  30.231  28.721  1.00  0.00    -0.354 N 
ATOM     23  C   UNL A   1      43.444  26.100  28.042  1.00  0.00     0.074 A 
ATOM     24  C   UNL A   1      42.087  26.002  28.518  1.00  0.00     0.031 C 
ATOM     25  C   UNL A   1      44.723  32.317  29.510  1.00  0.00     0.029 A 
ATOM     26  C   UNL A   1      45.575  31.446  28.720  1.00  0.00     0.049 A 
ATOM     27  H   UNL A   1      45.218  29.463  28.178  1.00  0.00     0.167 HD
ATOM     28  C   UNL A   1      44.106  25.136  27.369  1.00  0.00     0.037 A 
ATOM     29  C   UNL A   1      46.771  31.777  28.201  1.00  0.00     0.037 A 
ATOM     30  C   UNL A   1      45.446  25.341  26.891  1.00  0.00     0.049 A 
ATOM     31  C   UNL A   1      47.534  30.667  27.535  1.00  0.00     0.074 A 
ATOM     32  C   UNL A   1      46.297  24.447  26.276  1.00  0.00     0.029 A 
ATOM     33  N   UNL A   1      46.116  26.559  26.970  1.00  0.00    -0.354 N 
ATOM     34  N   UNL A   1      47.152  29.427  27.320  1.00  0.00    -0.248 NA
ATOM     35  C   UNL A   1      48.894  30.968  27.084  1.00  0.00     0.031 C 
ATOM     36  C   UNL A   1      47.497  25.120  26.015  1.00  0.00     0.029 A 
ATOM     37  C   UNL A   1      47.376  26.445  26.422  1.00  0.00     0.049 A 
ATOM     38  H   UNL A   1      45.744  27.383  27.360  1.00  0.00     0.167 HD
ATOM     39  C   UNL A   1      48.221  28.795  26.708  1.00  0.00     0.074 A 
ATOM     40  C   UNL A   1      49.260  29.801  26.569  1.00  0.00     0.031 C 
ATOM     41  C   UNL A   1      48.350  27.506  26.308  1.00  0.00     0.037 A 
BRANCH  28  42
ATOM     42  C   UNL A   1      43.429  23.807  27.212  1.00  0.00     0.058 A 
ATOM     43  C   UNL A   1      42.977  23.398  25.947  1.00  0.00     0.135 A 
ATOM     44  C   UNL A   1      43.263  22.913  28.282  1.00  0.00     0.135 A 
ATOM     45  F   UNL A   1      43.142  24.195  24.879  1.00  0.00    -0.206 F 
ATOM     46  C   UNL A   1      42.373  22.160  25.751  1.00  0.00     0.059 A 
ATOM     47  C   UNL A   1      42.684  21.659  28.105  1.00  0.00     0.059 A 
ATOM     48  F   UNL A   1      43.726  23.230  29.503  1.00  0.00    -0.206 F 
ATOM     49  C   UNL A   1      42.230  21.296  26.836  1.00  0.00     0.060 A 
BRANCH  49  50
ATOM     50  S   UNL A   1      41.483  19.678  26.554  1.00  0.00     0.124 S 
ATOM     51  O   UNL A   1      40.061  19.981  26.661  1.00  0.00    -0.237 OA
ATOM     52  O   UNL A   1      41.965  19.345  25.216  1.00  0.00    -0.237 OA
ATOM     53  O   UNL A   1      42.035  18.857  27.629  1.00  0.00    -0.744 OA
ENDBRANCH  49  50
ENDBRANCH  28  42
BRANCH  29  54
ATOM     54  C   UNL A   1      47.323  33.149  28.387  1.00  0.00     0.058 A 
ATOM     55  C   UNL A   1      48.021  33.508  29.555  1.00  0.00     0.135 A 
ATOM     56  C   UNL A   1      47.122  34.152  27.427  1.00  0.00     0.135 A 
ATOM     57  F   UNL A   1      48.245  32.596  30.514  1.00  0.00    -0.206 F 
ATOM     58  C   UNL A   1      48.461  34.808  29.781  1.00  0.00     0.059 A 
ATOM     59  C   UNL A   1      47.581  35.456  27.616  1.00  0.00     0.059 A 
ATOM     60  F   UNL A   1      46.474  33.865  26.287  1.00  0.00    -0.206 F 
ATOM     61  C   UNL A   1      48.233  35.778  28.805  1.00  0.00     0.060 A 
BRANCH  61  62
ATOM     62  S   UNL A   1      48.825  37.457  29.123  1.00  0.00     0.124 S 
ATOM     63  O   UNL A   1      48.546  38.113  27.844  1.00  0.00    -0.237 OA
ATOM     64  O   UNL A   1      48.005  37.869  30.240  1.00  0.00    -0.237 OA
ATOM     65  O   UNL A   1      50.248  37.258  29.421  1.00  0.00    -0.744 OA
ENDBRANCH  61  62
ENDBRANCH  29  54
BRANCH  41  66
ATOM     66  C   UNL A   1      49.644  27.133  25.660  1.00  0.00     0.058 A 
ATOM     67  C   UNL A   1      50.741  26.762  26.453  1.00  0.00     0.135 A 
ATOM     68  C   UNL A   1      49.829  27.265  24.277  1.00  0.00     0.135 A 
ATOM     69  F   UNL A   1      50.604  26.633  27.782  1.00  0.00    -0.206 F 
ATOM     70  C   UNL A   1      51.994  26.567  25.895  1.00  0.00     0.059 A 
ATOM     71  C   UNL A   1      51.069  27.047  23.694  1.00  0.00     0.059 A 
ATOM     72  F   UNL A   1      48.798  27.607  23.487  1.00  0.00    -0.206 F 
ATOM     73  C   UNL A   1      52.149  26.722  24.516  1.00  0.00     0.060 A 
BRANCH  73  74
ATOM     74  S   UNL A   1      53.792  26.490  23.813  1.00  0.00     0.124 S 
ATOM     75  O   UNL A   1      54.453  27.735  24.187  1.00  0.00    -0.237 OA
ATOM     76  O   UNL A   1      54.256  25.291  24.505  1.00  0.00    -0.237 OA
ATOM     77  O   UNL A   1      53.529  26.321  22.388  1.00  0.00    -0.744 OA
ENDBRANCH  73  74
ENDBRANCH  41  66
ENDBRANCH  15  16
ENDBRANCH   8  10
ENDBRANCH   7   8
ENDBRANCH   6   7
ENDBRANCH   5   6
ENDBRANCH   4   5
ENDBRANCH   3   4
ENDBRANCH   2   3
ENDBRANCH   1   2
BRANCH   1  78
ATOM     78  C   UNL A   1      35.799  30.982  29.052  1.00  0.00     0.188 C 
BRANCH  78  79
ATOM     79  C   UNL A   1      35.300  31.604  27.749  1.00  0.00     0.188 C 
BRANCH  79  80
ATOM     80  O   UNL A   1      34.093  31.169  27.154  1.00  0.00    -0.376 OA
BRANCH  80  81
ATOM     81  C   UNL A   1      33.565  29.887  27.444  1.00  0.00     0.202 C 
BRANCH  81  82
ATOM     82  C   UNL A   1      33.297  28.932  26.271  1.00  0.00     0.261 C 
BRANCH  82  83
ATOM     83  O   UNL A   1      33.527  27.524  26.541  1.00  0.00    -0.463 OA
BRANCH  83  84
ATOM     84  C   UNL A   1      32.442  26.702  26.653  1.00  0.00     0.310 C 
ATOM     85  O   UNL A   1      31.445  26.963  27.319  1.00  0.00    -0.252 OA
BRANCH  84  86
ATOM     86  C   UNL A   1      32.550  25.407  25.817  1.00  0.00     0.119 C 
ATOM     87  C   UNL A   1      33.962  24.811  25.784  1.00  0.00     0.019 C 
ATOM     88  C   UNL A   1      31.818  25.411  24.433  1.00  0.00     0.135 C 
ATOM     89  C   UNL A   1      34.718  25.091  24.491  1.00  0.00     0.022 C 
ATOM     90  N   UNL A   1      32.686  25.448  23.222  1.00  0.00    -0.338 N 
ATOM     91  C   UNL A   1      33.889  24.646  23.304  1.00  0.00     0.120 C 
BRANCH  90  92
ATOM     92  C   UNL A   1      32.194  25.958  22.026  1.00  0.00     0.246 C 
ATOM     93  O   UNL A   1      32.634  25.596  20.932  1.00  0.00    -0.270 OA
BRANCH  92  94
ATOM     94  C   UNL A   1      31.095  26.996  22.001  1.00  0.00     0.072 C 
ATOM     95  C   UNL A   1      30.878  27.957  22.922  1.00  0.00     0.014 C 
BRANCH  95  96
ATOM     96  C   UNL A   1      29.660  28.796  22.996  1.00  0.00    -0.023 A 
ATOM     97  C   UNL A   1      28.386  28.199  23.059  1.00  0.00     0.008 A 
ATOM     98  C   UNL A   1      29.725  30.188  23.053  1.00  0.00     0.047 A 
ATOM     99  C   UNL A   1      27.211  28.957  23.120  1.00  0.00     0.004 A 
ATOM    100  C   UNL A   1      28.550  30.940  23.159  1.00  0.00     0.123 A 
ATOM    101  C   UNL A   1      27.296  30.339  23.181  1.00  0.00     0.039 A 
ATOM    102  F   UNL A   1      28.634  32.273  23.251  1.00  0.00    -0.207 F 
ENDBRANCH  95  96
ENDBRANCH  92  94
ENDBRANCH  90  92
ENDBRANCH  84  86
ENDBRANCH  83  84
ENDBRANCH  82  83
ENDBRANCH  81  82
ENDBRANCH  80  81
ENDBRANCH  79  80
ENDBRANCH  78  79
ENDBRANCH   1  78
TORSDOF 26
ENDMDL
