MODEL 1
REMARK VINA RESULT:      -9.3      0.000      0.000
REMARK SMILES Cc1cc(C)c2c(OCCCC(=O)OCCOCCOCCOCCOC(=O)c3ccc(-c4c5nc(c(-c6c(F)cc(S(=O)(=O)[O-])cc6F)c6ccc([nH]6)c(-c6c(F)cc(S(=O)(=O)[O-])cc6F)c6nc(c(-c7c(F)cc(S(=O)(=O)[O-])cc7F)c7ccc4[nH]7)C=C6)C=C5)cc3)nsc2n1
REMARK SMILES IDX 19 1 18 2 17 3 16 4 15 5 14 6 12 7 13 8 11 9 10 10 9 11 8 12
REMARK SMILES IDX 7 13 1 14 2 15 3 16 98 17 4 18 97 19 5 20 6 21 96 22 95 23
REMARK SMILES IDX 20 24 21 25 22 26 23 27 24 28 25 29 26 30 27 31 28 32 29 33
REMARK SMILES IDX 30 34 94 35 31 36 93 37 32 38 33 39 34 40 87 41 35 42 92 43
REMARK SMILES IDX 86 44 88 45 36 46 91 47 85 48 84 49 37 51 71 52 50 53 70 54
REMARK SMILES IDX 51 55 54 56 69 57 89 58 52 59 53 60 68 62 90 63 55 64 38 65
REMARK SMILES IDX 39 66 48 67 40 68 41 69 47 70 49 71 42 72 43 73 44 74 45 75
REMARK SMILES IDX 46 76 72 77 73 78 82 79 74 80 75 81 81 82 83 83 76 84 77 85
REMARK SMILES IDX 78 86 79 87 80 88 56 89 57 90 66 91 58 92 59 93 65 94 67 95
REMARK SMILES IDX 60 96 61 97 62 98 63 99 64 100
REMARK H PARENT 88 50 54 61
REMARK Flexibility Score: inf
ROOT
ATOM      1  C   UNL A   1      43.530  19.999  25.903  1.00  0.00     0.188 C 
ENDROOT
BRANCH   1   2
ATOM      2  C   UNL A   1      42.211  19.551  26.575  1.00  0.00     0.188 C 
BRANCH   2   3
ATOM      3  O   UNL A   1      41.425  20.512  27.268  1.00  0.00    -0.376 OA
BRANCH   3   4
ATOM      4  C   UNL A   1      40.084  20.678  26.852  1.00  0.00     0.202 C 
BRANCH   4   5
ATOM      5  C   UNL A   1      39.788  21.793  25.852  1.00  0.00     0.261 C 
BRANCH   5   6
ATOM      6  O   UNL A   1      38.420  22.300  25.775  1.00  0.00    -0.463 OA
BRANCH   6   7
ATOM      7  C   UNL A   1      37.611  21.766  24.833  1.00  0.00     0.305 C 
ATOM      8  O   UNL A   1      37.480  20.550  24.689  1.00  0.00    -0.252 OA
BRANCH   7   9
ATOM      9  C   UNL A   1      36.884  22.721  23.877  1.00  0.00     0.126 C 
BRANCH   9  10
ATOM     10  C   UNL A   1      35.467  22.641  23.286  1.00  0.00     0.053 C 
BRANCH  10  11
ATOM     11  C   UNL A   1      34.240  23.437  23.777  1.00  0.00     0.232 C 
BRANCH  11  12
ATOM     12  O   UNL A   1      34.358  24.694  24.432  1.00  0.00    -0.477 OA
BRANCH  12  13
ATOM     13  C   UNL A   1      33.719  25.761  23.914  1.00  0.00     0.235 A 
ATOM     14  C   UNL A   1      31.630  30.456  25.848  1.00  0.00     0.067 C 
ATOM     15  C   UNL A   1      31.727  29.091  25.223  1.00  0.00     0.039 A 
ATOM     16  C   UNL A   1      31.417  27.966  25.977  1.00  0.00     0.027 A 
ATOM     17  N   UNL A   1      32.293  29.024  24.009  1.00  0.00    -0.240 NA
ATOM     18  C   UNL A   1      31.942  26.697  25.654  1.00  0.00    -0.034 A 
ATOM     19  C   UNL A   1      32.748  27.798  23.692  1.00  0.00     0.147 A 
ATOM     20  C   UNL A   1      31.714  25.548  26.600  1.00  0.00     0.045 C 
ATOM     21  C   UNL A   1      32.748  26.653  24.490  1.00  0.00     0.078 A 
ATOM     22  S   UNL A   1      33.493  27.462  22.200  1.00  0.00    -0.012 S 
ATOM     23  N   UNL A   1      34.086  25.985  22.652  1.00  0.00    -0.153 NA
ENDBRANCH  12  13
ENDBRANCH  11  12
ENDBRANCH  10  11
ENDBRANCH   9  10
ENDBRANCH   7   9
ENDBRANCH   6   7
ENDBRANCH   5   6
ENDBRANCH   4   5
ENDBRANCH   3   4
ENDBRANCH   2   3
ENDBRANCH   1   2
BRANCH   1  24
ATOM     24  O   UNL A   1      43.974  19.176  24.840  1.00  0.00    -0.377 OA
BRANCH  24  25
ATOM     25  C   UNL A   1      45.128  19.627  24.137  1.00  0.00     0.188 C 
BRANCH  25  26
ATOM     26  C   UNL A   1      45.804  20.975  24.521  1.00  0.00     0.188 C 
BRANCH  26  27
ATOM     27  O   UNL A   1      45.282  22.160  23.945  1.00  0.00    -0.376 OA
BRANCH  27  28
ATOM     28  C   UNL A   1      44.656  23.281  24.549  1.00  0.00     0.202 C 
BRANCH  28  29
ATOM     29  C   UNL A   1      43.163  23.398  24.856  1.00  0.00     0.261 C 
BRANCH  29  30
ATOM     30  O   UNL A   1      42.900  23.708  26.197  1.00  0.00    -0.460 OA
BRANCH  30  31
ATOM     31  C   UNL A   1      42.053  24.753  26.291  1.00  0.00     0.338 C 
ATOM     32  O   UNL A   1      40.872  24.716  26.563  1.00  0.00    -0.246 OA
BRANCH  31  33
ATOM     33  C   UNL A   1      42.821  25.980  26.023  1.00  0.00     0.060 A 
ATOM     34  C   UNL A   1      43.777  26.224  26.998  1.00  0.00     0.016 A 
ATOM     35  C   UNL A   1      42.139  26.991  25.329  1.00  0.00     0.016 A 
ATOM     36  C   UNL A   1      43.603  27.388  27.684  1.00  0.00     0.010 A 
ATOM     37  C   UNL A   1      41.997  28.170  25.988  1.00  0.00     0.010 A 
ATOM     38  C   UNL A   1      42.591  28.247  27.240  1.00  0.00    -0.014 A 
BRANCH  38  39
ATOM     39  C   UNL A   1      42.126  29.243  28.159  1.00  0.00     0.031 A 
ATOM     40  C   UNL A   1      43.109  30.324  28.276  1.00  0.00     0.074 A 
ATOM     41  C   UNL A   1      40.925  29.149  28.755  1.00  0.00     0.049 A 
ATOM     42  N   UNL A   1      43.955  30.497  29.232  1.00  0.00    -0.248 NA
ATOM     43  C   UNL A   1      43.387  31.100  27.056  1.00  0.00     0.031 C 
ATOM     44  C   UNL A   1      39.815  28.224  28.503  1.00  0.00     0.029 A 
ATOM     45  N   UNL A   1      40.421  29.978  29.701  1.00  0.00    -0.354 N 
ATOM     46  C   UNL A   1      44.712  31.581  28.827  1.00  0.00     0.074 A 
ATOM     47  C   UNL A   1      44.509  31.725  27.409  1.00  0.00     0.031 C 
ATOM     48  C   UNL A   1      38.694  28.704  29.094  1.00  0.00     0.029 A 
ATOM     49  C   UNL A   1      39.042  29.879  29.873  1.00  0.00     0.049 A 
ATOM     50  H   UNL A   1      40.980  30.599  30.220  1.00  0.00     0.167 HD
ATOM     51  C   UNL A   1      45.207  32.469  29.726  1.00  0.00     0.037 A 
ATOM     52  C   UNL A   1      38.301  30.817  30.519  1.00  0.00     0.037 A 
ATOM     53  C   UNL A   1      45.174  31.946  31.067  1.00  0.00     0.049 A 
ATOM     54  C   UNL A   1      39.258  31.572  31.389  1.00  0.00     0.074 A 
ATOM     55  C   UNL A   1      45.790  30.879  31.692  1.00  0.00     0.029 A 
ATOM     56  N   UNL A   1      44.088  32.267  31.849  1.00  0.00    -0.354 N 
ATOM     57  N   UNL A   1      39.903  31.026  32.390  1.00  0.00    -0.248 NA
ATOM     58  C   UNL A   1      39.892  32.756  30.819  1.00  0.00     0.031 C 
ATOM     59  C   UNL A   1      44.797  30.324  32.551  1.00  0.00     0.029 A 
ATOM     60  C   UNL A   1      43.650  31.115  32.459  1.00  0.00     0.049 A 
ATOM     61  H   UNL A   1      43.694  33.163  31.954  1.00  0.00     0.167 HD
ATOM     62  C   UNL A   1      41.195  31.541  32.318  1.00  0.00     0.074 A 
ATOM     63  C   UNL A   1      41.113  32.632  31.349  1.00  0.00     0.031 C 
ATOM     64  C   UNL A   1      42.269  30.858  32.818  1.00  0.00     0.037 A 
BRANCH  51  65
ATOM     65  C   UNL A   1      45.371  33.917  29.394  1.00  0.00     0.058 A 
ATOM     66  C   UNL A   1      44.243  34.712  29.157  1.00  0.00     0.135 A 
ATOM     67  C   UNL A   1      46.624  34.506  29.096  1.00  0.00     0.135 A 
ATOM     68  F   UNL A   1      43.010  34.227  29.372  1.00  0.00    -0.206 F 
ATOM     69  C   UNL A   1      44.350  36.004  28.645  1.00  0.00     0.059 A 
ATOM     70  C   UNL A   1      46.759  35.810  28.654  1.00  0.00     0.059 A 
ATOM     71  F   UNL A   1      47.768  33.808  29.136  1.00  0.00    -0.206 F 
ATOM     72  C   UNL A   1      45.614  36.542  28.398  1.00  0.00     0.060 A 
BRANCH  72  73
ATOM     73  S   UNL A   1      45.750  38.180  27.670  1.00  0.00     0.124 S 
ATOM     74  O   UNL A   1      46.254  37.865  26.339  1.00  0.00    -0.237 OA
ATOM     75  O   UNL A   1      44.373  38.655  27.741  1.00  0.00    -0.237 OA
ATOM     76  O   UNL A   1      46.689  38.865  28.553  1.00  0.00    -0.744 OA
ENDBRANCH  72  73
ENDBRANCH  51  65
BRANCH  52  77
ATOM     77  C   UNL A   1      37.005  31.396  30.060  1.00  0.00     0.058 A 
ATOM     78  C   UNL A   1      36.032  31.825  30.980  1.00  0.00     0.135 A 
ATOM     79  C   UNL A   1      36.814  31.804  28.723  1.00  0.00     0.135 A 
ATOM     80  F   UNL A   1      36.147  31.501  32.278  1.00  0.00    -0.206 F 
ATOM     81  C   UNL A   1      34.962  32.650  30.609  1.00  0.00     0.059 A 
ATOM     82  C   UNL A   1      35.754  32.619  28.328  1.00  0.00     0.059 A 
ATOM     83  F   UNL A   1      37.707  31.500  27.769  1.00  0.00    -0.206 F 
ATOM     84  C   UNL A   1      34.845  33.062  29.281  1.00  0.00     0.060 A 
BRANCH  84  85
ATOM     85  S   UNL A   1      33.572  34.264  28.826  1.00  0.00     0.124 S 
ATOM     86  O   UNL A   1      32.726  33.484  27.929  1.00  0.00    -0.237 OA
ATOM     87  O   UNL A   1      32.990  34.599  30.121  1.00  0.00    -0.237 OA
ATOM     88  O   UNL A   1      34.331  35.338  28.190  1.00  0.00    -0.744 OA
ENDBRANCH  84  85
ENDBRANCH  52  77
BRANCH  64  89
ATOM     89  C   UNL A   1      42.004  29.617  33.641  1.00  0.00     0.058 A 
ATOM     90  C   UNL A   1      41.893  28.319  33.107  1.00  0.00     0.135 A 
ATOM     91  C   UNL A   1      42.031  29.727  35.037  1.00  0.00     0.135 A 
ATOM     92  F   UNL A   1      41.962  28.114  31.784  1.00  0.00    -0.206 F 
ATOM     93  C   UNL A   1      41.775  27.189  33.923  1.00  0.00     0.059 A 
ATOM     94  C   UNL A   1      41.945  28.615  35.872  1.00  0.00     0.059 A 
ATOM     95  F   UNL A   1      42.200  30.929  35.611  1.00  0.00    -0.206 F 
ATOM     96  C   UNL A   1      41.804  27.349  35.308  1.00  0.00     0.060 A 
BRANCH  96  97
ATOM     97  S   UNL A   1      41.710  25.887  36.369  1.00  0.00     0.124 S 
ATOM     98  O   UNL A   1      42.715  25.012  35.777  1.00  0.00    -0.237 OA
ATOM     99  O   UNL A   1      42.036  26.430  37.684  1.00  0.00    -0.237 OA
ATOM    100  O   UNL A   1      40.326  25.442  36.214  1.00  0.00    -0.744 OA
ENDBRANCH  96  97
ENDBRANCH  64  89
ENDBRANCH  38  39
ENDBRANCH  31  33
ENDBRANCH  30  31
ENDBRANCH  29  30
ENDBRANCH  28  29
ENDBRANCH  27  28
ENDBRANCH  26  27
ENDBRANCH  25  26
ENDBRANCH  24  25
ENDBRANCH   1  24
TORSDOF 27
ENDMDL
MODEL 2
REMARK VINA RESULT:      -8.9      2.153      3.231
REMARK SMILES Cc1cc(C)c2c(OCCCC(=O)OCCOCCOCCOCCOC(=O)c3ccc(-c4c5nc(c(-c6c(F)cc(S(=O)(=O)[O-])cc6F)c6ccc([nH]6)c(-c6c(F)cc(S(=O)(=O)[O-])cc6F)c6nc(c(-c7c(F)cc(S(=O)(=O)[O-])cc7F)c7ccc4[nH]7)C=C6)C=C5)cc3)nsc2n1
REMARK SMILES IDX 19 1 18 2 17 3 16 4 15 5 14 6 12 7 13 8 11 9 10 10 9 11 8 12
REMARK SMILES IDX 7 13 1 14 2 15 3 16 98 17 4 18 97 19 5 20 6 21 96 22 95 23
REMARK SMILES IDX 20 24 21 25 22 26 23 27 24 28 25 29 26 30 27 31 28 32 29 33
REMARK SMILES IDX 30 34 94 35 31 36 93 37 32 38 33 39 34 40 87 41 35 42 92 43
REMARK SMILES IDX 86 44 88 45 36 46 91 47 85 48 84 49 37 51 71 52 50 53 70 54
REMARK SMILES IDX 51 55 54 56 69 57 89 58 52 59 53 60 68 62 90 63 55 64 38 65
REMARK SMILES IDX 39 66 48 67 40 68 41 69 47 70 49 71 42 72 43 73 44 74 45 75
REMARK SMILES IDX 46 76 72 77 73 78 82 79 74 80 75 81 81 82 83 83 76 84 77 85
REMARK SMILES IDX 78 86 79 87 80 88 56 89 57 90 66 91 58 92 59 93 65 94 67 95
REMARK SMILES IDX 60 96 61 97 62 98 63 99 64 100
REMARK H PARENT 88 50 54 61
REMARK Flexibility Score: inf
ROOT
ATOM      1  C   UNL A   1      43.944  19.032  25.882  1.00  0.00     0.188 C 
ENDROOT
BRANCH   1   2
ATOM      2  C   UNL A   1      42.545  18.464  26.219  1.00  0.00     0.188 C 
BRANCH   2   3
ATOM      3  O   UNL A   1      41.613  19.284  26.913  1.00  0.00    -0.376 OA
BRANCH   3   4
ATOM      4  C   UNL A   1      40.429  19.642  26.231  1.00  0.00     0.202 C 
BRANCH   4   5
ATOM      5  C   UNL A   1      40.246  21.112  25.858  1.00  0.00     0.261 C 
BRANCH   5   6
ATOM      6  O   UNL A   1      39.027  21.786  26.301  1.00  0.00    -0.463 OA
BRANCH   6   7
ATOM      7  C   UNL A   1      37.923  21.641  25.534  1.00  0.00     0.305 C 
ATOM      8  O   UNL A   1      37.805  20.731  24.714  1.00  0.00    -0.252 OA
BRANCH   7   9
ATOM      9  C   UNL A   1      36.812  22.692  25.659  1.00  0.00     0.126 C 
BRANCH   9  10
ATOM     10  C   UNL A   1      36.383  23.801  24.684  1.00  0.00     0.053 C 
BRANCH  10  11
ATOM     11  C   UNL A   1      35.134  24.694  24.827  1.00  0.00     0.232 C 
BRANCH  11  12
ATOM     12  O   UNL A   1      33.813  24.190  24.668  1.00  0.00    -0.477 OA
BRANCH  12  13
ATOM     13  C   UNL A   1      33.441  23.106  25.377  1.00  0.00     0.235 A 
ATOM     14  C   UNL A   1      33.477  17.669  24.617  1.00  0.00     0.067 C 
ATOM     15  C   UNL A   1      32.983  19.075  24.823  1.00  0.00     0.039 A 
ATOM     16  C   UNL A   1      32.523  19.808  23.736  1.00  0.00     0.027 A 
ATOM     17  N   UNL A   1      33.190  19.614  26.033  1.00  0.00    -0.240 NA
ATOM     18  C   UNL A   1      32.526  21.218  23.746  1.00  0.00    -0.034 A 
ATOM     19  C   UNL A   1      33.143  20.959  26.041  1.00  0.00     0.147 A 
ATOM     20  C   UNL A   1      32.179  21.960  22.483  1.00  0.00     0.045 C 
ATOM     21  C   UNL A   1      32.972  21.814  24.951  1.00  0.00     0.078 A 
ATOM     22  S   UNL A   1      33.361  21.869  27.461  1.00  0.00    -0.012 S 
ATOM     23  N   UNL A   1      33.546  23.320  26.688  1.00  0.00    -0.153 NA
ENDBRANCH  12  13
ENDBRANCH  11  12
ENDBRANCH  10  11
ENDBRANCH   9  10
ENDBRANCH   7   9
ENDBRANCH   6   7
ENDBRANCH   5   6
ENDBRANCH   4   5
ENDBRANCH   3   4
ENDBRANCH   2   3
ENDBRANCH   1   2
BRANCH   1  24
ATOM     24  O   UNL A   1      44.599  18.410  24.792  1.00  0.00    -0.377 OA
BRANCH  24  25
ATOM     25  C   UNL A   1      45.623  19.172  24.158  1.00  0.00     0.188 C 
BRANCH  25  26
ATOM     26  C   UNL A   1      45.829  20.669  24.526  1.00  0.00     0.188 C 
BRANCH  26  27
ATOM     27  O   UNL A   1      45.027  21.628  23.859  1.00  0.00    -0.376 OA
BRANCH  27  28
ATOM     28  C   UNL A   1      44.519  22.875  24.304  1.00  0.00     0.202 C 
BRANCH  28  29
ATOM     29  C   UNL A   1      43.148  23.091  24.945  1.00  0.00     0.261 C 
BRANCH  29  30
ATOM     30  O   UNL A   1      43.213  23.270  26.333  1.00  0.00    -0.460 OA
BRANCH  30  31
ATOM     31  C   UNL A   1      42.245  24.110  26.754  1.00  0.00     0.338 C 
ATOM     32  O   UNL A   1      41.320  23.849  27.492  1.00  0.00    -0.246 OA
BRANCH  31  33
ATOM     33  C   UNL A   1      42.515  25.435  26.173  1.00  0.00     0.060 A 
ATOM     34  C   UNL A   1      43.755  25.931  26.551  1.00  0.00     0.016 A 
ATOM     35  C   UNL A   1      41.393  26.242  25.937  1.00  0.00     0.016 A 
ATOM     36  C   UNL A   1      43.708  27.091  27.263  1.00  0.00     0.010 A 
ATOM     37  C   UNL A   1      41.357  27.420  26.610  1.00  0.00     0.010 A 
ATOM     38  C   UNL A   1      42.459  27.706  27.404  1.00  0.00    -0.014 A 
BRANCH  38  39
ATOM     39  C   UNL A   1      42.314  28.665  28.459  1.00  0.00     0.031 A 
ATOM     40  C   UNL A   1      43.303  29.736  28.310  1.00  0.00     0.074 A 
ATOM     41  C   UNL A   1      41.353  28.550  29.391  1.00  0.00     0.049 A 
ATOM     42  N   UNL A   1      44.404  29.866  28.966  1.00  0.00    -0.248 NA
ATOM     43  C   UNL A   1      43.207  30.561  27.094  1.00  0.00     0.031 C 
ATOM     44  C   UNL A   1      40.204  27.640  29.456  1.00  0.00     0.029 A 
ATOM     45  N   UNL A   1      41.176  29.341  30.477  1.00  0.00    -0.354 N 
ATOM     46  C   UNL A   1      45.019  30.963  28.391  1.00  0.00     0.074 A 
ATOM     47  C   UNL A   1      44.393  31.166  27.110  1.00  0.00     0.031 C 
ATOM     48  C   UNL A   1      39.326  28.100  30.381  1.00  0.00     0.029 A 
ATOM     49  C   UNL A   1      39.916  29.240  31.060  1.00  0.00     0.049 A 
ATOM     50  H   UNL A   1      41.878  29.937  30.823  1.00  0.00     0.167 HD
ATOM     51  C   UNL A   1      45.780  31.810  29.128  1.00  0.00     0.037 A 
ATOM     52  C   UNL A   1      39.423  30.153  31.938  1.00  0.00     0.037 A 
ATOM     53  C   UNL A   1      46.151  31.232  30.393  1.00  0.00     0.049 A 
ATOM     54  C   UNL A   1      40.613  30.868  32.501  1.00  0.00     0.074 A 
ATOM     55  C   UNL A   1      46.911  30.138  30.757  1.00  0.00     0.029 A 
ATOM     56  N   UNL A   1      45.362  31.525  31.482  1.00  0.00    -0.354 N 
ATOM     57  N   UNL A   1      41.525  30.278  33.233  1.00  0.00    -0.248 NA
ATOM     58  C   UNL A   1      41.061  32.072  31.810  1.00  0.00     0.031 C 
ATOM     59  C   UNL A   1      46.220  29.551  31.857  1.00  0.00     0.029 A 
ATOM     60  C   UNL A   1      45.114  30.349  32.152  1.00  0.00     0.049 A 
ATOM     61  H   UNL A   1      45.034  32.417  31.737  1.00  0.00     0.167 HD
ATOM     62  C   UNL A   1      42.740  30.790  32.788  1.00  0.00     0.074 A 
ATOM     63  C   UNL A   1      42.384  31.921  31.934  1.00  0.00     0.031 C 
ATOM     64  C   UNL A   1      43.905  30.083  32.908  1.00  0.00     0.037 A 
BRANCH  51  65
ATOM     65  C   UNL A   1      45.858  33.271  28.817  1.00  0.00     0.058 A 
ATOM     66  C   UNL A   1      44.722  34.078  28.962  1.00  0.00     0.135 A 
ATOM     67  C   UNL A   1      46.972  33.868  28.178  1.00  0.00     0.135 A 
ATOM     68  F   UNL A   1      43.605  33.587  29.520  1.00  0.00    -0.206 F 
ATOM     69  C   UNL A   1      44.690  35.389  28.492  1.00  0.00     0.059 A 
ATOM     70  C   UNL A   1      46.986  35.188  27.766  1.00  0.00     0.059 A 
ATOM     71  F   UNL A   1      48.064  33.166  27.844  1.00  0.00    -0.206 F 
ATOM     72  C   UNL A   1      45.828  35.934  27.896  1.00  0.00     0.060 A 
BRANCH  72  73
ATOM     73  S   UNL A   1      45.764  37.600  27.224  1.00  0.00     0.124 S 
ATOM     74  O   UNL A   1      46.241  38.387  28.354  1.00  0.00    -0.237 OA
ATOM     75  O   UNL A   1      46.668  37.498  26.084  1.00  0.00    -0.237 OA
ATOM     76  O   UNL A   1      44.354  37.773  26.885  1.00  0.00    -0.744 OA
ENDBRANCH  72  73
ENDBRANCH  51  65
BRANCH  52  77
ATOM     77  C   UNL A   1      38.059  30.755  31.921  1.00  0.00     0.058 A 
ATOM     78  C   UNL A   1      37.384  31.065  33.116  1.00  0.00     0.135 A 
ATOM     79  C   UNL A   1      37.510  31.303  30.743  1.00  0.00     0.135 A 
ATOM     80  F   UNL A   1      37.850  30.604  34.288  1.00  0.00    -0.206 F 
ATOM     81  C   UNL A   1      36.264  31.906  33.148  1.00  0.00     0.059 A 
ATOM     82  C   UNL A   1      36.393  32.137  30.748  1.00  0.00     0.059 A 
ATOM     83  F   UNL A   1      38.100  31.120  29.552  1.00  0.00    -0.206 F 
ATOM     84  C   UNL A   1      35.790  32.457  31.958  1.00  0.00     0.060 A 
BRANCH  84  85
ATOM     85  S   UNL A   1      34.456  33.679  32.007  1.00  0.00     0.124 S 
ATOM     86  O   UNL A   1      35.138  34.850  32.550  1.00  0.00    -0.237 OA
ATOM     87  O   UNL A   1      34.064  33.762  30.605  1.00  0.00    -0.237 OA
ATOM     88  O   UNL A   1      33.468  33.068  32.893  1.00  0.00    -0.744 OA
ENDBRANCH  84  85
ENDBRANCH  52  77
BRANCH  64  89
ATOM     89  C   UNL A   1      43.884  28.810  33.724  1.00  0.00     0.058 A 
ATOM     90  C   UNL A   1      44.010  28.762  35.125  1.00  0.00     0.135 A 
ATOM     91  C   UNL A   1      43.557  27.611  33.076  1.00  0.00     0.135 A 
ATOM     92  F   UNL A   1      44.220  29.881  35.833  1.00  0.00    -0.206 F 
ATOM     93  C   UNL A   1      43.855  27.572  35.843  1.00  0.00     0.059 A 
ATOM     94  C   UNL A   1      43.369  26.419  33.771  1.00  0.00     0.059 A 
ATOM     95  F   UNL A   1      43.358  27.600  31.748  1.00  0.00    -0.206 F 
ATOM     96  C   UNL A   1      43.532  26.403  35.155  1.00  0.00     0.060 A 
BRANCH  96  97
ATOM     97  S   UNL A   1      43.276  24.872  36.083  1.00  0.00     0.124 S 
ATOM     98  O   UNL A   1      44.378  24.903  37.038  1.00  0.00    -0.237 OA
ATOM     99  O   UNL A   1      41.943  25.065  36.647  1.00  0.00    -0.237 OA
ATOM    100  O   UNL A   1      43.366  23.833  35.059  1.00  0.00    -0.744 OA
ENDBRANCH  96  97
ENDBRANCH  64  89
ENDBRANCH  38  39
ENDBRANCH  31  33
ENDBRANCH  30  31
ENDBRANCH  29  30
ENDBRANCH  28  29
ENDBRANCH  27  28
ENDBRANCH  26  27
ENDBRANCH  25  26
ENDBRANCH  24  25
ENDBRANCH   1  24
TORSDOF 27
ENDMDL
MODEL 3
REMARK VINA RESULT:      -8.7      3.046      7.623
REMARK SMILES Cc1cc(C)c2c(OCCCC(=O)OCCOCCOCCOCCOC(=O)c3ccc(-c4c5nc(c(-c6c(F)cc(S(=O)(=O)[O-])cc6F)c6ccc([nH]6)c(-c6c(F)cc(S(=O)(=O)[O-])cc6F)c6nc(c(-c7c(F)cc(S(=O)(=O)[O-])cc7F)c7ccc4[nH]7)C=C6)C=C5)cc3)nsc2n1
REMARK SMILES IDX 19 1 18 2 17 3 16 4 15 5 14 6 12 7 13 8 11 9 10 10 9 11 8 12
REMARK SMILES IDX 7 13 1 14 2 15 3 16 98 17 4 18 97 19 5 20 6 21 96 22 95 23
REMARK SMILES IDX 20 24 21 25 22 26 23 27 24 28 25 29 26 30 27 31 28 32 29 33
REMARK SMILES IDX 30 34 94 35 31 36 93 37 32 38 33 39 34 40 87 41 35 42 92 43
REMARK SMILES IDX 86 44 88 45 36 46 91 47 85 48 84 49 37 51 71 52 50 53 70 54
REMARK SMILES IDX 51 55 54 56 69 57 89 58 52 59 53 60 68 62 90 63 55 64 38 65
REMARK SMILES IDX 39 66 48 67 40 68 41 69 47 70 49 71 42 72 43 73 44 74 45 75
REMARK SMILES IDX 46 76 72 77 73 78 82 79 74 80 75 81 81 82 83 83 76 84 77 85
REMARK SMILES IDX 78 86 79 87 80 88 56 89 57 90 66 91 58 92 59 93 65 94 67 95
REMARK SMILES IDX 60 96 61 97 62 98 63 99 64 100
REMARK H PARENT 88 50 54 61
REMARK Flexibility Score: inf
ROOT
ATOM      1  C   UNL A   1      43.358  19.048  26.018  1.00  0.00     0.188 C 
ENDROOT
BRANCH   1   2
ATOM      2  C   UNL A   1      41.814  19.021  26.089  1.00  0.00     0.188 C 
BRANCH   2   3
ATOM      3  O   UNL A   1      41.133  20.072  26.762  1.00  0.00    -0.376 OA
BRANCH   3   4
ATOM      4  C   UNL A   1      40.497  21.051  25.965  1.00  0.00     0.202 C 
BRANCH   4   5
ATOM      5  C   UNL A   1      39.363  21.852  26.600  1.00  0.00     0.261 C 
BRANCH   5   6
ATOM      6  O   UNL A   1      38.617  22.778  25.751  1.00  0.00    -0.463 OA
BRANCH   6   7
ATOM      7  C   UNL A   1      37.584  22.273  25.040  1.00  0.00     0.305 C 
ATOM      8  O   UNL A   1      37.279  21.081  25.075  1.00  0.00    -0.252 OA
BRANCH   7   9
ATOM      9  C   UNL A   1      36.810  23.222  24.114  1.00  0.00     0.126 C 
BRANCH   9  10
ATOM     10  C   UNL A   1      35.539  22.978  23.285  1.00  0.00     0.053 C 
BRANCH  10  11
ATOM     11  C   UNL A   1      34.291  23.885  23.261  1.00  0.00     0.232 C 
BRANCH  11  12
ATOM     12  O   UNL A   1      33.171  23.665  24.110  1.00  0.00    -0.477 OA
BRANCH  12  13
ATOM     13  C   UNL A   1      33.112  22.526  24.827  1.00  0.00     0.235 A 
ATOM     14  C   UNL A   1      34.094  17.204  23.901  1.00  0.00     0.067 C 
ATOM     15  C   UNL A   1      33.371  18.485  24.213  1.00  0.00     0.039 A 
ATOM     16  C   UNL A   1      32.637  19.120  23.218  1.00  0.00     0.027 A 
ATOM     17  N   UNL A   1      33.629  19.048  25.402  1.00  0.00    -0.240 NA
ATOM     18  C   UNL A   1      32.369  20.503  23.272  1.00  0.00    -0.034 A 
ATOM     19  C   UNL A   1      33.325  20.358  25.457  1.00  0.00     0.147 A 
ATOM     20  C   UNL A   1      31.720  21.170  22.087  1.00  0.00     0.045 C 
ATOM     21  C   UNL A   1      32.848  21.169  24.426  1.00  0.00     0.078 A 
ATOM     22  S   UNL A   1      33.551  21.286  26.865  1.00  0.00    -0.012 S 
ATOM     23  N   UNL A   1      33.349  22.750  26.120  1.00  0.00    -0.153 NA
ENDBRANCH  12  13
ENDBRANCH  11  12
ENDBRANCH  10  11
ENDBRANCH   9  10
ENDBRANCH   7   9
ENDBRANCH   6   7
ENDBRANCH   5   6
ENDBRANCH   4   5
ENDBRANCH   3   4
ENDBRANCH   2   3
ENDBRANCH   1   2
BRANCH   1  24
ATOM     24  O   UNL A   1      43.922  18.359  24.917  1.00  0.00    -0.377 OA
BRANCH  24  25
ATOM     25  C   UNL A   1      45.030  18.991  24.282  1.00  0.00     0.188 C 
BRANCH  25  26
ATOM     26  C   UNL A   1      45.422  20.450  24.654  1.00  0.00     0.188 C 
BRANCH  26  27
ATOM     27  O   UNL A   1      44.647  21.500  24.103  1.00  0.00    -0.376 OA
BRANCH  27  28
ATOM     28  C   UNL A   1      44.646  22.891  24.384  1.00  0.00     0.202 C 
BRANCH  28  29
ATOM     29  C   UNL A   1      43.396  23.754  24.564  1.00  0.00     0.261 C 
BRANCH  29  30
ATOM     30  O   UNL A   1      42.717  23.491  25.762  1.00  0.00    -0.460 OA
BRANCH  30  31
ATOM     31  C   UNL A   1      41.949  24.542  26.116  1.00  0.00     0.338 C 
ATOM     32  O   UNL A   1      41.396  25.327  25.377  1.00  0.00    -0.246 OA
BRANCH  31  33
ATOM     33  C   UNL A   1      41.870  24.565  27.585  1.00  0.00     0.060 A 
ATOM     34  C   UNL A   1      40.753  25.251  28.040  1.00  0.00     0.016 A 
ATOM     35  C   UNL A   1      43.096  24.536  28.266  1.00  0.00     0.016 A 
ATOM     36  C   UNL A   1      41.030  26.351  28.793  1.00  0.00     0.010 A 
ATOM     37  C   UNL A   1      43.364  25.610  29.053  1.00  0.00     0.010 A 
ATOM     38  C   UNL A   1      42.370  26.575  29.131  1.00  0.00    -0.014 A 
BRANCH  38  39
ATOM     39  C   UNL A   1      42.730  27.897  29.549  1.00  0.00     0.031 A 
ATOM     40  C   UNL A   1      43.062  27.904  30.977  1.00  0.00     0.074 A 
ATOM     41  C   UNL A   1      42.775  28.925  28.684  1.00  0.00     0.049 A 
ATOM     42  N   UNL A   1      42.307  28.301  31.942  1.00  0.00    -0.248 NA
ATOM     43  C   UNL A   1      44.222  27.096  31.390  1.00  0.00     0.031 C 
ATOM     44  C   UNL A   1      42.681  28.933  27.221  1.00  0.00     0.029 A 
ATOM     45  N   UNL A   1      43.015  30.225  28.980  1.00  0.00    -0.354 N 
ATOM     46  C   UNL A   1      43.032  28.011  33.085  1.00  0.00     0.074 A 
ATOM     47  C   UNL A   1      44.036  27.051  32.708  1.00  0.00     0.031 C 
ATOM     48  C   UNL A   1      43.112  30.130  26.754  1.00  0.00     0.029 A 
ATOM     49  C   UNL A   1      43.370  31.006  27.883  1.00  0.00     0.049 A 
ATOM     50  H   UNL A   1      42.944  30.587  29.893  1.00  0.00     0.167 HD
ATOM     51  C   UNL A   1      42.958  28.802  34.184  1.00  0.00     0.037 A 
ATOM     52  C   UNL A   1      43.953  32.229  27.994  1.00  0.00     0.037 A 
ATOM     53  C   UNL A   1      41.816  29.677  34.137  1.00  0.00     0.049 A 
ATOM     54  C   UNL A   1      43.623  32.720  29.371  1.00  0.00     0.074 A 
ATOM     55  C   UNL A   1      40.451  29.467  34.123  1.00  0.00     0.029 A 
ATOM     56  N   UNL A   1      42.008  30.948  33.646  1.00  0.00    -0.354 N 
ATOM     57  N   UNL A   1      42.403  32.983  29.767  1.00  0.00    -0.248 NA
ATOM     58  C   UNL A   1      44.563  32.398  30.440  1.00  0.00     0.031 C 
ATOM     59  C   UNL A   1      39.932  30.426  33.206  1.00  0.00     0.029 A 
ATOM     60  C   UNL A   1      40.993  31.216  32.757  1.00  0.00     0.049 A 
ATOM     61  H   UNL A   1      42.742  31.559  33.888  1.00  0.00     0.167 HD
ATOM     62  C   UNL A   1      42.320  32.478  31.061  1.00  0.00     0.074 A 
ATOM     63  C   UNL A   1      43.699  32.163  31.433  1.00  0.00     0.031 C 
ATOM     64  C   UNL A   1      41.129  32.086  31.605  1.00  0.00     0.037 A 
BRANCH  51  65
ATOM     65  C   UNL A   1      44.128  28.998  35.093  1.00  0.00     0.058 A 
ATOM     66  C   UNL A   1      44.076  28.527  36.412  1.00  0.00     0.135 A 
ATOM     67  C   UNL A   1      45.231  29.824  34.768  1.00  0.00     0.135 A 
ATOM     68  F   UNL A   1      43.048  27.769  36.824  1.00  0.00    -0.206 F 
ATOM     69  C   UNL A   1      45.049  28.865  37.350  1.00  0.00     0.059 A 
ATOM     70  C   UNL A   1      46.245  30.116  35.663  1.00  0.00     0.059 A 
ATOM     71  F   UNL A   1      45.325  30.459  33.591  1.00  0.00    -0.206 F 
ATOM     72  C   UNL A   1      46.129  29.659  36.964  1.00  0.00     0.060 A 
BRANCH  72  73
ATOM     73  S   UNL A   1      47.346  30.156  38.192  1.00  0.00     0.124 S 
ATOM     74  O   UNL A   1      47.530  28.916  38.935  1.00  0.00    -0.237 OA
ATOM     75  O   UNL A   1      48.464  30.574  37.353  1.00  0.00    -0.237 OA
ATOM     76  O   UNL A   1      46.676  31.232  38.915  1.00  0.00    -0.744 OA
ENDBRANCH  72  73
ENDBRANCH  51  65
BRANCH  52  77
ATOM     77  C   UNL A   1      45.131  32.725  27.226  1.00  0.00     0.058 A 
ATOM     78  C   UNL A   1      45.116  33.986  26.603  1.00  0.00     0.135 A 
ATOM     79  C   UNL A   1      46.392  32.101  27.328  1.00  0.00     0.135 A 
ATOM     80  F   UNL A   1      43.963  34.661  26.483  1.00  0.00    -0.206 F 
ATOM     81  C   UNL A   1      46.286  34.613  26.154  1.00  0.00     0.059 A 
ATOM     82  C   UNL A   1      47.569  32.702  26.883  1.00  0.00     0.059 A 
ATOM     83  F   UNL A   1      46.535  30.922  27.951  1.00  0.00    -0.206 F 
ATOM     84  C   UNL A   1      47.513  33.971  26.320  1.00  0.00     0.060 A 
BRANCH  84  85
ATOM     85  S   UNL A   1      49.043  34.843  25.904  1.00  0.00     0.124 S 
ATOM     86  O   UNL A   1      49.931  33.742  25.545  1.00  0.00    -0.237 OA
ATOM     87  O   UNL A   1      48.617  35.703  24.807  1.00  0.00    -0.237 OA
ATOM     88  O   UNL A   1      49.384  35.539  27.143  1.00  0.00    -0.744 OA
ENDBRANCH  84  85
ENDBRANCH  52  77
BRANCH  64  89
ATOM     89  C   UNL A   1      39.860  32.402  30.844  1.00  0.00     0.058 A 
ATOM     90  C   UNL A   1      39.266  31.544  29.899  1.00  0.00     0.135 A 
ATOM     91  C   UNL A   1      39.133  33.543  31.209  1.00  0.00     0.135 A 
ATOM     92  F   UNL A   1      39.846  30.381  29.569  1.00  0.00    -0.206 F 
ATOM     93  C   UNL A   1      38.025  31.827  29.318  1.00  0.00     0.059 A 
ATOM     94  C   UNL A   1      37.883  33.831  30.667  1.00  0.00     0.059 A 
ATOM     95  F   UNL A   1      39.612  34.369  32.153  1.00  0.00    -0.206 F 
ATOM     96  C   UNL A   1      37.339  32.976  29.711  1.00  0.00     0.060 A 
BRANCH  96  97
ATOM     97  S   UNL A   1      35.710  33.317  29.006  1.00  0.00     0.124 S 
ATOM     98  O   UNL A   1      34.910  32.217  29.531  1.00  0.00    -0.237 OA
ATOM     99  O   UNL A   1      35.403  34.639  29.546  1.00  0.00    -0.237 OA
ATOM    100  O   UNL A   1      35.948  33.283  27.564  1.00  0.00    -0.744 OA
ENDBRANCH  96  97
ENDBRANCH  64  89
ENDBRANCH  38  39
ENDBRANCH  31  33
ENDBRANCH  30  31
ENDBRANCH  29  30
ENDBRANCH  28  29
ENDBRANCH  27  28
ENDBRANCH  26  27
ENDBRANCH  25  26
ENDBRANCH  24  25
ENDBRANCH   1  24
TORSDOF 27
ENDMDL
