MODEL 1
REMARK VINA RESULT:      -9.0      0.000      0.000
REMARK SMILES O=C(CSCc1ccc(Cl)s1)Nc1ccsc1C(=O)OCCOCCOCCOCCOC(=O)c1ccc(-c2c3nc(c(-c4c(F)cc(S(=O)(=O)[O-])cc4F)c4ccc([nH]4)c(-c4c(F)cc(S(=O)(=O)[O-])cc4F)c4nc(c(-c5c(F)cc(S(=O)(=O)[O-])cc5F)c5ccc2[nH]5)C=C4)C=C3)cc1
REMARK SMILES IDX 25 1 24 2 23 3 22 4 21 5 20 6 18 7 19 8 17 9 13 10 14 11
REMARK SMILES IDX 15 12 16 13 12 14 1 15 2 16 3 18 4 19 5 20 6 21 7 22 11 23
REMARK SMILES IDX 8 24 9 25 10 26 26 27 27 28 28 29 29 30 30 31 31 32 32 33
REMARK SMILES IDX 33 34 34 35 35 36 36 37 100 38 37 39 99 40 38 41 39 42 40 43
REMARK SMILES IDX 93 44 41 45 98 46 92 47 94 48 42 49 97 50 91 51 90 52 43 54
REMARK SMILES IDX 77 55 56 56 76 57 57 58 60 59 75 60 95 61 58 62 59 63 74 65
REMARK SMILES IDX 96 66 61 67 44 68 45 69 54 70 46 71 47 72 53 73 55 74 48 75
REMARK SMILES IDX 49 76 50 77 51 78 52 79 78 80 79 81 88 82 80 83 81 84 87 85
REMARK SMILES IDX 89 86 82 87 83 88 84 89 85 90 86 91 62 92 63 93 72 94 64 95
REMARK SMILES IDX 65 96 71 97 73 98 66 99 67 100 68 101 69 102 70 103
REMARK H PARENT 12 17 94 53 60 64
REMARK Flexibility Score: inf
ROOT
ATOM      1  C   UNL A   1      34.070  28.226  23.548  1.00  0.00     0.188 C 
ENDROOT
BRANCH   1   2
ATOM      2  C   UNL A   1      33.316  27.585  22.374  1.00  0.00     0.188 C 
BRANCH   2   3
ATOM      3  O   UNL A   1      33.770  26.267  22.063  1.00  0.00    -0.376 OA
BRANCH   3   4
ATOM      4  C   UNL A   1      32.798  25.380  21.514  1.00  0.00     0.202 C 
BRANCH   4   5
ATOM      5  C   UNL A   1      32.979  23.892  21.860  1.00  0.00     0.261 C 
BRANCH   5   6
ATOM      6  O   UNL A   1      32.440  23.496  23.135  1.00  0.00    -0.459 OA
BRANCH   6   7
ATOM      7  C   UNL A   1      31.192  23.935  23.451  1.00  0.00     0.350 C 
ATOM      8  O   UNL A   1      30.165  23.490  22.953  1.00  0.00    -0.245 OA
BRANCH   7   9
ATOM      9  C   UNL A   1      31.285  24.884  24.547  1.00  0.00     0.136 A 
ATOM     10  C   UNL A   1      32.140  24.938  25.645  1.00  0.00     0.066 A 
ATOM     11  C   UNL A   1      31.765  25.997  26.532  1.00  0.00     0.039 A 
ATOM     12  C   UNL A   1      30.669  26.705  26.098  1.00  0.00     0.068 A 
ATOM     13  S   UNL A   1      30.104  26.136  24.598  1.00  0.00    -0.135 S 
BRANCH  10  14
ATOM     14  N   UNL A   1      33.213  24.060  25.820  1.00  0.00    -0.324 N 
ATOM     15  O   UNL A   1      32.551  22.968  27.765  1.00  0.00    -0.274 OA
ATOM     16  C   UNL A   1      33.387  23.201  26.894  1.00  0.00     0.234 C 
ATOM     17  H   UNL A   1      33.907  24.051  25.121  1.00  0.00     0.170 HD
BRANCH  16  18
ATOM     18  C   UNL A   1      34.787  22.614  26.989  1.00  0.00     0.170 C 
BRANCH  18  19
ATOM     19  S   UNL A   1      35.726  22.744  25.441  1.00  0.00    -0.146 SA
BRANCH  19  20
ATOM     20  C   UNL A   1      36.586  21.141  25.451  1.00  0.00     0.116 C 
BRANCH  20  21
ATOM     21  C   UNL A   1      35.731  19.979  25.050  1.00  0.00     0.016 A 
ATOM     22  C   UNL A   1      36.095  18.674  24.759  1.00  0.00     0.018 A 
ATOM     23  S   UNL A   1      34.044  20.217  24.810  1.00  0.00    -0.128 S 
ATOM     24  C   UNL A   1      34.987  17.881  24.327  1.00  0.00     0.033 A 
ATOM     25  C   UNL A   1      33.831  18.616  24.313  1.00  0.00     0.093 A 
ATOM     26  Cl  UNL A   1      32.272  18.073  23.840  1.00  0.00    -0.072 Cl
ENDBRANCH  20  21
ENDBRANCH  19  20
ENDBRANCH  18  19
ENDBRANCH  16  18
ENDBRANCH  10  14
ENDBRANCH   7   9
ENDBRANCH   6   7
ENDBRANCH   5   6
ENDBRANCH   4   5
ENDBRANCH   3   4
ENDBRANCH   2   3
ENDBRANCH   1   2
BRANCH   1  27
ATOM     27  O   UNL A   1      33.258  29.099  24.315  1.00  0.00    -0.377 OA
BRANCH  27  28
ATOM     28  C   UNL A   1      33.309  28.978  25.735  1.00  0.00     0.188 C 
BRANCH  28  29
ATOM     29  C   UNL A   1      34.432  29.627  26.565  1.00  0.00     0.188 C 
BRANCH  29  30
ATOM     30  O   UNL A   1      34.003  30.733  27.360  1.00  0.00    -0.376 OA
BRANCH  30  31
ATOM     31  C   UNL A   1      35.030  31.592  27.848  1.00  0.00     0.202 C 
BRANCH  31  32
ATOM     32  C   UNL A   1      35.097  31.661  29.379  1.00  0.00     0.261 C 
BRANCH  32  33
ATOM     33  O   UNL A   1      36.394  31.961  29.919  1.00  0.00    -0.460 OA
BRANCH  33  34
ATOM     34  C   UNL A   1      36.891  31.109  30.842  1.00  0.00     0.338 C 
ATOM     35  O   UNL A   1      36.362  30.751  31.877  1.00  0.00    -0.246 OA
BRANCH  34  36
ATOM     36  C   UNL A   1      38.138  30.540  30.303  1.00  0.00     0.060 A 
ATOM     37  C   UNL A   1      39.114  30.076  31.193  1.00  0.00     0.016 A 
ATOM     38  C   UNL A   1      38.346  30.483  28.923  1.00  0.00     0.016 A 
ATOM     39  C   UNL A   1      40.323  29.582  30.701  1.00  0.00     0.010 A 
ATOM     40  C   UNL A   1      39.563  30.004  28.436  1.00  0.00     0.010 A 
ATOM     41  C   UNL A   1      40.566  29.575  29.321  1.00  0.00    -0.014 A 
BRANCH  41  42
ATOM     42  C   UNL A   1      41.928  29.308  28.799  1.00  0.00     0.031 A 
ATOM     43  C   UNL A   1      42.254  27.909  28.352  1.00  0.00     0.074 A 
ATOM     44  C   UNL A   1      42.860  30.276  28.740  1.00  0.00     0.049 A 
ATOM     45  N   UNL A   1      43.388  27.417  27.926  1.00  0.00    -0.248 NA
ATOM     46  C   UNL A   1      41.153  26.931  28.399  1.00  0.00     0.031 C 
ATOM     47  C   UNL A   1      42.662  31.671  29.131  1.00  0.00     0.029 A 
ATOM     48  N   UNL A   1      44.171  30.221  28.338  1.00  0.00    -0.354 N 
ATOM     49  C   UNL A   1      43.141  26.075  27.663  1.00  0.00     0.074 A 
ATOM     50  C   UNL A   1      41.759  25.821  28.004  1.00  0.00     0.031 C 
ATOM     51  C   UNL A   1      43.818  32.338  28.960  1.00  0.00     0.029 A 
ATOM     52  C   UNL A   1      44.841  31.414  28.471  1.00  0.00     0.049 A 
ATOM     53  H   UNL A   1      44.592  29.403  27.987  1.00  0.00     0.167 HD
ATOM     54  C   UNL A   1      43.987  25.139  27.173  1.00  0.00     0.037 A 
ATOM     55  C   UNL A   1      46.134  31.716  28.238  1.00  0.00     0.037 A 
ATOM     56  C   UNL A   1      45.359  25.391  26.828  1.00  0.00     0.049 A 
ATOM     57  C   UNL A   1      47.068  30.647  27.727  1.00  0.00     0.074 A 
ATOM     58  C   UNL A   1      46.290  24.510  26.307  1.00  0.00     0.029 A 
ATOM     59  N   UNL A   1      45.998  26.612  26.973  1.00  0.00    -0.354 N 
ATOM     60  N   UNL A   1      46.811  29.389  27.454  1.00  0.00    -0.248 NA
ATOM     61  C   UNL A   1      48.466  31.037  27.491  1.00  0.00     0.031 C 
ATOM     62  C   UNL A   1      47.504  25.191  26.168  1.00  0.00     0.029 A 
ATOM     63  C   UNL A   1      47.317  26.505  26.566  1.00  0.00     0.049 A 
ATOM     64  H   UNL A   1      45.577  27.434  27.315  1.00  0.00     0.167 HD
ATOM     65  C   UNL A   1      48.008  28.848  26.988  1.00  0.00     0.074 A 
ATOM     66  C   UNL A   1      48.986  29.915  27.012  1.00  0.00     0.031 C 
ATOM     67  C   UNL A   1      48.272  27.584  26.579  1.00  0.00     0.037 A 
BRANCH  54  68
ATOM     68  C   UNL A   1      43.449  23.750  26.994  1.00  0.00     0.058 A 
ATOM     69  C   UNL A   1      43.178  22.921  28.093  1.00  0.00     0.135 A 
ATOM     70  C   UNL A   1      43.175  23.252  25.710  1.00  0.00     0.135 A 
ATOM     71  F   UNL A   1      43.444  23.342  29.339  1.00  0.00    -0.206 F 
ATOM     72  C   UNL A   1      42.669  21.637  27.925  1.00  0.00     0.059 A 
ATOM     73  C   UNL A   1      42.646  21.979  25.520  1.00  0.00     0.059 A 
ATOM     74  F   UNL A   1      43.424  24.004  24.626  1.00  0.00    -0.206 F 
ATOM     75  C   UNL A   1      42.407  21.176  26.634  1.00  0.00     0.060 A 
BRANCH  75  76
ATOM     76  S   UNL A   1      41.736  19.512  26.432  1.00  0.00     0.124 S 
ATOM     77  O   UNL A   1      42.320  19.118  25.152  1.00  0.00    -0.237 OA
ATOM     78  O   UNL A   1      42.257  18.819  27.605  1.00  0.00    -0.237 OA
ATOM     79  O   UNL A   1      40.294  19.726  26.423  1.00  0.00    -0.744 OA
ENDBRANCH  75  76
ENDBRANCH  54  68
BRANCH  55  80
ATOM     80  C   UNL A   1      46.638  33.092  28.492  1.00  0.00     0.058 A 
ATOM     81  C   UNL A   1      47.120  33.466  29.756  1.00  0.00     0.135 A 
ATOM     82  C   UNL A   1      46.624  34.067  27.483  1.00  0.00     0.135 A 
ATOM     83  F   UNL A   1      47.142  32.572  30.755  1.00  0.00    -0.206 F 
ATOM     84  C   UNL A   1      47.552  34.762  30.017  1.00  0.00     0.059 A 
ATOM     85  C   UNL A   1      47.071  35.364  27.714  1.00  0.00     0.059 A 
ATOM     86  F   UNL A   1      46.181  33.757  26.254  1.00  0.00    -0.206 F 
ATOM     87  C   UNL A   1      47.522  35.706  28.988  1.00  0.00     0.060 A 
BRANCH  87  88
ATOM     88  S   UNL A   1      48.117  37.378  29.323  1.00  0.00     0.124 S 
ATOM     89  O   UNL A   1      49.358  37.406  28.559  1.00  0.00    -0.237 OA
ATOM     90  O   UNL A   1      47.029  38.203  28.805  1.00  0.00    -0.237 OA
ATOM     91  O   UNL A   1      48.266  37.393  30.775  1.00  0.00    -0.744 OA
ENDBRANCH  87  88
ENDBRANCH  55  80
BRANCH  67  92
ATOM     92  C   UNL A   1      49.659  27.285  26.083  1.00  0.00     0.058 A 
ATOM     93  C   UNL A   1      50.679  26.870  26.953  1.00  0.00     0.135 A 
ATOM     94  C   UNL A   1      49.951  27.348  24.710  1.00  0.00     0.135 A 
ATOM     95  F   UNL A   1      50.452  26.796  28.273  1.00  0.00    -0.206 F 
ATOM     96  C   UNL A   1      51.946  26.542  26.480  1.00  0.00     0.059 A 
ATOM     97  C   UNL A   1      51.203  27.004  24.215  1.00  0.00     0.059 A 
ATOM     98  F   UNL A   1      49.006  27.729  23.836  1.00  0.00    -0.206 F 
ATOM     99  C   UNL A   1      52.198  26.611  25.109  1.00  0.00     0.060 A 
BRANCH  99 100
ATOM    100  S   UNL A   1      53.833  26.141  24.500  1.00  0.00     0.124 S 
ATOM    101  O   UNL A   1      54.179  25.048  25.403  1.00  0.00    -0.237 OA
ATOM    102  O   UNL A   1      53.556  25.759  23.119  1.00  0.00    -0.237 OA
ATOM    103  O   UNL A   1      54.618  27.362  24.661  1.00  0.00    -0.744 OA
ENDBRANCH  99 100
ENDBRANCH  67  92
ENDBRANCH  41  42
ENDBRANCH  34  36
ENDBRANCH  33  34
ENDBRANCH  32  33
ENDBRANCH  31  32
ENDBRANCH  30  31
ENDBRANCH  29  30
ENDBRANCH  28  29
ENDBRANCH  27  28
ENDBRANCH   1  27
TORSDOF 28
ENDMDL
MODEL 2
REMARK VINA RESULT:      -7.9      4.174      5.514
REMARK SMILES O=C(CSCc1ccc(Cl)s1)Nc1ccsc1C(=O)OCCOCCOCCOCCOC(=O)c1ccc(-c2c3nc(c(-c4c(F)cc(S(=O)(=O)[O-])cc4F)c4ccc([nH]4)c(-c4c(F)cc(S(=O)(=O)[O-])cc4F)c4nc(c(-c5c(F)cc(S(=O)(=O)[O-])cc5F)c5ccc2[nH]5)C=C4)C=C3)cc1
REMARK SMILES IDX 25 1 24 2 23 3 22 4 21 5 20 6 18 7 19 8 17 9 13 10 14 11
REMARK SMILES IDX 15 12 16 13 12 14 1 15 2 16 3 18 4 19 5 20 6 21 7 22 11 23
REMARK SMILES IDX 8 24 9 25 10 26 26 27 27 28 28 29 29 30 30 31 31 32 32 33
REMARK SMILES IDX 33 34 34 35 35 36 36 37 100 38 37 39 99 40 38 41 39 42 40 43
REMARK SMILES IDX 93 44 41 45 98 46 92 47 94 48 42 49 97 50 91 51 90 52 43 54
REMARK SMILES IDX 77 55 56 56 76 57 57 58 60 59 75 60 95 61 58 62 59 63 74 65
REMARK SMILES IDX 96 66 61 67 44 68 45 69 54 70 46 71 47 72 53 73 55 74 48 75
REMARK SMILES IDX 49 76 50 77 51 78 52 79 78 80 79 81 88 82 80 83 81 84 87 85
REMARK SMILES IDX 89 86 82 87 83 88 84 89 85 90 86 91 62 92 63 93 72 94 64 95
REMARK SMILES IDX 65 96 71 97 73 98 66 99 67 100 68 101 69 102 70 103
REMARK H PARENT 12 17 94 53 60 64
REMARK Flexibility Score: inf
ROOT
ATOM      1  C   UNL A   1      33.380  27.099  22.223  1.00  0.00     0.188 C 
ENDROOT
BRANCH   1   2
ATOM      2  C   UNL A   1      32.275  26.187  22.775  1.00  0.00     0.188 C 
BRANCH   2   3
ATOM      3  O   UNL A   1      32.571  24.796  22.642  1.00  0.00    -0.376 OA
BRANCH   3   4
ATOM      4  C   UNL A   1      31.461  23.905  22.721  1.00  0.00     0.202 C 
BRANCH   4   5
ATOM      5  C   UNL A   1      31.792  22.454  23.107  1.00  0.00     0.261 C 
BRANCH   5   6
ATOM      6  O   UNL A   1      32.079  22.248  24.502  1.00  0.00    -0.459 OA
BRANCH   6   7
ATOM      7  C   UNL A   1      31.175  22.717  25.404  1.00  0.00     0.350 C 
ATOM      8  O   UNL A   1      30.282  22.035  25.894  1.00  0.00    -0.245 OA
BRANCH   7   9
ATOM      9  C   UNL A   1      31.533  24.075  25.776  1.00  0.00     0.136 A 
ATOM     10  C   UNL A   1      32.758  24.637  26.127  1.00  0.00     0.066 A 
ATOM     11  C   UNL A   1      32.594  25.998  26.541  1.00  0.00     0.039 A 
ATOM     12  C   UNL A   1      31.288  26.426  26.491  1.00  0.00     0.068 A 
ATOM     13  S   UNL A   1      30.249  25.214  25.904  1.00  0.00    -0.135 S 
BRANCH  10  14
ATOM     14  N   UNL A   1      33.965  23.936  26.066  1.00  0.00    -0.324 N 
ATOM     15  O   UNL A   1      33.675  22.445  27.829  1.00  0.00    -0.274 OA
ATOM     16  C   UNL A   1      34.375  22.954  26.956  1.00  0.00     0.234 C 
ATOM     17  H   UNL A   1      34.579  24.159  25.329  1.00  0.00     0.170 HD
BRANCH  16  18
ATOM     18  C   UNL A   1      35.851  22.605  26.845  1.00  0.00     0.170 C 
BRANCH  18  19
ATOM     19  S   UNL A   1      36.598  23.132  25.277  1.00  0.00    -0.146 SA
BRANCH  19  20
ATOM     20  C   UNL A   1      38.029  24.066  25.900  1.00  0.00     0.116 C 
BRANCH  20  21
ATOM     21  C   UNL A   1      39.074  23.224  26.565  1.00  0.00     0.016 A 
ATOM     22  C   UNL A   1      39.996  23.568  27.541  1.00  0.00     0.018 A 
ATOM     23  S   UNL A   1      39.296  21.596  26.052  1.00  0.00    -0.128 S 
ATOM     24  C   UNL A   1      40.887  22.495  27.852  1.00  0.00     0.033 A 
ATOM     25  C   UNL A   1      40.603  21.385  27.102  1.00  0.00     0.093 A 
ATOM     26  Cl  UNL A   1      41.433  19.882  27.133  1.00  0.00    -0.072 Cl
ENDBRANCH  20  21
ENDBRANCH  19  20
ENDBRANCH  18  19
ENDBRANCH  16  18
ENDBRANCH  10  14
ENDBRANCH   7   9
ENDBRANCH   6   7
ENDBRANCH   5   6
ENDBRANCH   4   5
ENDBRANCH   3   4
ENDBRANCH   2   3
ENDBRANCH   1   2
BRANCH   1  27
ATOM     27  O   UNL A   1      33.248  28.445  22.648  1.00  0.00    -0.377 OA
BRANCH  27  28
ATOM     28  C   UNL A   1      33.068  28.688  24.041  1.00  0.00     0.188 C 
BRANCH  28  29
ATOM     29  C   UNL A   1      31.871  29.497  24.576  1.00  0.00     0.188 C 
BRANCH  29  30
ATOM     30  O   UNL A   1      31.988  29.870  25.949  1.00  0.00    -0.376 OA
BRANCH  30  31
ATOM     31  C   UNL A   1      32.222  31.251  26.208  1.00  0.00     0.202 C 
BRANCH  31  32
ATOM     32  C   UNL A   1      33.196  31.504  27.366  1.00  0.00     0.261 C 
BRANCH  32  33
ATOM     33  O   UNL A   1      34.475  30.863  27.236  1.00  0.00    -0.460 OA
BRANCH  33  34
ATOM     34  C   UNL A   1      34.602  29.625  27.762  1.00  0.00     0.338 C 
ATOM     35  O   UNL A   1      33.759  28.748  27.796  1.00  0.00    -0.246 OA
BRANCH  34  36
ATOM     36  C   UNL A   1      36.010  29.444  28.153  1.00  0.00     0.060 A 
ATOM     37  C   UNL A   1      36.304  28.961  29.433  1.00  0.00     0.016 A 
ATOM     38  C   UNL A   1      37.034  29.769  27.261  1.00  0.00     0.016 A 
ATOM     39  C   UNL A   1      37.632  28.833  29.839  1.00  0.00     0.010 A 
ATOM     40  C   UNL A   1      38.362  29.656  27.676  1.00  0.00     0.010 A 
ATOM     41  C   UNL A   1      38.668  29.213  28.974  1.00  0.00    -0.014 A 
BRANCH  41  42
ATOM     42  C   UNL A   1      40.058  29.336  29.473  1.00  0.00     0.031 A 
ATOM     43  C   UNL A   1      41.100  28.409  28.909  1.00  0.00     0.074 A 
ATOM     44  C   UNL A   1      40.387  30.234  30.419  1.00  0.00     0.049 A 
ATOM     45  N   UNL A   1      42.359  28.280  29.234  1.00  0.00    -0.248 NA
ATOM     46  C   UNL A   1      40.658  27.500  27.837  1.00  0.00     0.031 C 
ATOM     47  C   UNL A   1      39.472  31.195  31.034  1.00  0.00     0.029 A 
ATOM     48  N   UNL A   1      41.589  30.471  31.037  1.00  0.00    -0.354 N 
ATOM     49  C   UNL A   1      42.857  27.272  28.416  1.00  0.00     0.074 A 
ATOM     50  C   UNL A   1      41.759  26.804  27.599  1.00  0.00     0.031 C 
ATOM     51  C   UNL A   1      40.146  31.910  31.953  1.00  0.00     0.029 A 
ATOM     52  C   UNL A   1      41.532  31.443  32.006  1.00  0.00     0.049 A 
ATOM     53  H   UNL A   1      42.417  29.989  30.807  1.00  0.00     0.167 HD
ATOM     54  C   UNL A   1      44.119  26.787  28.344  1.00  0.00     0.037 A 
ATOM     55  C   UNL A   1      42.485  31.891  32.848  1.00  0.00     0.037 A 
ATOM     56  C   UNL A   1      45.212  27.255  29.150  1.00  0.00     0.049 A 
ATOM     57  C   UNL A   1      43.875  31.308  32.775  1.00  0.00     0.074 A 
ATOM     58  C   UNL A   1      46.531  26.837  29.137  1.00  0.00     0.029 A 
ATOM     59  N   UNL A   1      45.114  28.243  30.117  1.00  0.00    -0.354 N 
ATOM     60  N   UNL A   1      44.339  30.377  31.975  1.00  0.00    -0.248 NA
ATOM     61  C   UNL A   1      44.872  31.837  33.719  1.00  0.00     0.031 C 
ATOM     62  C   UNL A   1      47.224  27.550  30.121  1.00  0.00     0.029 A 
ATOM     63  C   UNL A   1      46.345  28.439  30.718  1.00  0.00     0.049 A 
ATOM     64  H   UNL A   1      44.290  28.734  30.342  1.00  0.00     0.167 HD
ATOM     65  C   UNL A   1      45.685  30.231  32.300  1.00  0.00     0.074 A 
ATOM     66  C   UNL A   1      45.963  31.171  33.365  1.00  0.00     0.031 C 
ATOM     67  C   UNL A   1      46.607  29.393  31.765  1.00  0.00     0.037 A 
BRANCH  54  68
ATOM     68  C   UNL A   1      44.376  25.680  27.364  1.00  0.00     0.058 A 
ATOM     69  C   UNL A   1      44.794  25.945  26.051  1.00  0.00     0.135 A 
ATOM     70  C   UNL A   1      44.231  24.338  27.752  1.00  0.00     0.135 A 
ATOM     71  F   UNL A   1      44.925  27.211  25.626  1.00  0.00    -0.206 F 
ATOM     72  C   UNL A   1      45.041  24.916  25.148  1.00  0.00     0.059 A 
ATOM     73  C   UNL A   1      44.495  23.294  26.872  1.00  0.00     0.059 A 
ATOM     74  F   UNL A   1      43.827  24.034  28.995  1.00  0.00    -0.206 F 
ATOM     75  C   UNL A   1      44.889  23.594  25.568  1.00  0.00     0.060 A 
BRANCH  75  76
ATOM     76  S   UNL A   1      45.225  22.269  24.389  1.00  0.00     0.124 S 
ATOM     77  O   UNL A   1      46.593  22.581  23.985  1.00  0.00    -0.237 OA
ATOM     78  O   UNL A   1      45.064  21.072  25.208  1.00  0.00    -0.237 OA
ATOM     79  O   UNL A   1      44.208  22.462  23.362  1.00  0.00    -0.744 OA
ENDBRANCH  75  76
ENDBRANCH  54  68
BRANCH  55  80
ATOM     80  C   UNL A   1      42.166  32.944  33.848  1.00  0.00     0.058 A 
ATOM     81  C   UNL A   1      41.765  32.611  35.150  1.00  0.00     0.135 A 
ATOM     82  C   UNL A   1      42.231  34.305  33.512  1.00  0.00     0.135 A 
ATOM     83  F   UNL A   1      41.676  31.322  35.514  1.00  0.00    -0.206 F 
ATOM     84  C   UNL A   1      41.420  33.587  36.080  1.00  0.00     0.059 A 
ATOM     85  C   UNL A   1      41.914  35.301  34.431  1.00  0.00     0.059 A 
ATOM     86  F   UNL A   1      42.619  34.677  32.282  1.00  0.00    -0.206 F 
ATOM     87  C   UNL A   1      41.497  34.931  35.709  1.00  0.00     0.060 A 
BRANCH  87  88
ATOM     88  S   UNL A   1      41.082  36.196  36.931  1.00  0.00     0.124 S 
ATOM     89  O   UNL A   1      42.323  36.958  36.995  1.00  0.00    -0.237 OA
ATOM     90  O   UNL A   1      39.949  36.870  36.304  1.00  0.00    -0.237 OA
ATOM     91  O   UNL A   1      40.757  35.414  38.120  1.00  0.00    -0.744 OA
ENDBRANCH  87  88
ENDBRANCH  55  80
BRANCH  67  92
ATOM     92  C   UNL A   1      48.014  29.478  32.288  1.00  0.00     0.058 A 
ATOM     93  C   UNL A   1      48.448  28.692  33.366  1.00  0.00     0.135 A 
ATOM     94  C   UNL A   1      48.957  30.305  31.655  1.00  0.00     0.135 A 
ATOM     95  F   UNL A   1      47.585  27.887  34.006  1.00  0.00    -0.206 F 
ATOM     96  C   UNL A   1      49.766  28.734  33.810  1.00  0.00     0.059 A 
ATOM     97  C   UNL A   1      50.284  30.346  32.069  1.00  0.00     0.059 A 
ATOM     98  F   UNL A   1      48.595  31.067  30.612  1.00  0.00    -0.206 F 
ATOM     99  C   UNL A   1      50.678  29.563  33.154  1.00  0.00     0.060 A 
BRANCH  99 100
ATOM    100  S   UNL A   1      52.396  29.578  33.709  1.00  0.00     0.124 S 
ATOM    101  O   UNL A   1      52.809  28.209  33.422  1.00  0.00    -0.237 OA
ATOM    102  O   UNL A   1      52.991  30.610  32.865  1.00  0.00    -0.237 OA
ATOM    103  O   UNL A   1      52.292  29.920  35.125  1.00  0.00    -0.744 OA
ENDBRANCH  99 100
ENDBRANCH  67  92
ENDBRANCH  41  42
ENDBRANCH  34  36
ENDBRANCH  33  34
ENDBRANCH  32  33
ENDBRANCH  31  32
ENDBRANCH  30  31
ENDBRANCH  29  30
ENDBRANCH  28  29
ENDBRANCH  27  28
ENDBRANCH   1  27
TORSDOF 28
ENDMDL
MODEL 3
REMARK VINA RESULT:      -7.4      5.977     11.575
REMARK SMILES O=C(CSCc1ccc(Cl)s1)Nc1ccsc1C(=O)OCCOCCOCCOCCOC(=O)c1ccc(-c2c3nc(c(-c4c(F)cc(S(=O)(=O)[O-])cc4F)c4ccc([nH]4)c(-c4c(F)cc(S(=O)(=O)[O-])cc4F)c4nc(c(-c5c(F)cc(S(=O)(=O)[O-])cc5F)c5ccc2[nH]5)C=C4)C=C3)cc1
REMARK SMILES IDX 25 1 24 2 23 3 22 4 21 5 20 6 18 7 19 8 17 9 13 10 14 11
REMARK SMILES IDX 15 12 16 13 12 14 1 15 2 16 3 18 4 19 5 20 6 21 7 22 11 23
REMARK SMILES IDX 8 24 9 25 10 26 26 27 27 28 28 29 29 30 30 31 31 32 32 33
REMARK SMILES IDX 33 34 34 35 35 36 36 37 100 38 37 39 99 40 38 41 39 42 40 43
REMARK SMILES IDX 93 44 41 45 98 46 92 47 94 48 42 49 97 50 91 51 90 52 43 54
REMARK SMILES IDX 77 55 56 56 76 57 57 58 60 59 75 60 95 61 58 62 59 63 74 65
REMARK SMILES IDX 96 66 61 67 44 68 45 69 54 70 46 71 47 72 53 73 55 74 48 75
REMARK SMILES IDX 49 76 50 77 51 78 52 79 78 80 79 81 88 82 80 83 81 84 87 85
REMARK SMILES IDX 89 86 82 87 83 88 84 89 85 90 86 91 62 92 63 93 72 94 64 95
REMARK SMILES IDX 65 96 71 97 73 98 66 99 67 100 68 101 69 102 70 103
REMARK H PARENT 12 17 94 53 60 64
REMARK Flexibility Score: inf
ROOT
ATOM      1  C   UNL A   1      43.357  23.164  24.609  1.00  0.00     0.188 C 
ENDROOT
BRANCH   1   2
ATOM      2  C   UNL A   1      43.057  22.312  25.851  1.00  0.00     0.188 C 
BRANCH   2   3
ATOM      3  O   UNL A   1      41.700  22.407  26.287  1.00  0.00    -0.376 OA
BRANCH   3   4
ATOM      4  C   UNL A   1      41.371  23.550  27.072  1.00  0.00     0.202 C 
BRANCH   4   5
ATOM      5  C   UNL A   1      42.329  23.864  28.234  1.00  0.00     0.261 C 
BRANCH   5   6
ATOM      6  O   UNL A   1      42.249  25.210  28.738  1.00  0.00    -0.459 OA
BRANCH   6   7
ATOM      7  C   UNL A   1      43.191  26.095  28.315  1.00  0.00     0.350 C 
ATOM      8  O   UNL A   1      44.397  25.933  28.465  1.00  0.00    -0.245 OA
BRANCH   7   9
ATOM      9  C   UNL A   1      42.545  27.153  27.558  1.00  0.00     0.136 A 
ATOM     10  C   UNL A   1      41.440  27.947  27.851  1.00  0.00     0.066 A 
ATOM     11  C   UNL A   1      41.094  28.773  26.733  1.00  0.00     0.039 A 
ATOM     12  C   UNL A   1      41.925  28.595  25.652  1.00  0.00     0.068 A 
ATOM     13  S   UNL A   1      43.155  27.468  25.979  1.00  0.00    -0.135 S 
BRANCH  10  14
ATOM     14  N   UNL A   1      40.783  27.917  29.084  1.00  0.00    -0.324 N 
ATOM     15  O   UNL A   1      38.905  26.659  28.532  1.00  0.00    -0.274 OA
ATOM     16  C   UNL A   1      39.540  27.352  29.324  1.00  0.00     0.234 C 
ATOM     17  H   UNL A   1      41.243  28.333  29.850  1.00  0.00     0.170 HD
BRANCH  16  18
ATOM     18  C   UNL A   1      38.933  27.752  30.660  1.00  0.00     0.170 C 
BRANCH  18  19
ATOM     19  S   UNL A   1      37.631  29.009  30.509  1.00  0.00    -0.146 SA
BRANCH  19  20
ATOM     20  C   UNL A   1      38.648  30.509  30.360  1.00  0.00     0.116 C 
BRANCH  20  21
ATOM     21  C   UNL A   1      38.398  31.533  31.424  1.00  0.00     0.016 A 
ATOM     22  C   UNL A   1      39.142  32.651  31.766  1.00  0.00     0.018 A 
ATOM     23  S   UNL A   1      37.057  31.336  32.485  1.00  0.00    -0.128 S 
ATOM     24  C   UNL A   1      38.614  33.331  32.906  1.00  0.00     0.033 A 
ATOM     25  C   UNL A   1      37.491  32.703  33.378  1.00  0.00     0.093 A 
ATOM     26  Cl  UNL A   1      36.550  33.163  34.739  1.00  0.00    -0.072 Cl
ENDBRANCH  20  21
ENDBRANCH  19  20
ENDBRANCH  18  19
ENDBRANCH  16  18
ENDBRANCH  10  14
ENDBRANCH   7   9
ENDBRANCH   6   7
ENDBRANCH   5   6
ENDBRANCH   4   5
ENDBRANCH   3   4
ENDBRANCH   2   3
ENDBRANCH   1   2
BRANCH   1  27
ATOM     27  O   UNL A   1      44.142  24.308  24.901  1.00  0.00    -0.377 OA
BRANCH  27  28
ATOM     28  C   UNL A   1      45.489  24.102  25.319  1.00  0.00     0.188 C 
BRANCH  28  29
ATOM     29  C   UNL A   1      46.521  23.400  24.415  1.00  0.00     0.188 C 
BRANCH  29  30
ATOM     30  O   UNL A   1      47.474  24.284  23.825  1.00  0.00    -0.376 OA
BRANCH  30  31
ATOM     31  C   UNL A   1      47.331  25.665  24.143  1.00  0.00     0.202 C 
BRANCH  31  32
ATOM     32  C   UNL A   1      48.583  26.499  23.841  1.00  0.00     0.261 C 
BRANCH  32  33
ATOM     33  O   UNL A   1      48.572  27.830  24.380  1.00  0.00    -0.460 OA
BRANCH  33  34
ATOM     34  C   UNL A   1      49.466  28.109  25.354  1.00  0.00     0.338 C 
ATOM     35  O   UNL A   1      50.670  28.243  25.236  1.00  0.00    -0.246 OA
BRANCH  34  36
ATOM     36  C   UNL A   1      48.712  28.392  26.588  1.00  0.00     0.060 A 
ATOM     37  C   UNL A   1      47.349  28.080  26.637  1.00  0.00     0.016 A 
ATOM     38  C   UNL A   1      49.350  28.981  27.682  1.00  0.00     0.016 A 
ATOM     39  C   UNL A   1      46.607  28.390  27.778  1.00  0.00     0.010 A 
ATOM     40  C   UNL A   1      48.601  29.305  28.814  1.00  0.00     0.010 A 
ATOM     41  C   UNL A   1      47.223  29.035  28.859  1.00  0.00    -0.014 A 
BRANCH  41  42
ATOM     42  C   UNL A   1      46.407  29.606  29.957  1.00  0.00     0.031 A 
ATOM     43  C   UNL A   1      46.169  28.760  31.178  1.00  0.00     0.074 A 
ATOM     44  C   UNL A   1      45.874  30.838  29.869  1.00  0.00     0.049 A 
ATOM     45  N   UNL A   1      45.438  29.010  32.232  1.00  0.00    -0.248 NA
ATOM     46  C   UNL A   1      46.840  27.448  31.209  1.00  0.00     0.031 C 
ATOM     47  C   UNL A   1      46.044  31.758  28.746  1.00  0.00     0.029 A 
ATOM     48  N   UNL A   1      45.066  31.519  30.744  1.00  0.00    -0.354 N 
ATOM     49  C   UNL A   1      45.553  27.890  33.046  1.00  0.00     0.074 A 
ATOM     50  C   UNL A   1      46.401  26.945  32.353  1.00  0.00     0.031 C 
ATOM     51  C   UNL A   1      45.348  32.882  28.996  1.00  0.00     0.029 A 
ATOM     52  C   UNL A   1      44.666  32.751  30.284  1.00  0.00     0.049 A 
ATOM     53  H   UNL A   1      44.797  31.158  31.620  1.00  0.00     0.167 HD
ATOM     54  C   UNL A   1      45.011  27.671  34.266  1.00  0.00     0.037 A 
ATOM     55  C   UNL A   1      43.834  33.658  30.835  1.00  0.00     0.037 A 
ATOM     56  C   UNL A   1      44.173  28.610  34.959  1.00  0.00     0.049 A 
ATOM     57  C   UNL A   1      43.211  33.374  32.179  1.00  0.00     0.074 A 
ATOM     58  C   UNL A   1      43.591  28.485  36.208  1.00  0.00     0.029 A 
ATOM     59  N   UNL A   1      43.795  29.848  34.462  1.00  0.00    -0.354 N 
ATOM     60  N   UNL A   1      43.354  32.323  32.951  1.00  0.00    -0.248 NA
ATOM     61  C   UNL A   1      42.312  34.402  32.728  1.00  0.00     0.031 C 
ATOM     62  C   UNL A   1      42.832  29.635  36.452  1.00  0.00     0.029 A 
ATOM     63  C   UNL A   1      42.975  30.491  35.371  1.00  0.00     0.049 A 
ATOM     64  H   UNL A   1      44.071  30.215  33.590  1.00  0.00     0.167 HD
ATOM     65  C   UNL A   1      42.589  32.576  34.086  1.00  0.00     0.074 A 
ATOM     66  C   UNL A   1      41.988  33.880  33.904  1.00  0.00     0.031 C 
ATOM     67  C   UNL A   1      42.400  31.798  35.181  1.00  0.00     0.037 A 
BRANCH  54  68
ATOM     68  C   UNL A   1      45.299  26.352  34.922  1.00  0.00     0.058 A 
ATOM     69  C   UNL A   1      46.370  26.195  35.814  1.00  0.00     0.135 A 
ATOM     70  C   UNL A   1      44.478  25.240  34.676  1.00  0.00     0.135 A 
ATOM     71  F   UNL A   1      47.198  27.221  36.064  1.00  0.00    -0.206 F 
ATOM     72  C   UNL A   1      46.629  24.974  36.428  1.00  0.00     0.059 A 
ATOM     73  C   UNL A   1      44.705  24.016  35.296  1.00  0.00     0.059 A 
ATOM     74  F   UNL A   1      43.445  25.338  33.824  1.00  0.00    -0.206 F 
ATOM     75  C   UNL A   1      45.791  23.890  36.162  1.00  0.00     0.060 A 
BRANCH  75  76
ATOM     76  S   UNL A   1      46.131  22.314  36.975  1.00  0.00     0.124 S 
ATOM     77  O   UNL A   1      47.578  22.209  36.808  1.00  0.00    -0.237 OA
ATOM     78  O   UNL A   1      45.667  22.558  38.337  1.00  0.00    -0.237 OA
ATOM     79  O   UNL A   1      45.340  21.359  36.208  1.00  0.00    -0.744 OA
ENDBRANCH  75  76
ENDBRANCH  54  68
BRANCH  55  80
ATOM     80  C   UNL A   1      43.526  34.923  30.117  1.00  0.00     0.058 A 
ATOM     81  C   UNL A   1      42.503  34.983  29.159  1.00  0.00     0.135 A 
ATOM     82  C   UNL A   1      44.266  36.091  30.357  1.00  0.00     0.135 A 
ATOM     83  F   UNL A   1      41.776  33.889  28.886  1.00  0.00    -0.206 F 
ATOM     84  C   UNL A   1      42.236  36.149  28.449  1.00  0.00     0.059 A 
ATOM     85  C   UNL A   1      44.003  37.275  29.677  1.00  0.00     0.059 A 
ATOM     86  F   UNL A   1      45.249  36.089  31.271  1.00  0.00    -0.206 F 
ATOM     87  C   UNL A   1      42.994  37.291  28.715  1.00  0.00     0.060 A 
BRANCH  87  88
ATOM     88  S   UNL A   1      42.620  38.813  27.816  1.00  0.00     0.124 S 
ATOM     89  O   UNL A   1      41.739  38.322  26.763  1.00  0.00    -0.237 OA
ATOM     90  O   UNL A   1      41.989  39.633  28.846  1.00  0.00    -0.237 OA
ATOM     91  O   UNL A   1      43.934  39.272  27.378  1.00  0.00    -0.744 OA
ENDBRANCH  87  88
ENDBRANCH  55  80
BRANCH  67  92
ATOM     92  C   UNL A   1      41.544  32.346  36.288  1.00  0.00     0.058 A 
ATOM     93  C   UNL A   1      42.069  33.195  37.273  1.00  0.00     0.135 A 
ATOM     94  C   UNL A   1      40.166  32.073  36.320  1.00  0.00     0.135 A 
ATOM     95  F   UNL A   1      43.379  33.484  37.288  1.00  0.00    -0.206 F 
ATOM     96  C   UNL A   1      41.260  33.744  38.264  1.00  0.00     0.059 A 
ATOM     97  C   UNL A   1      39.336  32.629  37.288  1.00  0.00     0.059 A 
ATOM     98  F   UNL A   1      39.613  31.277  35.393  1.00  0.00    -0.206 F 
ATOM     99  C   UNL A   1      39.894  33.455  38.262  1.00  0.00     0.060 A 
BRANCH  99 100
ATOM    100  S   UNL A   1      38.844  34.207  39.526  1.00  0.00     0.124 S 
ATOM    101  O   UNL A   1      37.546  33.616  39.218  1.00  0.00    -0.237 OA
ATOM    102  O   UNL A   1      39.469  33.753  40.764  1.00  0.00    -0.237 OA
ATOM    103  O   UNL A   1      38.964  35.637  39.259  1.00  0.00    -0.744 OA
ENDBRANCH  99 100
ENDBRANCH  67  92
ENDBRANCH  41  42
ENDBRANCH  34  36
ENDBRANCH  33  34
ENDBRANCH  32  33
ENDBRANCH  31  32
ENDBRANCH  30  31
ENDBRANCH  29  30
ENDBRANCH  28  29
ENDBRANCH  27  28
ENDBRANCH   1  27
TORSDOF 28
ENDMDL
