MODEL 1
REMARK VINA RESULT:      -8.8      0.000      0.000
REMARK SMILES O=C(Cc1ccn(-c2ccccc2F)c1)OCCOCCOCCOCCOC(=O)c1ccc(-c2c3nc(c(-c4c(F)cc(S(=O)(=O)[O-])cc4F)c4ccc([nH]4)c(-c4c(F)cc(S(=O)(=O)[O-])cc4F)c4nc(c(-c5c(F)cc(S(=O)(=O)[O-])cc5F)c5ccc2[nH]5)C=C4)C=C3)cc1
REMARK SMILES IDX 23 1 22 2 21 3 20 4 19 5 18 6 17 7 16 8 2 9 1 10 3 11 4 12
REMARK SMILES IDX 5 13 15 14 6 15 7 16 8 17 9 18 13 19 10 20 12 21 14 22 11 23
REMARK SMILES IDX 24 24 25 25 26 26 27 27 28 28 29 29 30 30 31 31 32 32 96 33
REMARK SMILES IDX 33 34 95 35 34 36 35 37 36 38 89 39 37 40 94 41 88 42 90 43
REMARK SMILES IDX 38 44 93 45 87 46 86 47 39 49 73 50 52 51 72 52 53 53 56 54
REMARK SMILES IDX 71 55 91 56 54 57 55 58 70 60 92 61 57 62 40 63 41 64 50 65
REMARK SMILES IDX 42 66 43 67 49 68 51 69 44 70 45 71 46 72 47 73 48 74 74 75
REMARK SMILES IDX 75 76 84 77 76 78 77 79 83 80 85 81 78 82 79 83 80 84 81 85
REMARK SMILES IDX 82 86 58 87 59 88 68 89 60 90 61 91 67 92 69 93 62 94 63 95
REMARK SMILES IDX 64 96 65 97 66 98
REMARK H PARENT 90 48 56 59
REMARK Flexibility Score: inf
ROOT
ATOM      1  C   UNL A   1      42.821  39.572  28.973  1.00  0.00     0.188 C 
ENDROOT
BRANCH   1   2
ATOM      2  O   UNL A   1      43.672  39.833  27.872  1.00  0.00    -0.377 OA
BRANCH   2   3
ATOM      3  C   UNL A   1      43.399  41.021  27.146  1.00  0.00     0.188 C 
BRANCH   3   4
ATOM      4  C   UNL A   1      42.264  40.957  26.127  1.00  0.00     0.188 C 
BRANCH   4   5
ATOM      5  O   UNL A   1      42.649  41.159  24.785  1.00  0.00    -0.376 OA
BRANCH   5   6
ATOM      6  C   UNL A   1      41.927  41.919  23.847  1.00  0.00     0.202 C 
BRANCH   6   7
ATOM      7  C   UNL A   1      42.667  42.780  22.835  1.00  0.00     0.261 C 
BRANCH   7   8
ATOM      8  O   UNL A   1      43.879  43.449  23.258  1.00  0.00    -0.463 OA
BRANCH   8   9
ATOM      9  C   UNL A   1      45.169  43.220  22.925  1.00  0.00     0.310 C 
ATOM     10  O   UNL A   1      45.634  42.090  23.092  1.00  0.00    -0.252 OA
BRANCH   9  11
ATOM     11  C   UNL A   1      46.060  44.353  22.446  1.00  0.00     0.159 C 
BRANCH  11  12
ATOM     12  C   UNL A   1      45.711  44.838  21.091  1.00  0.00    -0.019 A 
ATOM     13  C   UNL A   1      45.714  44.127  19.857  1.00  0.00     0.024 A 
ATOM     14  C   UNL A   1      45.343  46.126  20.797  1.00  0.00     0.095 A 
ATOM     15  C   UNL A   1      45.356  45.018  18.864  1.00  0.00     0.091 A 
ATOM     16  N   UNL A   1      45.196  46.249  19.444  1.00  0.00    -0.321 N 
BRANCH  16  17
ATOM     17  C   UNL A   1      44.759  47.446  18.879  1.00  0.00     0.081 A 
ATOM     18  C   UNL A   1      43.575  47.416  18.141  1.00  0.00     0.030 A 
ATOM     19  C   UNL A   1      45.246  48.637  19.417  1.00  0.00     0.147 A 
ATOM     20  C   UNL A   1      42.867  48.603  17.971  1.00  0.00     0.002 A 
ATOM     21  C   UNL A   1      44.555  49.822  19.221  1.00  0.00     0.041 A 
ATOM     22  F   UNL A   1      46.351  48.644  20.178  1.00  0.00    -0.205 F 
ATOM     23  C   UNL A   1      43.352  49.800  18.513  1.00  0.00     0.003 A 
ENDBRANCH  16  17
ENDBRANCH  11  12
ENDBRANCH   9  11
ENDBRANCH   8   9
ENDBRANCH   7   8
ENDBRANCH   6   7
ENDBRANCH   5   6
ENDBRANCH   4   5
ENDBRANCH   3   4
ENDBRANCH   2   3
ENDBRANCH   1   2
BRANCH   1  24
ATOM     24  C   UNL A   1      42.471  40.821  29.805  1.00  0.00     0.188 C 
BRANCH  24  25
ATOM     25  O   UNL A   1      42.155  40.727  31.183  1.00  0.00    -0.376 OA
BRANCH  25  26
ATOM     26  C   UNL A   1      43.034  40.426  32.255  1.00  0.00     0.202 C 
BRANCH  26  27
ATOM     27  C   UNL A   1      44.436  39.809  32.205  1.00  0.00     0.261 C 
BRANCH  27  28
ATOM     28  O   UNL A   1      44.557  38.551  31.604  1.00  0.00    -0.460 OA
BRANCH  28  29
ATOM     29  C   UNL A   1      45.079  37.652  32.447  1.00  0.00     0.338 C 
ATOM     30  O   UNL A   1      45.624  37.839  33.516  1.00  0.00    -0.246 OA
BRANCH  29  31
ATOM     31  C   UNL A   1      44.933  36.345  31.838  1.00  0.00     0.060 A 
ATOM     32  C   UNL A   1      44.456  36.337  30.527  1.00  0.00     0.016 A 
ATOM     33  C   UNL A   1      44.846  35.263  32.717  1.00  0.00     0.016 A 
ATOM     34  C   UNL A   1      43.665  35.288  30.156  1.00  0.00     0.010 A 
ATOM     35  C   UNL A   1      44.007  34.242  32.367  1.00  0.00     0.010 A 
ATOM     36  C   UNL A   1      43.391  34.301  31.111  1.00  0.00    -0.014 A 
BRANCH  36  37
ATOM     37  C   UNL A   1      42.525  33.208  30.705  1.00  0.00     0.031 A 
ATOM     38  C   UNL A   1      43.339  32.216  29.856  1.00  0.00     0.074 A 
ATOM     39  C   UNL A   1      41.229  33.334  31.131  1.00  0.00     0.049 A 
ATOM     40  N   UNL A   1      42.935  31.318  29.020  1.00  0.00    -0.248 NA
ATOM     41  C   UNL A   1      44.838  32.266  29.881  1.00  0.00     0.031 C 
ATOM     42  C   UNL A   1      40.695  34.438  31.976  1.00  0.00     0.029 A 
ATOM     43  N   UNL A   1      40.093  32.585  30.945  1.00  0.00    -0.354 N 
ATOM     44  C   UNL A   1      44.060  30.560  28.632  1.00  0.00     0.074 A 
ATOM     45  C   UNL A   1      45.214  31.257  29.095  1.00  0.00     0.031 C 
ATOM     46  C   UNL A   1      39.356  34.333  32.130  1.00  0.00     0.029 A 
ATOM     47  C   UNL A   1      38.886  33.142  31.452  1.00  0.00     0.049 A 
ATOM     48  H   UNL A   1      40.113  31.714  30.487  1.00  0.00     0.167 HD
ATOM     49  C   UNL A   1      43.953  29.330  28.058  1.00  0.00     0.037 A 
ATOM     50  C   UNL A   1      37.605  32.680  31.287  1.00  0.00     0.037 A 
ATOM     51  C   UNL A   1      42.579  29.016  27.858  1.00  0.00     0.049 A 
ATOM     52  C   UNL A   1      37.785  31.360  30.660  1.00  0.00     0.074 A 
ATOM     53  C   UNL A   1      41.673  29.524  26.964  1.00  0.00     0.029 A 
ATOM     54  N   UNL A   1      41.910  28.442  28.914  1.00  0.00    -0.354 N 
ATOM     55  N   UNL A   1      38.269  30.313  31.261  1.00  0.00    -0.248 NA
ATOM     56  C   UNL A   1      37.542  31.235  29.218  1.00  0.00     0.031 C 
ATOM     57  C   UNL A   1      40.512  29.682  27.744  1.00  0.00     0.029 A 
ATOM     58  C   UNL A   1      40.664  29.022  28.970  1.00  0.00     0.049 A 
ATOM     59  H   UNL A   1      42.258  27.745  29.517  1.00  0.00     0.167 HD
ATOM     60  C   UNL A   1      38.699  29.545  30.209  1.00  0.00     0.074 A 
ATOM     61  C   UNL A   1      37.959  29.986  29.045  1.00  0.00     0.031 C 
ATOM     62  C   UNL A   1      39.946  29.007  30.224  1.00  0.00     0.037 A 
BRANCH  49  63
ATOM     63  C   UNL A   1      44.961  28.256  27.799  1.00  0.00     0.058 A 
ATOM     64  C   UNL A   1      45.404  27.352  28.773  1.00  0.00     0.135 A 
ATOM     65  C   UNL A   1      45.224  27.914  26.451  1.00  0.00     0.135 A 
ATOM     66  F   UNL A   1      45.211  27.594  30.078  1.00  0.00    -0.206 F 
ATOM     67  C   UNL A   1      45.988  26.131  28.425  1.00  0.00     0.059 A 
ATOM     68  C   UNL A   1      45.769  26.692  26.083  1.00  0.00     0.059 A 
ATOM     69  F   UNL A   1      44.890  28.751  25.453  1.00  0.00    -0.206 F 
ATOM     70  C   UNL A   1      46.125  25.792  27.078  1.00  0.00     0.060 A 
BRANCH  70  71
ATOM     71  S   UNL A   1      46.692  24.138  26.634  1.00  0.00     0.124 S 
ATOM     72  O   UNL A   1      47.997  24.089  27.287  1.00  0.00    -0.237 OA
ATOM     73  O   UNL A   1      45.657  23.288  27.211  1.00  0.00    -0.237 OA
ATOM     74  O   UNL A   1      46.728  24.170  25.174  1.00  0.00    -0.744 OA
ENDBRANCH  70  71
ENDBRANCH  49  63
BRANCH  50  75
ATOM     75  C   UNL A   1      36.175  33.172  31.421  1.00  0.00     0.058 A 
ATOM     76  C   UNL A   1      35.638  34.013  30.402  1.00  0.00     0.135 A 
ATOM     77  C   UNL A   1      35.339  33.033  32.536  1.00  0.00     0.135 A 
ATOM     78  F   UNL A   1      36.199  34.100  29.188  1.00  0.00    -0.206 F 
ATOM     79  C   UNL A   1      34.537  34.844  30.576  1.00  0.00     0.059 A 
ATOM     80  C   UNL A   1      34.174  33.814  32.710  1.00  0.00     0.059 A 
ATOM     81  F   UNL A   1      35.621  32.151  33.504  1.00  0.00    -0.206 F 
ATOM     82  C   UNL A   1      33.839  34.781  31.764  1.00  0.00     0.060 A 
BRANCH  82  83
ATOM     83  S   UNL A   1      32.547  36.011  32.044  1.00  0.00     0.124 S 
ATOM     84  O   UNL A   1      32.288  36.472  30.682  1.00  0.00    -0.237 OA
ATOM     85  O   UNL A   1      31.478  35.225  32.654  1.00  0.00    -0.237 OA
ATOM     86  O   UNL A   1      33.189  36.981  32.924  1.00  0.00    -0.744 OA
ENDBRANCH  82  83
ENDBRANCH  50  75
BRANCH  62  87
ATOM     87  C   UNL A   1      40.539  28.767  31.603  1.00  0.00     0.058 A 
ATOM     88  C   UNL A   1      41.696  29.394  32.102  1.00  0.00     0.135 A 
ATOM     89  C   UNL A   1      39.886  27.902  32.495  1.00  0.00     0.135 A 
ATOM     90  F   UNL A   1      42.390  30.241  31.344  1.00  0.00    -0.206 F 
ATOM     91  C   UNL A   1      42.191  29.171  33.391  1.00  0.00     0.059 A 
ATOM     92  C   UNL A   1      40.355  27.662  33.792  1.00  0.00     0.059 A 
ATOM     93  F   UNL A   1      38.778  27.254  32.102  1.00  0.00    -0.206 F 
ATOM     94  C   UNL A   1      41.513  28.298  34.233  1.00  0.00     0.060 A 
BRANCH  94  95
ATOM     95  S   UNL A   1      42.198  27.957  35.872  1.00  0.00     0.124 S 
ATOM     96  O   UNL A   1      43.585  28.391  35.724  1.00  0.00    -0.237 OA
ATOM     97  O   UNL A   1      41.370  28.790  36.738  1.00  0.00    -0.237 OA
ATOM     98  O   UNL A   1      42.012  26.517  36.027  1.00  0.00    -0.744 OA
ENDBRANCH  94  95
ENDBRANCH  62  87
ENDBRANCH  36  37
ENDBRANCH  29  31
ENDBRANCH  28  29
ENDBRANCH  27  28
ENDBRANCH  26  27
ENDBRANCH  25  26
ENDBRANCH  24  25
ENDBRANCH   1  24
TORSDOF 25
ENDMDL
MODEL 2
REMARK VINA RESULT:      -8.5      3.557      8.801
REMARK SMILES O=C(Cc1ccn(-c2ccccc2F)c1)OCCOCCOCCOCCOC(=O)c1ccc(-c2c3nc(c(-c4c(F)cc(S(=O)(=O)[O-])cc4F)c4ccc([nH]4)c(-c4c(F)cc(S(=O)(=O)[O-])cc4F)c4nc(c(-c5c(F)cc(S(=O)(=O)[O-])cc5F)c5ccc2[nH]5)C=C4)C=C3)cc1
REMARK SMILES IDX 23 1 22 2 21 3 20 4 19 5 18 6 17 7 16 8 2 9 1 10 3 11 4 12
REMARK SMILES IDX 5 13 15 14 6 15 7 16 8 17 9 18 13 19 10 20 12 21 14 22 11 23
REMARK SMILES IDX 24 24 25 25 26 26 27 27 28 28 29 29 30 30 31 31 32 32 96 33
REMARK SMILES IDX 33 34 95 35 34 36 35 37 36 38 89 39 37 40 94 41 88 42 90 43
REMARK SMILES IDX 38 44 93 45 87 46 86 47 39 49 73 50 52 51 72 52 53 53 56 54
REMARK SMILES IDX 71 55 91 56 54 57 55 58 70 60 92 61 57 62 40 63 41 64 50 65
REMARK SMILES IDX 42 66 43 67 49 68 51 69 44 70 45 71 46 72 47 73 48 74 74 75
REMARK SMILES IDX 75 76 84 77 76 78 77 79 83 80 85 81 78 82 79 83 80 84 81 85
REMARK SMILES IDX 82 86 58 87 59 88 68 89 60 90 61 91 67 92 69 93 62 94 63 95
REMARK SMILES IDX 64 96 65 97 66 98
REMARK H PARENT 90 48 56 59
REMARK Flexibility Score: inf
ROOT
ATOM      1  C   UNL A   1      44.585  41.236  25.817  1.00  0.00     0.188 C 
ENDROOT
BRANCH   1   2
ATOM      2  O   UNL A   1      44.980  42.361  25.054  1.00  0.00    -0.377 OA
BRANCH   2   3
ATOM      3  C   UNL A   1      46.210  42.962  25.426  1.00  0.00     0.188 C 
BRANCH   3   4
ATOM      4  C   UNL A   1      46.158  44.432  25.838  1.00  0.00     0.188 C 
BRANCH   4   5
ATOM      5  O   UNL A   1      46.467  45.353  24.815  1.00  0.00    -0.376 OA
BRANCH   5   6
ATOM      6  C   UNL A   1      46.329  45.100  23.438  1.00  0.00     0.202 C 
BRANCH   6   7
ATOM      7  C   UNL A   1      44.980  45.288  22.761  1.00  0.00     0.261 C 
BRANCH   7   8
ATOM      8  O   UNL A   1      43.893  44.411  23.141  1.00  0.00    -0.463 OA
BRANCH   8   9
ATOM      9  C   UNL A   1      43.019  43.718  22.379  1.00  0.00     0.310 C 
ATOM     10  O   UNL A   1      41.830  43.701  22.705  1.00  0.00    -0.252 OA
BRANCH   9  11
ATOM     11  C   UNL A   1      43.501  42.894  21.198  1.00  0.00     0.159 C 
BRANCH  11  12
ATOM     12  C   UNL A   1      43.992  43.719  20.070  1.00  0.00    -0.019 A 
ATOM     13  C   UNL A   1      45.276  43.723  19.456  1.00  0.00     0.024 A 
ATOM     14  C   UNL A   1      43.254  44.684  19.434  1.00  0.00     0.095 A 
ATOM     15  C   UNL A   1      45.266  44.697  18.476  1.00  0.00     0.091 A 
ATOM     16  N   UNL A   1      44.045  45.319  18.519  1.00  0.00    -0.321 N 
BRANCH  16  17
ATOM     17  C   UNL A   1      43.523  46.304  17.683  1.00  0.00     0.081 A 
ATOM     18  C   UNL A   1      42.615  45.901  16.702  1.00  0.00     0.030 A 
ATOM     19  C   UNL A   1      43.571  47.627  18.124  1.00  0.00     0.147 A 
ATOM     20  C   UNL A   1      41.734  46.846  16.183  1.00  0.00     0.002 A 
ATOM     21  C   UNL A   1      42.713  48.571  17.584  1.00  0.00     0.041 A 
ATOM     22  F   UNL A   1      44.403  47.989  19.112  1.00  0.00    -0.205 F 
ATOM     23  C   UNL A   1      41.780  48.175  16.626  1.00  0.00     0.003 A 
ENDBRANCH  16  17
ENDBRANCH  11  12
ENDBRANCH   9  11
ENDBRANCH   8   9
ENDBRANCH   7   8
ENDBRANCH   6   7
ENDBRANCH   5   6
ENDBRANCH   4   5
ENDBRANCH   3   4
ENDBRANCH   2   3
ENDBRANCH   1   2
BRANCH   1  24
ATOM     24  C   UNL A   1      43.062  41.004  25.848  1.00  0.00     0.188 C 
BRANCH  24  25
ATOM     25  O   UNL A   1      42.437  40.344  26.935  1.00  0.00    -0.376 OA
BRANCH  25  26
ATOM     26  C   UNL A   1      42.705  40.509  28.318  1.00  0.00     0.202 C 
BRANCH  26  27
ATOM     27  C   UNL A   1      43.848  39.919  29.153  1.00  0.00     0.261 C 
BRANCH  27  28
ATOM     28  O   UNL A   1      43.650  38.644  29.694  1.00  0.00    -0.460 OA
BRANCH  28  29
ATOM     29  C   UNL A   1      44.799  37.961  29.775  1.00  0.00     0.338 C 
ATOM     30  O   UNL A   1      45.936  38.386  29.783  1.00  0.00    -0.246 OA
BRANCH  29  31
ATOM     31  C   UNL A   1      44.468  36.551  29.803  1.00  0.00     0.060 A 
ATOM     32  C   UNL A   1      43.129  36.237  29.567  1.00  0.00     0.016 A 
ATOM     33  C   UNL A   1      45.367  35.721  30.478  1.00  0.00     0.016 A 
ATOM     34  C   UNL A   1      42.615  35.157  30.225  1.00  0.00     0.010 A 
ATOM     35  C   UNL A   1      44.839  34.676  31.183  1.00  0.00     0.010 A 
ATOM     36  C   UNL A   1      43.462  34.445  31.083  1.00  0.00    -0.014 A 
BRANCH  36  37
ATOM     37  C   UNL A   1      42.889  33.316  31.794  1.00  0.00     0.031 A 
ATOM     38  C   UNL A   1      42.663  33.715  33.263  1.00  0.00     0.074 A 
ATOM     39  C   UNL A   1      42.725  32.195  31.023  1.00  0.00     0.049 A 
ATOM     40  N   UNL A   1      42.511  32.970  34.307  1.00  0.00    -0.248 NA
ATOM     41  C   UNL A   1      42.672  35.163  33.653  1.00  0.00     0.031 C 
ATOM     42  C   UNL A   1      43.038  32.085  29.571  1.00  0.00     0.029 A 
ATOM     43  N   UNL A   1      42.279  30.923  31.284  1.00  0.00    -0.354 N 
ATOM     44  C   UNL A   1      42.166  33.813  35.385  1.00  0.00     0.074 A 
ATOM     45  C   UNL A   1      42.396  35.153  34.958  1.00  0.00     0.031 C 
ATOM     46  C   UNL A   1      42.870  30.819  29.129  1.00  0.00     0.029 A 
ATOM     47  C   UNL A   1      42.393  29.989  30.216  1.00  0.00     0.049 A 
ATOM     48  H   UNL A   1      41.902  30.672  32.158  1.00  0.00     0.167 HD
ATOM     49  C   UNL A   1      41.589  33.346  36.526  1.00  0.00     0.037 A 
ATOM     50  C   UNL A   1      42.154  28.638  30.244  1.00  0.00     0.037 A 
ATOM     51  C   UNL A   1      41.488  31.927  36.462  1.00  0.00     0.049 A 
ATOM     52  C   UNL A   1      41.539  28.416  31.563  1.00  0.00     0.074 A 
ATOM     53  C   UNL A   1      42.458  30.962  36.545  1.00  0.00     0.029 A 
ATOM     54  N   UNL A   1      40.376  31.408  35.838  1.00  0.00    -0.354 N 
ATOM     55  N   UNL A   1      40.346  28.808  31.901  1.00  0.00    -0.248 NA
ATOM     56  C   UNL A   1      42.368  27.842  32.630  1.00  0.00     0.031 C 
ATOM     57  C   UNL A   1      42.091  30.055  35.533  1.00  0.00     0.029 A 
ATOM     58  C   UNL A   1      40.798  30.342  35.078  1.00  0.00     0.049 A 
ATOM     59  H   UNL A   1      39.453  31.739  35.920  1.00  0.00     0.167 HD
ATOM     60  C   UNL A   1      40.424  28.838  33.270  1.00  0.00     0.074 A 
ATOM     61  C   UNL A   1      41.515  27.959  33.641  1.00  0.00     0.031 C 
ATOM     62  C   UNL A   1      39.990  29.929  33.952  1.00  0.00     0.037 A 
BRANCH  49  63
ATOM     63  C   UNL A   1      40.921  34.043  37.668  1.00  0.00     0.058 A 
ATOM     64  C   UNL A   1      41.564  34.360  38.871  1.00  0.00     0.135 A 
ATOM     65  C   UNL A   1      39.703  34.713  37.405  1.00  0.00     0.135 A 
ATOM     66  F   UNL A   1      42.718  33.768  39.214  1.00  0.00    -0.206 F 
ATOM     67  C   UNL A   1      41.076  35.357  39.720  1.00  0.00     0.059 A 
ATOM     68  C   UNL A   1      39.220  35.732  38.214  1.00  0.00     0.059 A 
ATOM     69  F   UNL A   1      38.986  34.427  36.304  1.00  0.00    -0.206 F 
ATOM     70  C   UNL A   1      39.929  36.067  39.360  1.00  0.00     0.060 A 
BRANCH  70  71
ATOM     71  S   UNL A   1      39.416  37.483  40.353  1.00  0.00     0.124 S 
ATOM     72  O   UNL A   1      40.694  38.138  40.614  1.00  0.00    -0.237 OA
ATOM     73  O   UNL A   1      38.512  38.186  39.449  1.00  0.00    -0.237 OA
ATOM     74  O   UNL A   1      38.780  36.872  41.517  1.00  0.00    -0.744 OA
ENDBRANCH  70  71
ENDBRANCH  49  63
BRANCH  50  75
ATOM     75  C   UNL A   1      42.459  27.396  29.426  1.00  0.00     0.058 A 
ATOM     76  C   UNL A   1      43.820  27.070  29.150  1.00  0.00     0.135 A 
ATOM     77  C   UNL A   1      41.537  26.589  28.746  1.00  0.00     0.135 A 
ATOM     78  F   UNL A   1      44.831  27.595  29.858  1.00  0.00    -0.206 F 
ATOM     79  C   UNL A   1      44.229  26.237  28.115  1.00  0.00     0.059 A 
ATOM     80  C   UNL A   1      41.928  25.681  27.736  1.00  0.00     0.059 A 
ATOM     81  F   UNL A   1      40.228  26.657  29.020  1.00  0.00    -0.206 F 
ATOM     82  C   UNL A   1      43.269  25.586  27.369  1.00  0.00     0.060 A 
BRANCH  82  83
ATOM     83  S   UNL A   1      43.816  24.678  25.906  1.00  0.00     0.124 S 
ATOM     84  O   UNL A   1      44.302  25.765  25.059  1.00  0.00    -0.237 OA
ATOM     85  O   UNL A   1      44.846  23.792  26.441  1.00  0.00    -0.237 OA
ATOM     86  O   UNL A   1      42.601  24.016  25.445  1.00  0.00    -0.744 OA
ENDBRANCH  82  83
ENDBRANCH  50  75
BRANCH  62  87
ATOM     87  C   UNL A   1      38.919  30.753  33.257  1.00  0.00     0.058 A 
ATOM     88  C   UNL A   1      39.079  32.083  32.825  1.00  0.00     0.135 A 
ATOM     89  C   UNL A   1      37.680  30.165  32.959  1.00  0.00     0.135 A 
ATOM     90  F   UNL A   1      40.218  32.736  33.047  1.00  0.00    -0.206 F 
ATOM     91  C   UNL A   1      38.079  32.796  32.157  1.00  0.00     0.059 A 
ATOM     92  C   UNL A   1      36.661  30.852  32.289  1.00  0.00     0.059 A 
ATOM     93  F   UNL A   1      37.434  28.901  33.341  1.00  0.00    -0.206 F 
ATOM     94  C   UNL A   1      36.866  32.171  31.895  1.00  0.00     0.060 A 
BRANCH  94  95
ATOM     95  S   UNL A   1      35.549  33.122  31.097  1.00  0.00     0.124 S 
ATOM     96  O   UNL A   1      36.287  33.905  30.110  1.00  0.00    -0.237 OA
ATOM     97  O   UNL A   1      34.692  32.075  30.552  1.00  0.00    -0.237 OA
ATOM     98  O   UNL A   1      34.972  33.893  32.194  1.00  0.00    -0.744 OA
ENDBRANCH  94  95
ENDBRANCH  62  87
ENDBRANCH  36  37
ENDBRANCH  29  31
ENDBRANCH  28  29
ENDBRANCH  27  28
ENDBRANCH  26  27
ENDBRANCH  25  26
ENDBRANCH  24  25
ENDBRANCH   1  24
TORSDOF 25
ENDMDL
MODEL 3
REMARK VINA RESULT:      -8.4      7.405     11.919
REMARK SMILES O=C(Cc1ccn(-c2ccccc2F)c1)OCCOCCOCCOCCOC(=O)c1ccc(-c2c3nc(c(-c4c(F)cc(S(=O)(=O)[O-])cc4F)c4ccc([nH]4)c(-c4c(F)cc(S(=O)(=O)[O-])cc4F)c4nc(c(-c5c(F)cc(S(=O)(=O)[O-])cc5F)c5ccc2[nH]5)C=C4)C=C3)cc1
REMARK SMILES IDX 23 1 22 2 21 3 20 4 19 5 18 6 17 7 16 8 2 9 1 10 3 11 4 12
REMARK SMILES IDX 5 13 15 14 6 15 7 16 8 17 9 18 13 19 10 20 12 21 14 22 11 23
REMARK SMILES IDX 24 24 25 25 26 26 27 27 28 28 29 29 30 30 31 31 32 32 96 33
REMARK SMILES IDX 33 34 95 35 34 36 35 37 36 38 89 39 37 40 94 41 88 42 90 43
REMARK SMILES IDX 38 44 93 45 87 46 86 47 39 49 73 50 52 51 72 52 53 53 56 54
REMARK SMILES IDX 71 55 91 56 54 57 55 58 70 60 92 61 57 62 40 63 41 64 50 65
REMARK SMILES IDX 42 66 43 67 49 68 51 69 44 70 45 71 46 72 47 73 48 74 74 75
REMARK SMILES IDX 75 76 84 77 76 78 77 79 83 80 85 81 78 82 79 83 80 84 81 85
REMARK SMILES IDX 82 86 58 87 59 88 68 89 60 90 61 91 67 92 69 93 62 94 63 95
REMARK SMILES IDX 64 96 65 97 66 98
REMARK H PARENT 90 48 56 59
REMARK Flexibility Score: inf
ROOT
ATOM      1  C   UNL A   1      43.076  34.832  29.639  1.00  0.00     0.188 C 
ENDROOT
BRANCH   1   2
ATOM      2  O   UNL A   1      43.653  34.613  28.365  1.00  0.00    -0.377 OA
BRANCH   2   3
ATOM      3  C   UNL A   1      43.815  33.257  27.984  1.00  0.00     0.188 C 
BRANCH   3   4
ATOM      4  C   UNL A   1      44.280  32.999  26.552  1.00  0.00     0.188 C 
BRANCH   4   5
ATOM      5  O   UNL A   1      44.289  31.644  26.159  1.00  0.00    -0.376 OA
BRANCH   5   6
ATOM      6  C   UNL A   1      43.787  30.580  26.930  1.00  0.00     0.202 C 
BRANCH   6   7
ATOM      7  C   UNL A   1      43.089  29.412  26.251  1.00  0.00     0.261 C 
BRANCH   7   8
ATOM      8  O   UNL A   1      41.688  29.188  26.540  1.00  0.00    -0.463 OA
BRANCH   8   9
ATOM      9  C   UNL A   1      41.098  28.540  27.569  1.00  0.00     0.310 C 
ATOM     10  O   UNL A   1      40.866  27.334  27.457  1.00  0.00    -0.252 OA
BRANCH   9  11
ATOM     11  C   UNL A   1      40.639  29.297  28.803  1.00  0.00     0.159 C 
BRANCH  11  12
ATOM     12  C   UNL A   1      39.249  29.798  28.698  1.00  0.00    -0.019 A 
ATOM     13  C   UNL A   1      38.192  29.337  27.863  1.00  0.00     0.024 A 
ATOM     14  C   UNL A   1      38.751  30.863  29.404  1.00  0.00     0.095 A 
ATOM     15  C   UNL A   1      37.098  30.149  28.092  1.00  0.00     0.091 A 
ATOM     16  N   UNL A   1      37.475  31.116  28.987  1.00  0.00    -0.321 N 
BRANCH  16  17
ATOM     17  C   UNL A   1      36.710  32.112  29.592  1.00  0.00     0.081 A 
ATOM     18  C   UNL A   1      36.541  33.308  28.893  1.00  0.00     0.030 A 
ATOM     19  C   UNL A   1      35.822  31.731  30.599  1.00  0.00     0.147 A 
ATOM     20  C   UNL A   1      35.447  34.111  29.203  1.00  0.00     0.002 A 
ATOM     21  C   UNL A   1      34.751  32.548  30.926  1.00  0.00     0.041 A 
ATOM     22  F   UNL A   1      35.957  30.550  31.220  1.00  0.00    -0.205 F 
ATOM     23  C   UNL A   1      34.553  33.730  30.213  1.00  0.00     0.003 A 
ENDBRANCH  16  17
ENDBRANCH  11  12
ENDBRANCH   9  11
ENDBRANCH   8   9
ENDBRANCH   7   8
ENDBRANCH   6   7
ENDBRANCH   5   6
ENDBRANCH   4   5
ENDBRANCH   3   4
ENDBRANCH   2   3
ENDBRANCH   1   2
BRANCH   1  24
ATOM     24  C   UNL A   1      41.616  34.353  29.758  1.00  0.00     0.188 C 
BRANCH  24  25
ATOM     25  O   UNL A   1      41.089  33.885  30.987  1.00  0.00    -0.376 OA
BRANCH  25  26
ATOM     26  C   UNL A   1      39.787  34.098  31.508  1.00  0.00     0.202 C 
BRANCH  26  27
ATOM     27  C   UNL A   1      39.087  33.385  32.670  1.00  0.00     0.261 C 
BRANCH  27  28
ATOM     28  O   UNL A   1      38.664  32.070  32.449  1.00  0.00    -0.460 OA
BRANCH  28  29
ATOM     29  C   UNL A   1      38.391  31.442  33.600  1.00  0.00     0.338 C 
ATOM     30  O   UNL A   1      37.511  31.676  34.403  1.00  0.00    -0.246 OA
BRANCH  29  31
ATOM     31  C   UNL A   1      39.391  30.409  33.781  1.00  0.00     0.060 A 
ATOM     32  C   UNL A   1      40.456  30.737  34.619  1.00  0.00     0.016 A 
ATOM     33  C   UNL A   1      39.433  29.414  32.801  1.00  0.00     0.016 A 
ATOM     34  C   UNL A   1      41.677  30.207  34.315  1.00  0.00     0.010 A 
ATOM     35  C   UNL A   1      40.665  28.931  32.459  1.00  0.00     0.010 A 
ATOM     36  C   UNL A   1      41.772  29.377  33.191  1.00  0.00    -0.014 A 
BRANCH  36  37
ATOM     37  C   UNL A   1      43.085  28.846  32.868  1.00  0.00     0.031 A 
ATOM     38  C   UNL A   1      43.402  27.684  33.825  1.00  0.00     0.074 A 
ATOM     39  C   UNL A   1      43.718  29.505  31.847  1.00  0.00     0.049 A 
ATOM     40  N   UNL A   1      44.539  27.159  34.138  1.00  0.00    -0.248 NA
ATOM     41  C   UNL A   1      42.298  27.043  34.613  1.00  0.00     0.031 C 
ATOM     42  C   UNL A   1      43.155  30.639  31.063  1.00  0.00     0.029 A 
ATOM     43  N   UNL A   1      44.953  29.379  31.260  1.00  0.00    -0.354 N 
ATOM     44  C   UNL A   1      44.279  26.015  34.923  1.00  0.00     0.074 A 
ATOM     45  C   UNL A   1      42.900  26.059  35.281  1.00  0.00     0.031 C 
ATOM     46  C   UNL A   1      44.069  31.141  30.202  1.00  0.00     0.029 A 
ATOM     47  C   UNL A   1      45.292  30.371  30.297  1.00  0.00     0.049 A 
ATOM     48  H   UNL A   1      45.568  28.646  31.492  1.00  0.00     0.167 HD
ATOM     49  C   UNL A   1      45.202  25.034  35.118  1.00  0.00     0.037 A 
ATOM     50  C   UNL A   1      46.496  30.562  29.667  1.00  0.00     0.037 A 
ATOM     51  C   UNL A   1      46.428  25.403  34.494  1.00  0.00     0.049 A 
ATOM     52  C   UNL A   1      47.283  29.376  30.044  1.00  0.00     0.074 A 
ATOM     53  C   UNL A   1      47.350  26.356  34.841  1.00  0.00     0.029 A 
ATOM     54  N   UNL A   1      46.567  25.093  33.161  1.00  0.00    -0.354 N 
ATOM     55  N   UNL A   1      47.056  28.169  29.617  1.00  0.00    -0.248 NA
ATOM     56  C   UNL A   1      48.309  29.523  31.083  1.00  0.00     0.031 C 
ATOM     57  C   UNL A   1      47.677  26.946  33.606  1.00  0.00     0.029 A 
ATOM     58  C   UNL A   1      47.174  26.168  32.555  1.00  0.00     0.049 A 
ATOM     59  H   UNL A   1      46.285  24.257  32.723  1.00  0.00     0.167 HD
ATOM     60  C   UNL A   1      47.663  27.400  30.577  1.00  0.00     0.074 A 
ATOM     61  C   UNL A   1      48.646  28.246  31.224  1.00  0.00     0.031 C 
ATOM     62  C   UNL A   1      46.997  26.355  31.133  1.00  0.00     0.037 A 
BRANCH  49  63
ATOM     63  C   UNL A   1      45.091  23.651  35.677  1.00  0.00     0.058 A 
ATOM     64  C   UNL A   1      44.968  22.500  34.887  1.00  0.00     0.135 A 
ATOM     65  C   UNL A   1      45.465  23.456  37.027  1.00  0.00     0.135 A 
ATOM     66  F   UNL A   1      44.606  22.582  33.598  1.00  0.00    -0.206 F 
ATOM     67  C   UNL A   1      45.293  21.235  35.384  1.00  0.00     0.059 A 
ATOM     68  C   UNL A   1      45.827  22.215  37.530  1.00  0.00     0.059 A 
ATOM     69  F   UNL A   1      45.547  24.497  37.874  1.00  0.00    -0.206 F 
ATOM     70  C   UNL A   1      45.763  21.110  36.692  1.00  0.00     0.060 A 
BRANCH  70  71
ATOM     71  S   UNL A   1      46.371  19.510  37.265  1.00  0.00     0.124 S 
ATOM     72  O   UNL A   1      45.715  18.596  36.336  1.00  0.00    -0.237 OA
ATOM     73  O   UNL A   1      47.814  19.651  37.110  1.00  0.00    -0.237 OA
ATOM     74  O   UNL A   1      45.898  19.440  38.646  1.00  0.00    -0.744 OA
ENDBRANCH  70  71
ENDBRANCH  49  63
BRANCH  50  75
ATOM     75  C   UNL A   1      47.229  31.635  28.882  1.00  0.00     0.058 A 
ATOM     76  C   UNL A   1      47.195  32.980  29.357  1.00  0.00     0.135 A 
ATOM     77  C   UNL A   1      47.820  31.498  27.620  1.00  0.00     0.135 A 
ATOM     78  F   UNL A   1      46.854  33.276  30.620  1.00  0.00    -0.206 F 
ATOM     79  C   UNL A   1      47.455  34.094  28.567  1.00  0.00     0.059 A 
ATOM     80  C   UNL A   1      48.161  32.612  26.820  1.00  0.00     0.059 A 
ATOM     81  F   UNL A   1      48.077  30.288  27.107  1.00  0.00    -0.206 F 
ATOM     82  C   UNL A   1      47.885  33.901  27.271  1.00  0.00     0.060 A 
BRANCH  82  83
ATOM     83  S   UNL A   1      48.015  35.354  26.206  1.00  0.00     0.124 S 
ATOM     84  O   UNL A   1      46.834  36.113  26.609  1.00  0.00    -0.237 OA
ATOM     85  O   UNL A   1      49.297  35.931  26.601  1.00  0.00    -0.237 OA
ATOM     86  O   UNL A   1      47.973  34.792  24.860  1.00  0.00    -0.744 OA
ENDBRANCH  82  83
ENDBRANCH  50  75
BRANCH  62  87
ATOM     87  C   UNL A   1      45.915  25.732  30.266  1.00  0.00     0.058 A 
ATOM     88  C   UNL A   1      46.150  24.969  29.108  1.00  0.00     0.135 A 
ATOM     89  C   UNL A   1      44.569  25.861  30.644  1.00  0.00     0.135 A 
ATOM     90  F   UNL A   1      47.390  24.775  28.664  1.00  0.00    -0.206 F 
ATOM     91  C   UNL A   1      45.127  24.383  28.357  1.00  0.00     0.059 A 
ATOM     92  C   UNL A   1      43.523  25.283  29.914  1.00  0.00     0.059 A 
ATOM     93  F   UNL A   1      44.248  26.579  31.732  1.00  0.00    -0.206 F 
ATOM     94  C   UNL A   1      43.809  24.548  28.767  1.00  0.00     0.060 A 
BRANCH  94  95
ATOM     95  S   UNL A   1      42.485  23.851  27.751  1.00  0.00     0.124 S 
ATOM     96  O   UNL A   1      42.663  24.556  26.484  1.00  0.00    -0.237 OA
ATOM     97  O   UNL A   1      42.819  22.431  27.730  1.00  0.00    -0.237 OA
ATOM     98  O   UNL A   1      41.272  24.196  28.487  1.00  0.00    -0.744 OA
ENDBRANCH  94  95
ENDBRANCH  62  87
ENDBRANCH  36  37
ENDBRANCH  29  31
ENDBRANCH  28  29
ENDBRANCH  27  28
ENDBRANCH  26  27
ENDBRANCH  25  26
ENDBRANCH  24  25
ENDBRANCH   1  24
TORSDOF 25
ENDMDL
