MODEL 1
REMARK VINA RESULT:      -9.8      0.000      0.000
REMARK SMILES Cc1cc(C(=O)N[C@H](CC(C)C)C(=O)OCCOCCOCCOCCOC(=O)c2ccc(-c3c4nc(c(-c5c(F)cc(S(=O)(=O)[O-])cc5F)c5ccc([nH]5)c(-c5c(F)cc(S(=O)(=O)[O-])cc5F)c5nc(c(-c6c(F)cc(S(=O)(=O)[O-])cc6F)c6ccc3[nH]6)C=C5)C=C4)cc2)sc1Br
REMARK SMILES IDX 22 1 21 2 20 3 19 4 18 5 17 6 16 7 15 8 13 9 14 10 8 11 7 12
REMARK SMILES IDX 5 13 6 14 4 16 1 17 2 18 3 19 97 20 96 21 98 22 9 23 10 24
REMARK SMILES IDX 11 25 12 26 23 27 24 28 25 29 26 30 27 31 28 32 29 33 30 34
REMARK SMILES IDX 31 35 95 36 32 37 94 38 33 39 34 40 35 41 88 42 36 43 93 44
REMARK SMILES IDX 87 45 89 46 37 47 92 48 86 49 85 50 38 52 72 53 51 54 71 55
REMARK SMILES IDX 52 56 55 57 70 58 90 59 53 60 54 61 69 63 91 64 56 65 39 66
REMARK SMILES IDX 40 67 49 68 41 69 42 70 48 71 50 72 43 73 44 74 45 75 46 76
REMARK SMILES IDX 47 77 73 78 74 79 83 80 75 81 76 82 82 83 84 84 77 85 78 86
REMARK SMILES IDX 79 87 80 88 81 89 57 90 58 91 67 92 59 93 60 94 66 95 68 96
REMARK SMILES IDX 61 97 62 98 63 99 64 100 65 101
REMARK H PARENT 7 15 89 51 55 62
REMARK Flexibility Score: inf
ROOT
ATOM      1  C   UNL A   1      34.120  33.185  28.258  1.00  0.00     0.188 C 
ENDROOT
BRANCH   1   2
ATOM      2  O   UNL A   1      34.918  32.241  27.542  1.00  0.00    -0.377 OA
BRANCH   2   3
ATOM      3  C   UNL A   1      34.693  30.858  27.756  1.00  0.00     0.188 C 
BRANCH   3   4
ATOM      4  C   UNL A   1      33.420  30.315  27.089  1.00  0.00     0.188 C 
BRANCH   4   5
ATOM      5  O   UNL A   1      33.624  29.073  26.423  1.00  0.00    -0.376 OA
BRANCH   5   6
ATOM      6  C   UNL A   1      32.781  28.805  25.316  1.00  0.00     0.202 C 
BRANCH   6   7
ATOM      7  C   UNL A   1      33.360  27.980  24.159  1.00  0.00     0.261 C 
BRANCH   7   8
ATOM      8  O   UNL A   1      33.052  26.577  24.003  1.00  0.00    -0.462 OA
BRANCH   8   9
ATOM      9  C   UNL A   1      33.514  25.806  23.001  1.00  0.00     0.328 C 
ATOM     10  O   UNL A   1      33.897  26.169  21.897  1.00  0.00    -0.250 OA
BRANCH   9  11
ATOM     11  C   UNL A   1      33.451  24.332  23.336  1.00  0.00     0.192 C 
BRANCH  11  12
ATOM     12  N   UNL A   1      32.199  23.982  24.022  1.00  0.00    -0.338 N 
ATOM     13  C   UNL A   1      31.979  22.957  24.931  1.00  0.00     0.262 C 
ATOM     14  O   UNL A   1      31.405  23.281  25.973  1.00  0.00    -0.268 OA
ATOM     15  H   UNL A   1      31.420  24.545  23.809  1.00  0.00     0.164 HD
BRANCH  13  16
ATOM     16  C   UNL A   1      32.197  21.557  24.567  1.00  0.00     0.093 A 
ATOM     17  C   UNL A   1      32.309  18.462  22.373  1.00  0.00     0.046 C 
ATOM     18  C   UNL A   1      32.414  19.447  23.499  1.00  0.00    -0.025 A 
ATOM     19  C   UNL A   1      32.292  20.882  23.359  1.00  0.00     0.030 A 
ATOM     20  C   UNL A   1      32.645  19.139  24.819  1.00  0.00     0.074 A 
ATOM     21  S   UNL A   1      32.553  20.472  25.859  1.00  0.00    -0.123 S 
ATOM     22  Br  UNL A   1      33.029  17.411  25.454  1.00  0.00    -0.039 Br
ENDBRANCH  13  16
ENDBRANCH  11  12
BRANCH  11  23
ATOM     23  C   UNL A   1      34.721  23.954  24.142  1.00  0.00     0.040 C 
BRANCH  23  24
ATOM     24  C   UNL A   1      35.553  22.758  23.620  1.00  0.00    -0.015 C 
ATOM     25  C   UNL A   1      36.946  23.153  23.119  1.00  0.00     0.007 C 
ATOM     26  C   UNL A   1      35.727  21.729  24.750  1.00  0.00     0.007 C 
ENDBRANCH  23  24
ENDBRANCH  11  23
ENDBRANCH   9  11
ENDBRANCH   8   9
ENDBRANCH   7   8
ENDBRANCH   6   7
ENDBRANCH   5   6
ENDBRANCH   4   5
ENDBRANCH   3   4
ENDBRANCH   2   3
ENDBRANCH   1   2
BRANCH   1  27
ATOM     27  C   UNL A   1      34.633  34.598  28.641  1.00  0.00     0.188 C 
BRANCH  27  28
ATOM     28  O   UNL A   1      33.641  35.524  29.070  1.00  0.00    -0.376 OA
BRANCH  28  29
ATOM     29  C   UNL A   1      33.617  36.043  30.386  1.00  0.00     0.202 C 
BRANCH  29  30
ATOM     30  C   UNL A   1      33.699  35.005  31.504  1.00  0.00     0.261 C 
BRANCH  30  31
ATOM     31  O   UNL A   1      34.874  35.130  32.285  1.00  0.00    -0.460 OA
BRANCH  31  32
ATOM     32  C   UNL A   1      35.356  33.979  32.771  1.00  0.00     0.338 C 
ATOM     33  O   UNL A   1      35.291  33.571  33.934  1.00  0.00    -0.246 OA
BRANCH  32  34
ATOM     34  C   UNL A   1      36.022  33.250  31.703  1.00  0.00     0.060 A 
ATOM     35  C   UNL A   1      35.724  31.892  31.629  1.00  0.00     0.016 A 
ATOM     36  C   UNL A   1      37.135  33.830  31.072  1.00  0.00     0.016 A 
ATOM     37  C   UNL A   1      36.735  31.062  31.239  1.00  0.00     0.010 A 
ATOM     38  C   UNL A   1      38.142  32.999  30.672  1.00  0.00     0.010 A 
ATOM     39  C   UNL A   1      37.965  31.641  30.904  1.00  0.00    -0.014 A 
BRANCH  39  40
ATOM     40  C   UNL A   1      39.106  30.767  30.935  1.00  0.00     0.031 A 
ATOM     41  C   UNL A   1      39.739  30.693  32.253  1.00  0.00     0.074 A 
ATOM     42  C   UNL A   1      39.506  30.113  29.831  1.00  0.00     0.049 A 
ATOM     43  N   UNL A   1      40.884  31.168  32.606  1.00  0.00    -0.248 NA
ATOM     44  C   UNL A   1      38.911  30.188  33.356  1.00  0.00     0.031 C 
ATOM     45  C   UNL A   1      38.776  29.945  28.569  1.00  0.00     0.029 A 
ATOM     46  N   UNL A   1      40.623  29.365  29.648  1.00  0.00    -0.354 N 
ATOM     47  C   UNL A   1      41.024  30.796  33.932  1.00  0.00     0.074 A 
ATOM     48  C   UNL A   1      39.721  30.392  34.393  1.00  0.00     0.031 C 
ATOM     49  C   UNL A   1      39.368  28.971  27.845  1.00  0.00     0.029 A 
ATOM     50  C   UNL A   1      40.577  28.547  28.531  1.00  0.00     0.049 A 
ATOM     51  H   UNL A   1      41.398  29.401  30.255  1.00  0.00     0.167 HD
ATOM     52  C   UNL A   1      42.252  30.560  34.460  1.00  0.00     0.037 A 
ATOM     53  C   UNL A   1      41.431  27.535  28.252  1.00  0.00     0.037 A 
ATOM     54  C   UNL A   1      43.298  31.159  33.671  1.00  0.00     0.049 A 
ATOM     55  C   UNL A   1      42.674  27.773  29.032  1.00  0.00     0.074 A 
ATOM     56  C   UNL A   1      43.635  32.452  33.324  1.00  0.00     0.029 A 
ATOM     57  N   UNL A   1      43.976  30.332  32.809  1.00  0.00    -0.354 N 
ATOM     58  N   UNL A   1      43.497  28.763  28.813  1.00  0.00    -0.248 NA
ATOM     59  C   UNL A   1      42.828  27.121  30.325  1.00  0.00     0.031 C 
ATOM     60  C   UNL A   1      44.236  32.364  32.036  1.00  0.00     0.029 A 
ATOM     61  C   UNL A   1      44.251  31.021  31.653  1.00  0.00     0.049 A 
ATOM     62  H   UNL A   1      44.225  29.398  32.989  1.00  0.00     0.167 HD
ATOM     63  C   UNL A   1      43.976  29.116  30.066  1.00  0.00     0.074 A 
ATOM     64  C   UNL A   1      43.651  27.986  30.924  1.00  0.00     0.031 C 
ATOM     65  C   UNL A   1      44.331  30.404  30.343  1.00  0.00     0.037 A 
BRANCH  52  66
ATOM     66  C   UNL A   1      42.502  29.447  35.441  1.00  0.00     0.058 A 
ATOM     67  C   UNL A   1      43.333  29.681  36.549  1.00  0.00     0.135 A 
ATOM     68  C   UNL A   1      42.185  28.091  35.182  1.00  0.00     0.135 A 
ATOM     69  F   UNL A   1      43.710  30.930  36.866  1.00  0.00    -0.206 F 
ATOM     70  C   UNL A   1      43.864  28.639  37.308  1.00  0.00     0.059 A 
ATOM     71  C   UNL A   1      42.648  27.045  35.963  1.00  0.00     0.059 A 
ATOM     72  F   UNL A   1      41.501  27.707  34.097  1.00  0.00    -0.206 F 
ATOM     73  C   UNL A   1      43.527  27.324  36.993  1.00  0.00     0.060 A 
BRANCH  73  74
ATOM     74  S   UNL A   1      44.311  25.966  37.876  1.00  0.00     0.124 S 
ATOM     75  O   UNL A   1      43.595  24.820  37.329  1.00  0.00    -0.237 OA
ATOM     76  O   UNL A   1      45.706  26.105  37.473  1.00  0.00    -0.237 OA
ATOM     77  O   UNL A   1      44.036  26.276  39.276  1.00  0.00    -0.744 OA
ENDBRANCH  73  74
ENDBRANCH  52  66
BRANCH  53  78
ATOM     78  C   UNL A   1      41.111  26.238  27.607  1.00  0.00     0.058 A 
ATOM     79  C   UNL A   1      42.033  25.604  26.760  1.00  0.00     0.135 A 
ATOM     80  C   UNL A   1      40.003  25.464  28.013  1.00  0.00     0.135 A 
ATOM     81  F   UNL A   1      43.129  26.260  26.346  1.00  0.00    -0.206 F 
ATOM     82  C   UNL A   1      41.894  24.268  26.376  1.00  0.00     0.059 A 
ATOM     83  C   UNL A   1      39.833  24.136  27.629  1.00  0.00     0.059 A 
ATOM     84  F   UNL A   1      39.095  25.945  28.876  1.00  0.00    -0.206 F 
ATOM     85  C   UNL A   1      40.797  23.536  26.833  1.00  0.00     0.060 A 
BRANCH  85  86
ATOM     86  S   UNL A   1      40.706  21.765  26.488  1.00  0.00     0.124 S 
ATOM     87  O   UNL A   1      39.389  21.646  25.871  1.00  0.00    -0.237 OA
ATOM     88  O   UNL A   1      41.847  21.566  25.602  1.00  0.00    -0.237 OA
ATOM     89  O   UNL A   1      40.833  21.156  27.810  1.00  0.00    -0.744 OA
ENDBRANCH  85  86
ENDBRANCH  53  78
BRANCH  65  90
ATOM     90  C   UNL A   1      44.603  31.312  29.172  1.00  0.00     0.058 A 
ATOM     91  C   UNL A   1      45.789  31.297  28.419  1.00  0.00     0.135 A 
ATOM     92  C   UNL A   1      43.571  32.153  28.728  1.00  0.00     0.135 A 
ATOM     93  F   UNL A   1      46.785  30.449  28.720  1.00  0.00    -0.206 F 
ATOM     94  C   UNL A   1      45.960  32.116  27.302  1.00  0.00     0.059 A 
ATOM     95  C   UNL A   1      43.707  32.956  27.598  1.00  0.00     0.059 A 
ATOM     96  F   UNL A   1      42.391  32.165  29.370  1.00  0.00    -0.206 F 
ATOM     97  C   UNL A   1      44.911  32.943  26.899  1.00  0.00     0.060 A 
BRANCH  97  98
ATOM     98  S   UNL A   1      45.101  33.941  25.403  1.00  0.00     0.124 S 
ATOM     99  O   UNL A   1      44.620  33.034  24.367  1.00  0.00    -0.237 OA
ATOM    100  O   UNL A   1      44.251  35.096  25.680  1.00  0.00    -0.237 OA
ATOM    101  O   UNL A   1      46.532  34.229  25.366  1.00  0.00    -0.744 OA
ENDBRANCH  97  98
ENDBRANCH  65  90
ENDBRANCH  39  40
ENDBRANCH  32  34
ENDBRANCH  31  32
ENDBRANCH  30  31
ENDBRANCH  29  30
ENDBRANCH  28  29
ENDBRANCH  27  28
ENDBRANCH   1  27
TORSDOF 27
ENDMDL
MODEL 2
REMARK VINA RESULT:      -9.2      2.960     10.086
REMARK SMILES Cc1cc(C(=O)N[C@H](CC(C)C)C(=O)OCCOCCOCCOCCOC(=O)c2ccc(-c3c4nc(c(-c5c(F)cc(S(=O)(=O)[O-])cc5F)c5ccc([nH]5)c(-c5c(F)cc(S(=O)(=O)[O-])cc5F)c5nc(c(-c6c(F)cc(S(=O)(=O)[O-])cc6F)c6ccc3[nH]6)C=C5)C=C4)cc2)sc1Br
REMARK SMILES IDX 22 1 21 2 20 3 19 4 18 5 17 6 16 7 15 8 13 9 14 10 8 11 7 12
REMARK SMILES IDX 5 13 6 14 4 16 1 17 2 18 3 19 97 20 96 21 98 22 9 23 10 24
REMARK SMILES IDX 11 25 12 26 23 27 24 28 25 29 26 30 27 31 28 32 29 33 30 34
REMARK SMILES IDX 31 35 95 36 32 37 94 38 33 39 34 40 35 41 88 42 36 43 93 44
REMARK SMILES IDX 87 45 89 46 37 47 92 48 86 49 85 50 38 52 72 53 51 54 71 55
REMARK SMILES IDX 52 56 55 57 70 58 90 59 53 60 54 61 69 63 91 64 56 65 39 66
REMARK SMILES IDX 40 67 49 68 41 69 42 70 48 71 50 72 43 73 44 74 45 75 46 76
REMARK SMILES IDX 47 77 73 78 74 79 83 80 75 81 76 82 82 83 84 84 77 85 78 86
REMARK SMILES IDX 79 87 80 88 81 89 57 90 58 91 67 92 59 93 60 94 66 95 68 96
REMARK SMILES IDX 61 97 62 98 63 99 64 100 65 101
REMARK H PARENT 7 15 89 51 55 62
REMARK Flexibility Score: inf
ROOT
ATOM      1  C   UNL A   1      45.027  19.062  24.586  1.00  0.00     0.188 C 
ENDROOT
BRANCH   1   2
ATOM      2  O   UNL A   1      43.658  19.220  24.958  1.00  0.00    -0.377 OA
BRANCH   2   3
ATOM      3  C   UNL A   1      43.188  18.562  26.123  1.00  0.00     0.188 C 
BRANCH   3   4
ATOM      4  C   UNL A   1      41.833  19.075  26.634  1.00  0.00     0.188 C 
BRANCH   4   5
ATOM      5  O   UNL A   1      40.892  19.304  25.589  1.00  0.00    -0.376 OA
BRANCH   5   6
ATOM      6  C   UNL A   1      39.557  19.562  25.988  1.00  0.00     0.202 C 
BRANCH   6   7
ATOM      7  C   UNL A   1      38.788  20.662  25.245  1.00  0.00     0.261 C 
BRANCH   7   8
ATOM      8  O   UNL A   1      37.382  20.529  24.944  1.00  0.00    -0.462 OA
BRANCH   8   9
ATOM      9  C   UNL A   1      36.610  21.525  24.470  1.00  0.00     0.328 C 
ATOM     10  O   UNL A   1      36.952  22.457  23.755  1.00  0.00    -0.250 OA
BRANCH   9  11
ATOM     11  C   UNL A   1      35.191  21.445  24.986  1.00  0.00     0.192 C 
BRANCH  11  12
ATOM     12  N   UNL A   1      35.085  21.929  26.370  1.00  0.00    -0.338 N 
ATOM     13  C   UNL A   1      33.977  22.469  27.006  1.00  0.00     0.262 C 
ATOM     14  O   UNL A   1      33.705  21.988  28.108  1.00  0.00    -0.268 OA
ATOM     15  H   UNL A   1      35.904  21.862  26.913  1.00  0.00     0.164 HD
BRANCH  13  16
ATOM     16  C   UNL A   1      33.331  23.685  26.509  1.00  0.00     0.093 A 
ATOM     17  C   UNL A   1      30.514  26.057  25.591  1.00  0.00     0.046 C 
ATOM     18  C   UNL A   1      31.845  25.415  25.849  1.00  0.00    -0.025 A 
ATOM     19  C   UNL A   1      32.046  24.198  26.604  1.00  0.00     0.030 A 
ATOM     20  C   UNL A   1      33.063  25.885  25.415  1.00  0.00     0.074 A 
ATOM     21  S   UNL A   1      34.355  24.843  25.745  1.00  0.00    -0.123 S 
ATOM     22  Br  UNL A   1      33.312  27.526  24.531  1.00  0.00    -0.039 Br
ENDBRANCH  13  16
ENDBRANCH  11  12
BRANCH  11  23
ATOM     23  C   UNL A   1      34.678  19.993  24.802  1.00  0.00     0.040 C 
BRANCH  23  24
ATOM     24  C   UNL A   1      33.146  19.782  24.820  1.00  0.00    -0.015 C 
ATOM     25  C   UNL A   1      32.548  19.509  23.436  1.00  0.00     0.007 C 
ATOM     26  C   UNL A   1      32.809  18.587  25.728  1.00  0.00     0.007 C 
ENDBRANCH  23  24
ENDBRANCH  11  23
ENDBRANCH   9  11
ENDBRANCH   8   9
ENDBRANCH   7   8
ENDBRANCH   6   7
ENDBRANCH   5   6
ENDBRANCH   4   5
ENDBRANCH   3   4
ENDBRANCH   2   3
ENDBRANCH   1   2
BRANCH   1  27
ATOM     27  C   UNL A   1      46.126  20.087  24.974  1.00  0.00     0.188 C 
BRANCH  27  28
ATOM     28  O   UNL A   1      45.670  21.279  25.602  1.00  0.00    -0.376 OA
BRANCH  28  29
ATOM     29  C   UNL A   1      45.652  22.524  24.928  1.00  0.00     0.202 C 
BRANCH  29  30
ATOM     30  C   UNL A   1      44.921  23.653  25.652  1.00  0.00     0.261 C 
BRANCH  30  31
ATOM     31  O   UNL A   1      43.664  23.955  25.072  1.00  0.00    -0.460 OA
BRANCH  31  32
ATOM     32  C   UNL A   1      42.638  23.230  25.535  1.00  0.00     0.338 C 
ATOM     33  O   UNL A   1      42.318  22.087  25.200  1.00  0.00    -0.246 OA
BRANCH  32  34
ATOM     34  C   UNL A   1      41.900  24.015  26.512  1.00  0.00     0.060 A 
ATOM     35  C   UNL A   1      41.168  25.080  25.994  1.00  0.00     0.016 A 
ATOM     36  C   UNL A   1      42.231  23.898  27.873  1.00  0.00     0.016 A 
ATOM     37  C   UNL A   1      41.087  26.203  26.765  1.00  0.00     0.010 A 
ATOM     38  C   UNL A   1      42.140  25.019  28.647  1.00  0.00     0.010 A 
ATOM     39  C   UNL A   1      41.703  26.179  28.022  1.00  0.00    -0.014 A 
BRANCH  39  40
ATOM     40  C   UNL A   1      41.994  27.459  28.609  1.00  0.00     0.031 A 
ATOM     41  C   UNL A   1      43.253  28.037  28.137  1.00  0.00     0.074 A 
ATOM     42  C   UNL A   1      41.156  28.018  29.499  1.00  0.00     0.049 A 
ATOM     43  N   UNL A   1      44.348  28.189  28.799  1.00  0.00    -0.248 NA
ATOM     44  C   UNL A   1      43.358  28.307  26.697  1.00  0.00     0.031 C 
ATOM     45  C   UNL A   1      39.778  27.620  29.813  1.00  0.00     0.029 A 
ATOM     46  N   UNL A   1      41.335  29.139  30.243  1.00  0.00    -0.354 N 
ATOM     47  C   UNL A   1      45.211  28.811  27.912  1.00  0.00     0.074 A 
ATOM     48  C   UNL A   1      44.635  28.669  26.600  1.00  0.00     0.031 C 
ATOM     49  C   UNL A   1      39.182  28.611  30.509  1.00  0.00     0.029 A 
ATOM     50  C   UNL A   1      40.168  29.641  30.795  1.00  0.00     0.049 A 
ATOM     51  H   UNL A   1      42.216  29.558  30.378  1.00  0.00     0.167 HD
ATOM     52  C   UNL A   1      46.174  29.656  28.360  1.00  0.00     0.037 A 
ATOM     53  C   UNL A   1      40.018  30.860  31.362  1.00  0.00     0.037 A 
ATOM     54  C   UNL A   1      46.456  29.455  29.758  1.00  0.00     0.049 A 
ATOM     55  C   UNL A   1      41.371  31.339  31.752  1.00  0.00     0.074 A 
ATOM     56  C   UNL A   1      46.948  28.408  30.510  1.00  0.00     0.029 A 
ATOM     57  N   UNL A   1      45.872  30.331  30.641  1.00  0.00    -0.354 N 
ATOM     58  N   UNL A   1      42.098  30.796  32.690  1.00  0.00    -0.248 NA
ATOM     59  C   UNL A   1      42.099  32.208  30.836  1.00  0.00     0.031 C 
ATOM     60  C   UNL A   1      46.333  28.525  31.789  1.00  0.00     0.029 A 
ATOM     61  C   UNL A   1      45.499  29.645  31.770  1.00  0.00     0.049 A 
ATOM     62  H   UNL A   1      45.743  31.295  30.489  1.00  0.00     0.167 HD
ATOM     63  C   UNL A   1      43.406  30.919  32.247  1.00  0.00     0.074 A 
ATOM     64  C   UNL A   1      43.354  31.918  31.190  1.00  0.00     0.031 C 
ATOM     65  C   UNL A   1      44.350  29.992  32.585  1.00  0.00     0.037 A 
BRANCH  52  66
ATOM     66  C   UNL A   1      46.538  30.917  27.624  1.00  0.00     0.058 A 
ATOM     67  C   UNL A   1      47.880  31.147  27.275  1.00  0.00     0.135 A 
ATOM     68  C   UNL A   1      45.669  32.029  27.502  1.00  0.00     0.135 A 
ATOM     69  F   UNL A   1      48.788  30.164  27.377  1.00  0.00    -0.206 F 
ATOM     70  C   UNL A   1      48.338  32.406  26.891  1.00  0.00     0.059 A 
ATOM     71  C   UNL A   1      46.092  33.272  27.061  1.00  0.00     0.059 A 
ATOM     72  F   UNL A   1      44.394  31.992  27.908  1.00  0.00    -0.206 F 
ATOM     73  C   UNL A   1      47.437  33.465  26.806  1.00  0.00     0.060 A 
BRANCH  73  74
ATOM     74  S   UNL A   1      48.038  35.122  26.447  1.00  0.00     0.124 S 
ATOM     75  O   UNL A   1      46.816  35.905  26.589  1.00  0.00    -0.237 OA
ATOM     76  O   UNL A   1      49.048  35.311  27.482  1.00  0.00    -0.237 OA
ATOM     77  O   UNL A   1      48.558  35.001  25.088  1.00  0.00    -0.744 OA
ENDBRANCH  73  74
ENDBRANCH  52  66
BRANCH  53  78
ATOM     78  C   UNL A   1      38.829  31.745  31.297  1.00  0.00     0.058 A 
ATOM     79  C   UNL A   1      38.059  31.837  30.127  1.00  0.00     0.135 A 
ATOM     80  C   UNL A   1      38.270  32.318  32.459  1.00  0.00     0.135 A 
ATOM     81  F   UNL A   1      38.505  31.297  28.983  1.00  0.00    -0.206 F 
ATOM     82  C   UNL A   1      36.788  32.418  30.118  1.00  0.00     0.059 A 
ATOM     83  C   UNL A   1      37.014  32.918  32.470  1.00  0.00     0.059 A 
ATOM     84  F   UNL A   1      38.887  32.229  33.647  1.00  0.00    -0.206 F 
ATOM     85  C   UNL A   1      36.266  32.940  31.302  1.00  0.00     0.060 A 
BRANCH  85  86
ATOM     86  S   UNL A   1      34.558  33.528  31.335  1.00  0.00     0.124 S 
ATOM     87  O   UNL A   1      34.130  33.288  29.961  1.00  0.00    -0.237 OA
ATOM     88  O   UNL A   1      33.958  32.671  32.351  1.00  0.00    -0.237 OA
ATOM     89  O   UNL A   1      34.693  34.934  31.711  1.00  0.00    -0.744 OA
ENDBRANCH  85  86
ENDBRANCH  53  78
BRANCH  65  90
ATOM     90  C   UNL A   1      44.057  29.110  33.770  1.00  0.00     0.058 A 
ATOM     91  C   UNL A   1      43.422  27.859  33.687  1.00  0.00     0.135 A 
ATOM     92  C   UNL A   1      44.542  29.502  35.027  1.00  0.00     0.135 A 
ATOM     93  F   UNL A   1      43.019  27.369  32.504  1.00  0.00    -0.206 F 
ATOM     94  C   UNL A   1      43.237  27.054  34.812  1.00  0.00     0.059 A 
ATOM     95  C   UNL A   1      44.396  28.701  36.158  1.00  0.00     0.059 A 
ATOM     96  F   UNL A   1      45.212  30.659  35.159  1.00  0.00    -0.206 F 
ATOM     97  C   UNL A   1      43.728  27.484  36.045  1.00  0.00     0.060 A 
BRANCH  97  98
ATOM     98  S   UNL A   1      43.561  26.405  37.485  1.00  0.00     0.124 S 
ATOM     99  O   UNL A   1      42.121  26.423  37.716  1.00  0.00    -0.237 OA
ATOM    100  O   UNL A   1      44.112  25.141  37.002  1.00  0.00    -0.237 OA
ATOM    101  O   UNL A   1      44.366  27.073  38.505  1.00  0.00    -0.744 OA
ENDBRANCH  97  98
ENDBRANCH  65  90
ENDBRANCH  39  40
ENDBRANCH  32  34
ENDBRANCH  31  32
ENDBRANCH  30  31
ENDBRANCH  29  30
ENDBRANCH  28  29
ENDBRANCH  27  28
ENDBRANCH   1  27
TORSDOF 27
ENDMDL
MODEL 3
REMARK VINA RESULT:      -8.9      3.097      9.087
REMARK SMILES Cc1cc(C(=O)N[C@H](CC(C)C)C(=O)OCCOCCOCCOCCOC(=O)c2ccc(-c3c4nc(c(-c5c(F)cc(S(=O)(=O)[O-])cc5F)c5ccc([nH]5)c(-c5c(F)cc(S(=O)(=O)[O-])cc5F)c5nc(c(-c6c(F)cc(S(=O)(=O)[O-])cc6F)c6ccc3[nH]6)C=C5)C=C4)cc2)sc1Br
REMARK SMILES IDX 22 1 21 2 20 3 19 4 18 5 17 6 16 7 15 8 13 9 14 10 8 11 7 12
REMARK SMILES IDX 5 13 6 14 4 16 1 17 2 18 3 19 97 20 96 21 98 22 9 23 10 24
REMARK SMILES IDX 11 25 12 26 23 27 24 28 25 29 26 30 27 31 28 32 29 33 30 34
REMARK SMILES IDX 31 35 95 36 32 37 94 38 33 39 34 40 35 41 88 42 36 43 93 44
REMARK SMILES IDX 87 45 89 46 37 47 92 48 86 49 85 50 38 52 72 53 51 54 71 55
REMARK SMILES IDX 52 56 55 57 70 58 90 59 53 60 54 61 69 63 91 64 56 65 39 66
REMARK SMILES IDX 40 67 49 68 41 69 42 70 48 71 50 72 43 73 44 74 45 75 46 76
REMARK SMILES IDX 47 77 73 78 74 79 83 80 75 81 76 82 82 83 84 84 77 85 78 86
REMARK SMILES IDX 79 87 80 88 81 89 57 90 58 91 67 92 59 93 60 94 66 95 68 96
REMARK SMILES IDX 61 97 62 98 63 99 64 100 65 101
REMARK H PARENT 7 15 89 51 55 62
REMARK Flexibility Score: inf
ROOT
ATOM      1  C   UNL A   1      44.173  18.969  25.027  1.00  0.00     0.188 C 
ENDROOT
BRANCH   1   2
ATOM      2  O   UNL A   1      43.305  18.628  26.109  1.00  0.00    -0.377 OA
BRANCH   2   3
ATOM      3  C   UNL A   1      42.004  19.191  26.141  1.00  0.00     0.188 C 
BRANCH   3   4
ATOM      4  C   UNL A   1      41.723  20.061  27.375  1.00  0.00     0.188 C 
BRANCH   4   5
ATOM      5  O   UNL A   1      40.437  20.672  27.346  1.00  0.00    -0.376 OA
BRANCH   5   6
ATOM      6  C   UNL A   1      40.075  21.325  26.142  1.00  0.00     0.202 C 
BRANCH   6   7
ATOM      7  C   UNL A   1      38.616  21.769  25.980  1.00  0.00     0.261 C 
BRANCH   7   8
ATOM      8  O   UNL A   1      37.791  21.274  24.903  1.00  0.00    -0.462 OA
BRANCH   8   9
ATOM      9  C   UNL A   1      36.765  21.956  24.357  1.00  0.00     0.328 C 
ATOM     10  O   UNL A   1      36.822  22.821  23.494  1.00  0.00    -0.250 OA
BRANCH   9  11
ATOM     11  C   UNL A   1      35.439  21.601  24.993  1.00  0.00     0.192 C 
BRANCH  11  12
ATOM     12  N   UNL A   1      35.272  22.245  26.303  1.00  0.00    -0.338 N 
ATOM     13  C   UNL A   1      34.110  22.753  26.866  1.00  0.00     0.262 C 
ATOM     14  O   UNL A   1      33.873  22.392  28.020  1.00  0.00    -0.268 OA
ATOM     15  H   UNL A   1      36.088  22.326  26.850  1.00  0.00     0.164 HD
BRANCH  13  16
ATOM     16  C   UNL A   1      33.358  23.828  26.218  1.00  0.00     0.093 A 
ATOM     17  C   UNL A   1      30.351  25.906  25.196  1.00  0.00     0.046 C 
ATOM     18  C   UNL A   1      31.730  25.358  25.411  1.00  0.00    -0.025 A 
ATOM     19  C   UNL A   1      32.072  24.324  26.365  1.00  0.00     0.030 A 
ATOM     20  C   UNL A   1      32.868  25.753  24.746  1.00  0.00     0.074 A 
ATOM     21  S   UNL A   1      34.235  24.826  25.118  1.00  0.00    -0.123 S 
ATOM     22  Br  UNL A   1      32.940  27.182  23.527  1.00  0.00    -0.039 Br
ENDBRANCH  13  16
ENDBRANCH  11  12
BRANCH  11  23
ATOM     23  C   UNL A   1      35.314  20.056  25.046  1.00  0.00     0.040 C 
BRANCH  23  24
ATOM     24  C   UNL A   1      34.000  19.440  24.511  1.00  0.00    -0.015 C 
ATOM     25  C   UNL A   1      34.119  17.955  24.154  1.00  0.00     0.007 C 
ATOM     26  C   UNL A   1      32.901  19.587  25.578  1.00  0.00     0.007 C 
ENDBRANCH  23  24
ENDBRANCH  11  23
ENDBRANCH   9  11
ENDBRANCH   8   9
ENDBRANCH   7   8
ENDBRANCH   6   7
ENDBRANCH   5   6
ENDBRANCH   4   5
ENDBRANCH   3   4
ENDBRANCH   2   3
ENDBRANCH   1   2
BRANCH   1  27
ATOM     27  C   UNL A   1      45.626  19.470  25.242  1.00  0.00     0.188 C 
BRANCH  27  28
ATOM     28  O   UNL A   1      45.776  20.868  25.457  1.00  0.00    -0.376 OA
BRANCH  28  29
ATOM     29  C   UNL A   1      46.250  21.736  24.445  1.00  0.00     0.202 C 
BRANCH  29  30
ATOM     30  C   UNL A   1      45.218  22.708  23.876  1.00  0.00     0.261 C 
BRANCH  30  31
ATOM     31  O   UNL A   1      44.675  23.571  24.860  1.00  0.00    -0.460 OA
BRANCH  31  32
ATOM     32  C   UNL A   1      43.555  23.127  25.446  1.00  0.00     0.338 C 
ATOM     33  O   UNL A   1      42.635  22.495  24.921  1.00  0.00    -0.246 OA
BRANCH  32  34
ATOM     34  C   UNL A   1      43.555  23.530  26.844  1.00  0.00     0.060 A 
ATOM     35  C   UNL A   1      42.364  24.080  27.308  1.00  0.00     0.016 A 
ATOM     36  C   UNL A   1      44.783  23.676  27.512  1.00  0.00     0.016 A 
ATOM     37  C   UNL A   1      42.467  25.079  28.233  1.00  0.00     0.010 A 
ATOM     38  C   UNL A   1      44.883  24.667  28.445  1.00  0.00     0.010 A 
ATOM     39  C   UNL A   1      43.748  25.436  28.669  1.00  0.00    -0.014 A 
BRANCH  39  40
ATOM     40  C   UNL A   1      43.874  26.736  29.270  1.00  0.00     0.031 A 
ATOM     41  C   UNL A   1      44.012  26.686  30.727  1.00  0.00     0.074 A 
ATOM     42  C   UNL A   1      43.857  27.850  28.518  1.00  0.00     0.049 A 
ATOM     43  N   UNL A   1      43.153  27.054  31.613  1.00  0.00    -0.248 NA
ATOM     44  C   UNL A   1      45.179  25.968  31.255  1.00  0.00     0.031 C 
ATOM     45  C   UNL A   1      43.980  27.954  27.059  1.00  0.00     0.029 A 
ATOM     46  N   UNL A   1      43.829  29.144  28.923  1.00  0.00    -0.354 N 
ATOM     47  C   UNL A   1      43.785  26.836  32.826  1.00  0.00     0.074 A 
ATOM     48  C   UNL A   1      44.918  25.988  32.561  1.00  0.00     0.031 C 
ATOM     49  C   UNL A   1      44.237  29.238  26.730  1.00  0.00     0.029 A 
ATOM     50  C   UNL A   1      44.167  30.052  27.933  1.00  0.00     0.049 A 
ATOM     51  H   UNL A   1      43.589  29.415  29.839  1.00  0.00     0.167 HD
ATOM     52  C   UNL A   1      43.507  27.615  33.902  1.00  0.00     0.037 A 
ATOM     53  C   UNL A   1      44.457  31.361  28.120  1.00  0.00     0.037 A 
ATOM     54  C   UNL A   1      42.249  28.302  33.756  1.00  0.00     0.049 A 
ATOM     55  C   UNL A   1      43.867  31.765  29.424  1.00  0.00     0.074 A 
ATOM     56  C   UNL A   1      40.933  27.905  33.634  1.00  0.00     0.029 A 
ATOM     57  N   UNL A   1      42.302  29.614  33.352  1.00  0.00    -0.354 N 
ATOM     58  N   UNL A   1      42.585  31.833  29.657  1.00  0.00    -0.248 NA
ATOM     59  C   UNL A   1      44.708  31.738  30.614  1.00  0.00     0.031 C 
ATOM     60  C   UNL A   1      40.302  28.894  32.827  1.00  0.00     0.029 A 
ATOM     61  C   UNL A   1      41.255  29.861  32.499  1.00  0.00     0.049 A 
ATOM     62  H   UNL A   1      42.979  30.271  33.629  1.00  0.00     0.167 HD
ATOM     63  C   UNL A   1      42.440  31.449  30.981  1.00  0.00     0.074 A 
ATOM     64  C   UNL A   1      43.775  31.550  31.551  1.00  0.00     0.031 C 
ATOM     65  C   UNL A   1      41.308  30.814  31.407  1.00  0.00     0.037 A 
BRANCH  52  66
ATOM     66  C   UNL A   1      44.572  28.056  34.869  1.00  0.00     0.058 A 
ATOM     67  C   UNL A   1      44.426  27.760  36.235  1.00  0.00     0.135 A 
ATOM     68  C   UNL A   1      45.582  28.994  34.545  1.00  0.00     0.135 A 
ATOM     69  F   UNL A   1      43.483  26.899  36.649  1.00  0.00    -0.206 F 
ATOM     70  C   UNL A   1      45.186  28.399  37.215  1.00  0.00     0.059 A 
ATOM     71  C   UNL A   1      46.391  29.591  35.498  1.00  0.00     0.059 A 
ATOM     72  F   UNL A   1      45.759  29.460  33.302  1.00  0.00    -0.206 F 
ATOM     73  C   UNL A   1      46.153  29.326  36.833  1.00  0.00     0.060 A 
BRANCH  73  74
ATOM     74  S   UNL A   1      47.042  30.255  38.091  1.00  0.00     0.124 S 
ATOM     75  O   UNL A   1      48.393  30.256  37.541  1.00  0.00    -0.237 OA
ATOM     76  O   UNL A   1      46.341  31.535  38.078  1.00  0.00    -0.237 OA
ATOM     77  O   UNL A   1      46.849  29.454  39.296  1.00  0.00    -0.744 OA
ENDBRANCH  73  74
ENDBRANCH  52  66
BRANCH  53  78
ATOM     78  C   UNL A   1      45.465  32.173  27.396  1.00  0.00     0.058 A 
ATOM     79  C   UNL A   1      45.097  33.348  26.721  1.00  0.00     0.135 A 
ATOM     80  C   UNL A   1      46.849  31.960  27.569  1.00  0.00     0.135 A 
ATOM     81  F   UNL A   1      43.801  33.641  26.535  1.00  0.00    -0.206 F 
ATOM     82  C   UNL A   1      46.041  34.281  26.286  1.00  0.00     0.059 A 
ATOM     83  C   UNL A   1      47.809  32.867  27.128  1.00  0.00     0.059 A 
ATOM     84  F   UNL A   1      47.312  30.907  28.258  1.00  0.00    -0.206 F 
ATOM     85  C   UNL A   1      47.397  34.040  26.511  1.00  0.00     0.060 A 
BRANCH  85  86
ATOM     86  S   UNL A   1      48.606  35.321  26.113  1.00  0.00     0.124 S 
ATOM     87  O   UNL A   1      47.958  36.519  26.635  1.00  0.00    -0.237 OA
ATOM     88  O   UNL A   1      49.786  34.866  26.838  1.00  0.00    -0.237 OA
ATOM     89  O   UNL A   1      48.706  35.250  24.657  1.00  0.00    -0.744 OA
ENDBRANCH  85  86
ENDBRANCH  53  78
BRANCH  65  90
ATOM     90  C   UNL A   1      40.083  30.935  30.540  1.00  0.00     0.058 A 
ATOM     91  C   UNL A   1      39.732  30.018  29.534  1.00  0.00     0.135 A 
ATOM     92  C   UNL A   1      39.169  31.963  30.819  1.00  0.00     0.135 A 
ATOM     93  F   UNL A   1      40.504  28.952  29.275  1.00  0.00    -0.206 F 
ATOM     94  C   UNL A   1      38.548  30.145  28.806  1.00  0.00     0.059 A 
ATOM     95  C   UNL A   1      37.967  32.091  30.127  1.00  0.00     0.059 A 
ATOM     96  F   UNL A   1      39.419  32.834  31.811  1.00  0.00    -0.206 F 
ATOM     97  C   UNL A   1      37.670  31.186  29.110  1.00  0.00     0.060 A 
BRANCH  97  98
ATOM     98  S   UNL A   1      36.098  31.301  28.225  1.00  0.00     0.124 S 
ATOM     99  O   UNL A   1      35.129  31.108  29.298  1.00  0.00    -0.237 OA
ATOM    100  O   UNL A   1      36.152  32.643  27.651  1.00  0.00    -0.237 OA
ATOM    101  O   UNL A   1      36.177  30.215  27.251  1.00  0.00    -0.744 OA
ENDBRANCH  97  98
ENDBRANCH  65  90
ENDBRANCH  39  40
ENDBRANCH  32  34
ENDBRANCH  31  32
ENDBRANCH  30  31
ENDBRANCH  29  30
ENDBRANCH  28  29
ENDBRANCH  27  28
ENDBRANCH   1  27
TORSDOF 27
ENDMDL
