MODEL 1
REMARK VINA RESULT:      -7.1      0.000      0.000
REMARK SMILES NC(=O)c1cc(NC(=O)/C=C\C(=O)OCCOCCOCCOCCOC(=O)c2ccc(-c3c4nc(c(-c5c(F)cc(S(=O)(=O)[O-])cc5F)c5ccc([nH]5)c(-c5c(F)cc(S(=O)(=O)[O-])cc5F)c5nc(c(-c6c(F)cc(S(=O)(=O)[O-])cc6F)c6ccc3[nH]6)C=C5)C=C4)cc2)ccc1N1CCOCC1
REMARK SMILES IDX 20 1 19 2 18 3 17 4 16 5 15 6 14 7 12 8 13 9 11 10 10 11
REMARK SMILES IDX 8 12 7 13 9 15 6 16 4 17 5 18 97 19 96 20 95 21 2 22 1 23
REMARK SMILES IDX 3 26 98 27 99 28 103 29 100 30 102 31 101 32 21 33 22 34
REMARK SMILES IDX 23 35 24 36 25 37 26 38 27 39 28 40 29 41 30 42 94 43 31 44
REMARK SMILES IDX 93 45 32 46 33 47 34 48 87 49 35 50 92 51 86 52 88 53 36 54
REMARK SMILES IDX 91 55 85 56 84 57 37 59 71 60 50 61 70 62 51 63 54 64 69 65
REMARK SMILES IDX 89 66 52 67 53 68 68 70 90 71 55 72 38 73 39 74 48 75 40 76
REMARK SMILES IDX 41 77 47 78 49 79 42 80 43 81 44 82 45 83 46 84 72 85 73 86
REMARK SMILES IDX 82 87 74 88 75 89 81 90 83 91 76 92 77 93 78 94 79 95 80 96
REMARK SMILES IDX 56 97 57 98 66 99 58 100 59 101 65 102 67 103 60 104 61 105
REMARK SMILES IDX 62 106 63 107 64 108
REMARK H PARENT 7 14 1 24 1 25 88 58 54 69
REMARK Flexibility Score: inf
ROOT
ATOM      1  O   UNL A   1      35.967  34.861  32.839  1.00  0.00    -0.377 OA
ENDROOT
BRANCH   1   2
ATOM      2  C   UNL A   1      35.154  33.787  33.278  1.00  0.00     0.188 C 
BRANCH   2   3
ATOM      3  C   UNL A   1      35.213  32.497  32.453  1.00  0.00     0.188 C 
BRANCH   3   4
ATOM      4  O   UNL A   1      34.375  32.485  31.300  1.00  0.00    -0.376 OA
BRANCH   4   5
ATOM      5  C   UNL A   1      35.011  32.681  30.042  1.00  0.00     0.202 C 
BRANCH   5   6
ATOM      6  C   UNL A   1      35.708  31.487  29.375  1.00  0.00     0.261 C 
BRANCH   6   7
ATOM      7  O   UNL A   1      36.265  30.417  30.168  1.00  0.00    -0.460 OA
BRANCH   7   8
ATOM      8  C   UNL A   1      37.234  29.597  29.743  1.00  0.00     0.331 C 
ATOM      9  O   UNL A   1      37.469  29.203  28.615  1.00  0.00    -0.247 OA
BRANCH   8  10
ATOM     10  C   UNL A   1      38.061  29.137  30.857  1.00  0.00     0.099 C 
ATOM     11  C   UNL A   1      39.305  29.571  31.095  1.00  0.00     0.079 C 
BRANCH  11  12
ATOM     12  C   UNL A   1      40.146  30.438  30.239  1.00  0.00     0.248 C 
ATOM     13  N   UNL A   1      41.019  29.985  29.292  1.00  0.00    -0.322 N 
ATOM     14  H   UNL A   1      41.565  30.702  28.898  1.00  0.00     0.170 HD
ATOM     15  O   UNL A   1      40.052  31.653  30.427  1.00  0.00    -0.270 OA
BRANCH  13  16
ATOM     16  C   UNL A   1      41.309  28.716  28.758  1.00  0.00     0.042 A 
ATOM     17  C   UNL A   1      42.727  26.762  28.523  1.00  0.00     0.064 A 
ATOM     18  C   UNL A   1      42.225  27.827  29.303  1.00  0.00     0.042 A 
ATOM     19  C   UNL A   1      42.260  26.526  27.206  1.00  0.00     0.050 A 
ATOM     20  C   UNL A   1      41.173  27.305  26.779  1.00  0.00     0.029 A 
ATOM     21  C   UNL A   1      40.700  28.383  27.545  1.00  0.00     0.028 A 
BRANCH  17  22
ATOM     22  C   UNL A   1      43.909  26.074  29.114  1.00  0.00     0.250 C 
ATOM     23  N   UNL A   1      43.711  24.803  29.567  1.00  0.00    -0.366 N 
ATOM     24  H   UNL A   1      44.458  24.300  29.966  1.00  0.00     0.159 HD
ATOM     25  H   UNL A   1      42.821  24.388  29.495  1.00  0.00     0.159 HD
ATOM     26  O   UNL A   1      45.020  26.592  29.124  1.00  0.00    -0.269 OA
ENDBRANCH  17  22
BRANCH  19  27
ATOM     27  N   UNL A   1      42.882  25.638  26.337  1.00  0.00    -0.366 N 
ATOM     28  C   UNL A   1      42.163  24.415  25.959  1.00  0.00     0.145 C 
ATOM     29  C   UNL A   1      43.870  26.079  25.337  1.00  0.00     0.145 C 
ATOM     30  C   UNL A   1      43.180  23.317  25.598  1.00  0.00     0.181 C 
ATOM     31  C   UNL A   1      44.827  24.913  25.026  1.00  0.00     0.181 C 
ATOM     32  O   UNL A   1      44.107  23.750  24.585  1.00  0.00    -0.378 OA
ENDBRANCH  19  27
ENDBRANCH  13  16
ENDBRANCH  11  12
ENDBRANCH   8  10
ENDBRANCH   7   8
ENDBRANCH   6   7
ENDBRANCH   5   6
ENDBRANCH   4   5
ENDBRANCH   3   4
ENDBRANCH   2   3
ENDBRANCH   1   2
BRANCH   1  33
ATOM     33  C   UNL A   1      37.292  34.578  32.397  1.00  0.00     0.188 C 
BRANCH  33  34
ATOM     34  C   UNL A   1      38.438  34.538  33.418  1.00  0.00     0.188 C 
BRANCH  34  35
ATOM     35  O   UNL A   1      39.730  34.428  32.838  1.00  0.00    -0.376 OA
BRANCH  35  36
ATOM     36  C   UNL A   1      40.606  33.486  33.441  1.00  0.00     0.202 C 
BRANCH  36  37
ATOM     37  C   UNL A   1      39.957  32.177  33.914  1.00  0.00     0.261 C 
BRANCH  37  38
ATOM     38  O   UNL A   1      40.086  31.841  35.309  1.00  0.00    -0.460 OA
BRANCH  38  39
ATOM     39  C   UNL A   1      40.017  30.550  35.703  1.00  0.00     0.338 C 
ATOM     40  O   UNL A   1      39.056  29.977  36.181  1.00  0.00    -0.246 OA
BRANCH  39  41
ATOM     41  C   UNL A   1      41.250  29.869  35.233  1.00  0.00     0.060 A 
ATOM     42  C   UNL A   1      42.488  30.272  35.755  1.00  0.00     0.016 A 
ATOM     43  C   UNL A   1      41.181  28.806  34.328  1.00  0.00     0.016 A 
ATOM     44  C   UNL A   1      43.666  29.650  35.331  1.00  0.00     0.010 A 
ATOM     45  C   UNL A   1      42.362  28.205  33.880  1.00  0.00     0.010 A 
ATOM     46  C   UNL A   1      43.610  28.656  34.345  1.00  0.00    -0.014 A 
BRANCH  46  47
ATOM     47  C   UNL A   1      44.831  28.321  33.569  1.00  0.00     0.031 A 
ATOM     48  C   UNL A   1      45.028  29.042  32.261  1.00  0.00     0.074 A 
ATOM     49  C   UNL A   1      45.724  27.403  33.976  1.00  0.00     0.049 A 
ATOM     50  N   UNL A   1      45.953  28.884  31.352  1.00  0.00    -0.248 NA
ATOM     51  C   UNL A   1      44.033  30.078  31.933  1.00  0.00     0.031 C 
ATOM     52  C   UNL A   1      45.669  26.657  35.229  1.00  0.00     0.029 A 
ATOM     53  N   UNL A   1      46.854  26.929  33.351  1.00  0.00    -0.354 N 
ATOM     54  C   UNL A   1      45.645  29.789  30.343  1.00  0.00     0.074 A 
ATOM     55  C   UNL A   1      44.440  30.481  30.741  1.00  0.00     0.031 C 
ATOM     56  C   UNL A   1      46.703  25.795  35.269  1.00  0.00     0.029 A 
ATOM     57  C   UNL A   1      47.475  25.910  34.032  1.00  0.00     0.049 A 
ATOM     58  H   UNL A   1      47.185  27.286  32.496  1.00  0.00     0.167 HD
ATOM     59  C   UNL A   1      46.303  30.025  29.186  1.00  0.00     0.037 A 
ATOM     60  C   UNL A   1      48.527  25.139  33.679  1.00  0.00     0.037 A 
ATOM     61  C   UNL A   1      47.492  29.329  28.779  1.00  0.00     0.049 A 
ATOM     62  C   UNL A   1      49.213  25.376  32.355  1.00  0.00     0.074 A 
ATOM     63  C   UNL A   1      48.250  29.516  27.639  1.00  0.00     0.029 A 
ATOM     64  N   UNL A   1      48.082  28.296  29.492  1.00  0.00    -0.354 N 
ATOM     65  N   UNL A   1      48.940  26.267  31.430  1.00  0.00    -0.248 NA
ATOM     66  C   UNL A   1      50.348  24.501  32.026  1.00  0.00     0.031 C 
ATOM     67  C   UNL A   1      49.272  28.560  27.635  1.00  0.00     0.029 A 
ATOM     68  C   UNL A   1      49.179  27.812  28.800  1.00  0.00     0.049 A 
ATOM     69  H   UNL A   1      47.767  27.956  30.359  1.00  0.00     0.167 HD
ATOM     70  C   UNL A   1      49.879  26.070  30.420  1.00  0.00     0.074 A 
ATOM     71  C   UNL A   1      50.734  24.985  30.852  1.00  0.00     0.031 C 
ATOM     72  C   UNL A   1      50.021  26.729  29.242  1.00  0.00     0.037 A 
BRANCH  59  73
ATOM     73  C   UNL A   1      45.715  31.053  28.263  1.00  0.00     0.058 A 
ATOM     74  C   UNL A   1      44.738  30.720  27.311  1.00  0.00     0.135 A 
ATOM     75  C   UNL A   1      46.147  32.387  28.322  1.00  0.00     0.135 A 
ATOM     76  F   UNL A   1      44.311  29.453  27.195  1.00  0.00    -0.206 F 
ATOM     77  C   UNL A   1      44.234  31.668  26.428  1.00  0.00     0.059 A 
ATOM     78  C   UNL A   1      45.638  33.358  27.466  1.00  0.00     0.059 A 
ATOM     79  F   UNL A   1      47.087  32.754  29.207  1.00  0.00    -0.206 F 
ATOM     80  C   UNL A   1      44.694  32.984  26.510  1.00  0.00     0.060 A 
BRANCH  80  81
ATOM     81  S   UNL A   1      44.043  34.200  25.347  1.00  0.00     0.124 S 
ATOM     82  O   UNL A   1      45.211  35.048  25.128  1.00  0.00    -0.237 OA
ATOM     83  O   UNL A   1      43.642  33.370  24.216  1.00  0.00    -0.237 OA
ATOM     84  O   UNL A   1      42.947  34.821  26.084  1.00  0.00    -0.744 OA
ENDBRANCH  80  81
ENDBRANCH  59  73
BRANCH  60  85
ATOM     85  C   UNL A   1      48.983  24.050  34.584  1.00  0.00     0.058 A 
ATOM     86  C   UNL A   1      48.277  22.841  34.680  1.00  0.00     0.135 A 
ATOM     87  C   UNL A   1      50.140  24.194  35.366  1.00  0.00     0.135 A 
ATOM     88  F   UNL A   1      47.154  22.663  33.969  1.00  0.00    -0.206 F 
ATOM     89  C   UNL A   1      48.702  21.814  35.518  1.00  0.00     0.059 A 
ATOM     90  C   UNL A   1      50.598  23.172  36.193  1.00  0.00     0.059 A 
ATOM     91  F   UNL A   1      50.850  25.331  35.310  1.00  0.00    -0.206 F 
ATOM     92  C   UNL A   1      49.869  21.986  36.264  1.00  0.00     0.060 A 
BRANCH  92  93
ATOM     93  S   UNL A   1      50.452  20.614  37.284  1.00  0.00     0.124 S 
ATOM     94  O   UNL A   1      51.043  21.317  38.416  1.00  0.00    -0.237 OA
ATOM     95  O   UNL A   1      49.214  19.890  37.556  1.00  0.00    -0.237 OA
ATOM     96  O   UNL A   1      51.394  19.920  36.409  1.00  0.00    -0.744 OA
ENDBRANCH  92  93
ENDBRANCH  60  85
BRANCH  72  97
ATOM     97  C   UNL A   1      51.151  26.318  28.339  1.00  0.00     0.058 A 
ATOM     98  C   UNL A   1      52.470  26.730  28.576  1.00  0.00     0.135 A 
ATOM     99  C   UNL A   1      50.922  25.437  27.269  1.00  0.00     0.135 A 
ATOM    100  F   UNL A   1      52.744  27.574  29.584  1.00  0.00    -0.206 F 
ATOM    101  C   UNL A   1      53.523  26.296  27.775  1.00  0.00     0.059 A 
ATOM    102  C   UNL A   1      51.961  24.970  26.471  1.00  0.00     0.059 A 
ATOM    103  F   UNL A   1      49.679  25.001  27.007  1.00  0.00    -0.206 F 
ATOM    104  C   UNL A   1      53.258  25.413  26.726  1.00  0.00     0.060 A 
BRANCH 104 105
ATOM    105  S   UNL A   1      54.637  24.821  25.721  1.00  0.00     0.124 S 
ATOM    106  O   UNL A   1      55.238  23.828  26.604  1.00  0.00    -0.237 OA
ATOM    107  O   UNL A   1      53.961  24.294  24.540  1.00  0.00    -0.237 OA
ATOM    108  O   UNL A   1      55.432  26.023  25.494  1.00  0.00    -0.744 OA
ENDBRANCH 104 105
ENDBRANCH  72  97
ENDBRANCH  46  47
ENDBRANCH  39  41
ENDBRANCH  38  39
ENDBRANCH  37  38
ENDBRANCH  36  37
ENDBRANCH  35  36
ENDBRANCH  34  35
ENDBRANCH  33  34
ENDBRANCH   1  33
TORSDOF 27
ENDMDL
MODEL 2
REMARK VINA RESULT:      -6.1      6.773     11.943
REMARK SMILES NC(=O)c1cc(NC(=O)/C=C\C(=O)OCCOCCOCCOCCOC(=O)c2ccc(-c3c4nc(c(-c5c(F)cc(S(=O)(=O)[O-])cc5F)c5ccc([nH]5)c(-c5c(F)cc(S(=O)(=O)[O-])cc5F)c5nc(c(-c6c(F)cc(S(=O)(=O)[O-])cc6F)c6ccc3[nH]6)C=C5)C=C4)cc2)ccc1N1CCOCC1
REMARK SMILES IDX 20 1 19 2 18 3 17 4 16 5 15 6 14 7 12 8 13 9 11 10 10 11
REMARK SMILES IDX 8 12 7 13 9 15 6 16 4 17 5 18 97 19 96 20 95 21 2 22 1 23
REMARK SMILES IDX 3 26 98 27 99 28 103 29 100 30 102 31 101 32 21 33 22 34
REMARK SMILES IDX 23 35 24 36 25 37 26 38 27 39 28 40 29 41 30 42 94 43 31 44
REMARK SMILES IDX 93 45 32 46 33 47 34 48 87 49 35 50 92 51 86 52 88 53 36 54
REMARK SMILES IDX 91 55 85 56 84 57 37 59 71 60 50 61 70 62 51 63 54 64 69 65
REMARK SMILES IDX 89 66 52 67 53 68 68 70 90 71 55 72 38 73 39 74 48 75 40 76
REMARK SMILES IDX 41 77 47 78 49 79 42 80 43 81 44 82 45 83 46 84 72 85 73 86
REMARK SMILES IDX 82 87 74 88 75 89 81 90 83 91 76 92 77 93 78 94 79 95 80 96
REMARK SMILES IDX 56 97 57 98 66 99 58 100 59 101 65 102 67 103 60 104 61 105
REMARK SMILES IDX 62 106 63 107 64 108
REMARK H PARENT 7 14 1 24 1 25 88 58 54 69
REMARK Flexibility Score: inf
ROOT
ATOM      1  O   UNL A   1      38.725  28.710  28.608  1.00  0.00    -0.377 OA
ENDROOT
BRANCH   1   2
ATOM      2  C   UNL A   1      39.815  28.283  27.810  1.00  0.00     0.188 C 
BRANCH   2   3
ATOM      3  C   UNL A   1      40.244  26.819  27.956  1.00  0.00     0.188 C 
BRANCH   3   4
ATOM      4  O   UNL A   1      39.191  25.869  27.804  1.00  0.00    -0.376 OA
BRANCH   4   5
ATOM      5  C   UNL A   1      39.263  25.006  26.676  1.00  0.00     0.202 C 
BRANCH   5   6
ATOM      6  C   UNL A   1      38.138  23.986  26.454  1.00  0.00     0.261 C 
BRANCH   6   7
ATOM      7  O   UNL A   1      37.340  24.015  25.250  1.00  0.00    -0.460 OA
BRANCH   7   8
ATOM      8  C   UNL A   1      36.448  23.072  24.921  1.00  0.00     0.331 C 
ATOM      9  O   UNL A   1      36.350  22.431  23.890  1.00  0.00    -0.247 OA
BRANCH   8  10
ATOM     10  C   UNL A   1      35.479  22.867  25.996  1.00  0.00     0.099 C 
ATOM     11  C   UNL A   1      34.519  21.934  25.970  1.00  0.00     0.079 C 
BRANCH  11  12
ATOM     12  C   UNL A   1      34.129  21.059  24.841  1.00  0.00     0.248 C 
ATOM     13  N   UNL A   1      33.206  21.382  23.889  1.00  0.00    -0.322 N 
ATOM     14  H   UNL A   1      33.003  20.636  23.281  1.00  0.00     0.170 HD
ATOM     15  O   UNL A   1      34.675  19.955  24.789  1.00  0.00    -0.270 OA
BRANCH  13  16
ATOM     16  C   UNL A   1      32.479  22.549  23.589  1.00  0.00     0.042 A 
ATOM     17  C   UNL A   1      32.231  24.696  22.486  1.00  0.00     0.064 A 
ATOM     18  C   UNL A   1      32.739  23.379  22.507  1.00  0.00     0.042 A 
ATOM     19  C   UNL A   1      31.386  25.178  23.517  1.00  0.00     0.050 A 
ATOM     20  C   UNL A   1      30.963  24.238  24.470  1.00  0.00     0.029 A 
ATOM     21  C   UNL A   1      31.499  22.940  24.505  1.00  0.00     0.028 A 
BRANCH  17  22
ATOM     22  C   UNL A   1      32.824  25.566  21.433  1.00  0.00     0.250 C 
ATOM     23  N   UNL A   1      32.189  25.580  20.226  1.00  0.00    -0.366 N 
ATOM     24  H   UNL A   1      32.538  26.138  19.492  1.00  0.00     0.159 HD
ATOM     25  H   UNL A   1      31.383  25.032  20.087  1.00  0.00     0.159 HD
ATOM     26  O   UNL A   1      33.787  26.289  21.659  1.00  0.00    -0.269 OA
ENDBRANCH  17  22
BRANCH  19  27
ATOM     27  N   UNL A   1      31.051  26.521  23.647  1.00  0.00    -0.366 N 
ATOM     28  C   UNL A   1      29.634  26.896  23.561  1.00  0.00     0.145 C 
ATOM     29  C   UNL A   1      31.869  27.462  24.432  1.00  0.00     0.145 C 
ATOM     30  C   UNL A   1      29.522  28.347  23.061  1.00  0.00     0.181 C 
ATOM     31  C   UNL A   1      31.676  28.884  23.872  1.00  0.00     0.181 C 
ATOM     32  O   UNL A   1      30.288  29.260  23.868  1.00  0.00    -0.378 OA
ENDBRANCH  19  27
ENDBRANCH  13  16
ENDBRANCH  11  12
ENDBRANCH   8  10
ENDBRANCH   7   8
ENDBRANCH   6   7
ENDBRANCH   5   6
ENDBRANCH   4   5
ENDBRANCH   3   4
ENDBRANCH   2   3
ENDBRANCH   1   2
BRANCH   1  33
ATOM     33  C   UNL A   1      38.965  29.667  29.636  1.00  0.00     0.188 C 
BRANCH  33  34
ATOM     34  C   UNL A   1      39.563  29.208  30.973  1.00  0.00     0.188 C 
BRANCH  34  35
ATOM     35  O   UNL A   1      40.706  29.944  31.382  1.00  0.00    -0.376 OA
BRANCH  35  36
ATOM     36  C   UNL A   1      40.669  30.473  32.700  1.00  0.00     0.202 C 
BRANCH  36  37
ATOM     37  C   UNL A   1      40.502  31.996  32.805  1.00  0.00     0.261 C 
BRANCH  37  38
ATOM     38  O   UNL A   1      39.158  32.513  32.844  1.00  0.00    -0.460 OA
BRANCH  38  39
ATOM     39  C   UNL A   1      38.716  33.326  31.859  1.00  0.00     0.338 C 
ATOM     40  O   UNL A   1      37.566  33.648  31.631  1.00  0.00    -0.246 OA
BRANCH  39  41
ATOM     41  C   UNL A   1      39.904  33.961  31.233  1.00  0.00     0.060 A 
ATOM     42  C   UNL A   1      39.864  34.273  29.865  1.00  0.00     0.016 A 
ATOM     43  C   UNL A   1      41.024  34.298  31.998  1.00  0.00     0.016 A 
ATOM     44  C   UNL A   1      40.967  34.871  29.249  1.00  0.00     0.010 A 
ATOM     45  C   UNL A   1      42.138  34.867  31.375  1.00  0.00     0.010 A 
ATOM     46  C   UNL A   1      42.131  35.112  29.990  1.00  0.00    -0.014 A 
BRANCH  46  47
ATOM     47  C   UNL A   1      43.424  35.305  29.286  1.00  0.00     0.031 A 
ATOM     48  C   UNL A   1      44.241  34.070  29.008  1.00  0.00     0.074 A 
ATOM     49  C   UNL A   1      43.884  36.515  28.925  1.00  0.00     0.049 A 
ATOM     50  N   UNL A   1      45.435  33.958  28.488  1.00  0.00    -0.248 NA
ATOM     51  C   UNL A   1      43.624  32.785  29.380  1.00  0.00     0.031 C 
ATOM     52  C   UNL A   1      43.184  37.783  29.108  1.00  0.00     0.029 A 
ATOM     53  N   UNL A   1      45.076  36.870  28.339  1.00  0.00    -0.354 N 
ATOM     54  C   UNL A   1      45.714  32.597  28.482  1.00  0.00     0.074 A 
ATOM     55  C   UNL A   1      44.576  31.923  29.065  1.00  0.00     0.031 C 
ATOM     56  C   UNL A   1      43.972  38.783  28.671  1.00  0.00     0.029 A 
ATOM     57  C   UNL A   1      45.243  38.227  28.205  1.00  0.00     0.049 A 
ATOM     58  H   UNL A   1      45.748  36.214  28.045  1.00  0.00     0.167 HD
ATOM     59  C   UNL A   1      46.820  31.961  28.034  1.00  0.00     0.037 A 
ATOM     60  C   UNL A   1      46.311  38.938  27.782  1.00  0.00     0.037 A 
ATOM     61  C   UNL A   1      47.960  32.628  27.470  1.00  0.00     0.049 A 
ATOM     62  C   UNL A   1      47.561  38.213  27.342  1.00  0.00     0.074 A 
ATOM     63  C   UNL A   1      49.117  32.069  26.959  1.00  0.00     0.029 A 
ATOM     64  N   UNL A   1      48.093  34.004  27.362  1.00  0.00    -0.354 N 
ATOM     65  N   UNL A   1      47.795  36.922  27.297  1.00  0.00    -0.248 NA
ATOM     66  C   UNL A   1      48.692  39.042  26.899  1.00  0.00     0.031 C 
ATOM     67  C   UNL A   1      49.974  33.111  26.589  1.00  0.00     0.029 A 
ATOM     68  C   UNL A   1      49.328  34.317  26.821  1.00  0.00     0.049 A 
ATOM     69  H   UNL A   1      47.411  34.660  27.630  1.00  0.00     0.167 HD
ATOM     70  C   UNL A   1      49.092  36.786  26.805  1.00  0.00     0.074 A 
ATOM     71  C   UNL A   1      49.586  38.124  26.556  1.00  0.00     0.031 C 
ATOM     72  C   UNL A   1      49.807  35.655  26.580  1.00  0.00     0.037 A 
BRANCH  59  73
ATOM     73  C   UNL A   1      46.856  30.467  28.184  1.00  0.00     0.058 A 
ATOM     74  C   UNL A   1      46.517  29.608  27.127  1.00  0.00     0.135 A 
ATOM     75  C   UNL A   1      47.220  29.888  29.410  1.00  0.00     0.135 A 
ATOM     76  F   UNL A   1      46.136  30.112  25.942  1.00  0.00    -0.206 F 
ATOM     77  C   UNL A   1      46.506  28.228  27.289  1.00  0.00     0.059 A 
ATOM     78  C   UNL A   1      47.241  28.509  29.588  1.00  0.00     0.059 A 
ATOM     79  F   UNL A   1      47.542  30.666  30.456  1.00  0.00    -0.206 F 
ATOM     80  C   UNL A   1      46.866  27.687  28.525  1.00  0.00     0.060 A 
BRANCH  80  81
ATOM     81  S   UNL A   1      46.833  25.894  28.726  1.00  0.00     0.124 S 
ATOM     82  O   UNL A   1      46.889  25.445  27.338  1.00  0.00    -0.237 OA
ATOM     83  O   UNL A   1      48.030  25.645  29.521  1.00  0.00    -0.237 OA
ATOM     84  O   UNL A   1      45.567  25.653  29.412  1.00  0.00    -0.744 OA
ENDBRANCH  80  81
ENDBRANCH  59  73
BRANCH  60  85
ATOM     85  C   UNL A   1      46.257  40.424  27.777  1.00  0.00     0.058 A 
ATOM     86  C   UNL A   1      45.713  41.129  26.693  1.00  0.00     0.135 A 
ATOM     87  C   UNL A   1      46.744  41.171  28.863  1.00  0.00     0.135 A 
ATOM     88  F   UNL A   1      45.254  40.462  25.624  1.00  0.00    -0.206 F 
ATOM     89  C   UNL A   1      45.651  42.520  26.685  1.00  0.00     0.059 A 
ATOM     90  C   UNL A   1      46.671  42.560  28.888  1.00  0.00     0.059 A 
ATOM     91  F   UNL A   1      47.274  40.544  29.924  1.00  0.00    -0.206 F 
ATOM     92  C   UNL A   1      46.125  43.226  27.791  1.00  0.00     0.060 A 
BRANCH  92  93
ATOM     93  S   UNL A   1      45.962  45.025  27.801  1.00  0.00     0.124 S 
ATOM     94  O   UNL A   1      45.033  45.233  28.905  1.00  0.00    -0.237 OA
ATOM     95  O   UNL A   1      47.338  45.453  28.036  1.00  0.00    -0.237 OA
ATOM     96  O   UNL A   1      45.441  45.324  26.470  1.00  0.00    -0.744 OA
ENDBRANCH  92  93
ENDBRANCH  60  85
BRANCH  72  97
ATOM     97  C   UNL A   1      51.193  35.801  26.016  1.00  0.00     0.058 A 
ATOM     98  C   UNL A   1      52.335  35.630  26.814  1.00  0.00     0.135 A 
ATOM     99  C   UNL A   1      51.383  36.038  24.644  1.00  0.00     0.135 A 
ATOM    100  F   UNL A   1      52.211  35.405  28.131  1.00  0.00    -0.206 F 
ATOM    101  C   UNL A   1      53.616  35.704  26.275  1.00  0.00     0.059 A 
ATOM    102  C   UNL A   1      52.653  36.090  24.079  1.00  0.00     0.059 A 
ATOM    103  F   UNL A   1      50.324  36.195  23.834  1.00  0.00    -0.206 F 
ATOM    104  C   UNL A   1      53.765  35.931  24.905  1.00  0.00     0.060 A 
BRANCH 104 105
ATOM    105  S   UNL A   1      55.430  35.980  24.208  1.00  0.00     0.124 S 
ATOM    106  O   UNL A   1      56.207  36.477  25.339  1.00  0.00    -0.237 OA
ATOM    107  O   UNL A   1      55.660  34.586  23.845  1.00  0.00    -0.237 OA
ATOM    108  O   UNL A   1      55.301  36.901  23.083  1.00  0.00    -0.744 OA
ENDBRANCH 104 105
ENDBRANCH  72  97
ENDBRANCH  46  47
ENDBRANCH  39  41
ENDBRANCH  38  39
ENDBRANCH  37  38
ENDBRANCH  36  37
ENDBRANCH  35  36
ENDBRANCH  34  35
ENDBRANCH  33  34
ENDBRANCH   1  33
TORSDOF 27
ENDMDL
MODEL 3
REMARK VINA RESULT:      -5.7      6.176     13.969
REMARK SMILES NC(=O)c1cc(NC(=O)/C=C\C(=O)OCCOCCOCCOCCOC(=O)c2ccc(-c3c4nc(c(-c5c(F)cc(S(=O)(=O)[O-])cc5F)c5ccc([nH]5)c(-c5c(F)cc(S(=O)(=O)[O-])cc5F)c5nc(c(-c6c(F)cc(S(=O)(=O)[O-])cc6F)c6ccc3[nH]6)C=C5)C=C4)cc2)ccc1N1CCOCC1
REMARK SMILES IDX 20 1 19 2 18 3 17 4 16 5 15 6 14 7 12 8 13 9 11 10 10 11
REMARK SMILES IDX 8 12 7 13 9 15 6 16 4 17 5 18 97 19 96 20 95 21 2 22 1 23
REMARK SMILES IDX 3 26 98 27 99 28 103 29 100 30 102 31 101 32 21 33 22 34
REMARK SMILES IDX 23 35 24 36 25 37 26 38 27 39 28 40 29 41 30 42 94 43 31 44
REMARK SMILES IDX 93 45 32 46 33 47 34 48 87 49 35 50 92 51 86 52 88 53 36 54
REMARK SMILES IDX 91 55 85 56 84 57 37 59 71 60 50 61 70 62 51 63 54 64 69 65
REMARK SMILES IDX 89 66 52 67 53 68 68 70 90 71 55 72 38 73 39 74 48 75 40 76
REMARK SMILES IDX 41 77 47 78 49 79 42 80 43 81 44 82 45 83 46 84 72 85 73 86
REMARK SMILES IDX 82 87 74 88 75 89 81 90 83 91 76 92 77 93 78 94 79 95 80 96
REMARK SMILES IDX 56 97 57 98 66 99 58 100 59 101 65 102 67 103 60 104 61 105
REMARK SMILES IDX 62 106 63 107 64 108
REMARK H PARENT 7 14 1 24 1 25 88 58 54 69
REMARK Flexibility Score: inf
ROOT
ATOM      1  O   UNL A   1      44.628  25.095  25.524  1.00  0.00    -0.377 OA
ENDROOT
BRANCH   1   2
ATOM      2  C   UNL A   1      44.338  26.469  25.336  1.00  0.00     0.188 C 
BRANCH   2   3
ATOM      3  C   UNL A   1      44.745  27.419  26.467  1.00  0.00     0.188 C 
BRANCH   3   4
ATOM      4  O   UNL A   1      44.897  28.783  26.077  1.00  0.00    -0.376 OA
BRANCH   4   5
ATOM      5  C   UNL A   1      45.311  29.696  27.086  1.00  0.00     0.202 C 
BRANCH   5   6
ATOM      6  C   UNL A   1      45.756  29.142  28.446  1.00  0.00     0.261 C 
BRANCH   6   7
ATOM      7  O   UNL A   1      44.799  28.929  29.507  1.00  0.00    -0.460 OA
BRANCH   7   8
ATOM      8  C   UNL A   1      43.674  29.640  29.653  1.00  0.00     0.331 C 
ATOM      9  O   UNL A   1      43.301  30.624  29.041  1.00  0.00    -0.247 OA
BRANCH   8  10
ATOM     10  C   UNL A   1      42.850  29.106  30.736  1.00  0.00     0.099 C 
ATOM     11  C   UNL A   1      42.068  28.026  30.619  1.00  0.00     0.079 C 
BRANCH  11  12
ATOM     12  C   UNL A   1      41.740  27.268  29.390  1.00  0.00     0.248 C 
ATOM     13  N   UNL A   1      40.674  27.524  28.578  1.00  0.00    -0.322 N 
ATOM     14  H   UNL A   1      40.559  26.852  27.869  1.00  0.00     0.170 HD
ATOM     15  O   UNL A   1      42.486  26.327  29.111  1.00  0.00    -0.270 OA
BRANCH  13  16
ATOM     16  C   UNL A   1      39.701  28.540  28.535  1.00  0.00     0.042 A 
ATOM     17  C   UNL A   1      37.832  29.760  29.486  1.00  0.00     0.064 A 
ATOM     18  C   UNL A   1      39.031  29.031  29.647  1.00  0.00     0.042 A 
ATOM     19  C   UNL A   1      37.325  30.074  28.200  1.00  0.00     0.050 A 
ATOM     20  C   UNL A   1      38.150  29.759  27.109  1.00  0.00     0.029 A 
ATOM     21  C   UNL A   1      39.323  29.005  27.272  1.00  0.00     0.028 A 
BRANCH  17  22
ATOM     22  C   UNL A   1      37.065  29.965  30.746  1.00  0.00     0.250 C 
ATOM     23  N   UNL A   1      37.500  30.962  31.568  1.00  0.00    -0.366 N 
ATOM     24  H   UNL A   1      37.030  31.143  32.415  1.00  0.00     0.159 HD
ATOM     25  H   UNL A   1      38.284  31.502  31.316  1.00  0.00     0.159 HD
ATOM     26  O   UNL A   1      36.052  29.323  30.998  1.00  0.00    -0.269 OA
ENDBRANCH  17  22
BRANCH  19  27
ATOM     27  N   UNL A   1      36.049  30.588  28.001  1.00  0.00    -0.366 N 
ATOM     28  C   UNL A   1      35.875  32.046  28.023  1.00  0.00     0.145 C 
ATOM     29  C   UNL A   1      35.032  29.880  27.204  1.00  0.00     0.145 C 
ATOM     30  C   UNL A   1      34.436  32.379  28.456  1.00  0.00     0.181 C 
ATOM     31  C   UNL A   1      33.632  30.291  27.694  1.00  0.00     0.181 C 
ATOM     32  O   UNL A   1      33.456  31.717  27.636  1.00  0.00    -0.378 OA
ENDBRANCH  19  27
ENDBRANCH  13  16
ENDBRANCH  11  12
ENDBRANCH   8  10
ENDBRANCH   7   8
ENDBRANCH   6   7
ENDBRANCH   5   6
ENDBRANCH   4   5
ENDBRANCH   3   4
ENDBRANCH   2   3
ENDBRANCH   1   2
BRANCH   1  33
ATOM     33  C   UNL A   1      45.845  24.737  26.174  1.00  0.00     0.188 C 
BRANCH  33  34
ATOM     34  C   UNL A   1      45.798  23.916  27.470  1.00  0.00     0.188 C 
BRANCH  34  35
ATOM     35  O   UNL A   1      44.849  24.382  28.419  1.00  0.00    -0.376 OA
BRANCH  35  36
ATOM     36  C   UNL A   1      45.373  24.784  29.678  1.00  0.00     0.202 C 
BRANCH  36  37
ATOM     37  C   UNL A   1      44.573  24.332  30.909  1.00  0.00     0.261 C 
BRANCH  37  38
ATOM     38  O   UNL A   1      44.203  25.346  31.864  1.00  0.00    -0.460 OA
BRANCH  38  39
ATOM     39  C   UNL A   1      43.862  24.995  33.124  1.00  0.00     0.338 C 
ATOM     40  O   UNL A   1      43.764  23.869  33.573  1.00  0.00    -0.246 OA
BRANCH  39  41
ATOM     41  C   UNL A   1      43.857  26.230  33.950  1.00  0.00     0.060 A 
ATOM     42  C   UNL A   1      43.072  26.265  35.112  1.00  0.00     0.016 A 
ATOM     43  C   UNL A   1      44.664  27.320  33.613  1.00  0.00     0.016 A 
ATOM     44  C   UNL A   1      43.048  27.414  35.909  1.00  0.00     0.010 A 
ATOM     45  C   UNL A   1      44.615  28.480  34.392  1.00  0.00     0.010 A 
ATOM     46  C   UNL A   1      43.772  28.547  35.516  1.00  0.00    -0.014 A 
BRANCH  46  47
ATOM     47  C   UNL A   1      43.409  29.878  36.066  1.00  0.00     0.031 A 
ATOM     48  C   UNL A   1      44.233  30.387  37.219  1.00  0.00     0.074 A 
ATOM     49  C   UNL A   1      42.381  30.606  35.595  1.00  0.00     0.049 A 
ATOM     50  N   UNL A   1      44.084  31.468  37.938  1.00  0.00    -0.248 NA
ATOM     51  C   UNL A   1      45.378  29.551  37.620  1.00  0.00     0.031 C 
ATOM     52  C   UNL A   1      41.525  30.243  34.470  1.00  0.00     0.029 A 
ATOM     53  N   UNL A   1      41.874  31.806  36.032  1.00  0.00    -0.354 N 
ATOM     54  C   UNL A   1      45.105  31.435  38.880  1.00  0.00     0.074 A 
ATOM     55  C   UNL A   1      45.857  30.221  38.654  1.00  0.00     0.031 C 
ATOM     56  C   UNL A   1      40.578  31.188  34.322  1.00  0.00     0.029 A 
ATOM     57  C   UNL A   1      40.744  32.205  35.361  1.00  0.00     0.049 A 
ATOM     58  H   UNL A   1      42.282  32.330  36.759  1.00  0.00     0.167 HD
ATOM     59  C   UNL A   1      45.394  32.332  39.849  1.00  0.00     0.037 A 
ATOM     60  C   UNL A   1      39.923  33.255  35.582  1.00  0.00     0.037 A 
ATOM     61  C   UNL A   1      44.640  33.531  40.087  1.00  0.00     0.049 A 
ATOM     62  C   UNL A   1      40.226  34.214  36.708  1.00  0.00     0.074 A 
ATOM     63  C   UNL A   1      44.871  34.519  41.026  1.00  0.00     0.029 A 
ATOM     64  N   UNL A   1      43.496  33.893  39.392  1.00  0.00    -0.354 N 
ATOM     65  N   UNL A   1      41.223  34.198  37.562  1.00  0.00    -0.248 NA
ATOM     66  C   UNL A   1      39.292  35.334  36.901  1.00  0.00     0.031 C 
ATOM     67  C   UNL A   1      43.834  35.455  40.933  1.00  0.00     0.029 A 
ATOM     68  C   UNL A   1      42.988  35.075  39.902  1.00  0.00     0.049 A 
ATOM     69  H   UNL A   1      43.102  33.384  38.648  1.00  0.00     0.167 HD
ATOM     70  C   UNL A   1      41.044  35.310  38.381  1.00  0.00     0.074 A 
ATOM     71  C   UNL A   1      39.852  35.985  37.912  1.00  0.00     0.031 C 
ATOM     72  C   UNL A   1      41.799  35.735  39.425  1.00  0.00     0.037 A 
BRANCH  59  73
ATOM     73  C   UNL A   1      46.554  32.015  40.750  1.00  0.00     0.058 A 
ATOM     74  C   UNL A   1      46.391  31.280  41.934  1.00  0.00     0.135 A 
ATOM     75  C   UNL A   1      47.843  32.470  40.429  1.00  0.00     0.135 A 
ATOM     76  F   UNL A   1      45.175  30.846  42.300  1.00  0.00    -0.206 F 
ATOM     77  C   UNL A   1      47.462  31.033  42.786  1.00  0.00     0.059 A 
ATOM     78  C   UNL A   1      48.933  32.212  41.254  1.00  0.00     0.059 A 
ATOM     79  F   UNL A   1      48.049  33.187  39.313  1.00  0.00    -0.206 F 
ATOM     80  C   UNL A   1      48.728  31.508  42.440  1.00  0.00     0.060 A 
BRANCH  80  81
ATOM     81  S   UNL A   1      50.105  31.193  43.563  1.00  0.00     0.124 S 
ATOM     82  O   UNL A   1      50.345  32.526  44.109  1.00  0.00    -0.237 OA
ATOM     83  O   UNL A   1      49.537  30.221  44.491  1.00  0.00    -0.237 OA
ATOM     84  O   UNL A   1      51.150  30.679  42.683  1.00  0.00    -0.744 OA
ENDBRANCH  80  81
ENDBRANCH  59  73
BRANCH  60  85
ATOM     85  C   UNL A   1      38.716  33.443  34.732  1.00  0.00     0.058 A 
ATOM     86  C   UNL A   1      37.479  32.891  35.096  1.00  0.00     0.135 A 
ATOM     87  C   UNL A   1      38.775  34.185  33.542  1.00  0.00     0.135 A 
ATOM     88  F   UNL A   1      37.375  32.156  36.213  1.00  0.00    -0.206 F 
ATOM     89  C   UNL A   1      36.342  33.069  34.311  1.00  0.00     0.059 A 
ATOM     90  C   UNL A   1      37.648  34.396  32.753  1.00  0.00     0.059 A 
ATOM     91  F   UNL A   1      39.936  34.733  33.150  1.00  0.00    -0.206 F 
ATOM     92  C   UNL A   1      36.436  33.831  33.145  1.00  0.00     0.060 A 
BRANCH  92  93
ATOM     93  S   UNL A   1      34.936  34.121  32.181  1.00  0.00     0.124 S 
ATOM     94  O   UNL A   1      34.250  35.119  32.992  1.00  0.00    -0.237 OA
ATOM     95  O   UNL A   1      35.479  34.594  30.911  1.00  0.00    -0.237 OA
ATOM     96  O   UNL A   1      34.307  32.804  32.132  1.00  0.00    -0.744 OA
ENDBRANCH  92  93
ENDBRANCH  60  85
BRANCH  72  97
ATOM     97  C   UNL A   1      41.381  36.998  40.127  1.00  0.00     0.058 A 
ATOM     98  C   UNL A   1      41.910  38.247  39.771  1.00  0.00     0.135 A 
ATOM     99  C   UNL A   1      40.381  36.967  41.112  1.00  0.00     0.135 A 
ATOM    100  F   UNL A   1      42.871  38.333  38.836  1.00  0.00    -0.206 F 
ATOM    101  C   UNL A   1      41.474  39.421  40.378  1.00  0.00     0.059 A 
ATOM    102  C   UNL A   1      39.911  38.130  41.715  1.00  0.00     0.059 A 
ATOM    103  F   UNL A   1      39.830  35.799  41.480  1.00  0.00    -0.206 F 
ATOM    104  C   UNL A   1      40.471  39.353  41.348  1.00  0.00     0.060 A 
BRANCH 104 105
ATOM    105  S   UNL A   1      39.881  40.886  42.097  1.00  0.00     0.124 S 
ATOM    106  O   UNL A   1      39.277  41.559  40.953  1.00  0.00    -0.237 OA
ATOM    107  O   UNL A   1      38.951  40.402  43.112  1.00  0.00    -0.237 OA
ATOM    108  O   UNL A   1      41.099  41.501  42.616  1.00  0.00    -0.744 OA
ENDBRANCH 104 105
ENDBRANCH  72  97
ENDBRANCH  46  47
ENDBRANCH  39  41
ENDBRANCH  38  39
ENDBRANCH  37  38
ENDBRANCH  36  37
ENDBRANCH  35  36
ENDBRANCH  34  35
ENDBRANCH  33  34
ENDBRANCH   1  33
TORSDOF 27
ENDMDL
