MODEL 1
REMARK VINA RESULT:      -9.2      0.000      0.000
REMARK SMILES O=C(NCc1ccc(C(=O)OCCOCCOCCOCCOC(=O)c2ccc(-c3c4nc(c(-c5c(F)cc(S(=O)(=O)[O-])cc5F)c5ccc([nH]5)c(-c5c(F)cc(S(=O)(=O)[O-])cc5F)c5nc(c(-c6c(F)cc(S(=O)(=O)[O-])cc6F)c6ccc3[nH]6)C=C5)C=C4)cc2)cc1)Nc1ccccc1Br
REMARK SMILES IDX 17 1 16 2 15 3 14 4 13 5 12 6 11 7 9 8 10 9 8 10 5 11 6 12
REMARK SMILES IDX 93 13 7 14 92 15 4 16 3 17 1 18 2 19 94 20 95 23 96 24
REMARK SMILES IDX 100 25 97 26 99 27 101 28 98 29 18 30 19 31 20 32 21 33
REMARK SMILES IDX 22 34 23 35 24 36 25 37 26 38 27 39 91 40 28 41 90 42 29 43
REMARK SMILES IDX 30 44 31 45 84 46 32 47 89 48 83 49 85 50 33 51 88 52 82 53
REMARK SMILES IDX 81 54 34 56 68 57 47 58 67 59 48 60 51 61 66 62 86 63 49 64
REMARK SMILES IDX 50 65 65 67 87 68 52 69 35 70 36 71 45 72 37 73 38 74 44 75
REMARK SMILES IDX 46 76 39 77 40 78 41 79 42 80 43 81 69 82 70 83 79 84 71 85
REMARK SMILES IDX 72 86 78 87 80 88 73 89 74 90 75 91 76 92 77 93 53 94 54 95
REMARK SMILES IDX 63 96 55 97 56 98 62 99 64 100 57 101 58 102 59 103 60 104
REMARK SMILES IDX 61 105
REMARK H PARENT 3 21 94 22 85 55 51 66
REMARK Flexibility Score: inf
ROOT
ATOM      1  O   UNL A   1      32.881  37.262  30.666  1.00  0.00    -0.377 OA
ENDROOT
BRANCH   1   2
ATOM      2  C   UNL A   1      32.586  36.396  31.751  1.00  0.00     0.188 C 
BRANCH   2   3
ATOM      3  C   UNL A   1      33.735  35.627  32.437  1.00  0.00     0.188 C 
BRANCH   3   4
ATOM      4  O   UNL A   1      33.509  34.235  32.571  1.00  0.00    -0.376 OA
BRANCH   4   5
ATOM      5  C   UNL A   1      34.580  33.403  32.977  1.00  0.00     0.202 C 
BRANCH   5   6
ATOM      6  C   UNL A   1      35.259  33.687  34.326  1.00  0.00     0.261 C 
BRANCH   6   7
ATOM      7  O   UNL A   1      36.615  34.144  34.258  1.00  0.00    -0.460 OA
BRANCH   7   8
ATOM      8  C   UNL A   1      37.290  33.856  33.125  1.00  0.00     0.338 C 
ATOM      9  O   UNL A   1      37.423  34.578  32.152  1.00  0.00    -0.246 OA
BRANCH   8  10
ATOM     10  C   UNL A   1      38.040  32.594  33.334  1.00  0.00     0.060 A 
ATOM     11  C   UNL A   1      39.553  30.259  33.652  1.00  0.00    -0.029 A 
ATOM     12  C   UNL A   1      40.185  31.511  33.598  1.00  0.00     0.006 A 
ATOM     13  C   UNL A   1      38.152  30.195  33.621  1.00  0.00     0.006 A 
ATOM     14  C   UNL A   1      39.434  32.671  33.425  1.00  0.00     0.016 A 
ATOM     15  C   UNL A   1      37.394  31.361  33.472  1.00  0.00     0.016 A 
BRANCH  11  16
ATOM     16  C   UNL A   1      40.391  29.007  33.646  1.00  0.00     0.153 C 
BRANCH  16  17
ATOM     17  N   UNL A   1      41.199  28.966  34.852  1.00  0.00    -0.334 N 
ATOM     18  O   UNL A   1      42.618  28.178  36.373  1.00  0.00    -0.248 OA
ATOM     19  C   UNL A   1      42.196  28.121  35.223  1.00  0.00     0.319 C 
ATOM     20  N   UNL A   1      42.693  27.315  34.236  1.00  0.00    -0.307 N 
ATOM     21  H   UNL A   1      40.989  29.667  35.511  1.00  0.00     0.165 HD
ATOM     22  H   UNL A   1      42.391  27.495  33.318  1.00  0.00     0.171 HD
BRANCH  20  23
ATOM     23  C   UNL A   1      43.601  26.248  34.421  1.00  0.00     0.057 A 
ATOM     24  C   UNL A   1      44.864  26.424  33.833  1.00  0.00     0.027 A 
ATOM     25  C   UNL A   1      43.340  25.044  35.101  1.00  0.00     0.041 A 
ATOM     26  C   UNL A   1      45.871  25.467  33.980  1.00  0.00     0.002 A 
ATOM     27  C   UNL A   1      44.359  24.089  35.250  1.00  0.00     0.018 A 
ATOM     28  Br  UNL A   1      41.607  24.489  35.657  1.00  0.00    -0.049 Br
ATOM     29  C   UNL A   1      45.623  24.305  34.702  1.00  0.00     0.001 A 
ENDBRANCH  20  23
ENDBRANCH  16  17
ENDBRANCH  11  16
ENDBRANCH   8  10
ENDBRANCH   7   8
ENDBRANCH   6   7
ENDBRANCH   5   6
ENDBRANCH   4   5
ENDBRANCH   3   4
ENDBRANCH   2   3
ENDBRANCH   1   2
BRANCH   1  30
ATOM     30  C   UNL A   1      32.805  36.785  29.326  1.00  0.00     0.188 C 
BRANCH  30  31
ATOM     31  C   UNL A   1      34.014  36.865  28.363  1.00  0.00     0.188 C 
BRANCH  31  32
ATOM     32  O   UNL A   1      34.728  35.650  28.210  1.00  0.00    -0.376 OA
BRANCH  32  33
ATOM     33  C   UNL A   1      34.166  34.482  28.777  1.00  0.00     0.202 C 
BRANCH  33  34
ATOM     34  C   UNL A   1      35.142  33.413  29.284  1.00  0.00     0.261 C 
BRANCH  34  35
ATOM     35  O   UNL A   1      34.591  32.113  29.525  1.00  0.00    -0.460 OA
BRANCH  35  36
ATOM     36  C   UNL A   1      34.669  31.203  28.530  1.00  0.00     0.338 C 
ATOM     37  O   UNL A   1      33.899  31.064  27.596  1.00  0.00    -0.246 OA
BRANCH  36  38
ATOM     38  C   UNL A   1      35.963  30.509  28.684  1.00  0.00     0.060 A 
ATOM     39  C   UNL A   1      36.358  30.034  29.944  1.00  0.00     0.016 A 
ATOM     40  C   UNL A   1      36.768  30.305  27.563  1.00  0.00     0.016 A 
ATOM     41  C   UNL A   1      37.583  29.376  30.087  1.00  0.00     0.010 A 
ATOM     42  C   UNL A   1      37.999  29.669  27.712  1.00  0.00     0.010 A 
ATOM     43  C   UNL A   1      38.427  29.234  28.978  1.00  0.00    -0.014 A 
BRANCH  43  44
ATOM     44  C   UNL A   1      39.851  28.862  29.147  1.00  0.00     0.031 A 
ATOM     45  C   UNL A   1      40.800  29.947  29.574  1.00  0.00     0.074 A 
ATOM     46  C   UNL A   1      40.302  27.626  28.872  1.00  0.00     0.049 A 
ATOM     47  N   UNL A   1      42.106  29.946  29.605  1.00  0.00    -0.248 NA
ATOM     48  C   UNL A   1      40.186  31.213  30.009  1.00  0.00     0.031 C 
ATOM     49  C   UNL A   1      39.473  26.483  28.498  1.00  0.00     0.029 A 
ATOM     50  N   UNL A   1      41.586  27.139  28.837  1.00  0.00    -0.354 N 
ATOM     51  C   UNL A   1      42.470  31.216  30.037  1.00  0.00     0.074 A 
ATOM     52  C   UNL A   1      41.251  31.967  30.235  1.00  0.00     0.031 C 
ATOM     53  C   UNL A   1      40.272  25.431  28.242  1.00  0.00     0.029 A 
ATOM     54  C   UNL A   1      41.669  25.841  28.387  1.00  0.00     0.049 A 
ATOM     55  H   UNL A   1      42.371  27.667  29.107  1.00  0.00     0.167 HD
ATOM     56  C   UNL A   1      43.712  31.711  30.247  1.00  0.00     0.037 A 
ATOM     57  C   UNL A   1      42.750  25.092  28.088  1.00  0.00     0.037 A 
ATOM     58  C   UNL A   1      44.917  30.954  30.041  1.00  0.00     0.049 A 
ATOM     59  C   UNL A   1      44.128  25.685  28.261  1.00  0.00     0.074 A 
ATOM     60  C   UNL A   1      46.226  31.354  30.232  1.00  0.00     0.029 A 
ATOM     61  N   UNL A   1      44.958  29.642  29.589  1.00  0.00    -0.354 N 
ATOM     62  N   UNL A   1      44.466  26.886  28.674  1.00  0.00    -0.248 NA
ATOM     63  C   UNL A   1      45.273  24.826  27.927  1.00  0.00     0.031 C 
ATOM     64  C   UNL A   1      47.063  30.304  29.842  1.00  0.00     0.029 A 
ATOM     65  C   UNL A   1      46.273  29.225  29.478  1.00  0.00     0.049 A 
ATOM     66  H   UNL A   1      44.171  29.091  29.380  1.00  0.00     0.167 HD
ATOM     67  C   UNL A   1      45.858  26.906  28.693  1.00  0.00     0.074 A 
ATOM     68  C   UNL A   1      46.301  25.603  28.243  1.00  0.00     0.031 C 
ATOM     69  C   UNL A   1      46.694  27.910  29.058  1.00  0.00     0.037 A 
BRANCH  56  70
ATOM     70  C   UNL A   1      43.826  33.144  30.686  1.00  0.00     0.058 A 
ATOM     71  C   UNL A   1      43.808  33.509  32.041  1.00  0.00     0.135 A 
ATOM     72  C   UNL A   1      43.982  34.166  29.735  1.00  0.00     0.135 A 
ATOM     73  F   UNL A   1      43.637  32.575  32.992  1.00  0.00    -0.206 F 
ATOM     74  C   UNL A   1      43.912  34.838  32.438  1.00  0.00     0.059 A 
ATOM     75  C   UNL A   1      44.122  35.498  30.110  1.00  0.00     0.059 A 
ATOM     76  F   UNL A   1      43.999  33.873  28.425  1.00  0.00    -0.206 F 
ATOM     77  C   UNL A   1      44.072  35.826  31.464  1.00  0.00     0.060 A 
BRANCH  77  78
ATOM     78  S   UNL A   1      44.215  37.544  31.996  1.00  0.00     0.124 S 
ATOM     79  O   UNL A   1      43.605  37.492  33.320  1.00  0.00    -0.237 OA
ATOM     80  O   UNL A   1      45.658  37.757  31.971  1.00  0.00    -0.237 OA
ATOM     81  O   UNL A   1      43.458  38.278  30.986  1.00  0.00    -0.744 OA
ENDBRANCH  77  78
ENDBRANCH  56  70
BRANCH  57  82
ATOM     82  C   UNL A   1      42.580  23.704  27.579  1.00  0.00     0.058 A 
ATOM     83  C   UNL A   1      42.569  22.608  28.455  1.00  0.00     0.135 A 
ATOM     84  C   UNL A   1      42.433  23.441  26.208  1.00  0.00     0.135 A 
ATOM     85  F   UNL A   1      42.720  22.802  29.774  1.00  0.00    -0.206 F 
ATOM     86  C   UNL A   1      42.432  21.302  27.991  1.00  0.00     0.059 A 
ATOM     87  C   UNL A   1      42.267  22.148  25.721  1.00  0.00     0.059 A 
ATOM     88  F   UNL A   1      42.430  24.453  25.326  1.00  0.00    -0.206 F 
ATOM     89  C   UNL A   1      42.278  21.084  26.622  1.00  0.00     0.060 A 
BRANCH  89  90
ATOM     90  S   UNL A   1      42.054  19.390  26.036  1.00  0.00     0.124 S 
ATOM     91  O   UNL A   1      40.628  19.369  25.733  1.00  0.00    -0.237 OA
ATOM     92  O   UNL A   1      42.953  19.343  24.887  1.00  0.00    -0.237 OA
ATOM     93  O   UNL A   1      42.468  18.581  27.179  1.00  0.00    -0.744 OA
ENDBRANCH  89  90
ENDBRANCH  57  82
BRANCH  69  94
ATOM     94  C   UNL A   1      48.173  27.631  29.071  1.00  0.00     0.058 A 
ATOM     95  C   UNL A   1      48.983  27.835  27.945  1.00  0.00     0.135 A 
ATOM     96  C   UNL A   1      48.801  27.250  30.270  1.00  0.00     0.135 A 
ATOM     97  F   UNL A   1      48.435  28.194  26.773  1.00  0.00    -0.206 F 
ATOM     98  C   UNL A   1      50.363  27.663  28.003  1.00  0.00     0.059 A 
ATOM     99  C   UNL A   1      50.181  27.103  30.359  1.00  0.00     0.059 A 
ATOM    100  F   UNL A   1      48.073  27.053  31.381  1.00  0.00    -0.206 F 
ATOM    101  C   UNL A   1      50.954  27.306  29.217  1.00  0.00     0.060 A 
BRANCH 101 102
ATOM    102  S   UNL A   1      52.751  27.153  29.295  1.00  0.00     0.124 S 
ATOM    103  O   UNL A   1      52.914  26.085  30.277  1.00  0.00    -0.237 OA
ATOM    104  O   UNL A   1      53.093  26.808  27.919  1.00  0.00    -0.237 OA
ATOM    105  O   UNL A   1      53.188  28.477  29.730  1.00  0.00    -0.744 OA
ENDBRANCH 101 102
ENDBRANCH  69  94
ENDBRANCH  43  44
ENDBRANCH  36  38
ENDBRANCH  35  36
ENDBRANCH  34  35
ENDBRANCH  33  34
ENDBRANCH  32  33
ENDBRANCH  31  32
ENDBRANCH  30  31
ENDBRANCH   1  30
TORSDOF 26
ENDMDL
MODEL 2
REMARK VINA RESULT:      -8.0      5.228     12.895
REMARK SMILES O=C(NCc1ccc(C(=O)OCCOCCOCCOCCOC(=O)c2ccc(-c3c4nc(c(-c5c(F)cc(S(=O)(=O)[O-])cc5F)c5ccc([nH]5)c(-c5c(F)cc(S(=O)(=O)[O-])cc5F)c5nc(c(-c6c(F)cc(S(=O)(=O)[O-])cc6F)c6ccc3[nH]6)C=C5)C=C4)cc2)cc1)Nc1ccccc1Br
REMARK SMILES IDX 17 1 16 2 15 3 14 4 13 5 12 6 11 7 9 8 10 9 8 10 5 11 6 12
REMARK SMILES IDX 93 13 7 14 92 15 4 16 3 17 1 18 2 19 94 20 95 23 96 24
REMARK SMILES IDX 100 25 97 26 99 27 101 28 98 29 18 30 19 31 20 32 21 33
REMARK SMILES IDX 22 34 23 35 24 36 25 37 26 38 27 39 91 40 28 41 90 42 29 43
REMARK SMILES IDX 30 44 31 45 84 46 32 47 89 48 83 49 85 50 33 51 88 52 82 53
REMARK SMILES IDX 81 54 34 56 68 57 47 58 67 59 48 60 51 61 66 62 86 63 49 64
REMARK SMILES IDX 50 65 65 67 87 68 52 69 35 70 36 71 45 72 37 73 38 74 44 75
REMARK SMILES IDX 46 76 39 77 40 78 41 79 42 80 43 81 69 82 70 83 79 84 71 85
REMARK SMILES IDX 72 86 78 87 80 88 73 89 74 90 75 91 76 92 77 93 53 94 54 95
REMARK SMILES IDX 63 96 55 97 56 98 62 99 64 100 57 101 58 102 59 103 60 104
REMARK SMILES IDX 61 105
REMARK H PARENT 3 21 94 22 85 55 51 66
REMARK Flexibility Score: inf
ROOT
ATOM      1  O   UNL A   1      46.165  22.470  26.122  1.00  0.00    -0.377 OA
ENDROOT
BRANCH   1   2
ATOM      2  C   UNL A   1      45.998  22.188  24.742  1.00  0.00     0.188 C 
BRANCH   2   3
ATOM      3  C   UNL A   1      44.908  21.188  24.302  1.00  0.00     0.188 C 
BRANCH   3   4
ATOM      4  O   UNL A   1      44.713  20.105  25.195  1.00  0.00    -0.376 OA
BRANCH   4   5
ATOM      5  C   UNL A   1      43.689  19.167  24.922  1.00  0.00     0.202 C 
BRANCH   5   6
ATOM      6  C   UNL A   1      42.722  18.786  26.054  1.00  0.00     0.261 C 
BRANCH   6   7
ATOM      7  O   UNL A   1      41.353  19.155  25.857  1.00  0.00    -0.460 OA
BRANCH   7   8
ATOM      8  C   UNL A   1      40.995  20.385  26.283  1.00  0.00     0.338 C 
ATOM      9  O   UNL A   1      41.732  21.238  26.748  1.00  0.00    -0.246 OA
BRANCH   8  10
ATOM     10  C   UNL A   1      39.586  20.625  25.892  1.00  0.00     0.060 A 
ATOM     11  C   UNL A   1      36.939  20.996  25.053  1.00  0.00    -0.029 A 
ATOM     12  C   UNL A   1      37.542  19.732  24.958  1.00  0.00     0.006 A 
ATOM     13  C   UNL A   1      37.649  22.053  25.643  1.00  0.00     0.006 A 
ATOM     14  C   UNL A   1      38.863  19.551  25.361  1.00  0.00     0.016 A 
ATOM     15  C   UNL A   1      38.968  21.867  26.070  1.00  0.00     0.016 A 
BRANCH  11  16
ATOM     16  C   UNL A   1      35.582  21.215  24.437  1.00  0.00     0.153 C 
BRANCH  16  17
ATOM     17  N   UNL A   1      35.610  22.427  23.637  1.00  0.00    -0.334 N 
ATOM     18  O   UNL A   1      34.868  24.269  22.634  1.00  0.00    -0.248 OA
ATOM     19  C   UNL A   1      34.698  23.426  23.509  1.00  0.00     0.319 C 
ATOM     20  N   UNL A   1      33.691  23.436  24.433  1.00  0.00    -0.307 N 
ATOM     21  H   UNL A   1      36.425  22.544  23.097  1.00  0.00     0.165 HD
ATOM     22  H   UNL A   1      33.770  22.811  25.189  1.00  0.00     0.171 HD
BRANCH  20  23
ATOM     23  C   UNL A   1      32.546  24.265  24.397  1.00  0.00     0.057 A 
ATOM     24  C   UNL A   1      31.456  23.755  23.672  1.00  0.00     0.027 A 
ATOM     25  C   UNL A   1      32.423  25.536  24.987  1.00  0.00     0.041 A 
ATOM     26  C   UNL A   1      30.247  24.452  23.597  1.00  0.00     0.002 A 
ATOM     27  C   UNL A   1      31.203  26.227  24.913  1.00  0.00     0.018 A 
ATOM     28  Br  UNL A   1      33.883  26.523  25.705  1.00  0.00    -0.049 Br
ATOM     29  C   UNL A   1      30.116  25.682  24.231  1.00  0.00     0.001 A 
ENDBRANCH  20  23
ENDBRANCH  16  17
ENDBRANCH  11  16
ENDBRANCH   8  10
ENDBRANCH   7   8
ENDBRANCH   6   7
ENDBRANCH   5   6
ENDBRANCH   4   5
ENDBRANCH   3   4
ENDBRANCH   2   3
ENDBRANCH   1   2
BRANCH   1  30
ATOM     30  C   UNL A   1      46.433  23.801  26.556  1.00  0.00     0.188 C 
BRANCH  30  31
ATOM     31  C   UNL A   1      45.782  24.390  27.830  1.00  0.00     0.188 C 
BRANCH  31  32
ATOM     32  O   UNL A   1      44.364  24.395  27.821  1.00  0.00    -0.376 OA
BRANCH  32  33
ATOM     33  C   UNL A   1      43.716  25.515  27.250  1.00  0.00     0.202 C 
BRANCH  33  34
ATOM     34  C   UNL A   1      42.499  25.237  26.359  1.00  0.00     0.261 C 
BRANCH  34  35
ATOM     35  O   UNL A   1      41.483  26.247  26.336  1.00  0.00    -0.460 OA
BRANCH  35  36
ATOM     36  C   UNL A   1      40.283  25.944  26.877  1.00  0.00     0.338 C 
ATOM     37  O   UNL A   1      39.536  25.037  26.551  1.00  0.00    -0.246 OA
BRANCH  36  38
ATOM     38  C   UNL A   1      40.115  26.810  28.060  1.00  0.00     0.060 A 
ATOM     39  C   UNL A   1      40.739  28.066  28.104  1.00  0.00     0.016 A 
ATOM     40  C   UNL A   1      39.308  26.380  29.114  1.00  0.00     0.016 A 
ATOM     41  C   UNL A   1      40.577  28.885  29.224  1.00  0.00     0.010 A 
ATOM     42  C   UNL A   1      39.166  27.188  30.240  1.00  0.00     0.010 A 
ATOM     43  C   UNL A   1      39.827  28.427  30.315  1.00  0.00    -0.014 A 
BRANCH  43  44
ATOM     44  C   UNL A   1      39.912  29.097  31.634  1.00  0.00     0.031 A 
ATOM     45  C   UNL A   1      38.946  30.218  31.900  1.00  0.00     0.074 A 
ATOM     46  C   UNL A   1      40.848  28.771  32.541  1.00  0.00     0.049 A 
ATOM     47  N   UNL A   1      38.929  31.091  32.871  1.00  0.00    -0.248 NA
ATOM     48  C   UNL A   1      37.859  30.386  30.919  1.00  0.00     0.031 C 
ATOM     49  C   UNL A   1      41.805  27.673  32.416  1.00  0.00     0.029 A 
ATOM     50  N   UNL A   1      41.165  29.361  33.739  1.00  0.00    -0.354 N 
ATOM     51  C   UNL A   1      37.850  31.925  32.607  1.00  0.00     0.074 A 
ATOM     52  C   UNL A   1      37.248  31.469  31.373  1.00  0.00     0.031 C 
ATOM     53  C   UNL A   1      42.623  27.686  33.484  1.00  0.00     0.029 A 
ATOM     54  C   UNL A   1      42.278  28.821  34.341  1.00  0.00     0.049 A 
ATOM     55  H   UNL A   1      40.646  30.100  34.131  1.00  0.00     0.167 HD
ATOM     56  C   UNL A   1      37.402  32.978  33.328  1.00  0.00     0.037 A 
ATOM     57  C   UNL A   1      42.960  29.226  35.432  1.00  0.00     0.037 A 
ATOM     58  C   UNL A   1      38.013  33.424  34.551  1.00  0.00     0.049 A 
ATOM     59  C   UNL A   1      42.487  30.447  36.186  1.00  0.00     0.074 A 
ATOM     60  C   UNL A   1      37.635  34.474  35.367  1.00  0.00     0.029 A 
ATOM     61  N   UNL A   1      39.135  32.848  35.129  1.00  0.00    -0.354 N 
ATOM     62  N   UNL A   1      41.463  31.229  35.932  1.00  0.00    -0.248 NA
ATOM     63  C   UNL A   1      43.261  30.843  37.371  1.00  0.00     0.031 C 
ATOM     64  C   UNL A   1      38.562  34.569  36.410  1.00  0.00     0.029 A 
ATOM     65  C   UNL A   1      39.474  33.533  36.283  1.00  0.00     0.049 A 
ATOM     66  H   UNL A   1      39.617  32.068  34.773  1.00  0.00     0.167 HD
ATOM     67  C   UNL A   1      41.444  32.178  36.952  1.00  0.00     0.074 A 
ATOM     68  C   UNL A   1      42.563  31.878  37.820  1.00  0.00     0.031 C 
ATOM     69  C   UNL A   1      40.575  33.199  37.154  1.00  0.00     0.037 A 
BRANCH  56  70
ATOM     70  C   UNL A   1      36.221  33.739  32.793  1.00  0.00     0.058 A 
ATOM     71  C   UNL A   1      36.291  34.475  31.599  1.00  0.00     0.135 A 
ATOM     72  C   UNL A   1      34.993  33.711  33.473  1.00  0.00     0.135 A 
ATOM     73  F   UNL A   1      37.448  34.555  30.920  1.00  0.00    -0.206 F 
ATOM     74  C   UNL A   1      35.194  35.177  31.113  1.00  0.00     0.059 A 
ATOM     75  C   UNL A   1      33.873  34.379  32.988  1.00  0.00     0.059 A 
ATOM     76  F   UNL A   1      34.872  33.029  34.623  1.00  0.00    -0.206 F 
ATOM     77  C   UNL A   1      33.988  35.121  31.814  1.00  0.00     0.060 A 
BRANCH  77  78
ATOM     78  S   UNL A   1      32.572  36.031  31.164  1.00  0.00     0.124 S 
ATOM     79  O   UNL A   1      32.540  35.573  29.780  1.00  0.00    -0.237 OA
ATOM     80  O   UNL A   1      31.483  35.558  32.013  1.00  0.00    -0.237 OA
ATOM     81  O   UNL A   1      32.948  37.429  31.354  1.00  0.00    -0.744 OA
ENDBRANCH  77  78
ENDBRANCH  56  70
BRANCH  57  82
ATOM     82  C   UNL A   1      44.172  28.484  35.875  1.00  0.00     0.058 A 
ATOM     83  C   UNL A   1      44.068  27.345  36.687  1.00  0.00     0.135 A 
ATOM     84  C   UNL A   1      45.460  28.901  35.504  1.00  0.00     0.135 A 
ATOM     85  F   UNL A   1      42.860  26.912  37.083  1.00  0.00    -0.206 F 
ATOM     86  C   UNL A   1      45.193  26.654  37.126  1.00  0.00     0.059 A 
ATOM     87  C   UNL A   1      46.600  28.212  35.906  1.00  0.00     0.059 A 
ATOM     88  F   UNL A   1      45.618  29.981  34.722  1.00  0.00    -0.206 F 
ATOM     89  C   UNL A   1      46.455  27.094  36.726  1.00  0.00     0.060 A 
BRANCH  89  90
ATOM     90  S   UNL A   1      47.906  26.161  37.263  1.00  0.00     0.124 S 
ATOM     91  O   UNL A   1      48.827  27.233  37.628  1.00  0.00    -0.237 OA
ATOM     92  O   UNL A   1      47.370  25.375  38.370  1.00  0.00    -0.237 OA
ATOM     93  O   UNL A   1      48.270  25.393  36.077  1.00  0.00    -0.744 OA
ENDBRANCH  89  90
ENDBRANCH  57  82
BRANCH  69  94
ATOM     94  C   UNL A   1      40.734  34.028  38.400  1.00  0.00     0.058 A 
ATOM     95  C   UNL A   1      41.470  35.221  38.416  1.00  0.00     0.135 A 
ATOM     96  C   UNL A   1      40.046  33.666  39.572  1.00  0.00     0.135 A 
ATOM     97  F   UNL A   1      42.151  35.611  37.327  1.00  0.00    -0.206 F 
ATOM     98  C   UNL A   1      41.527  36.023  39.553  1.00  0.00     0.059 A 
ATOM     99  C   UNL A   1      40.063  34.467  40.709  1.00  0.00     0.059 A 
ATOM    100  F   UNL A   1      39.316  32.539  39.607  1.00  0.00    -0.206 F 
ATOM    101  C   UNL A   1      40.812  35.643  40.691  1.00  0.00     0.060 A 
BRANCH 101 102
ATOM    102  S   UNL A   1      40.839  36.726  42.135  1.00  0.00     0.124 S 
ATOM    103  O   UNL A   1      41.000  35.766  43.221  1.00  0.00    -0.237 OA
ATOM    104  O   UNL A   1      41.994  37.577  41.863  1.00  0.00    -0.237 OA
ATOM    105  O   UNL A   1      39.545  37.401  42.080  1.00  0.00    -0.744 OA
ENDBRANCH 101 102
ENDBRANCH  69  94
ENDBRANCH  43  44
ENDBRANCH  36  38
ENDBRANCH  35  36
ENDBRANCH  34  35
ENDBRANCH  33  34
ENDBRANCH  32  33
ENDBRANCH  31  32
ENDBRANCH  30  31
ENDBRANCH   1  30
TORSDOF 26
ENDMDL
MODEL 3
REMARK VINA RESULT:      -7.9      1.449      2.318
REMARK SMILES O=C(NCc1ccc(C(=O)OCCOCCOCCOCCOC(=O)c2ccc(-c3c4nc(c(-c5c(F)cc(S(=O)(=O)[O-])cc5F)c5ccc([nH]5)c(-c5c(F)cc(S(=O)(=O)[O-])cc5F)c5nc(c(-c6c(F)cc(S(=O)(=O)[O-])cc6F)c6ccc3[nH]6)C=C5)C=C4)cc2)cc1)Nc1ccccc1Br
REMARK SMILES IDX 17 1 16 2 15 3 14 4 13 5 12 6 11 7 9 8 10 9 8 10 5 11 6 12
REMARK SMILES IDX 93 13 7 14 92 15 4 16 3 17 1 18 2 19 94 20 95 23 96 24
REMARK SMILES IDX 100 25 97 26 99 27 101 28 98 29 18 30 19 31 20 32 21 33
REMARK SMILES IDX 22 34 23 35 24 36 25 37 26 38 27 39 91 40 28 41 90 42 29 43
REMARK SMILES IDX 30 44 31 45 84 46 32 47 89 48 83 49 85 50 33 51 88 52 82 53
REMARK SMILES IDX 81 54 34 56 68 57 47 58 67 59 48 60 51 61 66 62 86 63 49 64
REMARK SMILES IDX 50 65 65 67 87 68 52 69 35 70 36 71 45 72 37 73 38 74 44 75
REMARK SMILES IDX 46 76 39 77 40 78 41 79 42 80 43 81 69 82 70 83 79 84 71 85
REMARK SMILES IDX 72 86 78 87 80 88 73 89 74 90 75 91 76 92 77 93 53 94 54 95
REMARK SMILES IDX 63 96 55 97 56 98 62 99 64 100 57 101 58 102 59 103 60 104
REMARK SMILES IDX 61 105
REMARK H PARENT 3 21 94 22 85 55 51 66
REMARK Flexibility Score: inf
ROOT
ATOM      1  O   UNL A   1      33.692  36.640  29.787  1.00  0.00    -0.377 OA
ENDROOT
BRANCH   1   2
ATOM      2  C   UNL A   1      32.914  36.711  30.971  1.00  0.00     0.188 C 
BRANCH   2   3
ATOM      3  C   UNL A   1      33.397  35.974  32.238  1.00  0.00     0.188 C 
BRANCH   3   4
ATOM      4  O   UNL A   1      32.840  34.684  32.413  1.00  0.00    -0.376 OA
BRANCH   4   5
ATOM      5  C   UNL A   1      33.504  33.758  33.253  1.00  0.00     0.202 C 
BRANCH   5   6
ATOM      6  C   UNL A   1      34.783  34.209  33.975  1.00  0.00     0.261 C 
BRANCH   6   7
ATOM      7  O   UNL A   1      35.849  33.254  34.012  1.00  0.00    -0.460 OA
BRANCH   7   8
ATOM      8  C   UNL A   1      37.097  33.739  33.841  1.00  0.00     0.338 C 
ATOM      9  O   UNL A   1      37.434  34.910  33.872  1.00  0.00    -0.246 OA
BRANCH   8  10
ATOM     10  C   UNL A   1      38.045  32.600  33.825  1.00  0.00     0.060 A 
ATOM     11  C   UNL A   1      39.800  30.423  33.672  1.00  0.00    -0.029 A 
ATOM     12  C   UNL A   1      39.597  31.248  32.555  1.00  0.00     0.006 A 
ATOM     13  C   UNL A   1      39.175  30.743  34.886  1.00  0.00     0.006 A 
ATOM     14  C   UNL A   1      38.712  32.322  32.627  1.00  0.00     0.016 A 
ATOM     15  C   UNL A   1      38.306  31.836  34.967  1.00  0.00     0.016 A 
BRANCH  11  16
ATOM     16  C   UNL A   1      40.608  29.160  33.520  1.00  0.00     0.153 C 
BRANCH  16  17
ATOM     17  N   UNL A   1      40.865  28.596  34.834  1.00  0.00    -0.334 N 
ATOM     18  O   UNL A   1      41.548  27.136  36.367  1.00  0.00    -0.248 OA
ATOM     19  C   UNL A   1      41.621  27.530  35.208  1.00  0.00     0.319 C 
ATOM     20  N   UNL A   1      42.460  27.029  34.252  1.00  0.00    -0.307 N 
ATOM     21  H   UNL A   1      40.418  29.063  35.576  1.00  0.00     0.165 HD
ATOM     22  H   UNL A   1      42.553  27.548  33.421  1.00  0.00     0.171 HD
BRANCH  20  23
ATOM     23  C   UNL A   1      43.206  25.832  34.353  1.00  0.00     0.057 A 
ATOM     24  C   UNL A   1      42.572  24.785  35.043  1.00  0.00     0.027 A 
ATOM     25  C   UNL A   1      44.505  25.619  33.860  1.00  0.00     0.041 A 
ATOM     26  C   UNL A   1      43.178  23.533  35.174  1.00  0.00     0.002 A 
ATOM     27  C   UNL A   1      45.106  24.357  33.990  1.00  0.00     0.018 A 
ATOM     28  Br  UNL A   1      45.639  27.004  33.212  1.00  0.00    -0.049 Br
ATOM     29  C   UNL A   1      44.440  23.315  34.633  1.00  0.00     0.001 A 
ENDBRANCH  20  23
ENDBRANCH  16  17
ENDBRANCH  11  16
ENDBRANCH   8  10
ENDBRANCH   7   8
ENDBRANCH   6   7
ENDBRANCH   5   6
ENDBRANCH   4   5
ENDBRANCH   3   4
ENDBRANCH   2   3
ENDBRANCH   1   2
BRANCH   1  30
ATOM     30  C   UNL A   1      33.274  35.813  28.703  1.00  0.00     0.188 C 
BRANCH  30  31
ATOM     31  C   UNL A   1      34.231  34.793  28.041  1.00  0.00     0.188 C 
BRANCH  31  32
ATOM     32  O   UNL A   1      35.257  34.308  28.890  1.00  0.00    -0.376 OA
BRANCH  32  33
ATOM     33  C   UNL A   1      34.884  33.431  29.935  1.00  0.00     0.202 C 
BRANCH  33  34
ATOM     34  C   UNL A   1      35.946  32.439  30.426  1.00  0.00     0.261 C 
BRANCH  34  35
ATOM     35  O   UNL A   1      35.627  31.049  30.294  1.00  0.00    -0.460 OA
BRANCH  35  36
ATOM     36  C   UNL A   1      35.716  30.497  29.064  1.00  0.00     0.338 C 
ATOM     37  O   UNL A   1      34.929  30.622  28.141  1.00  0.00    -0.246 OA
BRANCH  36  38
ATOM     38  C   UNL A   1      37.040  29.849  28.980  1.00  0.00     0.060 A 
ATOM     39  C   UNL A   1      37.595  29.241  30.116  1.00  0.00     0.016 A 
ATOM     40  C   UNL A   1      37.713  29.823  27.758  1.00  0.00     0.016 A 
ATOM     41  C   UNL A   1      38.847  28.626  30.034  1.00  0.00     0.010 A 
ATOM     42  C   UNL A   1      38.971  29.230  27.684  1.00  0.00     0.010 A 
ATOM     43  C   UNL A   1      39.559  28.661  28.827  1.00  0.00    -0.014 A 
BRANCH  43  44
ATOM     44  C   UNL A   1      41.004  28.335  28.784  1.00  0.00     0.031 A 
ATOM     45  C   UNL A   1      41.970  29.459  29.039  1.00  0.00     0.074 A 
ATOM     46  C   UNL A   1      41.449  27.107  28.470  1.00  0.00     0.049 A 
ATOM     47  N   UNL A   1      43.265  29.498  28.870  1.00  0.00    -0.248 NA
ATOM     48  C   UNL A   1      41.388  30.717  29.536  1.00  0.00     0.031 C 
ATOM     49  C   UNL A   1      40.611  25.930  28.251  1.00  0.00     0.029 A 
ATOM     50  N   UNL A   1      42.727  26.657  28.249  1.00  0.00    -0.354 N 
ATOM     51  C   UNL A   1      43.648  30.789  29.215  1.00  0.00     0.074 A 
ATOM     52  C   UNL A   1      42.448  31.508  29.582  1.00  0.00     0.031 C 
ATOM     53  C   UNL A   1      41.396  24.897  27.898  1.00  0.00     0.029 A 
ATOM     54  C   UNL A   1      42.784  25.351  27.819  1.00  0.00     0.049 A 
ATOM     55  H   UNL A   1      43.527  27.215  28.386  1.00  0.00     0.167 HD
ATOM     56  C   UNL A   1      44.890  31.325  29.223  1.00  0.00     0.037 A 
ATOM     57  C   UNL A   1      43.832  24.628  27.375  1.00  0.00     0.037 A 
ATOM     58  C   UNL A   1      46.074  30.599  28.851  1.00  0.00     0.049 A 
ATOM     59  C   UNL A   1      45.200  25.265  27.323  1.00  0.00     0.074 A 
ATOM     60  C   UNL A   1      47.383  31.043  28.832  1.00  0.00     0.029 A 
ATOM     61  N   UNL A   1      46.090  29.278  28.425  1.00  0.00    -0.354 N 
ATOM     62  N   UNL A   1      45.556  26.486  27.654  1.00  0.00    -0.248 NA
ATOM     63  C   UNL A   1      46.309  24.432  26.836  1.00  0.00     0.031 C 
ATOM     64  C   UNL A   1      48.186  30.008  28.341  1.00  0.00     0.029 A 
ATOM     65  C   UNL A   1      47.386  28.897  28.124  1.00  0.00     0.049 A 
ATOM     66  H   UNL A   1      45.299  28.699  28.351  1.00  0.00     0.167 HD
ATOM     67  C   UNL A   1      46.934  26.548  27.460  1.00  0.00     0.074 A 
ATOM     68  C   UNL A   1      47.346  25.248  26.975  1.00  0.00     0.031 C 
ATOM     69  C   UNL A   1      47.781  27.585  27.672  1.00  0.00     0.037 A 
BRANCH  56  70
ATOM     70  C   UNL A   1      45.022  32.772  29.609  1.00  0.00     0.058 A 
ATOM     71  C   UNL A   1      44.836  33.809  28.681  1.00  0.00     0.135 A 
ATOM     72  C   UNL A   1      45.316  33.127  30.936  1.00  0.00     0.135 A 
ATOM     73  F   UNL A   1      44.576  33.526  27.394  1.00  0.00    -0.206 F 
ATOM     74  C   UNL A   1      44.962  35.144  29.047  1.00  0.00     0.059 A 
ATOM     75  C   UNL A   1      45.415  34.457  31.332  1.00  0.00     0.059 A 
ATOM     76  F   UNL A   1      45.511  32.176  31.863  1.00  0.00    -0.206 F 
ATOM     77  C   UNL A   1      45.250  35.458  30.377  1.00  0.00     0.060 A 
BRANCH  77  78
ATOM     78  S   UNL A   1      45.402  37.196  30.837  1.00  0.00     0.124 S 
ATOM     79  O   UNL A   1      44.943  37.861  29.623  1.00  0.00    -0.237 OA
ATOM     80  O   UNL A   1      44.510  37.292  31.988  1.00  0.00    -0.237 OA
ATOM     81  O   UNL A   1      46.823  37.347  31.135  1.00  0.00    -0.744 OA
ENDBRANCH  77  78
ENDBRANCH  56  70
BRANCH  57  82
ATOM     82  C   UNL A   1      43.633  23.222  26.927  1.00  0.00     0.058 A 
ATOM     83  C   UNL A   1      43.822  22.856  25.586  1.00  0.00     0.135 A 
ATOM     84  C   UNL A   1      43.245  22.217  27.826  1.00  0.00     0.135 A 
ATOM     85  F   UNL A   1      44.180  23.781  24.682  1.00  0.00    -0.206 F 
ATOM     86  C   UNL A   1      43.620  21.550  25.148  1.00  0.00     0.059 A 
ATOM     87  C   UNL A   1      43.064  20.897  27.420  1.00  0.00     0.059 A 
ATOM     88  F   UNL A   1      43.057  22.509  29.123  1.00  0.00    -0.206 F 
ATOM     89  C   UNL A   1      43.245  20.577  26.075  1.00  0.00     0.060 A 
BRANCH  89  90
ATOM     90  S   UNL A   1      43.032  18.876  25.505  1.00  0.00     0.124 S 
ATOM     91  O   UNL A   1      41.587  18.707  25.617  1.00  0.00    -0.237 OA
ATOM     92  O   UNL A   1      43.564  18.941  24.148  1.00  0.00    -0.237 OA
ATOM     93  O   UNL A   1      43.833  18.102  26.449  1.00  0.00    -0.744 OA
ENDBRANCH  89  90
ENDBRANCH  57  82
BRANCH  69  94
ATOM     94  C   UNL A   1      49.254  27.351  27.465  1.00  0.00     0.058 A 
ATOM     95  C   UNL A   1      50.088  26.883  28.490  1.00  0.00     0.135 A 
ATOM     96  C   UNL A   1      49.812  27.505  26.184  1.00  0.00     0.135 A 
ATOM     97  F   UNL A   1      49.609  26.724  29.734  1.00  0.00    -0.206 F 
ATOM     98  C   UNL A   1      51.427  26.583  28.255  1.00  0.00     0.059 A 
ATOM     99  C   UNL A   1      51.138  27.181  25.919  1.00  0.00     0.059 A 
ATOM    100  F   UNL A   1      49.054  27.939  25.164  1.00  0.00    -0.206 F 
ATOM    101  C   UNL A   1      51.940  26.726  26.964  1.00  0.00     0.060 A 
BRANCH 101 102
ATOM    102  S   UNL A   1      53.660  26.267  26.659  1.00  0.00     0.124 S 
ATOM    103  O   UNL A   1      53.934  26.969  25.409  1.00  0.00    -0.237 OA
ATOM    104  O   UNL A   1      54.335  26.791  27.842  1.00  0.00    -0.237 OA
ATOM    105  O   UNL A   1      53.614  24.811  26.564  1.00  0.00    -0.744 OA
ENDBRANCH 101 102
ENDBRANCH  69  94
ENDBRANCH  43  44
ENDBRANCH  36  38
ENDBRANCH  35  36
ENDBRANCH  34  35
ENDBRANCH  33  34
ENDBRANCH  32  33
ENDBRANCH  31  32
ENDBRANCH  30  31
ENDBRANCH   1  30
TORSDOF 26
ENDMDL
