MODEL 1
REMARK VINA RESULT:      -9.2      0.000      0.000
REMARK SMILES CCN(CC)S(=O)(=O)c1ccc2nc(-c3ccncc3)cc(C(=O)OCCOCCOCCOCCOC(=O)c3ccc(-c4c5nc(c(-c6c(F)cc(S(=O)(=O)[O-])cc6F)c6ccc([nH]6)c(-c6c(F)cc(S(=O)(=O)[O-])cc6F)c6nc(c(-c7c(F)cc(S(=O)(=O)[O-])cc7F)c7ccc4[nH]7)C=C6)C=C5)cc3)c2c1
REMARK SMILES IDX 31 1 30 2 29 3 28 4 27 5 26 6 25 7 23 8 24 9 22 10 9 11
REMARK SMILES IDX 10 12 107 13 11 14 106 15 12 16 13 17 21 18 14 19 6 20 7 21
REMARK SMILES IDX 8 22 3 23 2 24 1 25 4 26 5 27 15 28 16 29 20 30 17 31 19 32
REMARK SMILES IDX 18 33 32 34 33 35 34 36 35 37 36 38 37 39 38 40 39 41 40 42
REMARK SMILES IDX 41 43 105 44 42 45 104 46 43 47 44 48 45 49 98 50 46 51
REMARK SMILES IDX 103 52 97 53 99 54 47 55 102 56 96 57 95 58 48 60 82 61
REMARK SMILES IDX 61 62 81 63 62 64 65 65 80 66 100 67 63 68 64 69 79 71
REMARK SMILES IDX 101 72 66 73 49 74 50 75 59 76 51 77 52 78 58 79 60 80 53 81
REMARK SMILES IDX 54 82 55 83 56 84 57 85 83 86 84 87 93 88 85 89 86 90 92 91
REMARK SMILES IDX 94 92 87 93 88 94 89 95 90 96 91 97 67 98 68 99 77 100
REMARK SMILES IDX 69 101 70 102 76 103 78 104 71 105 72 106 73 107 74 108
REMARK SMILES IDX 75 109
REMARK H PARENT 99 59 65 70
REMARK Flexibility Score: inf
ROOT
ATOM      1  O   UNL A   1      34.219  33.122  30.519  1.00  0.00    -0.377 OA
ENDROOT
BRANCH   1   2
ATOM      2  C   UNL A   1      35.290  32.417  29.929  1.00  0.00     0.188 C 
BRANCH   2   3
ATOM      3  C   UNL A   1      35.239  32.385  28.388  1.00  0.00     0.188 C 
BRANCH   3   4
ATOM      4  O   UNL A   1      34.412  31.442  27.732  1.00  0.00    -0.376 OA
BRANCH   4   5
ATOM      5  C   UNL A   1      34.832  30.121  27.416  1.00  0.00     0.202 C 
BRANCH   5   6
ATOM      6  C   UNL A   1      33.954  29.000  26.832  1.00  0.00     0.261 C 
BRANCH   6   7
ATOM      7  O   UNL A   1      33.239  29.304  25.642  1.00  0.00    -0.460 OA
BRANCH   7   8
ATOM      8  C   UNL A   1      33.400  28.477  24.596  1.00  0.00     0.338 C 
ATOM      9  O   UNL A   1      34.421  27.894  24.273  1.00  0.00    -0.246 OA
BRANCH   8  10
ATOM     10  C   UNL A   1      32.076  28.186  23.997  1.00  0.00     0.071 A 
ATOM     11  C   UNL A   1      31.624  24.439  23.846  1.00  0.00     0.083 A 
ATOM     12  C   UNL A   1      30.282  24.388  23.494  1.00  0.00     0.024 A 
ATOM     13  C   UNL A   1      32.257  25.675  23.977  1.00  0.00     0.033 A 
ATOM     14  C   UNL A   1      29.601  25.583  23.233  1.00  0.00     0.030 A 
ATOM     15  C   UNL A   1      31.551  26.889  23.787  1.00  0.00     0.016 A 
ATOM     16  C   UNL A   1      30.215  26.828  23.341  1.00  0.00     0.072 A 
ATOM     17  N   UNL A   1      29.506  27.922  23.007  1.00  0.00    -0.248 NA
ATOM     18  C   UNL A   1      31.346  29.315  23.629  1.00  0.00     0.045 A 
ATOM     19  C   UNL A   1      30.085  29.139  23.102  1.00  0.00     0.072 A 
BRANCH  11  20
ATOM     20  S   UNL A   1      32.587  22.941  23.986  1.00  0.00     0.243 S 
ATOM     21  O   UNL A   1      33.498  22.906  22.866  1.00  0.00    -0.207 OA
ATOM     22  O   UNL A   1      31.626  21.873  24.188  1.00  0.00    -0.207 OA
BRANCH  20  23
ATOM     23  N   UNL A   1      33.489  23.148  25.427  1.00  0.00    -0.198 NA
BRANCH  23  24
ATOM     24  C   UNL A   1      33.174  22.171  26.528  1.00  0.00     0.099 C 
ATOM     25  C   UNL A   1      34.402  21.652  27.251  1.00  0.00     0.022 C 
ENDBRANCH  23  24
BRANCH  23  26
ATOM     26  C   UNL A   1      34.969  23.342  25.314  1.00  0.00     0.099 C 
ATOM     27  C   UNL A   1      35.464  24.727  25.701  1.00  0.00     0.022 C 
ENDBRANCH  23  26
ENDBRANCH  20  23
ENDBRANCH  11  20
BRANCH  19  28
ATOM     28  C   UNL A   1      29.290  30.280  22.656  1.00  0.00     0.003 A 
ATOM     29  C   UNL A   1      28.931  30.402  21.311  1.00  0.00     0.030 A 
ATOM     30  C   UNL A   1      28.829  31.250  23.556  1.00  0.00     0.030 A 
ATOM     31  C   UNL A   1      28.120  31.456  20.932  1.00  0.00     0.111 A 
ATOM     32  C   UNL A   1      28.027  32.273  23.077  1.00  0.00     0.111 A 
ATOM     33  N   UNL A   1      27.653  32.393  21.785  1.00  0.00    -0.265 NA
ENDBRANCH  19  28
ENDBRANCH   8  10
ENDBRANCH   7   8
ENDBRANCH   6   7
ENDBRANCH   5   6
ENDBRANCH   4   5
ENDBRANCH   3   4
ENDBRANCH   2   3
ENDBRANCH   1   2
BRANCH   1  34
ATOM     34  C   UNL A   1      34.262  33.338  31.926  1.00  0.00     0.188 C 
BRANCH  34  35
ATOM     35  C   UNL A   1      35.107  34.491  32.515  1.00  0.00     0.188 C 
BRANCH  35  36
ATOM     36  O   UNL A   1      36.504  34.229  32.583  1.00  0.00    -0.376 OA
BRANCH  36  37
ATOM     37  C   UNL A   1      36.980  33.371  33.606  1.00  0.00     0.202 C 
BRANCH  37  38
ATOM     38  C   UNL A   1      36.747  31.867  33.400  1.00  0.00     0.261 C 
BRANCH  38  39
ATOM     39  O   UNL A   1      37.805  31.009  33.843  1.00  0.00    -0.460 OA
BRANCH  39  40
ATOM     40  C   UNL A   1      37.890  29.790  33.265  1.00  0.00     0.338 C 
ATOM     41  O   UNL A   1      37.027  28.932  33.238  1.00  0.00    -0.246 OA
BRANCH  40  42
ATOM     42  C   UNL A   1      39.149  29.745  32.495  1.00  0.00     0.060 A 
ATOM     43  C   UNL A   1      39.135  30.138  31.151  1.00  0.00     0.016 A 
ATOM     44  C   UNL A   1      40.333  29.316  33.098  1.00  0.00     0.016 A 
ATOM     45  C   UNL A   1      40.303  30.061  30.393  1.00  0.00     0.010 A 
ATOM     46  C   UNL A   1      41.498  29.223  32.332  1.00  0.00     0.010 A 
ATOM     47  C   UNL A   1      41.478  29.558  30.968  1.00  0.00    -0.014 A 
BRANCH  47  48
ATOM     48  C   UNL A   1      42.625  29.199  30.098  1.00  0.00     0.031 A 
ATOM     49  C   UNL A   1      43.694  30.232  29.865  1.00  0.00     0.074 A 
ATOM     50  C   UNL A   1      42.730  27.976  29.548  1.00  0.00     0.049 A 
ATOM     51  N   UNL A   1      44.769  30.165  29.124  1.00  0.00    -0.248 NA
ATOM     52  C   UNL A   1      43.525  31.518  30.562  1.00  0.00     0.031 C 
ATOM     53  C   UNL A   1      41.774  26.885  29.726  1.00  0.00     0.029 A 
ATOM     54  N   UNL A   1      43.690  27.454  28.719  1.00  0.00    -0.354 N 
ATOM     55  C   UNL A   1      45.399  31.396  29.258  1.00  0.00     0.074 A 
ATOM     56  C   UNL A   1      44.570  32.204  30.126  1.00  0.00     0.031 C 
ATOM     57  C   UNL A   1      42.193  25.821  29.017  1.00  0.00     0.029 A 
ATOM     58  C   UNL A   1      43.426  26.168  28.310  1.00  0.00     0.049 A 
ATOM     59  H   UNL A   1      44.494  27.952  28.444  1.00  0.00     0.167 HD
ATOM     60  C   UNL A   1      46.567  31.813  28.715  1.00  0.00     0.037 A 
ATOM     61  C   UNL A   1      44.090  25.376  27.445  1.00  0.00     0.037 A 
ATOM     62  C   UNL A   1      47.384  31.006  27.848  1.00  0.00     0.049 A 
ATOM     63  C   UNL A   1      45.356  25.884  26.801  1.00  0.00     0.074 A 
ATOM     64  C   UNL A   1      48.592  31.329  27.257  1.00  0.00     0.029 A 
ATOM     65  N   UNL A   1      47.071  29.718  27.438  1.00  0.00    -0.354 N 
ATOM     66  N   UNL A   1      45.956  27.042  26.956  1.00  0.00    -0.248 NA
ATOM     67  C   UNL A   1      46.039  24.976  25.868  1.00  0.00     0.031 C 
ATOM     68  C   UNL A   1      48.982  30.259  26.444  1.00  0.00     0.029 A 
ATOM     69  C   UNL A   1      48.050  29.242  26.581  1.00  0.00     0.049 A 
ATOM     70  H   UNL A   1      46.271  29.216  27.714  1.00  0.00     0.167 HD
ATOM     71  C   UNL A   1      47.101  26.988  26.166  1.00  0.00     0.074 A 
ATOM     72  C   UNL A   1      47.116  25.679  25.545  1.00  0.00     0.031 C 
ATOM     73  C   UNL A   1      48.056  27.934  25.973  1.00  0.00     0.037 A 
BRANCH  60  74
ATOM     74  C   UNL A   1      47.015  33.217  29.020  1.00  0.00     0.058 A 
ATOM     75  C   UNL A   1      47.850  33.511  30.111  1.00  0.00     0.135 A 
ATOM     76  C   UNL A   1      46.627  34.282  28.191  1.00  0.00     0.135 A 
ATOM     77  F   UNL A   1      48.236  32.535  30.949  1.00  0.00    -0.206 F 
ATOM     78  C   UNL A   1      48.261  34.812  30.384  1.00  0.00     0.059 A 
ATOM     79  C   UNL A   1      47.052  35.587  28.426  1.00  0.00     0.059 A 
ATOM     80  F   UNL A   1      45.825  34.061  27.137  1.00  0.00    -0.206 F 
ATOM     81  C   UNL A   1      47.858  35.843  29.534  1.00  0.00     0.060 A 
BRANCH  81  82
ATOM     82  S   UNL A   1      48.410  37.524  29.895  1.00  0.00     0.124 S 
ATOM     83  O   UNL A   1      47.249  38.068  30.593  1.00  0.00    -0.237 OA
ATOM     84  O   UNL A   1      49.592  37.292  30.720  1.00  0.00    -0.237 OA
ATOM     85  O   UNL A   1      48.670  38.089  28.576  1.00  0.00    -0.744 OA
ENDBRANCH  81  82
ENDBRANCH  60  74
BRANCH  61  86
ATOM     86  C   UNL A   1      43.567  24.019  27.125  1.00  0.00     0.058 A 
ATOM     87  C   UNL A   1      43.845  22.916  27.948  1.00  0.00     0.135 A 
ATOM     88  C   UNL A   1      42.778  23.798  25.984  1.00  0.00     0.135 A 
ATOM     89  F   UNL A   1      44.607  23.072  29.040  1.00  0.00    -0.206 F 
ATOM     90  C   UNL A   1      43.370  21.643  27.647  1.00  0.00     0.059 A 
ATOM     91  C   UNL A   1      42.267  22.541  25.680  1.00  0.00     0.059 A 
ATOM     92  F   UNL A   1      42.475  24.817  25.166  1.00  0.00    -0.206 F 
ATOM     93  C   UNL A   1      42.575  21.467  26.513  1.00  0.00     0.060 A 
BRANCH  93  94
ATOM     94  S   UNL A   1      41.902  19.828  26.168  1.00  0.00     0.124 S 
ATOM     95  O   UNL A   1      40.497  20.129  25.926  1.00  0.00    -0.237 OA
ATOM     96  O   UNL A   1      42.680  19.417  25.002  1.00  0.00    -0.237 OA
ATOM     97  O   UNL A   1      42.190  19.085  27.393  1.00  0.00    -0.744 OA
ENDBRANCH  93  94
ENDBRANCH  61  86
BRANCH  73  98
ATOM     98  C   UNL A   1      49.222  27.576  25.089  1.00  0.00     0.058 A 
ATOM     99  C   UNL A   1      49.128  27.588  23.689  1.00  0.00     0.135 A 
ATOM    100  C   UNL A   1      50.468  27.255  25.656  1.00  0.00     0.135 A 
ATOM    101  F   UNL A   1      47.962  27.884  23.092  1.00  0.00    -0.206 F 
ATOM    102  C   UNL A   1      50.215  27.259  22.884  1.00  0.00     0.059 A 
ATOM    103  C   UNL A   1      51.576  26.958  24.870  1.00  0.00     0.059 A 
ATOM    104  F   UNL A   1      50.620  27.243  26.990  1.00  0.00    -0.206 F 
ATOM    105  C   UNL A   1      51.435  26.945  23.484  1.00  0.00     0.060 A 
BRANCH 105 106
ATOM    106  S   UNL A   1      52.840  26.535  22.427  1.00  0.00     0.124 S 
ATOM    107  O   UNL A   1      52.172  25.979  21.254  1.00  0.00    -0.237 OA
ATOM    108  O   UNL A   1      53.479  27.833  22.238  1.00  0.00    -0.237 OA
ATOM    109  O   UNL A   1      53.600  25.578  23.227  1.00  0.00    -0.744 OA
ENDBRANCH 105 106
ENDBRANCH  73  98
ENDBRANCH  47  48
ENDBRANCH  40  42
ENDBRANCH  39  40
ENDBRANCH  38  39
ENDBRANCH  37  38
ENDBRANCH  36  37
ENDBRANCH  35  36
ENDBRANCH  34  35
ENDBRANCH   1  34
TORSDOF 28
ENDMDL
MODEL 2
REMARK VINA RESULT:      -9.0      5.765     10.028
REMARK SMILES CCN(CC)S(=O)(=O)c1ccc2nc(-c3ccncc3)cc(C(=O)OCCOCCOCCOCCOC(=O)c3ccc(-c4c5nc(c(-c6c(F)cc(S(=O)(=O)[O-])cc6F)c6ccc([nH]6)c(-c6c(F)cc(S(=O)(=O)[O-])cc6F)c6nc(c(-c7c(F)cc(S(=O)(=O)[O-])cc7F)c7ccc4[nH]7)C=C6)C=C5)cc3)c2c1
REMARK SMILES IDX 31 1 30 2 29 3 28 4 27 5 26 6 25 7 23 8 24 9 22 10 9 11
REMARK SMILES IDX 10 12 107 13 11 14 106 15 12 16 13 17 21 18 14 19 6 20 7 21
REMARK SMILES IDX 8 22 3 23 2 24 1 25 4 26 5 27 15 28 16 29 20 30 17 31 19 32
REMARK SMILES IDX 18 33 32 34 33 35 34 36 35 37 36 38 37 39 38 40 39 41 40 42
REMARK SMILES IDX 41 43 105 44 42 45 104 46 43 47 44 48 45 49 98 50 46 51
REMARK SMILES IDX 103 52 97 53 99 54 47 55 102 56 96 57 95 58 48 60 82 61
REMARK SMILES IDX 61 62 81 63 62 64 65 65 80 66 100 67 63 68 64 69 79 71
REMARK SMILES IDX 101 72 66 73 49 74 50 75 59 76 51 77 52 78 58 79 60 80 53 81
REMARK SMILES IDX 54 82 55 83 56 84 57 85 83 86 84 87 93 88 85 89 86 90 92 91
REMARK SMILES IDX 94 92 87 93 88 94 89 95 90 96 91 97 67 98 68 99 77 100
REMARK SMILES IDX 69 101 70 102 76 103 78 104 71 105 72 106 73 107 74 108
REMARK SMILES IDX 75 109
REMARK H PARENT 99 59 65 70
REMARK Flexibility Score: inf
ROOT
ATOM      1  O   UNL A   1      33.728  29.279  25.962  1.00  0.00    -0.377 OA
ENDROOT
BRANCH   1   2
ATOM      2  C   UNL A   1      32.973  28.891  24.833  1.00  0.00     0.188 C 
BRANCH   2   3
ATOM      3  C   UNL A   1      33.693  27.873  23.925  1.00  0.00     0.188 C 
BRANCH   3   4
ATOM      4  O   UNL A   1      33.316  26.508  23.963  1.00  0.00    -0.376 OA
BRANCH   4   5
ATOM      5  C   UNL A   1      33.757  25.550  23.010  1.00  0.00     0.202 C 
BRANCH   5   6
ATOM      6  C   UNL A   1      34.448  24.210  23.318  1.00  0.00     0.261 C 
BRANCH   6   7
ATOM      7  O   UNL A   1      35.662  24.274  24.055  1.00  0.00    -0.460 OA
BRANCH   7   8
ATOM      8  C   UNL A   1      35.636  23.844  25.327  1.00  0.00     0.338 C 
ATOM      9  O   UNL A   1      34.844  24.171  26.194  1.00  0.00    -0.246 OA
BRANCH   8  10
ATOM     10  C   UNL A   1      36.590  22.721  25.482  1.00  0.00     0.071 A 
ATOM     11  C   UNL A   1      34.789  19.496  24.697  1.00  0.00     0.083 A 
ATOM     12  C   UNL A   1      35.876  18.632  24.666  1.00  0.00     0.024 A 
ATOM     13  C   UNL A   1      34.985  20.841  25.006  1.00  0.00     0.033 A 
ATOM     14  C   UNL A   1      37.145  19.125  24.992  1.00  0.00     0.030 A 
ATOM     15  C   UNL A   1      36.279  21.359  25.263  1.00  0.00     0.016 A 
ATOM     16  C   UNL A   1      37.364  20.460  25.319  1.00  0.00     0.072 A 
ATOM     17  N   UNL A   1      38.603  20.835  25.685  1.00  0.00    -0.248 NA
ATOM     18  C   UNL A   1      37.871  23.101  25.881  1.00  0.00     0.045 A 
ATOM     19  C   UNL A   1      38.835  22.125  26.010  1.00  0.00     0.072 A 
BRANCH  11  20
ATOM     20  S   UNL A   1      33.127  18.876  24.492  1.00  0.00     0.243 S 
ATOM     21  O   UNL A   1      32.696  18.364  25.773  1.00  0.00    -0.207 OA
ATOM     22  O   UNL A   1      33.170  18.009  23.330  1.00  0.00    -0.207 OA
BRANCH  20  23
ATOM     23  N   UNL A   1      32.198  20.263  24.110  1.00  0.00    -0.198 NA
BRANCH  23  24
ATOM     24  C   UNL A   1      31.796  21.111  25.286  1.00  0.00     0.099 C 
ATOM     25  C   UNL A   1      31.613  22.577  24.944  1.00  0.00     0.022 C 
ENDBRANCH  23  24
BRANCH  23  26
ATOM     26  C   UNL A   1      32.652  21.128  22.976  1.00  0.00     0.099 C 
ATOM     27  C   UNL A   1      31.750  21.104  21.751  1.00  0.00     0.022 C 
ENDBRANCH  23  26
ENDBRANCH  20  23
ENDBRANCH  11  20
BRANCH  19  28
ATOM     28  C   UNL A   1      40.182  22.454  26.469  1.00  0.00     0.003 A 
ATOM     29  C   UNL A   1      41.266  22.352  25.594  1.00  0.00     0.030 A 
ATOM     30  C   UNL A   1      40.422  22.920  27.768  1.00  0.00     0.030 A 
ATOM     31  C   UNL A   1      42.519  22.737  26.036  1.00  0.00     0.111 A 
ATOM     32  C   UNL A   1      41.715  23.273  28.120  1.00  0.00     0.111 A 
ATOM     33  N   UNL A   1      42.768  23.201  27.280  1.00  0.00    -0.265 NA
ENDBRANCH  19  28
ENDBRANCH   8  10
ENDBRANCH   7   8
ENDBRANCH   6   7
ENDBRANCH   5   6
ENDBRANCH   4   5
ENDBRANCH   3   4
ENDBRANCH   2   3
ENDBRANCH   1   2
BRANCH   1  34
ATOM     34  C   UNL A   1      33.121  30.173  26.889  1.00  0.00     0.188 C 
BRANCH  34  35
ATOM     35  C   UNL A   1      33.981  31.196  27.666  1.00  0.00     0.188 C 
BRANCH  35  36
ATOM     36  O   UNL A   1      33.463  32.521  27.679  1.00  0.00    -0.376 OA
BRANCH  36  37
ATOM     37  C   UNL A   1      34.026  33.457  28.584  1.00  0.00     0.202 C 
BRANCH  37  38
ATOM     38  C   UNL A   1      33.111  34.603  29.037  1.00  0.00     0.261 C 
BRANCH  38  39
ATOM     39  O   UNL A   1      33.646  35.459  30.055  1.00  0.00    -0.460 OA
BRANCH  39  40
ATOM     40  C   UNL A   1      33.276  35.202  31.329  1.00  0.00     0.338 C 
ATOM     41  O   UNL A   1      32.156  35.287  31.797  1.00  0.00    -0.246 OA
BRANCH  40  42
ATOM     42  C   UNL A   1      34.436  34.607  32.022  1.00  0.00     0.060 A 
ATOM     43  C   UNL A   1      35.575  35.394  32.234  1.00  0.00     0.016 A 
ATOM     44  C   UNL A   1      34.399  33.281  32.457  1.00  0.00     0.016 A 
ATOM     45  C   UNL A   1      36.699  34.840  32.846  1.00  0.00     0.010 A 
ATOM     46  C   UNL A   1      35.531  32.723  33.055  1.00  0.00     0.010 A 
ATOM     47  C   UNL A   1      36.698  33.489  33.217  1.00  0.00    -0.014 A 
BRANCH  47  48
ATOM     48  C   UNL A   1      37.974  32.829  33.587  1.00  0.00     0.031 A 
ATOM     49  C   UNL A   1      38.532  33.078  34.963  1.00  0.00     0.074 A 
ATOM     50  C   UNL A   1      38.611  32.006  32.734  1.00  0.00     0.049 A 
ATOM     51  N   UNL A   1      39.639  32.642  35.503  1.00  0.00    -0.248 NA
ATOM     52  C   UNL A   1      37.730  33.939  35.848  1.00  0.00     0.031 C 
ATOM     53  C   UNL A   1      38.153  31.666  31.388  1.00  0.00     0.029 A 
ATOM     54  N   UNL A   1      39.788  31.316  32.877  1.00  0.00    -0.354 N 
ATOM     55  C   UNL A   1      39.672  33.179  36.784  1.00  0.00     0.074 A 
ATOM     56  C   UNL A   1      38.490  34.000  36.931  1.00  0.00     0.031 C 
ATOM     57  C   UNL A   1      39.047  30.834  30.823  1.00  0.00     0.029 A 
ATOM     58  C   UNL A   1      40.154  30.614  31.753  1.00  0.00     0.049 A 
ATOM     59  H   UNL A   1      40.320  31.322  33.706  1.00  0.00     0.167 HD
ATOM     60  C   UNL A   1      40.599  32.998  37.755  1.00  0.00     0.037 A 
ATOM     61  C   UNL A   1      41.268  29.898  31.499  1.00  0.00     0.037 A 
ATOM     62  C   UNL A   1      41.776  32.184  37.601  1.00  0.00     0.049 A 
ATOM     63  C   UNL A   1      42.319  29.762  32.572  1.00  0.00     0.074 A 
ATOM     64  C   UNL A   1      42.769  31.923  38.527  1.00  0.00     0.029 A 
ATOM     65  N   UNL A   1      42.125  31.508  36.440  1.00  0.00    -0.354 N 
ATOM     66  N   UNL A   1      42.327  30.253  33.790  1.00  0.00    -0.248 NA
ATOM     67  C   UNL A   1      43.511  28.968  32.240  1.00  0.00     0.031 C 
ATOM     68  C   UNL A   1      43.748  31.137  37.910  1.00  0.00     0.029 A 
ATOM     69  C   UNL A   1      43.332  30.851  36.619  1.00  0.00     0.049 A 
ATOM     70  H   UNL A   1      41.594  31.497  35.611  1.00  0.00     0.167 HD
ATOM     71  C   UNL A   1      43.506  29.803  34.377  1.00  0.00     0.074 A 
ATOM     72  C   UNL A   1      44.179  28.989  33.385  1.00  0.00     0.031 C 
ATOM     73  C   UNL A   1      43.988  30.039  35.624  1.00  0.00     0.037 A 
BRANCH  60  74
ATOM     74  C   UNL A   1      40.391  33.718  39.060  1.00  0.00     0.058 A 
ATOM     75  C   UNL A   1      41.045  34.925  39.355  1.00  0.00     0.135 A 
ATOM     76  C   UNL A   1      39.501  33.207  40.019  1.00  0.00     0.135 A 
ATOM     77  F   UNL A   1      41.922  35.449  38.485  1.00  0.00    -0.206 F 
ATOM     78  C   UNL A   1      40.845  35.585  40.564  1.00  0.00     0.059 A 
ATOM     79  C   UNL A   1      39.261  33.866  41.221  1.00  0.00     0.059 A 
ATOM     80  F   UNL A   1      38.852  32.054  39.793  1.00  0.00    -0.206 F 
ATOM     81  C   UNL A   1      39.949  35.048  41.490  1.00  0.00     0.060 A 
BRANCH  81  82
ATOM     82  S   UNL A   1      39.693  35.923  43.048  1.00  0.00     0.124 S 
ATOM     83  O   UNL A   1      40.071  37.285  42.684  1.00  0.00    -0.237 OA
ATOM     84  O   UNL A   1      38.270  35.707  43.295  1.00  0.00    -0.237 OA
ATOM     85  O   UNL A   1      40.597  35.247  43.972  1.00  0.00    -0.744 OA
ENDBRANCH  81  82
ENDBRANCH  60  74
BRANCH  61  86
ATOM     86  C   UNL A   1      41.456  29.262  30.166  1.00  0.00     0.058 A 
ATOM     87  C   UNL A   1      40.875  28.021  29.861  1.00  0.00     0.135 A 
ATOM     88  C   UNL A   1      42.227  29.883  29.170  1.00  0.00     0.135 A 
ATOM     89  F   UNL A   1      40.143  27.380  30.783  1.00  0.00    -0.206 F 
ATOM     90  C   UNL A   1      41.058  27.415  28.621  1.00  0.00     0.059 A 
ATOM     91  C   UNL A   1      42.399  29.310  27.915  1.00  0.00     0.059 A 
ATOM     92  F   UNL A   1      42.801  31.073  29.405  1.00  0.00    -0.206 F 
ATOM     93  C   UNL A   1      41.817  28.072  27.651  1.00  0.00     0.060 A 
BRANCH  93  94
ATOM     94  S   UNL A   1      41.992  27.314  26.022  1.00  0.00     0.124 S 
ATOM     95  O   UNL A   1      42.019  28.484  25.152  1.00  0.00    -0.237 OA
ATOM     96  O   UNL A   1      43.249  26.585  26.156  1.00  0.00    -0.237 OA
ATOM     97  O   UNL A   1      40.801  26.474  25.916  1.00  0.00    -0.744 OA
ENDBRANCH  93  94
ENDBRANCH  61  86
BRANCH  73  98
ATOM     98  C   UNL A   1      45.285  29.373  36.007  1.00  0.00     0.058 A 
ATOM     99  C   UNL A   1      46.513  30.052  35.963  1.00  0.00     0.135 A 
ATOM    100  C   UNL A   1      45.290  28.044  36.464  1.00  0.00     0.135 A 
ATOM    101  F   UNL A   1      46.568  31.322  35.532  1.00  0.00    -0.206 F 
ATOM    102  C   UNL A   1      47.703  29.426  36.324  1.00  0.00     0.059 A 
ATOM    103  C   UNL A   1      46.463  27.410  36.862  1.00  0.00     0.059 A 
ATOM    104  F   UNL A   1      44.143  27.351  36.541  1.00  0.00    -0.206 F 
ATOM    105  C   UNL A   1      47.667  28.105  36.772  1.00  0.00     0.060 A 
BRANCH 105 106
ATOM    106  S   UNL A   1      49.217  27.310  37.249  1.00  0.00     0.124 S 
ATOM    107  O   UNL A   1      50.129  28.450  37.296  1.00  0.00    -0.237 OA
ATOM    108  O   UNL A   1      48.879  26.715  38.537  1.00  0.00    -0.237 OA
ATOM    109  O   UNL A   1      49.459  26.359  36.168  1.00  0.00    -0.744 OA
ENDBRANCH 105 106
ENDBRANCH  73  98
ENDBRANCH  47  48
ENDBRANCH  40  42
ENDBRANCH  39  40
ENDBRANCH  38  39
ENDBRANCH  37  38
ENDBRANCH  36  37
ENDBRANCH  35  36
ENDBRANCH  34  35
ENDBRANCH   1  34
TORSDOF 28
ENDMDL
MODEL 3
REMARK VINA RESULT:      -8.7      4.328      9.669
REMARK SMILES CCN(CC)S(=O)(=O)c1ccc2nc(-c3ccncc3)cc(C(=O)OCCOCCOCCOCCOC(=O)c3ccc(-c4c5nc(c(-c6c(F)cc(S(=O)(=O)[O-])cc6F)c6ccc([nH]6)c(-c6c(F)cc(S(=O)(=O)[O-])cc6F)c6nc(c(-c7c(F)cc(S(=O)(=O)[O-])cc7F)c7ccc4[nH]7)C=C6)C=C5)cc3)c2c1
REMARK SMILES IDX 31 1 30 2 29 3 28 4 27 5 26 6 25 7 23 8 24 9 22 10 9 11
REMARK SMILES IDX 10 12 107 13 11 14 106 15 12 16 13 17 21 18 14 19 6 20 7 21
REMARK SMILES IDX 8 22 3 23 2 24 1 25 4 26 5 27 15 28 16 29 20 30 17 31 19 32
REMARK SMILES IDX 18 33 32 34 33 35 34 36 35 37 36 38 37 39 38 40 39 41 40 42
REMARK SMILES IDX 41 43 105 44 42 45 104 46 43 47 44 48 45 49 98 50 46 51
REMARK SMILES IDX 103 52 97 53 99 54 47 55 102 56 96 57 95 58 48 60 82 61
REMARK SMILES IDX 61 62 81 63 62 64 65 65 80 66 100 67 63 68 64 69 79 71
REMARK SMILES IDX 101 72 66 73 49 74 50 75 59 76 51 77 52 78 58 79 60 80 53 81
REMARK SMILES IDX 54 82 55 83 56 84 57 85 83 86 84 87 93 88 85 89 86 90 92 91
REMARK SMILES IDX 94 92 87 93 88 94 89 95 90 96 91 97 67 98 68 99 77 100
REMARK SMILES IDX 69 101 70 102 76 103 78 104 71 105 72 106 73 107 74 108
REMARK SMILES IDX 75 109
REMARK H PARENT 99 59 65 70
REMARK Flexibility Score: inf
ROOT
ATOM      1  O   UNL A   1      38.645  29.634  29.452  1.00  0.00    -0.377 OA
ENDROOT
BRANCH   1   2
ATOM      2  C   UNL A   1      37.417  29.298  28.842  1.00  0.00     0.188 C 
BRANCH   2   3
ATOM      3  C   UNL A   1      36.477  30.503  28.634  1.00  0.00     0.188 C 
BRANCH   3   4
ATOM      4  O   UNL A   1      35.079  30.297  28.550  1.00  0.00    -0.376 OA
BRANCH   4   5
ATOM      5  C   UNL A   1      34.233  31.030  27.675  1.00  0.00     0.202 C 
BRANCH   5   6
ATOM      6  C   UNL A   1      33.014  30.482  26.912  1.00  0.00     0.261 C 
BRANCH   6   7
ATOM      7  O   UNL A   1      32.679  29.119  27.141  1.00  0.00    -0.460 OA
BRANCH   7   8
ATOM      8  C   UNL A   1      33.296  28.196  26.385  1.00  0.00     0.338 C 
ATOM      9  O   UNL A   1      34.449  27.815  26.490  1.00  0.00    -0.246 OA
BRANCH   8  10
ATOM     10  C   UNL A   1      32.296  27.525  25.522  1.00  0.00     0.071 A 
ATOM     11  C   UNL A   1      32.763  23.789  25.825  1.00  0.00     0.083 A 
ATOM     12  C   UNL A   1      31.622  23.364  25.158  1.00  0.00     0.024 A 
ATOM     13  C   UNL A   1      33.037  25.152  25.925  1.00  0.00     0.033 A 
ATOM     14  C   UNL A   1      30.790  24.317  24.558  1.00  0.00     0.030 A 
ATOM     15  C   UNL A   1      32.158  26.124  25.383  1.00  0.00     0.016 A 
ATOM     16  C   UNL A   1      31.051  25.683  24.629  1.00  0.00     0.072 A 
ATOM     17  N   UNL A   1      30.238  26.526  23.967  1.00  0.00    -0.248 NA
ATOM     18  C   UNL A   1      31.464  28.393  24.817  1.00  0.00     0.045 A 
ATOM     19  C   UNL A   1      30.476  27.854  24.022  1.00  0.00     0.072 A 
BRANCH  11  20
ATOM     20  S   UNL A   1      33.959  22.607  26.427  1.00  0.00     0.243 S 
ATOM     21  O   UNL A   1      33.268  21.711  27.325  1.00  0.00    -0.207 OA
ATOM     22  O   UNL A   1      35.087  23.392  26.893  1.00  0.00    -0.207 OA
BRANCH  20  23
ATOM     23  N   UNL A   1      34.436  21.734  25.033  1.00  0.00    -0.198 NA
BRANCH  23  24
ATOM     24  C   UNL A   1      35.839  22.002  24.557  1.00  0.00     0.099 C 
ATOM     25  C   UNL A   1      35.920  23.050  23.463  1.00  0.00     0.022 C 
ENDBRANCH  23  24
BRANCH  23  26
ATOM     26  C   UNL A   1      34.140  20.268  24.980  1.00  0.00     0.099 C 
ATOM     27  C   UNL A   1      32.718  19.917  24.570  1.00  0.00     0.022 C 
ENDBRANCH  23  26
ENDBRANCH  20  23
ENDBRANCH  11  20
BRANCH  19  28
ATOM     28  C   UNL A   1      29.602  28.710  23.223  1.00  0.00     0.003 A 
ATOM     29  C   UNL A   1      30.147  29.718  22.424  1.00  0.00     0.030 A 
ATOM     30  C   UNL A   1      28.214  28.522  23.198  1.00  0.00     0.030 A 
ATOM     31  C   UNL A   1      29.300  30.466  21.626  1.00  0.00     0.111 A 
ATOM     32  C   UNL A   1      27.449  29.329  22.371  1.00  0.00     0.111 A 
ATOM     33  N   UNL A   1      27.962  30.292  21.577  1.00  0.00    -0.265 NA
ENDBRANCH  19  28
ENDBRANCH   8  10
ENDBRANCH   7   8
ENDBRANCH   6   7
ENDBRANCH   5   6
ENDBRANCH   4   5
ENDBRANCH   3   4
ENDBRANCH   2   3
ENDBRANCH   1   2
BRANCH   1  34
ATOM     34  C   UNL A   1      39.842  29.182  28.826  1.00  0.00     0.188 C 
BRANCH  34  35
ATOM     35  C   UNL A   1      39.889  28.961  27.297  1.00  0.00     0.188 C 
BRANCH  35  36
ATOM     36  O   UNL A   1      40.575  27.785  26.887  1.00  0.00    -0.376 OA
BRANCH  36  37
ATOM     37  C   UNL A   1      40.866  26.798  27.863  1.00  0.00     0.202 C 
BRANCH  37  38
ATOM     38  C   UNL A   1      41.918  25.748  27.481  1.00  0.00     0.261 C 
BRANCH  38  39
ATOM     39  O   UNL A   1      42.907  26.176  26.536  1.00  0.00    -0.460 OA
BRANCH  39  40
ATOM     40  C   UNL A   1      44.185  26.241  26.972  1.00  0.00     0.338 C 
ATOM     41  O   UNL A   1      45.030  25.369  26.892  1.00  0.00    -0.246 OA
BRANCH  40  42
ATOM     42  C   UNL A   1      44.445  27.631  27.394  1.00  0.00     0.060 A 
ATOM     43  C   UNL A   1      45.255  27.859  28.515  1.00  0.00     0.016 A 
ATOM     44  C   UNL A   1      43.893  28.702  26.689  1.00  0.00     0.016 A 
ATOM     45  C   UNL A   1      45.477  29.162  28.958  1.00  0.00     0.010 A 
ATOM     46  C   UNL A   1      44.103  30.005  27.144  1.00  0.00     0.010 A 
ATOM     47  C   UNL A   1      44.864  30.238  28.302  1.00  0.00    -0.014 A 
BRANCH  47  48
ATOM     48  C   UNL A   1      44.856  31.577  28.940  1.00  0.00     0.031 A 
ATOM     49  C   UNL A   1      45.915  32.567  28.534  1.00  0.00     0.074 A 
ATOM     50  C   UNL A   1      43.915  31.918  29.840  1.00  0.00     0.049 A 
ATOM     51  N   UNL A   1      46.131  33.779  28.971  1.00  0.00    -0.248 NA
ATOM     52  C   UNL A   1      46.859  32.124  27.494  1.00  0.00     0.031 C 
ATOM     53  C   UNL A   1      42.824  31.057  30.289  1.00  0.00     0.029 A 
ATOM     54  N   UNL A   1      43.739  33.084  30.542  1.00  0.00    -0.354 N 
ATOM     55  C   UNL A   1      47.237  34.242  28.268  1.00  0.00     0.074 A 
ATOM     56  C   UNL A   1      47.668  33.169  27.399  1.00  0.00     0.031 C 
ATOM     57  C   UNL A   1      42.093  31.723  31.201  1.00  0.00     0.029 A 
ATOM     58  C   UNL A   1      42.685  33.041  31.424  1.00  0.00     0.049 A 
ATOM     59  H   UNL A   1      44.312  33.876  30.425  1.00  0.00     0.167 HD
ATOM     60  C   UNL A   1      47.835  35.456  28.334  1.00  0.00     0.037 A 
ATOM     61  C   UNL A   1      42.267  33.953  32.325  1.00  0.00     0.037 A 
ATOM     62  C   UNL A   1      47.405  36.518  29.205  1.00  0.00     0.049 A 
ATOM     63  C   UNL A   1      42.987  35.274  32.427  1.00  0.00     0.074 A 
ATOM     64  C   UNL A   1      47.933  37.789  29.337  1.00  0.00     0.029 A 
ATOM     65  N   UNL A   1      46.349  36.429  30.101  1.00  0.00    -0.354 N 
ATOM     66  N   UNL A   1      44.017  35.711  31.738  1.00  0.00    -0.248 NA
ATOM     67  C   UNL A   1      42.486  36.231  33.424  1.00  0.00     0.031 C 
ATOM     68  C   UNL A   1      47.234  38.450  30.353  1.00  0.00     0.029 A 
ATOM     69  C   UNL A   1      46.226  37.614  30.808  1.00  0.00     0.049 A 
ATOM     70  H   UNL A   1      45.773  35.639  30.218  1.00  0.00     0.167 HD
ATOM     71  C   UNL A   1      44.265  37.002  32.198  1.00  0.00     0.074 A 
ATOM     72  C   UNL A   1      43.269  37.279  33.213  1.00  0.00     0.031 C 
ATOM     73  C   UNL A   1      45.227  37.879  31.813  1.00  0.00     0.037 A 
BRANCH  60  74
ATOM     74  C   UNL A   1      49.038  35.688  27.460  1.00  0.00     0.058 A 
ATOM     75  C   UNL A   1      48.922  36.173  26.147  1.00  0.00     0.135 A 
ATOM     76  C   UNL A   1      50.331  35.449  27.954  1.00  0.00     0.135 A 
ATOM     77  F   UNL A   1      47.710  36.399  25.616  1.00  0.00    -0.206 F 
ATOM     78  C   UNL A   1      50.040  36.387  25.348  1.00  0.00     0.059 A 
ATOM     79  C   UNL A   1      51.466  35.685  27.184  1.00  0.00     0.059 A 
ATOM     80  F   UNL A   1      50.503  34.980  29.201  1.00  0.00    -0.206 F 
ATOM     81  C   UNL A   1      51.309  36.142  25.876  1.00  0.00     0.060 A 
BRANCH  81  82
ATOM     82  S   UNL A   1      52.750  36.436  24.829  1.00  0.00     0.124 S 
ATOM     83  O   UNL A   1      53.301  37.648  25.426  1.00  0.00    -0.237 OA
ATOM     84  O   UNL A   1      53.533  35.220  25.030  1.00  0.00    -0.237 OA
ATOM     85  O   UNL A   1      52.177  36.597  23.497  1.00  0.00    -0.744 OA
ENDBRANCH  81  82
ENDBRANCH  60  74
BRANCH  61  86
ATOM     86  C   UNL A   1      41.112  33.646  33.213  1.00  0.00     0.058 A 
ATOM     87  C   UNL A   1      39.810  34.056  32.886  1.00  0.00     0.135 A 
ATOM     88  C   UNL A   1      41.290  32.939  34.413  1.00  0.00     0.135 A 
ATOM     89  F   UNL A   1      39.589  34.748  31.759  1.00  0.00    -0.206 F 
ATOM     90  C   UNL A   1      38.728  33.784  33.719  1.00  0.00     0.059 A 
ATOM     91  C   UNL A   1      40.221  32.630  35.246  1.00  0.00     0.059 A 
ATOM     92  F   UNL A   1      42.513  32.517  34.773  1.00  0.00    -0.206 F 
ATOM     93  C   UNL A   1      38.944  33.063  34.895  1.00  0.00     0.060 A 
BRANCH  93  94
ATOM     94  S   UNL A   1      37.527  32.652  35.935  1.00  0.00     0.124 S 
ATOM     95  O   UNL A   1      36.416  32.836  35.010  1.00  0.00    -0.237 OA
ATOM     96  O   UNL A   1      37.819  31.275  36.320  1.00  0.00    -0.237 OA
ATOM     97  O   UNL A   1      37.616  33.627  37.020  1.00  0.00    -0.744 OA
ENDBRANCH  93  94
ENDBRANCH  61  86
BRANCH  73  98
ATOM     98  C   UNL A   1      45.225  39.241  32.459  1.00  0.00     0.058 A 
ATOM     99  C   UNL A   1      45.967  39.517  33.617  1.00  0.00     0.135 A 
ATOM    100  C   UNL A   1      44.499  40.297  31.881  1.00  0.00     0.135 A 
ATOM    101  F   UNL A   1      46.677  38.547  34.213  1.00  0.00    -0.206 F 
ATOM    102  C   UNL A   1      45.961  40.781  34.201  1.00  0.00     0.059 A 
ATOM    103  C   UNL A   1      44.506  41.576  32.428  1.00  0.00     0.059 A 
ATOM    104  F   UNL A   1      43.783  40.094  30.764  1.00  0.00    -0.206 F 
ATOM    105  C   UNL A   1      45.226  41.804  33.598  1.00  0.00     0.060 A 
BRANCH 105 106
ATOM    106  S   UNL A   1      45.238  43.442  34.359  1.00  0.00     0.124 S 
ATOM    107  O   UNL A   1      44.548  44.239  33.349  1.00  0.00    -0.237 OA
ATOM    108  O   UNL A   1      44.504  43.216  35.599  1.00  0.00    -0.237 OA
ATOM    109  O   UNL A   1      46.660  43.732  34.521  1.00  0.00    -0.744 OA
ENDBRANCH 105 106
ENDBRANCH  73  98
ENDBRANCH  47  48
ENDBRANCH  40  42
ENDBRANCH  39  40
ENDBRANCH  38  39
ENDBRANCH  37  38
ENDBRANCH  36  37
ENDBRANCH  35  36
ENDBRANCH  34  35
ENDBRANCH   1  34
TORSDOF 28
ENDMDL
