MODEL 1
REMARK VINA RESULT:     -11.0      0.000      0.000
REMARK SMILES Cc1cccc(-c2cccc(O)c2)c1C(=O)OCCOCCOCCOCCOC(=O)c1ccc(-c2c3nc(c(-c4c(F)cc(S(=O)(=O)[O-])cc4F)c4ccc([nH]4)c(-c4c(F)cc(S(=O)(=O)[O-])cc4F)c4nc(c(-c5c(F)cc(S(=O)(=O)[O-])cc5F)c5ccc2[nH]5)C=C4)C=C3)cc1
REMARK SMILES IDX 24 1 23 2 22 3 21 4 20 5 19 6 18 7 17 8 15 9 16 10 14 11
REMARK SMILES IDX 1 12 2 13 3 14 4 15 6 16 5 17 7 18 8 19 13 20 9 21 11 22
REMARK SMILES IDX 10 23 12 24 25 26 26 27 27 28 28 29 29 30 30 31 31 32 32 33
REMARK SMILES IDX 33 34 97 35 34 36 96 37 35 38 36 39 37 40 90 41 38 42 95 43
REMARK SMILES IDX 89 44 91 45 39 46 94 47 88 48 87 49 40 51 74 52 53 53 73 54
REMARK SMILES IDX 54 55 57 56 72 57 92 58 55 59 56 60 71 62 93 63 58 64 41 65
REMARK SMILES IDX 42 66 51 67 43 68 44 69 50 70 52 71 45 72 46 73 47 74 48 75
REMARK SMILES IDX 49 76 75 77 76 78 85 79 77 80 78 81 84 82 86 83 79 84 80 85
REMARK SMILES IDX 81 86 82 87 83 88 59 89 60 90 69 91 61 92 62 93 68 94 70 95
REMARK SMILES IDX 63 96 64 97 65 98 66 99 67 100
REMARK H PARENT 12 25 91 50 57 61
REMARK Flexibility Score: inf
ROOT
ATOM      1  C   UNL A   1      31.878  23.442  26.766  1.00  0.00     0.188 C 
ENDROOT
BRANCH   1   2
ATOM      2  O   UNL A   1      31.031  24.509  27.191  1.00  0.00    -0.377 OA
BRANCH   2   3
ATOM      3  C   UNL A   1      31.059  25.683  26.413  1.00  0.00     0.188 C 
BRANCH   3   4
ATOM      4  C   UNL A   1      31.682  26.974  26.958  1.00  0.00     0.188 C 
BRANCH   4   5
ATOM      5  O   UNL A   1      31.501  28.262  26.407  1.00  0.00    -0.376 OA
BRANCH   5   6
ATOM      6  C   UNL A   1      32.641  28.791  25.746  1.00  0.00     0.202 C 
BRANCH   6   7
ATOM      7  C   UNL A   1      32.489  29.368  24.354  1.00  0.00     0.261 C 
BRANCH   7   8
ATOM      8  O   UNL A   1      31.105  29.602  24.188  1.00  0.00    -0.460 OA
BRANCH   8   9
ATOM      9  C   UNL A   1      30.636  29.354  22.971  1.00  0.00     0.339 C 
ATOM     10  O   UNL A   1      31.125  29.607  21.881  1.00  0.00    -0.246 OA
BRANCH   9  11
ATOM     11  C   UNL A   1      29.505  28.455  23.182  1.00  0.00     0.070 A 
ATOM     12  C   UNL A   1      31.004  26.361  22.965  1.00  0.00     0.045 C 
ATOM     13  C   UNL A   1      29.718  27.064  23.330  1.00  0.00    -0.036 A 
ATOM     14  C   UNL A   1      28.642  26.303  23.779  1.00  0.00     0.004 A 
ATOM     15  C   UNL A   1      27.384  26.889  23.938  1.00  0.00     0.001 A 
ATOM     16  C   UNL A   1      28.204  29.035  23.142  1.00  0.00    -0.003 A 
ATOM     17  C   UNL A   1      27.151  28.221  23.560  1.00  0.00     0.009 A 
BRANCH  16  18
ATOM     18  C   UNL A   1      27.968  30.352  22.467  1.00  0.00    -0.014 A 
ATOM     19  C   UNL A   1      27.791  30.403  21.069  1.00  0.00     0.009 A 
ATOM     20  C   UNL A   1      28.148  31.578  23.116  1.00  0.00     0.055 A 
ATOM     21  C   UNL A   1      28.022  31.574  20.332  1.00  0.00     0.004 A 
ATOM     22  C   UNL A   1      28.314  32.763  22.383  1.00  0.00     0.116 A 
ATOM     23  C   UNL A   1      28.310  32.762  20.994  1.00  0.00     0.046 A 
BRANCH  22  24
ATOM     24  O   UNL A   1      28.540  33.905  23.094  1.00  0.00    -0.508 OA
ATOM     25  H   UNL A   1      29.366  34.038  23.515  1.00  0.00     0.293 HD
ENDBRANCH  22  24
ENDBRANCH  16  18
ENDBRANCH   9  11
ENDBRANCH   8   9
ENDBRANCH   7   8
ENDBRANCH   6   7
ENDBRANCH   5   6
ENDBRANCH   4   5
ENDBRANCH   3   4
ENDBRANCH   2   3
ENDBRANCH   1   2
BRANCH   1  26
ATOM     26  C   UNL A   1      31.912  23.068  25.298  1.00  0.00     0.188 C 
BRANCH  26  27
ATOM     27  O   UNL A   1      33.242  22.614  25.051  1.00  0.00    -0.376 OA
BRANCH  27  28
ATOM     28  C   UNL A   1      34.286  23.523  25.316  1.00  0.00     0.202 C 
BRANCH  28  29
ATOM     29  C   UNL A   1      35.657  22.994  24.902  1.00  0.00     0.261 C 
BRANCH  29  30
ATOM     30  O   UNL A   1      36.729  23.749  25.525  1.00  0.00    -0.460 OA
BRANCH  30  31
ATOM     31  C   UNL A   1      37.932  23.137  25.753  1.00  0.00     0.338 C 
ATOM     32  O   UNL A   1      38.241  22.074  25.238  1.00  0.00    -0.246 OA
BRANCH  31  33
ATOM     33  C   UNL A   1      38.913  24.022  26.450  1.00  0.00     0.060 A 
ATOM     34  C   UNL A   1      38.900  24.239  27.838  1.00  0.00     0.016 A 
ATOM     35  C   UNL A   1      39.854  24.689  25.693  1.00  0.00     0.016 A 
ATOM     36  C   UNL A   1      39.675  25.267  28.428  1.00  0.00     0.010 A 
ATOM     37  C   UNL A   1      40.585  25.709  26.270  1.00  0.00     0.010 A 
ATOM     38  C   UNL A   1      40.481  26.069  27.628  1.00  0.00    -0.014 A 
BRANCH  38  39
ATOM     39  C   UNL A   1      41.180  27.328  28.018  1.00  0.00     0.031 A 
ATOM     40  C   UNL A   1      40.317  28.528  28.334  1.00  0.00     0.074 A 
ATOM     41  C   UNL A   1      42.459  27.265  28.491  1.00  0.00     0.049 A 
ATOM     42  N   UNL A   1      40.682  29.548  29.028  1.00  0.00    -0.248 NA
ATOM     43  C   UNL A   1      38.897  28.619  27.985  1.00  0.00     0.031 C 
ATOM     44  C   UNL A   1      43.078  28.127  29.509  1.00  0.00     0.029 A 
ATOM     45  N   UNL A   1      43.467  26.340  28.284  1.00  0.00    -0.354 N 
ATOM     46  C   UNL A   1      39.569  30.248  29.463  1.00  0.00     0.074 A 
ATOM     47  C   UNL A   1      38.477  29.638  28.749  1.00  0.00     0.031 C 
ATOM     48  C   UNL A   1      44.326  27.732  29.808  1.00  0.00     0.029 A 
ATOM     49  C   UNL A   1      44.694  26.810  28.768  1.00  0.00     0.049 A 
ATOM     50  H   UNL A   1      43.338  25.464  27.852  1.00  0.00     0.167 HD
ATOM     51  C   UNL A   1      39.727  31.194  30.444  1.00  0.00     0.037 A 
ATOM     52  C   UNL A   1      45.671  27.117  27.862  1.00  0.00     0.037 A 
ATOM     53  C   UNL A   1      41.166  31.456  30.668  1.00  0.00     0.049 A 
ATOM     54  C   UNL A   1      45.752  28.653  27.761  1.00  0.00     0.074 A 
ATOM     55  C   UNL A   1      42.000  31.475  31.769  1.00  0.00     0.029 A 
ATOM     56  N   UNL A   1      42.017  31.598  29.564  1.00  0.00    -0.354 N 
ATOM     57  N   UNL A   1      44.708  29.459  27.855  1.00  0.00    -0.248 NA
ATOM     58  C   UNL A   1      47.014  29.374  27.964  1.00  0.00     0.031 C 
ATOM     59  C   UNL A   1      43.350  31.377  31.300  1.00  0.00     0.029 A 
ATOM     60  C   UNL A   1      43.348  31.431  29.907  1.00  0.00     0.049 A 
ATOM     61  H   UNL A   1      41.705  31.793  28.651  1.00  0.00     0.167 HD
ATOM     62  C   UNL A   1      45.123  30.691  28.319  1.00  0.00     0.074 A 
ATOM     63  C   UNL A   1      46.580  30.600  28.312  1.00  0.00     0.031 C 
ATOM     64  C   UNL A   1      44.391  31.686  28.922  1.00  0.00     0.037 A 
BRANCH  51  65
ATOM     65  C   UNL A   1      38.626  31.818  31.327  1.00  0.00     0.058 A 
ATOM     66  C   UNL A   1      38.686  33.189  31.689  1.00  0.00     0.135 A 
ATOM     67  C   UNL A   1      37.548  31.128  31.932  1.00  0.00     0.135 A 
ATOM     68  F   UNL A   1      39.625  34.000  31.183  1.00  0.00    -0.206 F 
ATOM     69  C   UNL A   1      37.787  33.808  32.577  1.00  0.00     0.059 A 
ATOM     70  C   UNL A   1      36.602  31.740  32.781  1.00  0.00     0.059 A 
ATOM     71  F   UNL A   1      37.374  29.812  31.766  1.00  0.00    -0.206 F 
ATOM     72  C   UNL A   1      36.739  33.079  33.113  1.00  0.00     0.060 A 
BRANCH  72  73
ATOM     73  S   UNL A   1      35.577  33.897  34.232  1.00  0.00     0.124 S 
ATOM     74  O   UNL A   1      35.688  35.287  33.797  1.00  0.00    -0.237 OA
ATOM     75  O   UNL A   1      34.316  33.228  33.932  1.00  0.00    -0.237 OA
ATOM     76  O   UNL A   1      36.127  33.620  35.555  1.00  0.00    -0.744 OA
ENDBRANCH  72  73
ENDBRANCH  51  65
BRANCH  52  77
ATOM     77  C   UNL A   1      45.838  25.944  26.922  1.00  0.00     0.058 A 
ATOM     78  C   UNL A   1      46.104  24.721  27.599  1.00  0.00     0.135 A 
ATOM     79  C   UNL A   1      45.068  25.829  25.746  1.00  0.00     0.135 A 
ATOM     80  F   UNL A   1      46.860  24.732  28.709  1.00  0.00    -0.206 F 
ATOM     81  C   UNL A   1      45.433  23.530  27.298  1.00  0.00     0.059 A 
ATOM     82  C   UNL A   1      44.393  24.633  25.421  1.00  0.00     0.059 A 
ATOM     83  F   UNL A   1      44.777  26.924  25.026  1.00  0.00    -0.206 F 
ATOM     84  C   UNL A   1      44.523  23.512  26.247  1.00  0.00     0.060 A 
BRANCH  84  85
ATOM     85  S   UNL A   1      43.371  22.105  26.131  1.00  0.00     0.124 S 
ATOM     86  O   UNL A   1      42.383  22.592  25.179  1.00  0.00    -0.237 OA
ATOM     87  O   UNL A   1      44.233  21.023  25.658  1.00  0.00    -0.237 OA
ATOM     88  O   UNL A   1      42.905  21.946  27.501  1.00  0.00    -0.744 OA
ENDBRANCH  84  85
ENDBRANCH  52  77
BRANCH  64  89
ATOM     89  C   UNL A   1      44.614  33.133  28.528  1.00  0.00     0.058 A 
ATOM     90  C   UNL A   1      45.259  34.046  29.376  1.00  0.00     0.135 A 
ATOM     91  C   UNL A   1      44.383  33.584  27.201  1.00  0.00     0.135 A 
ATOM     92  F   UNL A   1      45.624  33.717  30.625  1.00  0.00    -0.206 F 
ATOM     93  C   UNL A   1      45.592  35.328  28.964  1.00  0.00     0.059 A 
ATOM     94  C   UNL A   1      44.765  34.840  26.753  1.00  0.00     0.059 A 
ATOM     95  F   UNL A   1      43.802  32.817  26.268  1.00  0.00    -0.206 F 
ATOM     96  C   UNL A   1      45.338  35.717  27.654  1.00  0.00     0.060 A 
BRANCH  96  97
ATOM     97  S   UNL A   1      45.770  37.381  27.151  1.00  0.00     0.124 S 
ATOM     98  O   UNL A   1      46.612  37.115  25.990  1.00  0.00    -0.237 OA
ATOM     99  O   UNL A   1      44.466  37.971  26.865  1.00  0.00    -0.237 OA
ATOM    100  O   UNL A   1      46.455  37.926  28.318  1.00  0.00    -0.744 OA
ENDBRANCH  96  97
ENDBRANCH  64  89
ENDBRANCH  38  39
ENDBRANCH  31  33
ENDBRANCH  30  31
ENDBRANCH  29  30
ENDBRANCH  28  29
ENDBRANCH  27  28
ENDBRANCH  26  27
ENDBRANCH   1  26
TORSDOF 25
ENDMDL
MODEL 2
REMARK VINA RESULT:     -10.9      2.205      2.813
REMARK SMILES Cc1cccc(-c2cccc(O)c2)c1C(=O)OCCOCCOCCOCCOC(=O)c1ccc(-c2c3nc(c(-c4c(F)cc(S(=O)(=O)[O-])cc4F)c4ccc([nH]4)c(-c4c(F)cc(S(=O)(=O)[O-])cc4F)c4nc(c(-c5c(F)cc(S(=O)(=O)[O-])cc5F)c5ccc2[nH]5)C=C4)C=C3)cc1
REMARK SMILES IDX 24 1 23 2 22 3 21 4 20 5 19 6 18 7 17 8 15 9 16 10 14 11
REMARK SMILES IDX 1 12 2 13 3 14 4 15 6 16 5 17 7 18 8 19 13 20 9 21 11 22
REMARK SMILES IDX 10 23 12 24 25 26 26 27 27 28 28 29 29 30 30 31 31 32 32 33
REMARK SMILES IDX 33 34 97 35 34 36 96 37 35 38 36 39 37 40 90 41 38 42 95 43
REMARK SMILES IDX 89 44 91 45 39 46 94 47 88 48 87 49 40 51 74 52 53 53 73 54
REMARK SMILES IDX 54 55 57 56 72 57 92 58 55 59 56 60 71 62 93 63 58 64 41 65
REMARK SMILES IDX 42 66 51 67 43 68 44 69 50 70 52 71 45 72 46 73 47 74 48 75
REMARK SMILES IDX 49 76 75 77 76 78 85 79 77 80 78 81 84 82 86 83 79 84 80 85
REMARK SMILES IDX 81 86 82 87 83 88 59 89 60 90 69 91 61 92 62 93 68 94 70 95
REMARK SMILES IDX 63 96 64 97 65 98 66 99 67 100
REMARK H PARENT 12 25 91 50 57 61
REMARK Flexibility Score: inf
ROOT
ATOM      1  C   UNL A   1      32.244  23.133  26.730  1.00  0.00     0.188 C 
ENDROOT
BRANCH   1   2
ATOM      2  O   UNL A   1      31.337  24.092  27.271  1.00  0.00    -0.377 OA
BRANCH   2   3
ATOM      3  C   UNL A   1      31.135  25.263  26.516  1.00  0.00     0.188 C 
BRANCH   3   4
ATOM      4  C   UNL A   1      32.133  26.425  26.583  1.00  0.00     0.188 C 
BRANCH   4   5
ATOM      5  O   UNL A   1      31.800  27.774  26.844  1.00  0.00    -0.376 OA
BRANCH   5   6
ATOM      6  C   UNL A   1      32.720  28.724  26.327  1.00  0.00     0.202 C 
BRANCH   6   7
ATOM      7  C   UNL A   1      32.902  28.839  24.828  1.00  0.00     0.261 C 
BRANCH   7   8
ATOM      8  O   UNL A   1      31.670  29.320  24.330  1.00  0.00    -0.460 OA
BRANCH   8   9
ATOM      9  C   UNL A   1      31.382  28.947  23.089  1.00  0.00     0.339 C 
ATOM     10  O   UNL A   1      32.057  29.024  22.076  1.00  0.00    -0.246 OA
BRANCH   9  11
ATOM     11  C   UNL A   1      30.159  28.157  23.211  1.00  0.00     0.070 A 
ATOM     12  C   UNL A   1      31.449  25.936  22.931  1.00  0.00     0.045 C 
ATOM     13  C   UNL A   1      30.226  26.747  23.290  1.00  0.00    -0.036 A 
ATOM     14  C   UNL A   1      29.062  26.077  23.659  1.00  0.00     0.004 A 
ATOM     15  C   UNL A   1      27.864  26.779  23.806  1.00  0.00     0.001 A 
ATOM     16  C   UNL A   1      28.925  28.868  23.158  1.00  0.00    -0.003 A 
ATOM     17  C   UNL A   1      27.780  28.145  23.494  1.00  0.00     0.009 A 
BRANCH  16  18
ATOM     18  C   UNL A   1      28.849  30.235  22.549  1.00  0.00    -0.014 A 
ATOM     19  C   UNL A   1      29.006  31.376  23.363  1.00  0.00     0.009 A 
ATOM     20  C   UNL A   1      28.392  30.459  21.246  1.00  0.00     0.055 A 
ATOM     21  C   UNL A   1      28.509  32.633  22.986  1.00  0.00     0.004 A 
ATOM     22  C   UNL A   1      27.955  31.730  20.845  1.00  0.00     0.116 A 
ATOM     23  C   UNL A   1      27.956  32.807  21.723  1.00  0.00     0.046 A 
BRANCH  22  24
ATOM     24  O   UNL A   1      27.474  31.849  19.575  1.00  0.00    -0.508 OA
ATOM     25  H   UNL A   1      26.693  31.393  19.326  1.00  0.00     0.293 HD
ENDBRANCH  22  24
ENDBRANCH  16  18
ENDBRANCH   9  11
ENDBRANCH   8   9
ENDBRANCH   7   8
ENDBRANCH   6   7
ENDBRANCH   5   6
ENDBRANCH   4   5
ENDBRANCH   3   4
ENDBRANCH   2   3
ENDBRANCH   1   2
BRANCH   1  26
ATOM     26  C   UNL A   1      32.360  22.995  25.225  1.00  0.00     0.188 C 
BRANCH  26  27
ATOM     27  O   UNL A   1      33.733  22.699  24.974  1.00  0.00    -0.376 OA
BRANCH  27  28
ATOM     28  C   UNL A   1      34.687  23.555  25.560  1.00  0.00     0.202 C 
BRANCH  28  29
ATOM     29  C   UNL A   1      36.123  23.085  25.342  1.00  0.00     0.261 C 
BRANCH  29  30
ATOM     30  O   UNL A   1      37.079  24.007  25.929  1.00  0.00    -0.460 OA
BRANCH  30  31
ATOM     31  C   UNL A   1      38.304  23.538  26.323  1.00  0.00     0.338 C 
ATOM     32  O   UNL A   1      38.777  22.493  25.904  1.00  0.00    -0.246 OA
BRANCH  31  33
ATOM     33  C   UNL A   1      39.101  24.551  27.076  1.00  0.00     0.060 A 
ATOM     34  C   UNL A   1      38.872  24.857  28.429  1.00  0.00     0.016 A 
ATOM     35  C   UNL A   1      40.084  25.249  26.406  1.00  0.00     0.016 A 
ATOM     36  C   UNL A   1      39.471  25.987  29.038  1.00  0.00     0.010 A 
ATOM     37  C   UNL A   1      40.641  26.367  26.997  1.00  0.00     0.010 A 
ATOM     38  C   UNL A   1      40.316  26.804  28.295  1.00  0.00    -0.014 A 
BRANCH  38  39
ATOM     39  C   UNL A   1      40.848  28.144  28.679  1.00  0.00     0.031 A 
ATOM     40  C   UNL A   1      39.896  29.315  28.598  1.00  0.00     0.074 A 
ATOM     41  C   UNL A   1      41.959  28.222  29.468  1.00  0.00     0.049 A 
ATOM     42  N   UNL A   1      40.035  30.434  29.218  1.00  0.00    -0.248 NA
ATOM     43  C   UNL A   1      38.616  29.271  27.887  1.00  0.00     0.031 C 
ATOM     44  C   UNL A   1      42.263  29.240  30.485  1.00  0.00     0.029 A 
ATOM     45  N   UNL A   1      43.014  27.345  29.653  1.00  0.00    -0.354 N 
ATOM     46  C   UNL A   1      38.826  31.108  29.254  1.00  0.00     0.074 A 
ATOM     47  C   UNL A   1      37.979  30.346  28.373  1.00  0.00     0.031 C 
ATOM     48  C   UNL A   1      43.399  28.966  31.144  1.00  0.00     0.029 A 
ATOM     49  C   UNL A   1      44.056  27.950  30.368  1.00  0.00     0.049 A 
ATOM     50  H   UNL A   1      43.030  26.417  29.325  1.00  0.00     0.167 HD
ATOM     51  C   UNL A   1      38.691  32.175  30.107  1.00  0.00     0.037 A 
ATOM     52  C   UNL A   1      45.227  28.206  29.711  1.00  0.00     0.037 A 
ATOM     53  C   UNL A   1      40.012  32.555  30.655  1.00  0.00     0.049 A 
ATOM     54  C   UNL A   1      45.285  29.720  29.428  1.00  0.00     0.074 A 
ATOM     55  C   UNL A   1      40.526  32.762  31.920  1.00  0.00     0.029 A 
ATOM     56  N   UNL A   1      41.119  32.615  29.798  1.00  0.00    -0.354 N 
ATOM     57  N   UNL A   1      44.229  30.462  29.141  1.00  0.00    -0.248 NA
ATOM     58  C   UNL A   1      46.426  30.541  29.848  1.00  0.00     0.031 C 
ATOM     59  C   UNL A   1      41.954  32.695  31.831  1.00  0.00     0.029 A 
ATOM     60  C   UNL A   1      42.317  32.578  30.490  1.00  0.00     0.049 A 
ATOM     61  H   UNL A   1      41.052  32.678  28.818  1.00  0.00     0.167 HD
ATOM     62  C   UNL A   1      44.469  31.766  29.526  1.00  0.00     0.074 A 
ATOM     63  C   UNL A   1      45.879  31.770  29.905  1.00  0.00     0.031 C 
ATOM     64  C   UNL A   1      43.574  32.778  29.781  1.00  0.00     0.037 A 
BRANCH  51  65
ATOM     65  C   UNL A   1      37.378  32.830  30.585  1.00  0.00     0.058 A 
ATOM     66  C   UNL A   1      36.552  33.535  29.671  1.00  0.00     0.135 A 
ATOM     67  C   UNL A   1      36.914  32.896  31.921  1.00  0.00     0.135 A 
ATOM     68  F   UNL A   1      36.824  33.550  28.359  1.00  0.00    -0.206 F 
ATOM     69  C   UNL A   1      35.401  34.251  30.043  1.00  0.00     0.059 A 
ATOM     70  C   UNL A   1      35.734  33.561  32.309  1.00  0.00     0.059 A 
ATOM     71  F   UNL A   1      37.602  32.352  32.931  1.00  0.00    -0.206 F 
ATOM     72  C   UNL A   1      34.989  34.252  31.365  1.00  0.00     0.060 A 
BRANCH  72  73
ATOM     73  S   UNL A   1      33.491  35.157  31.823  1.00  0.00     0.124 S 
ATOM     74  O   UNL A   1      32.885  34.243  32.787  1.00  0.00    -0.237 OA
ATOM     75  O   UNL A   1      34.021  36.403  32.363  1.00  0.00    -0.237 OA
ATOM     76  O   UNL A   1      32.772  35.285  30.558  1.00  0.00    -0.744 OA
ENDBRANCH  72  73
ENDBRANCH  51  65
BRANCH  52  77
ATOM     77  C   UNL A   1      45.671  26.940  29.012  1.00  0.00     0.058 A 
ATOM     78  C   UNL A   1      45.990  27.144  27.641  1.00  0.00     0.135 A 
ATOM     79  C   UNL A   1      46.448  25.968  29.676  1.00  0.00     0.135 A 
ATOM     80  F   UNL A   1      45.276  28.027  26.922  1.00  0.00    -0.206 F 
ATOM     81  C   UNL A   1      47.155  26.639  27.054  1.00  0.00     0.059 A 
ATOM     82  C   UNL A   1      47.621  25.440  29.094  1.00  0.00     0.059 A 
ATOM     83  F   UNL A   1      46.214  25.691  30.968  1.00  0.00    -0.206 F 
ATOM     84  C   UNL A   1      48.005  25.841  27.811  1.00  0.00     0.060 A 
BRANCH  84  85
ATOM     85  S   UNL A   1      49.689  25.540  27.183  1.00  0.00     0.124 S 
ATOM     86  O   UNL A   1      49.494  25.586  25.741  1.00  0.00    -0.237 OA
ATOM     87  O   UNL A   1      50.448  26.649  27.758  1.00  0.00    -0.237 OA
ATOM     88  O   UNL A   1      50.019  24.235  27.736  1.00  0.00    -0.744 OA
ENDBRANCH  84  85
ENDBRANCH  52  77
BRANCH  64  89
ATOM     89  C   UNL A   1      43.848  34.177  29.266  1.00  0.00     0.058 A 
ATOM     90  C   UNL A   1      43.827  34.486  27.898  1.00  0.00     0.135 A 
ATOM     91  C   UNL A   1      43.920  35.291  30.146  1.00  0.00     0.135 A 
ATOM     92  F   UNL A   1      43.664  33.540  26.960  1.00  0.00    -0.206 F 
ATOM     93  C   UNL A   1      43.934  35.788  27.433  1.00  0.00     0.059 A 
ATOM     94  C   UNL A   1      43.965  36.604  29.701  1.00  0.00     0.059 A 
ATOM     95  F   UNL A   1      43.921  35.158  31.480  1.00  0.00    -0.206 F 
ATOM     96  C   UNL A   1      44.006  36.838  28.340  1.00  0.00     0.060 A 
BRANCH  96  97
ATOM     97  S   UNL A   1      44.152  38.510  27.712  1.00  0.00     0.124 S 
ATOM     98  O   UNL A   1      42.950  38.609  26.891  1.00  0.00    -0.237 OA
ATOM     99  O   UNL A   1      44.150  39.306  28.936  1.00  0.00    -0.237 OA
ATOM    100  O   UNL A   1      45.417  38.495  26.985  1.00  0.00    -0.744 OA
ENDBRANCH  96  97
ENDBRANCH  64  89
ENDBRANCH  38  39
ENDBRANCH  31  33
ENDBRANCH  30  31
ENDBRANCH  29  30
ENDBRANCH  28  29
ENDBRANCH  27  28
ENDBRANCH  26  27
ENDBRANCH   1  26
TORSDOF 25
ENDMDL
MODEL 3
REMARK VINA RESULT:     -10.3      1.279      3.371
REMARK SMILES Cc1cccc(-c2cccc(O)c2)c1C(=O)OCCOCCOCCOCCOC(=O)c1ccc(-c2c3nc(c(-c4c(F)cc(S(=O)(=O)[O-])cc4F)c4ccc([nH]4)c(-c4c(F)cc(S(=O)(=O)[O-])cc4F)c4nc(c(-c5c(F)cc(S(=O)(=O)[O-])cc5F)c5ccc2[nH]5)C=C4)C=C3)cc1
REMARK SMILES IDX 24 1 23 2 22 3 21 4 20 5 19 6 18 7 17 8 15 9 16 10 14 11
REMARK SMILES IDX 1 12 2 13 3 14 4 15 6 16 5 17 7 18 8 19 13 20 9 21 11 22
REMARK SMILES IDX 10 23 12 24 25 26 26 27 27 28 28 29 29 30 30 31 31 32 32 33
REMARK SMILES IDX 33 34 97 35 34 36 96 37 35 38 36 39 37 40 90 41 38 42 95 43
REMARK SMILES IDX 89 44 91 45 39 46 94 47 88 48 87 49 40 51 74 52 53 53 73 54
REMARK SMILES IDX 54 55 57 56 72 57 92 58 55 59 56 60 71 62 93 63 58 64 41 65
REMARK SMILES IDX 42 66 51 67 43 68 44 69 50 70 52 71 45 72 46 73 47 74 48 75
REMARK SMILES IDX 49 76 75 77 76 78 85 79 77 80 78 81 84 82 86 83 79 84 80 85
REMARK SMILES IDX 81 86 82 87 83 88 59 89 60 90 69 91 61 92 62 93 68 94 70 95
REMARK SMILES IDX 63 96 64 97 65 98 66 99 67 100
REMARK H PARENT 12 25 91 50 57 61
REMARK Flexibility Score: inf
ROOT
ATOM      1  C   UNL A   1      30.672  24.525  25.457  1.00  0.00     0.188 C 
ENDROOT
BRANCH   1   2
ATOM      2  O   UNL A   1      30.289  24.541  24.082  1.00  0.00    -0.377 OA
BRANCH   2   3
ATOM      3  C   UNL A   1      30.106  25.809  23.495  1.00  0.00     0.188 C 
BRANCH   3   4
ATOM      4  C   UNL A   1      28.914  26.692  23.885  1.00  0.00     0.188 C 
BRANCH   4   5
ATOM      5  O   UNL A   1      28.457  27.814  23.157  1.00  0.00    -0.376 OA
BRANCH   5   6
ATOM      6  C   UNL A   1      29.246  28.984  23.311  1.00  0.00     0.202 C 
BRANCH   6   7
ATOM      7  C   UNL A   1      30.756  28.867  23.291  1.00  0.00     0.261 C 
BRANCH   7   8
ATOM      8  O   UNL A   1      31.211  29.625  24.393  1.00  0.00    -0.460 OA
BRANCH   8   9
ATOM      9  C   UNL A   1      31.467  28.923  25.491  1.00  0.00     0.339 C 
ATOM     10  O   UNL A   1      31.001  27.857  25.859  1.00  0.00    -0.246 OA
BRANCH   9  11
ATOM     11  C   UNL A   1      32.647  29.557  26.074  1.00  0.00     0.070 A 
ATOM     12  C   UNL A   1      31.269  31.579  26.906  1.00  0.00     0.045 C 
ATOM     13  C   UNL A   1      32.513  30.722  26.866  1.00  0.00    -0.036 A 
ATOM     14  C   UNL A   1      33.628  31.124  27.595  1.00  0.00     0.004 A 
ATOM     15  C   UNL A   1      34.850  30.469  27.428  1.00  0.00     0.001 A 
ATOM     16  C   UNL A   1      33.913  28.999  25.733  1.00  0.00    -0.003 A 
ATOM     17  C   UNL A   1      35.009  29.464  26.461  1.00  0.00     0.009 A 
BRANCH  16  18
ATOM     18  C   UNL A   1      34.076  28.147  24.511  1.00  0.00    -0.014 A 
ATOM     19  C   UNL A   1      34.251  28.753  23.251  1.00  0.00     0.009 A 
ATOM     20  C   UNL A   1      33.827  26.770  24.510  1.00  0.00     0.055 A 
ATOM     21  C   UNL A   1      33.956  28.082  22.054  1.00  0.00     0.004 A 
ATOM     22  C   UNL A   1      33.597  26.082  23.310  1.00  0.00     0.116 A 
ATOM     23  C   UNL A   1      33.603  26.738  22.085  1.00  0.00     0.046 A 
BRANCH  22  24
ATOM     24  O   UNL A   1      33.307  24.753  23.403  1.00  0.00    -0.508 OA
ATOM     25  H   UNL A   1      33.699  24.235  24.078  1.00  0.00     0.293 HD
ENDBRANCH  22  24
ENDBRANCH  16  18
ENDBRANCH   9  11
ENDBRANCH   8   9
ENDBRANCH   7   8
ENDBRANCH   6   7
ENDBRANCH   5   6
ENDBRANCH   4   5
ENDBRANCH   3   4
ENDBRANCH   2   3
ENDBRANCH   1   2
BRANCH   1  26
ATOM     26  C   UNL A   1      31.486  23.358  25.980  1.00  0.00     0.188 C 
BRANCH  26  27
ATOM     27  O   UNL A   1      32.743  23.914  26.367  1.00  0.00    -0.376 OA
BRANCH  27  28
ATOM     28  C   UNL A   1      33.900  23.245  25.923  1.00  0.00     0.202 C 
BRANCH  28  29
ATOM     29  C   UNL A   1      35.167  23.706  26.639  1.00  0.00     0.261 C 
BRANCH  29  30
ATOM     30  O   UNL A   1      36.241  23.976  25.700  1.00  0.00    -0.460 OA
BRANCH  30  31
ATOM     31  C   UNL A   1      37.431  23.312  25.837  1.00  0.00     0.338 C 
ATOM     32  O   UNL A   1      37.671  22.261  25.261  1.00  0.00    -0.246 OA
BRANCH  31  33
ATOM     33  C   UNL A   1      38.480  24.129  26.514  1.00  0.00     0.060 A 
ATOM     34  C   UNL A   1      38.471  24.401  27.893  1.00  0.00     0.016 A 
ATOM     35  C   UNL A   1      39.487  24.679  25.748  1.00  0.00     0.016 A 
ATOM     36  C   UNL A   1      39.330  25.376  28.456  1.00  0.00     0.010 A 
ATOM     37  C   UNL A   1      40.302  25.650  26.297  1.00  0.00     0.010 A 
ATOM     38  C   UNL A   1      40.215  26.069  27.639  1.00  0.00    -0.014 A 
BRANCH  38  39
ATOM     39  C   UNL A   1      41.022  27.274  27.992  1.00  0.00     0.031 A 
ATOM     40  C   UNL A   1      40.264  28.535  28.340  1.00  0.00     0.074 A 
ATOM     41  C   UNL A   1      42.312  27.117  28.409  1.00  0.00     0.049 A 
ATOM     42  N   UNL A   1      40.734  29.526  29.013  1.00  0.00    -0.248 NA
ATOM     43  C   UNL A   1      38.841  28.730  28.053  1.00  0.00     0.031 C 
ATOM     44  C   UNL A   1      43.037  27.932  29.395  1.00  0.00     0.029 A 
ATOM     45  N   UNL A   1      43.239  26.119  28.162  1.00  0.00    -0.354 N 
ATOM     46  C   UNL A   1      39.696  30.307  29.493  1.00  0.00     0.074 A 
ATOM     47  C   UNL A   1      38.531  29.779  28.830  1.00  0.00     0.031 C 
ATOM     48  C   UNL A   1      44.264  27.446  29.641  1.00  0.00     0.029 A 
ATOM     49  C   UNL A   1      44.517  26.499  28.590  1.00  0.00     0.049 A 
ATOM     50  H   UNL A   1      43.027  25.255  27.741  1.00  0.00     0.167 HD
ATOM     51  C   UNL A   1      39.966  31.240  30.462  1.00  0.00     0.037 A 
ATOM     52  C   UNL A   1      45.474  26.730  27.641  1.00  0.00     0.037 A 
ATOM     53  C   UNL A   1      41.429  31.396  30.621  1.00  0.00     0.049 A 
ATOM     54  C   UNL A   1      45.663  28.256  27.529  1.00  0.00     0.074 A 
ATOM     55  C   UNL A   1      42.310  31.354  31.684  1.00  0.00     0.029 A 
ATOM     56  N   UNL A   1      42.239  31.472  29.481  1.00  0.00    -0.354 N 
ATOM     57  N   UNL A   1      44.687  29.137  27.665  1.00  0.00    -0.248 NA
ATOM     58  C   UNL A   1      46.983  28.883  27.674  1.00  0.00     0.031 C 
ATOM     59  C   UNL A   1      43.627  31.156  31.157  1.00  0.00     0.029 A 
ATOM     60  C   UNL A   1      43.567  31.207  29.766  1.00  0.00     0.049 A 
ATOM     61  H   UNL A   1      41.903  31.689  28.581  1.00  0.00     0.167 HD
ATOM     62  C   UNL A   1      45.212  30.336  28.105  1.00  0.00     0.074 A 
ATOM     63  C   UNL A   1      46.657  30.138  28.035  1.00  0.00     0.031 C 
ATOM     64  C   UNL A   1      44.583  31.384  28.735  1.00  0.00     0.037 A 
BRANCH  51  65
ATOM     65  C   UNL A   1      38.954  31.945  31.389  1.00  0.00     0.058 A 
ATOM     66  C   UNL A   1      37.996  31.190  32.115  1.00  0.00     0.135 A 
ATOM     67  C   UNL A   1      38.794  33.343  31.543  1.00  0.00     0.135 A 
ATOM     68  F   UNL A   1      38.020  29.850  32.108  1.00  0.00    -0.206 F 
ATOM     69  C   UNL A   1      36.972  31.758  32.892  1.00  0.00     0.059 A 
ATOM     70  C   UNL A   1      37.809  33.935  32.361  1.00  0.00     0.059 A 
ATOM     71  F   UNL A   1      39.559  34.216  30.878  1.00  0.00    -0.206 F 
ATOM     72  C   UNL A   1      36.889  33.134  33.021  1.00  0.00     0.060 A 
BRANCH  72  73
ATOM     73  S   UNL A   1      35.581  33.848  34.047  1.00  0.00     0.124 S 
ATOM     74  O   UNL A   1      34.403  33.154  33.537  1.00  0.00    -0.237 OA
ATOM     75  O   UNL A   1      36.003  33.494  35.397  1.00  0.00    -0.237 OA
ATOM     76  O   UNL A   1      35.642  35.273  33.731  1.00  0.00    -0.744 OA
ENDBRANCH  72  73
ENDBRANCH  51  65
BRANCH  52  77
ATOM     77  C   UNL A   1      45.512  25.547  26.700  1.00  0.00     0.058 A 
ATOM     78  C   UNL A   1      45.857  24.330  27.350  1.00  0.00     0.135 A 
ATOM     79  C   UNL A   1      44.596  25.426  25.635  1.00  0.00     0.135 A 
ATOM     80  F   UNL A   1      46.750  24.347  28.353  1.00  0.00    -0.206 F 
ATOM     81  C   UNL A   1      45.147  23.140  27.151  1.00  0.00     0.059 A 
ATOM     82  C   UNL A   1      43.878  24.230  25.413  1.00  0.00     0.059 A 
ATOM     83  F   UNL A   1      44.220  26.515  24.947  1.00  0.00    -0.206 F 
ATOM     84  C   UNL A   1      44.109  23.117  26.227  1.00  0.00     0.060 A 
BRANCH  84  85
ATOM     85  S   UNL A   1      42.945  21.716  26.276  1.00  0.00     0.124 S 
ATOM     86  O   UNL A   1      41.870  22.177  25.407  1.00  0.00    -0.237 OA
ATOM     87  O   UNL A   1      43.751  20.612  25.759  1.00  0.00    -0.237 OA
ATOM     88  O   UNL A   1      42.614  21.610  27.689  1.00  0.00    -0.744 OA
ENDBRANCH  84  85
ENDBRANCH  52  77
BRANCH  64  89
ATOM     89  C   UNL A   1      44.894  32.809  28.325  1.00  0.00     0.058 A 
ATOM     90  C   UNL A   1      44.435  33.355  27.117  1.00  0.00     0.135 A 
ATOM     91  C   UNL A   1      45.472  33.734  29.236  1.00  0.00     0.135 A 
ATOM     92  F   UNL A   1      43.782  32.615  26.208  1.00  0.00    -0.206 F 
ATOM     93  C   UNL A   1      44.595  34.697  26.805  1.00  0.00     0.059 A 
ATOM     94  C   UNL A   1      45.584  35.090  28.968  1.00  0.00     0.059 A 
ATOM     95  F   UNL A   1      45.931  33.368  30.442  1.00  0.00    -0.206 F 
ATOM     96  C   UNL A   1      45.172  35.554  27.733  1.00  0.00     0.060 A 
BRANCH  96  97
ATOM     97  S   UNL A   1      45.374  37.282  27.301  1.00  0.00     0.124 S 
ATOM     98  O   UNL A   1      45.877  37.829  28.557  1.00  0.00    -0.237 OA
ATOM     99  O   UNL A   1      46.338  37.221  26.206  1.00  0.00    -0.237 OA
ATOM    100  O   UNL A   1      44.030  37.700  26.921  1.00  0.00    -0.744 OA
ENDBRANCH  96  97
ENDBRANCH  64  89
ENDBRANCH  38  39
ENDBRANCH  31  33
ENDBRANCH  30  31
ENDBRANCH  29  30
ENDBRANCH  28  29
ENDBRANCH  27  28
ENDBRANCH  26  27
ENDBRANCH   1  26
TORSDOF 25
ENDMDL
