MODEL 1
REMARK VINA RESULT:      -9.1      0.000      0.000
REMARK SMILES O=C(OCCOCCOCCOCCOC(=O)c1cc(-c2ccccc2)nc(Nc2nc3ccccc3s2)n1)c1ccc(-c2c3nc(c(-c4c(F)cc(S(=O)(=O)[O-])cc4F)c4ccc([nH]4)c(-c4c(F)cc(S(=O)(=O)[O-])cc4F)c4nc(c(-c5c(F)cc(S(=O)(=O)[O-])cc5F)c5ccc2[nH]5)C=C4)C=C3)cc1
REMARK SMILES IDX 8 1 7 2 6 3 5 4 4 5 3 6 2 7 1 8 40 9 41 10 105 11 42 12
REMARK SMILES IDX 104 13 43 14 44 15 45 16 98 17 46 18 103 19 97 20 99 21
REMARK SMILES IDX 47 22 102 23 96 24 95 25 48 27 82 28 61 29 81 30 62 31 65 32
REMARK SMILES IDX 80 33 100 34 63 35 64 36 79 38 101 39 66 40 49 41 50 42
REMARK SMILES IDX 59 43 51 44 52 45 58 46 60 47 53 48 54 49 55 50 56 51 57 52
REMARK SMILES IDX 83 53 84 54 93 55 85 56 86 57 92 58 94 59 87 60 88 61 89 62
REMARK SMILES IDX 90 63 91 64 67 65 68 66 77 67 69 68 70 69 76 70 78 71 71 72
REMARK SMILES IDX 72 73 73 74 74 75 75 76 9 77 10 78 11 79 12 80 13 81 14 82
REMARK SMILES IDX 15 83 16 84 17 85 18 86 19 87 39 88 20 89 28 90 27 91 21 92
REMARK SMILES IDX 22 93 26 94 23 95 25 96 24 97 29 98 30 100 31 101 38 102
REMARK SMILES IDX 32 103 37 104 33 105 36 106 34 107 35 108
REMARK H PARENT 99 26 65 37 29 99
REMARK Flexibility Score: inf
ROOT
ATOM      1  C   UNL A   1      40.345  28.267  27.432  1.00  0.00     0.188 C 
ENDROOT
BRANCH   1   2
ATOM      2  C   UNL A   1      40.125  27.037  28.314  1.00  0.00     0.188 C 
BRANCH   2   3
ATOM      3  O   UNL A   1      40.373  25.866  27.540  1.00  0.00    -0.376 OA
BRANCH   3   4
ATOM      4  C   UNL A   1      39.383  24.847  27.627  1.00  0.00     0.202 C 
BRANCH   4   5
ATOM      5  C   UNL A   1      39.945  23.456  27.353  1.00  0.00     0.261 C 
BRANCH   5   6
ATOM      6  O   UNL A   1      40.760  23.459  26.172  1.00  0.00    -0.460 OA
BRANCH   6   7
ATOM      7  C   UNL A   1      42.047  23.031  26.091  1.00  0.00     0.338 C 
ATOM      8  O   UNL A   1      42.321  22.108  25.327  1.00  0.00    -0.246 OA
BRANCH   7   9
ATOM      9  C   UNL A   1      43.171  23.721  26.793  1.00  0.00     0.060 A 
ATOM     10  C   UNL A   1      43.351  25.106  26.858  1.00  0.00     0.016 A 
ATOM     11  C   UNL A   1      44.063  22.901  27.498  1.00  0.00     0.016 A 
ATOM     12  C   UNL A   1      44.447  25.662  27.508  1.00  0.00     0.010 A 
ATOM     13  C   UNL A   1      45.134  23.456  28.204  1.00  0.00     0.010 A 
ATOM     14  C   UNL A   1      45.349  24.841  28.182  1.00  0.00    -0.014 A 
BRANCH  14  15
ATOM     15  C   UNL A   1      46.576  25.432  28.753  1.00  0.00     0.031 A 
ATOM     16  C   UNL A   1      46.626  25.657  30.236  1.00  0.00     0.074 A 
ATOM     17  C   UNL A   1      47.641  25.679  27.969  1.00  0.00     0.049 A 
ATOM     18  N   UNL A   1      47.521  26.283  30.950  1.00  0.00    -0.248 NA
ATOM     19  C   UNL A   1      45.511  25.100  31.021  1.00  0.00     0.031 C 
ATOM     20  C   UNL A   1      47.721  25.385  26.535  1.00  0.00     0.029 A 
ATOM     21  N   UNL A   1      48.866  26.218  28.265  1.00  0.00    -0.354 N 
ATOM     22  C   UNL A   1      47.053  26.239  32.258  1.00  0.00     0.074 A 
ATOM     23  C   UNL A   1      45.798  25.522  32.242  1.00  0.00     0.031 C 
ATOM     24  C   UNL A   1      48.938  25.727  26.084  1.00  0.00     0.029 A 
ATOM     25  C   UNL A   1      49.694  26.335  27.173  1.00  0.00     0.049 A 
ATOM     26  H   UNL A   1      49.127  26.494  29.173  1.00  0.00     0.167 HD
ATOM     27  C   UNL A   1      47.623  26.764  33.366  1.00  0.00     0.037 A 
ATOM     28  C   UNL A   1      50.907  26.911  27.067  1.00  0.00     0.037 A 
ATOM     29  C   UNL A   1      48.884  27.457  33.344  1.00  0.00     0.049 A 
ATOM     30  C   UNL A   1      51.495  27.543  28.301  1.00  0.00     0.074 A 
ATOM     31  C   UNL A   1      49.545  28.089  34.379  1.00  0.00     0.029 A 
ATOM     32  N   UNL A   1      49.678  27.595  32.212  1.00  0.00    -0.354 N 
ATOM     33  N   UNL A   1      51.005  27.580  29.520  1.00  0.00    -0.248 NA
ATOM     34  C   UNL A   1      52.782  28.232  28.148  1.00  0.00     0.031 C 
ATOM     35  C   UNL A   1      50.726  28.637  33.864  1.00  0.00     0.029 A 
ATOM     36  C   UNL A   1      50.822  28.308  32.520  1.00  0.00     0.049 A 
ATOM     37  H   UNL A   1      49.459  27.237  31.321  1.00  0.00     0.167 HD
ATOM     38  C   UNL A   1      51.926  28.288  30.280  1.00  0.00     0.074 A 
ATOM     39  C   UNL A   1      53.014  28.642  29.388  1.00  0.00     0.031 C 
ATOM     40  C   UNL A   1      51.881  28.626  31.594  1.00  0.00     0.037 A 
BRANCH  27  41
ATOM     41  C   UNL A   1      46.850  26.663  34.651  1.00  0.00     0.058 A 
ATOM     42  C   UNL A   1      47.006  25.581  35.533  1.00  0.00     0.135 A 
ATOM     43  C   UNL A   1      45.901  27.643  34.981  1.00  0.00     0.135 A 
ATOM     44  F   UNL A   1      47.877  24.599  35.250  1.00  0.00    -0.206 F 
ATOM     45  C   UNL A   1      46.222  25.457  36.678  1.00  0.00     0.059 A 
ATOM     46  C   UNL A   1      45.123  27.552  36.133  1.00  0.00     0.059 A 
ATOM     47  F   UNL A   1      45.701  28.692  34.168  1.00  0.00    -0.206 F 
ATOM     48  C   UNL A   1      45.278  26.444  36.963  1.00  0.00     0.060 A 
BRANCH  48  49
ATOM     49  S   UNL A   1      44.244  26.254  38.432  1.00  0.00     0.124 S 
ATOM     50  O   UNL A   1      44.627  24.920  38.886  1.00  0.00    -0.237 OA
ATOM     51  O   UNL A   1      44.689  27.360  39.274  1.00  0.00    -0.237 OA
ATOM     52  O   UNL A   1      42.886  26.373  37.911  1.00  0.00    -0.744 OA
ENDBRANCH  48  49
ENDBRANCH  27  41
BRANCH  28  53
ATOM     53  C   UNL A   1      51.604  26.968  25.751  1.00  0.00     0.058 A 
ATOM     54  C   UNL A   1      52.341  25.876  25.267  1.00  0.00     0.135 A 
ATOM     55  C   UNL A   1      51.540  28.116  24.943  1.00  0.00     0.135 A 
ATOM     56  F   UNL A   1      52.445  24.759  26.002  1.00  0.00    -0.206 F 
ATOM     57  C   UNL A   1      52.995  25.923  24.038  1.00  0.00     0.059 A 
ATOM     58  C   UNL A   1      52.162  28.176  23.699  1.00  0.00     0.059 A 
ATOM     59  F   UNL A   1      50.844  29.188  25.351  1.00  0.00    -0.206 F 
ATOM     60  C   UNL A   1      52.899  27.078  23.259  1.00  0.00     0.060 A 
BRANCH  60  61
ATOM     61  S   UNL A   1      53.716  27.119  21.648  1.00  0.00     0.124 S 
ATOM     62  O   UNL A   1      53.518  28.508  21.253  1.00  0.00    -0.237 OA
ATOM     63  O   UNL A   1      55.085  26.740  21.986  1.00  0.00    -0.237 OA
ATOM     64  O   UNL A   1      52.976  26.129  20.872  1.00  0.00    -0.744 OA
ENDBRANCH  60  61
ENDBRANCH  28  53
BRANCH  40  65
ATOM     65  C   UNL A   1      53.052  29.388  32.139  1.00  0.00     0.058 A 
ATOM     66  C   UNL A   1      53.066  30.790  32.162  1.00  0.00     0.135 A 
ATOM     67  C   UNL A   1      54.138  28.704  32.705  1.00  0.00     0.135 A 
ATOM     68  F   UNL A   1      52.050  31.486  31.625  1.00  0.00    -0.206 F 
ATOM     69  C   UNL A   1      54.128  31.493  32.718  1.00  0.00     0.059 A 
ATOM     70  C   UNL A   1      55.199  29.385  33.288  1.00  0.00     0.059 A 
ATOM     71  F   UNL A   1      54.162  27.362  32.715  1.00  0.00    -0.206 F 
ATOM     72  C   UNL A   1      55.189  30.780  33.282  1.00  0.00     0.060 A 
BRANCH  72  73
ATOM     73  S   UNL A   1      56.539  31.700  34.047  1.00  0.00     0.124 S 
ATOM     74  O   UNL A   1      57.203  30.657  34.820  1.00  0.00    -0.237 OA
ATOM     75  O   UNL A   1      57.275  32.199  32.890  1.00  0.00    -0.237 OA
ATOM     76  O   UNL A   1      55.850  32.722  34.830  1.00  0.00    -0.744 OA
ENDBRANCH  72  73
ENDBRANCH  40  65
ENDBRANCH  14  15
ENDBRANCH   7   9
ENDBRANCH   6   7
ENDBRANCH   5   6
ENDBRANCH   4   5
ENDBRANCH   3   4
ENDBRANCH   2   3
ENDBRANCH   1   2
BRANCH   1  77
ATOM     77  O   UNL A   1      39.165  29.035  27.181  1.00  0.00    -0.377 OA
BRANCH  77  78
ATOM     78  C   UNL A   1      38.519  29.606  28.318  1.00  0.00     0.188 C 
BRANCH  78  79
ATOM     79  C   UNL A   1      36.994  29.418  28.485  1.00  0.00     0.188 C 
BRANCH  79  80
ATOM     80  O   UNL A   1      36.204  30.015  27.460  1.00  0.00    -0.376 OA
BRANCH  80  81
ATOM     81  C   UNL A   1      34.793  29.931  27.657  1.00  0.00     0.202 C 
BRANCH  81  82
ATOM     82  C   UNL A   1      34.058  29.283  26.478  1.00  0.00     0.261 C 
BRANCH  82  83
ATOM     83  O   UNL A   1      33.798  27.881  26.657  1.00  0.00    -0.459 OA
BRANCH  83  84
ATOM     84  C   UNL A   1      32.501  27.496  26.736  1.00  0.00     0.357 C 
ATOM     85  O   UNL A   1      31.804  27.439  27.731  1.00  0.00    -0.244 OA
BRANCH  84  86
ATOM     86  C   UNL A   1      32.048  27.273  25.344  1.00  0.00     0.154 A 
ATOM     87  C   UNL A   1      31.041  28.052  24.850  1.00  0.00     0.065 A 
ATOM     88  N   UNL A   1      32.582  26.221  24.690  1.00  0.00    -0.206 NA
ATOM     89  C   UNL A   1      30.633  27.744  23.575  1.00  0.00     0.077 A 
ATOM     90  C   UNL A   1      32.065  25.926  23.493  1.00  0.00     0.230 A 
ATOM     91  N   UNL A   1      31.129  26.687  22.889  1.00  0.00    -0.213 NA
BRANCH  89  92
ATOM     92  C   UNL A   1      29.661  28.616  22.899  1.00  0.00     0.000 A 
ATOM     93  C   UNL A   1      28.280  28.519  23.116  1.00  0.00     0.010 A 
ATOM     94  C   UNL A   1      30.126  29.639  22.047  1.00  0.00     0.010 A 
ATOM     95  C   UNL A   1      27.401  29.440  22.529  1.00  0.00     0.001 A 
ATOM     96  C   UNL A   1      29.253  30.555  21.463  1.00  0.00     0.001 A 
ATOM     97  C   UNL A   1      27.890  30.458  21.711  1.00  0.00     0.000 A 
ENDBRANCH  89  92
BRANCH  90  98
ATOM     98  N   UNL A   1      32.531  24.826  22.779  1.00  0.00    -0.300 N 
ATOM     99  H   UNL A   1      32.181  24.694  21.869  1.00  0.00     0.172 HD
BRANCH  98 100
ATOM    100  C   UNL A   1      33.425  23.926  23.238  1.00  0.00     0.190 A 
ATOM    101  N   UNL A   1      34.729  23.987  23.068  1.00  0.00    -0.220 NA
ATOM    102  S   UNL A   1      32.891  22.621  24.232  1.00  0.00    -0.097 S 
ATOM    103  C   UNL A   1      35.356  22.921  23.705  1.00  0.00     0.084 A 
ATOM    104  C   UNL A   1      34.501  22.024  24.343  1.00  0.00     0.056 A 
ATOM    105  C   UNL A   1      36.745  22.670  23.756  1.00  0.00     0.030 A 
ATOM    106  C   UNL A   1      34.977  20.857  24.967  1.00  0.00     0.021 A 
ATOM    107  C   UNL A   1      37.234  21.521  24.387  1.00  0.00     0.002 A 
ATOM    108  C   UNL A   1      36.355  20.616  24.969  1.00  0.00     0.002 A 
ENDBRANCH  98 100
ENDBRANCH  90  98
ENDBRANCH  84  86
ENDBRANCH  83  84
ENDBRANCH  82  83
ENDBRANCH  81  82
ENDBRANCH  80  81
ENDBRANCH  79  80
ENDBRANCH  78  79
ENDBRANCH  77  78
ENDBRANCH   1  77
TORSDOF 26
ENDMDL
MODEL 2
REMARK VINA RESULT:      -9.0      5.082      6.847
REMARK SMILES O=C(OCCOCCOCCOCCOC(=O)c1cc(-c2ccccc2)nc(Nc2nc3ccccc3s2)n1)c1ccc(-c2c3nc(c(-c4c(F)cc(S(=O)(=O)[O-])cc4F)c4ccc([nH]4)c(-c4c(F)cc(S(=O)(=O)[O-])cc4F)c4nc(c(-c5c(F)cc(S(=O)(=O)[O-])cc5F)c5ccc2[nH]5)C=C4)C=C3)cc1
REMARK SMILES IDX 8 1 7 2 6 3 5 4 4 5 3 6 2 7 1 8 40 9 41 10 105 11 42 12
REMARK SMILES IDX 104 13 43 14 44 15 45 16 98 17 46 18 103 19 97 20 99 21
REMARK SMILES IDX 47 22 102 23 96 24 95 25 48 27 82 28 61 29 81 30 62 31 65 32
REMARK SMILES IDX 80 33 100 34 63 35 64 36 79 38 101 39 66 40 49 41 50 42
REMARK SMILES IDX 59 43 51 44 52 45 58 46 60 47 53 48 54 49 55 50 56 51 57 52
REMARK SMILES IDX 83 53 84 54 93 55 85 56 86 57 92 58 94 59 87 60 88 61 89 62
REMARK SMILES IDX 90 63 91 64 67 65 68 66 77 67 69 68 70 69 76 70 78 71 71 72
REMARK SMILES IDX 72 73 73 74 74 75 75 76 9 77 10 78 11 79 12 80 13 81 14 82
REMARK SMILES IDX 15 83 16 84 17 85 18 86 19 87 39 88 20 89 28 90 27 91 21 92
REMARK SMILES IDX 22 93 26 94 23 95 25 96 24 97 29 98 30 100 31 101 38 102
REMARK SMILES IDX 32 103 37 104 33 105 36 106 34 107 35 108
REMARK H PARENT 99 26 65 37 29 99
REMARK Flexibility Score: inf
ROOT
ATOM      1  C   UNL A   1      40.201  28.372  27.705  1.00  0.00     0.188 C 
ENDROOT
BRANCH   1   2
ATOM      2  C   UNL A   1      40.833  26.979  27.673  1.00  0.00     0.188 C 
BRANCH   2   3
ATOM      3  O   UNL A   1      41.267  26.703  26.343  1.00  0.00    -0.376 OA
BRANCH   3   4
ATOM      4  C   UNL A   1      41.611  25.348  26.076  1.00  0.00     0.202 C 
BRANCH   4   5
ATOM      5  C   UNL A   1      42.275  24.664  27.266  1.00  0.00     0.261 C 
BRANCH   5   6
ATOM      6  O   UNL A   1      43.075  23.554  26.835  1.00  0.00    -0.460 OA
BRANCH   6   7
ATOM      7  C   UNL A   1      44.423  23.563  26.660  1.00  0.00     0.338 C 
ATOM      8  O   UNL A   1      45.008  22.495  26.490  1.00  0.00    -0.246 OA
BRANCH   7   9
ATOM      9  C   UNL A   1      45.211  24.825  26.534  1.00  0.00     0.060 A 
ATOM     10  C   UNL A   1      45.343  25.578  25.363  1.00  0.00     0.016 A 
ATOM     11  C   UNL A   1      45.795  25.317  27.710  1.00  0.00     0.016 A 
ATOM     12  C   UNL A   1      46.125  26.728  25.329  1.00  0.00     0.010 A 
ATOM     13  C   UNL A   1      46.534  26.503  27.696  1.00  0.00     0.010 A 
ATOM     14  C   UNL A   1      46.729  27.195  26.494  1.00  0.00    -0.014 A 
BRANCH  14  15
ATOM     15  C   UNL A   1      47.662  28.339  26.415  1.00  0.00     0.031 A 
ATOM     16  C   UNL A   1      47.106  29.717  26.618  1.00  0.00     0.074 A 
ATOM     17  C   UNL A   1      48.980  28.130  26.248  1.00  0.00     0.049 A 
ATOM     18  N   UNL A   1      47.684  30.876  26.460  1.00  0.00    -0.248 NA
ATOM     19  C   UNL A   1      45.702  29.800  27.060  1.00  0.00     0.031 C 
ATOM     20  C   UNL A   1      49.624  26.817  26.156  1.00  0.00     0.029 A 
ATOM     21  N   UNL A   1      50.020  29.017  26.143  1.00  0.00    -0.354 N 
ATOM     22  C   UNL A   1      46.703  31.824  26.732  1.00  0.00     0.074 A 
ATOM     23  C   UNL A   1      45.495  31.106  27.070  1.00  0.00     0.031 C 
ATOM     24  C   UNL A   1      50.950  26.985  26.030  1.00  0.00     0.029 A 
ATOM     25  C   UNL A   1      51.242  28.412  25.953  1.00  0.00     0.049 A 
ATOM     26  H   UNL A   1      49.905  29.993  26.198  1.00  0.00     0.167 HD
ATOM     27  C   UNL A   1      46.810  33.171  26.690  1.00  0.00     0.037 A 
ATOM     28  C   UNL A   1      52.446  28.958  25.702  1.00  0.00     0.037 A 
ATOM     29  C   UNL A   1      48.037  33.848  26.365  1.00  0.00     0.049 A 
ATOM     30  C   UNL A   1      52.529  30.459  25.599  1.00  0.00     0.074 A 
ATOM     31  C   UNL A   1      48.270  35.203  26.227  1.00  0.00     0.029 A 
ATOM     32  N   UNL A   1      49.248  33.204  26.137  1.00  0.00    -0.354 N 
ATOM     33  N   UNL A   1      51.578  31.349  25.767  1.00  0.00    -0.248 NA
ATOM     34  C   UNL A   1      53.835  31.031  25.250  1.00  0.00     0.031 C 
ATOM     35  C   UNL A   1      49.617  35.375  25.884  1.00  0.00     0.029 A 
ATOM     36  C   UNL A   1      50.232  34.132  25.852  1.00  0.00     0.049 A 
ATOM     37  H   UNL A   1      49.383  32.230  26.172  1.00  0.00     0.167 HD
ATOM     38  C   UNL A   1      52.170  32.586  25.552  1.00  0.00     0.074 A 
ATOM     39  C   UNL A   1      53.569  32.330  25.263  1.00  0.00     0.031 C 
ATOM     40  C   UNL A   1      51.615  33.824  25.580  1.00  0.00     0.037 A 
BRANCH  27  41
ATOM     41  C   UNL A   1      45.559  33.968  26.931  1.00  0.00     0.058 A 
ATOM     42  C   UNL A   1      44.704  34.348  25.885  1.00  0.00     0.135 A 
ATOM     43  C   UNL A   1      45.237  34.399  28.228  1.00  0.00     0.135 A 
ATOM     44  F   UNL A   1      44.981  33.992  24.620  1.00  0.00    -0.206 F 
ATOM     45  C   UNL A   1      43.593  35.159  26.112  1.00  0.00     0.059 A 
ATOM     46  C   UNL A   1      44.119  35.189  28.481  1.00  0.00     0.059 A 
ATOM     47  F   UNL A   1      46.028  34.075  29.263  1.00  0.00    -0.206 F 
ATOM     48  C   UNL A   1      43.316  35.581  27.413  1.00  0.00     0.060 A 
BRANCH  48  49
ATOM     49  S   UNL A   1      41.893  36.659  27.688  1.00  0.00     0.124 S 
ATOM     50  O   UNL A   1      40.790  35.705  27.628  1.00  0.00    -0.237 OA
ATOM     51  O   UNL A   1      42.174  37.217  29.008  1.00  0.00    -0.237 OA
ATOM     52  O   UNL A   1      41.965  37.607  26.581  1.00  0.00    -0.744 OA
ENDBRANCH  48  49
ENDBRANCH  27  41
BRANCH  28  53
ATOM     53  C   UNL A   1      53.637  28.092  25.475  1.00  0.00     0.058 A 
ATOM     54  C   UNL A   1      54.016  27.692  24.185  1.00  0.00     0.135 A 
ATOM     55  C   UNL A   1      54.431  27.652  26.549  1.00  0.00     0.135 A 
ATOM     56  F   UNL A   1      53.288  28.074  23.124  1.00  0.00    -0.206 F 
ATOM     57  C   UNL A   1      55.128  26.882  23.967  1.00  0.00     0.059 A 
ATOM     58  C   UNL A   1      55.562  26.865  26.354  1.00  0.00     0.059 A 
ATOM     59  F   UNL A   1      54.121  28.008  27.804  1.00  0.00    -0.206 F 
ATOM     60  C   UNL A   1      55.897  26.474  25.059  1.00  0.00     0.060 A 
BRANCH  60  61
ATOM     61  S   UNL A   1      57.362  25.456  24.766  1.00  0.00     0.124 S 
ATOM     62  O   UNL A   1      57.705  25.824  23.398  1.00  0.00    -0.237 OA
ATOM     63  O   UNL A   1      58.277  25.926  25.803  1.00  0.00    -0.237 OA
ATOM     64  O   UNL A   1      56.866  24.096  24.950  1.00  0.00    -0.744 OA
ENDBRANCH  60  61
ENDBRANCH  28  53
BRANCH  40  65
ATOM     65  C   UNL A   1      52.529  34.984  25.321  1.00  0.00     0.058 A 
ATOM     66  C   UNL A   1      52.781  35.441  24.019  1.00  0.00     0.135 A 
ATOM     67  C   UNL A   1      53.102  35.685  26.392  1.00  0.00     0.135 A 
ATOM     68  F   UNL A   1      52.259  34.796  22.962  1.00  0.00    -0.206 F 
ATOM     69  C   UNL A   1      53.584  36.550  23.785  1.00  0.00     0.059 A 
ATOM     70  C   UNL A   1      53.889  36.811  26.184  1.00  0.00     0.059 A 
ATOM     71  F   UNL A   1      52.879  35.291  27.655  1.00  0.00    -0.206 F 
ATOM     72  C   UNL A   1      54.131  37.230  24.876  1.00  0.00     0.060 A 
BRANCH  72  73
ATOM     73  S   UNL A   1      55.132  38.699  24.565  1.00  0.00     0.124 S 
ATOM     74  O   UNL A   1      55.426  38.558  23.144  1.00  0.00    -0.237 OA
ATOM     75  O   UNL A   1      54.220  39.781  24.921  1.00  0.00    -0.237 OA
ATOM     76  O   UNL A   1      56.270  38.528  25.464  1.00  0.00    -0.744 OA
ENDBRANCH  72  73
ENDBRANCH  40  65
ENDBRANCH  14  15
ENDBRANCH   7   9
ENDBRANCH   6   7
ENDBRANCH   5   6
ENDBRANCH   4   5
ENDBRANCH   3   4
ENDBRANCH   2   3
ENDBRANCH   1   2
BRANCH   1  77
ATOM     77  O   UNL A   1      38.838  28.395  28.139  1.00  0.00    -0.377 OA
BRANCH  77  78
ATOM     78  C   UNL A   1      38.384  29.596  28.759  1.00  0.00     0.188 C 
BRANCH  78  79
ATOM     79  C   UNL A   1      37.006  29.600  29.461  1.00  0.00     0.188 C 
BRANCH  79  80
ATOM     80  O   UNL A   1      36.004  30.371  28.804  1.00  0.00    -0.376 OA
BRANCH  80  81
ATOM     81  C   UNL A   1      35.542  29.836  27.565  1.00  0.00     0.202 C 
BRANCH  81  82
ATOM     82  C   UNL A   1      34.022  29.640  27.522  1.00  0.00     0.261 C 
BRANCH  82  83
ATOM     83  O   UNL A   1      33.619  28.301  27.193  1.00  0.00    -0.459 OA
BRANCH  83  84
ATOM     84  C   UNL A   1      32.289  28.045  27.152  1.00  0.00     0.357 C 
ATOM     85  O   UNL A   1      31.515  27.987  28.088  1.00  0.00    -0.244 OA
BRANCH  84  86
ATOM     86  C   UNL A   1      31.925  27.973  25.718  1.00  0.00     0.154 A 
ATOM     87  C   UNL A   1      31.007  28.858  25.229  1.00  0.00     0.065 A 
ATOM     88  N   UNL A   1      32.439  26.946  25.009  1.00  0.00    -0.206 NA
ATOM     89  C   UNL A   1      30.674  28.688  23.907  1.00  0.00     0.077 A 
ATOM     90  C   UNL A   1      31.992  26.789  23.759  1.00  0.00     0.230 A 
ATOM     91  N   UNL A   1      31.152  27.661  23.165  1.00  0.00    -0.213 NA
BRANCH  89  92
ATOM     92  C   UNL A   1      29.810  29.678  23.248  1.00  0.00     0.000 A 
ATOM     93  C   UNL A   1      29.209  29.447  22.003  1.00  0.00     0.010 A 
ATOM     94  C   UNL A   1      29.510  30.885  23.914  1.00  0.00     0.010 A 
ATOM     95  C   UNL A   1      28.310  30.378  21.464  1.00  0.00     0.001 A 
ATOM     96  C   UNL A   1      28.617  31.810  23.379  1.00  0.00     0.001 A 
ATOM     97  C   UNL A   1      28.011  31.552  22.155  1.00  0.00     0.000 A 
ENDBRANCH  89  92
BRANCH  90  98
ATOM     98  N   UNL A   1      32.440  25.725  22.982  1.00  0.00    -0.300 N 
ATOM     99  H   UNL A   1      32.530  25.876  22.014  1.00  0.00     0.172 HD
BRANCH  98 100
ATOM    100  C   UNL A   1      32.759  24.502  23.454  1.00  0.00     0.190 A 
ATOM    101  N   UNL A   1      31.912  23.635  23.967  1.00  0.00    -0.220 NA
ATOM    102  S   UNL A   1      34.376  23.921  23.302  1.00  0.00    -0.097 S 
ATOM    103  C   UNL A   1      32.566  22.458  24.316  1.00  0.00     0.084 A 
ATOM    104  C   UNL A   1      33.941  22.453  24.087  1.00  0.00     0.056 A 
ATOM    105  C   UNL A   1      31.979  21.301  24.873  1.00  0.00     0.030 A 
ATOM    106  C   UNL A   1      34.753  21.366  24.456  1.00  0.00     0.021 A 
ATOM    107  C   UNL A   1      32.772  20.206  25.232  1.00  0.00     0.002 A 
ATOM    108  C   UNL A   1      34.148  20.249  25.041  1.00  0.00     0.002 A 
ENDBRANCH  98 100
ENDBRANCH  90  98
ENDBRANCH  84  86
ENDBRANCH  83  84
ENDBRANCH  82  83
ENDBRANCH  81  82
ENDBRANCH  80  81
ENDBRANCH  79  80
ENDBRANCH  78  79
ENDBRANCH  77  78
ENDBRANCH   1  77
TORSDOF 26
ENDMDL
MODEL 3
REMARK VINA RESULT:      -9.0      7.229     12.669
REMARK SMILES O=C(OCCOCCOCCOCCOC(=O)c1cc(-c2ccccc2)nc(Nc2nc3ccccc3s2)n1)c1ccc(-c2c3nc(c(-c4c(F)cc(S(=O)(=O)[O-])cc4F)c4ccc([nH]4)c(-c4c(F)cc(S(=O)(=O)[O-])cc4F)c4nc(c(-c5c(F)cc(S(=O)(=O)[O-])cc5F)c5ccc2[nH]5)C=C4)C=C3)cc1
REMARK SMILES IDX 8 1 7 2 6 3 5 4 4 5 3 6 2 7 1 8 40 9 41 10 105 11 42 12
REMARK SMILES IDX 104 13 43 14 44 15 45 16 98 17 46 18 103 19 97 20 99 21
REMARK SMILES IDX 47 22 102 23 96 24 95 25 48 27 82 28 61 29 81 30 62 31 65 32
REMARK SMILES IDX 80 33 100 34 63 35 64 36 79 38 101 39 66 40 49 41 50 42
REMARK SMILES IDX 59 43 51 44 52 45 58 46 60 47 53 48 54 49 55 50 56 51 57 52
REMARK SMILES IDX 83 53 84 54 93 55 85 56 86 57 92 58 94 59 87 60 88 61 89 62
REMARK SMILES IDX 90 63 91 64 67 65 68 66 77 67 69 68 70 69 76 70 78 71 71 72
REMARK SMILES IDX 72 73 73 74 74 75 75 76 9 77 10 78 11 79 12 80 13 81 14 82
REMARK SMILES IDX 15 83 16 84 17 85 18 86 19 87 39 88 20 89 28 90 27 91 21 92
REMARK SMILES IDX 22 93 26 94 23 95 25 96 24 97 29 98 30 100 31 101 38 102
REMARK SMILES IDX 32 103 37 104 33 105 36 106 34 107 35 108
REMARK H PARENT 99 26 65 37 29 99
REMARK Flexibility Score: inf
ROOT
ATOM      1  C   UNL A   1      37.849  33.481  33.638  1.00  0.00     0.188 C 
ENDROOT
BRANCH   1   2
ATOM      2  C   UNL A   1      37.226  34.577  32.772  1.00  0.00     0.188 C 
BRANCH   2   3
ATOM      3  O   UNL A   1      36.481  33.966  31.721  1.00  0.00    -0.376 OA
BRANCH   3   4
ATOM      4  C   UNL A   1      35.238  33.387  32.100  1.00  0.00     0.202 C 
BRANCH   4   5
ATOM      5  C   UNL A   1      35.235  31.867  31.977  1.00  0.00     0.261 C 
BRANCH   5   6
ATOM      6  O   UNL A   1      36.210  31.431  31.018  1.00  0.00    -0.460 OA
BRANCH   6   7
ATOM      7  C   UNL A   1      36.919  30.273  31.072  1.00  0.00     0.338 C 
ATOM      8  O   UNL A   1      36.399  29.279  31.576  1.00  0.00    -0.246 OA
BRANCH   7   9
ATOM      9  C   UNL A   1      38.257  30.117  30.427  1.00  0.00     0.060 A 
ATOM     10  C   UNL A   1      38.489  30.099  29.048  1.00  0.00     0.016 A 
ATOM     11  C   UNL A   1      39.362  30.061  31.288  1.00  0.00     0.016 A 
ATOM     12  C   UNL A   1      39.769  29.916  28.534  1.00  0.00     0.010 A 
ATOM     13  C   UNL A   1      40.657  29.937  30.777  1.00  0.00     0.010 A 
ATOM     14  C   UNL A   1      40.860  29.830  29.395  1.00  0.00    -0.014 A 
BRANCH  14  15
ATOM     15  C   UNL A   1      42.192  29.504  28.843  1.00  0.00     0.031 A 
ATOM     16  C   UNL A   1      42.424  28.110  28.338  1.00  0.00     0.074 A 
ATOM     17  C   UNL A   1      43.131  30.460  28.726  1.00  0.00     0.049 A 
ATOM     18  N   UNL A   1      43.531  27.545  27.944  1.00  0.00    -0.248 NA
ATOM     19  C   UNL A   1      41.242  27.233  28.270  1.00  0.00     0.031 C 
ATOM     20  C   UNL A   1      42.954  31.869  29.086  1.00  0.00     0.029 A 
ATOM     21  N   UNL A   1      44.417  30.397  28.256  1.00  0.00    -0.354 N 
ATOM     22  C   UNL A   1      43.191  26.234  27.629  1.00  0.00     0.074 A 
ATOM     23  C   UNL A   1      41.774  26.088  27.874  1.00  0.00     0.031 C 
ATOM     24  C   UNL A   1      44.081  32.540  28.804  1.00  0.00     0.029 A 
ATOM     25  C   UNL A   1      45.085  31.599  28.319  1.00  0.00     0.049 A 
ATOM     26  H   UNL A   1      44.825  29.572  27.908  1.00  0.00     0.167 HD
ATOM     27  C   UNL A   1      44.000  25.245  27.187  1.00  0.00     0.037 A 
ATOM     28  C   UNL A   1      46.373  31.886  28.054  1.00  0.00     0.037 A 
ATOM     29  C   UNL A   1      45.404  25.435  26.938  1.00  0.00     0.049 A 
ATOM     30  C   UNL A   1      47.270  30.756  27.621  1.00  0.00     0.074 A 
ATOM     31  C   UNL A   1      46.350  24.508  26.549  1.00  0.00     0.029 A 
ATOM     32  N   UNL A   1      46.058  26.657  27.052  1.00  0.00    -0.354 N 
ATOM     33  N   UNL A   1      46.964  29.495  27.413  1.00  0.00    -0.248 NA
ATOM     34  C   UNL A   1      48.687  31.074  27.409  1.00  0.00     0.031 C 
ATOM     35  C   UNL A   1      47.584  25.164  26.456  1.00  0.00     0.029 A 
ATOM     36  C   UNL A   1      47.397  26.508  26.745  1.00  0.00     0.049 A 
ATOM     37  H   UNL A   1      45.630  27.504  27.313  1.00  0.00     0.167 HD
ATOM     38  C   UNL A   1      48.146  28.871  27.040  1.00  0.00     0.074 A 
ATOM     39  C   UNL A   1      49.171  29.899  27.029  1.00  0.00     0.031 C 
ATOM     40  C   UNL A   1      48.376  27.568  26.741  1.00  0.00     0.037 A 
BRANCH  27  41
ATOM     41  C   UNL A   1      43.391  23.881  27.022  1.00  0.00     0.058 A 
ATOM     42  C   UNL A   1      43.238  22.996  28.101  1.00  0.00     0.135 A 
ATOM     43  C   UNL A   1      42.999  23.435  25.750  1.00  0.00     0.135 A 
ATOM     44  F   UNL A   1      43.627  23.359  29.334  1.00  0.00    -0.206 F 
ATOM     45  C   UNL A   1      42.751  21.704  27.918  1.00  0.00     0.059 A 
ATOM     46  C   UNL A   1      42.487  22.156  25.548  1.00  0.00     0.059 A 
ATOM     47  F   UNL A   1      43.135  24.235  24.680  1.00  0.00    -0.206 F 
ATOM     48  C   UNL A   1      42.386  21.291  26.636  1.00  0.00     0.060 A 
BRANCH  48  49
ATOM     49  S   UNL A   1      41.789  19.602  26.407  1.00  0.00     0.124 S 
ATOM     50  O   UNL A   1      42.249  18.963  27.636  1.00  0.00    -0.237 OA
ATOM     51  O   UNL A   1      40.346  19.792  26.295  1.00  0.00    -0.237 OA
ATOM     52  O   UNL A   1      42.458  19.167  25.185  1.00  0.00    -0.744 OA
ENDBRANCH  48  49
ENDBRANCH  27  41
BRANCH  28  53
ATOM     53  C   UNL A   1      46.894  33.269  28.245  1.00  0.00     0.058 A 
ATOM     54  C   UNL A   1      46.763  34.245  27.246  1.00  0.00     0.135 A 
ATOM     55  C   UNL A   1      47.528  33.647  29.441  1.00  0.00     0.135 A 
ATOM     56  F   UNL A   1      46.176  33.936  26.080  1.00  0.00    -0.206 F 
ATOM     57  C   UNL A   1      47.248  35.539  27.420  1.00  0.00     0.059 A 
ATOM     58  C   UNL A   1      47.997  34.942  29.648  1.00  0.00     0.059 A 
ATOM     59  F   UNL A   1      47.677  32.759  30.435  1.00  0.00    -0.206 F 
ATOM     60  C   UNL A   1      47.864  35.879  28.626  1.00  0.00     0.060 A 
BRANCH  60  61
ATOM     61  S   UNL A   1      48.455  37.571  28.861  1.00  0.00     0.124 S 
ATOM     62  O   UNL A   1      48.422  38.084  27.497  1.00  0.00    -0.237 OA
ATOM     63  O   UNL A   1      47.461  38.123  29.775  1.00  0.00    -0.237 OA
ATOM     64  O   UNL A   1      49.784  37.384  29.433  1.00  0.00    -0.744 OA
ENDBRANCH  60  61
ENDBRANCH  28  53
BRANCH  40  65
ATOM     65  C   UNL A   1      49.775  27.197  26.351  1.00  0.00     0.058 A 
ATOM     66  C   UNL A   1      50.211  27.281  25.020  1.00  0.00     0.135 A 
ATOM     67  C   UNL A   1      50.706  26.823  27.332  1.00  0.00     0.135 A 
ATOM     68  F   UNL A   1      49.353  27.628  24.047  1.00  0.00    -0.206 F 
ATOM     69  C   UNL A   1      51.524  26.990  24.671  1.00  0.00     0.059 A 
ATOM     70  C   UNL A   1      52.030  26.551  27.009  1.00  0.00     0.059 A 
ATOM     71  F   UNL A   1      50.336  26.741  28.619  1.00  0.00    -0.206 F 
ATOM     72  C   UNL A   1      52.427  26.629  25.674  1.00  0.00     0.060 A 
BRANCH  72  73
ATOM     73  S   UNL A   1      54.141  26.303  25.218  1.00  0.00     0.124 S 
ATOM     74  O   UNL A   1      54.425  27.421  24.325  1.00  0.00    -0.237 OA
ATOM     75  O   UNL A   1      54.822  26.334  26.509  1.00  0.00    -0.237 OA
ATOM     76  O   UNL A   1      54.078  24.990  24.583  1.00  0.00    -0.744 OA
ENDBRANCH  72  73
ENDBRANCH  40  65
ENDBRANCH  14  15
ENDBRANCH   7   9
ENDBRANCH   6   7
ENDBRANCH   5   6
ENDBRANCH   4   5
ENDBRANCH   3   4
ENDBRANCH   2   3
ENDBRANCH   1   2
BRANCH   1  77
ATOM     77  O   UNL A   1      38.048  33.848  35.006  1.00  0.00    -0.377 OA
BRANCH  77  78
ATOM     78  C   UNL A   1      38.246  32.782  35.932  1.00  0.00     0.188 C 
BRANCH  78  79
ATOM     79  C   UNL A   1      39.530  32.768  36.793  1.00  0.00     0.188 C 
BRANCH  79  80
ATOM     80  O   UNL A   1      40.597  33.565  36.286  1.00  0.00    -0.376 OA
BRANCH  80  81
ATOM     81  C   UNL A   1      41.760  32.840  35.889  1.00  0.00     0.202 C 
BRANCH  81  82
ATOM     82  C   UNL A   1      41.962  32.811  34.370  1.00  0.00     0.261 C 
BRANCH  82  83
ATOM     83  O   UNL A   1      42.330  34.082  33.809  1.00  0.00    -0.459 OA
BRANCH  83  84
ATOM     84  C   UNL A   1      43.647  34.404  33.814  1.00  0.00     0.357 C 
ATOM     85  O   UNL A   1      44.555  33.804  34.355  1.00  0.00    -0.244 OA
BRANCH  84  86
ATOM     86  C   UNL A   1      43.790  35.575  32.919  1.00  0.00     0.154 A 
ATOM     87  C   UNL A   1      43.538  35.416  31.585  1.00  0.00     0.065 A 
ATOM     88  N   UNL A   1      44.286  36.704  33.465  1.00  0.00    -0.206 NA
ATOM     89  C   UNL A   1      43.754  36.530  30.811  1.00  0.00     0.077 A 
ATOM     90  C   UNL A   1      44.561  37.712  32.631  1.00  0.00     0.230 A 
ATOM     91  N   UNL A   1      44.267  37.677  31.315  1.00  0.00    -0.213 NA
BRANCH  89  92
ATOM     92  C   UNL A   1      43.370  36.505  29.391  1.00  0.00     0.000 A 
ATOM     93  C   UNL A   1      44.098  37.177  28.400  1.00  0.00     0.010 A 
ATOM     94  C   UNL A   1      42.268  35.724  28.988  1.00  0.00     0.010 A 
ATOM     95  C   UNL A   1      43.754  37.040  27.049  1.00  0.00     0.001 A 
ATOM     96  C   UNL A   1      41.925  35.587  27.644  1.00  0.00     0.001 A 
ATOM     97  C   UNL A   1      42.674  36.240  26.673  1.00  0.00     0.000 A 
ENDBRANCH  89  92
BRANCH  90  98
ATOM     98  N   UNL A   1      45.119  38.891  33.115  1.00  0.00    -0.300 N 
ATOM     99  H   UNL A   1      46.038  38.849  33.465  1.00  0.00     0.172 HD
BRANCH  98 100
ATOM    100  C   UNL A   1      44.498  40.088  33.143  1.00  0.00     0.190 A 
ATOM    101  N   UNL A   1      43.820  40.575  34.161  1.00  0.00    -0.220 NA
ATOM    102  S   UNL A   1      44.656  41.166  31.805  1.00  0.00    -0.097 S 
ATOM    103  C   UNL A   1      43.344  41.849  33.868  1.00  0.00     0.084 A 
ATOM    104  C   UNL A   1      43.647  42.317  32.590  1.00  0.00     0.056 A 
ATOM    105  C   UNL A   1      42.596  42.686  34.725  1.00  0.00     0.030 A 
ATOM    106  C   UNL A   1      43.172  43.555  32.119  1.00  0.00     0.021 A 
ATOM    107  C   UNL A   1      42.131  43.926  34.275  1.00  0.00     0.002 A 
ATOM    108  C   UNL A   1      42.402  44.345  32.978  1.00  0.00     0.002 A 
ENDBRANCH  98 100
ENDBRANCH  90  98
ENDBRANCH  84  86
ENDBRANCH  83  84
ENDBRANCH  82  83
ENDBRANCH  81  82
ENDBRANCH  80  81
ENDBRANCH  79  80
ENDBRANCH  78  79
ENDBRANCH  77  78
ENDBRANCH   1  77
TORSDOF 26
ENDMDL
