MODEL 1
REMARK VINA RESULT:     -10.4      0.000      0.000
REMARK SMILES C[C@@H]1CCC[C@H](C)N1C(=O)Cn1cccc1C(=O)OCCOCCOCCOCCOC(=O)c1ccc(-c2c3nc(c(-c4c(F)cc(S(=O)(=O)[O-])cc4F)c4ccc([nH]4)c(-c4c(F)cc(S(=O)(=O)[O-])cc4F)c4nc(c(-c5c(F)cc(S(=O)(=O)[O-])cc5F)c5ccc2[nH]5)C=C4)C=C3)cc1
REMARK SMILES IDX 25 1 24 2 23 3 22 4 21 5 20 6 19 7 17 8 18 9 16 10 12 11
REMARK SMILES IDX 13 12 14 13 15 14 11 15 9 16 10 17 8 18 1 19 2 20 3 21 4 22
REMARK SMILES IDX 6 23 5 24 7 25 26 26 27 27 28 28 29 29 30 30 31 31 32 32
REMARK SMILES IDX 33 33 34 34 35 35 99 36 36 37 98 38 37 39 38 40 39 41 92 42
REMARK SMILES IDX 40 43 97 44 91 45 93 46 41 47 96 48 90 49 89 50 42 52 76 53
REMARK SMILES IDX 55 54 75 55 56 56 59 57 74 58 94 59 57 60 58 61 73 63 95 64
REMARK SMILES IDX 60 65 43 66 44 67 53 68 45 69 46 70 52 71 54 72 47 73 48 74
REMARK SMILES IDX 49 75 50 76 51 77 77 78 78 79 87 80 79 81 80 82 86 83 88 84
REMARK SMILES IDX 81 85 82 86 83 87 84 88 85 89 61 90 62 91 71 92 63 93 64 94
REMARK SMILES IDX 70 95 72 96 65 97 66 98 67 99 68 100 69 101
REMARK H PARENT 93 51 59 62
REMARK Flexibility Score: inf
ROOT
ATOM      1  O   UNL A   1      33.005  28.940  24.942  1.00  0.00    -0.377 OA
ENDROOT
BRANCH   1   2
ATOM      2  C   UNL A   1      32.412  29.308  23.693  1.00  0.00     0.188 C 
BRANCH   2   3
ATOM      3  C   UNL A   1      30.961  28.806  23.530  1.00  0.00     0.188 C 
BRANCH   3   4
ATOM      4  O   UNL A   1      30.785  27.589  22.760  1.00  0.00    -0.376 OA
BRANCH   4   5
ATOM      5  C   UNL A   1      29.807  26.692  23.357  1.00  0.00     0.202 C 
BRANCH   5   6
ATOM      6  C   UNL A   1      30.269  25.211  23.659  1.00  0.00     0.261 C 
BRANCH   6   7
ATOM      7  O   UNL A   1      30.317  24.817  25.076  1.00  0.00    -0.459 OA
BRANCH   7   8
ATOM      8  C   UNL A   1      31.182  25.515  25.908  1.00  0.00     0.355 C 
ATOM      9  O   UNL A   1      30.777  26.261  26.768  1.00  0.00    -0.244 OA
BRANCH   8  10
ATOM     10  C   UNL A   1      32.588  25.005  25.874  1.00  0.00     0.128 A 
ATOM     11  N   UNL A   1      33.235  23.812  26.229  1.00  0.00    -0.333 N 
ATOM     12  C   UNL A   1      34.587  23.898  25.921  1.00  0.00     0.087 A 
ATOM     13  C   UNL A   1      34.849  25.139  25.418  1.00  0.00     0.020 A 
ATOM     14  C   UNL A   1      33.615  25.811  25.361  1.00  0.00     0.035 A 
BRANCH  11  15
ATOM     15  C   UNL A   1      32.752  22.534  26.741  1.00  0.00     0.222 C 
BRANCH  15  16
ATOM     16  C   UNL A   1      31.972  21.702  25.776  1.00  0.00     0.242 C 
ATOM     17  O   UNL A   1      30.745  21.639  25.900  1.00  0.00    -0.273 OA
BRANCH  16  18
ATOM     18  N   UNL A   1      32.677  20.864  24.932  1.00  0.00    -0.336 N 
ATOM     19  C   UNL A   1      35.115  20.382  24.949  1.00  0.00     0.031 C 
ATOM     20  C   UNL A   1      33.710  19.847  25.252  1.00  0.00     0.082 C 
ATOM     21  C   UNL A   1      33.550  18.493  24.514  1.00  0.00     0.025 C 
ATOM     22  C   UNL A   1      32.981  18.562  23.111  1.00  0.00     0.004 C 
ATOM     23  C   UNL A   1      32.369  21.093  23.550  1.00  0.00     0.082 C 
ATOM     24  C   UNL A   1      32.029  19.711  22.968  1.00  0.00     0.025 C 
ATOM     25  C   UNL A   1      33.271  22.184  22.968  1.00  0.00     0.031 C 
ENDBRANCH  16  18
ENDBRANCH  15  16
ENDBRANCH  11  15
ENDBRANCH   8  10
ENDBRANCH   7   8
ENDBRANCH   6   7
ENDBRANCH   5   6
ENDBRANCH   4   5
ENDBRANCH   3   4
ENDBRANCH   2   3
ENDBRANCH   1   2
BRANCH   1  26
ATOM     26  C   UNL A   1      32.198  29.254  26.073  1.00  0.00     0.188 C 
BRANCH  26  27
ATOM     27  C   UNL A   1      31.725  30.717  26.116  1.00  0.00     0.188 C 
BRANCH  27  28
ATOM     28  O   UNL A   1      32.631  31.511  26.872  1.00  0.00    -0.376 OA
BRANCH  28  29
ATOM     29  C   UNL A   1      33.665  30.837  27.573  1.00  0.00     0.202 C 
BRANCH  29  30
ATOM     30  C   UNL A   1      34.978  31.587  27.862  1.00  0.00     0.261 C 
BRANCH  30  31
ATOM     31  O   UNL A   1      35.640  31.227  29.072  1.00  0.00    -0.460 OA
BRANCH  31  32
ATOM     32  C   UNL A   1      36.976  31.206  28.904  1.00  0.00     0.338 C 
ATOM     33  O   UNL A   1      37.742  32.160  28.985  1.00  0.00    -0.246 OA
BRANCH  32  34
ATOM     34  C   UNL A   1      37.480  29.903  28.485  1.00  0.00     0.060 A 
ATOM     35  C   UNL A   1      37.444  28.932  29.492  1.00  0.00     0.016 A 
ATOM     36  C   UNL A   1      38.464  29.926  27.491  1.00  0.00     0.016 A 
ATOM     37  C   UNL A   1      38.545  28.129  29.660  1.00  0.00     0.010 A 
ATOM     38  C   UNL A   1      39.581  29.135  27.675  1.00  0.00     0.010 A 
ATOM     39  C   UNL A   1      39.643  28.324  28.816  1.00  0.00    -0.014 A 
BRANCH  39  40
ATOM     40  C   UNL A   1      40.900  27.699  29.243  1.00  0.00     0.031 A 
ATOM     41  C   UNL A   1      41.138  26.400  28.491  1.00  0.00     0.074 A 
ATOM     42  C   UNL A   1      41.520  28.317  30.296  1.00  0.00     0.049 A 
ATOM     43  N   UNL A   1      41.654  25.285  28.904  1.00  0.00    -0.248 NA
ATOM     44  C   UNL A   1      40.600  26.272  27.107  1.00  0.00     0.031 C 
ATOM     45  C   UNL A   1      41.057  29.581  30.924  1.00  0.00     0.029 A 
ATOM     46  N   UNL A   1      42.621  28.029  31.073  1.00  0.00    -0.354 N 
ATOM     47  C   UNL A   1      41.726  24.434  27.784  1.00  0.00     0.074 A 
ATOM     48  C   UNL A   1      40.907  25.019  26.767  1.00  0.00     0.031 C 
ATOM     49  C   UNL A   1      41.802  29.890  32.005  1.00  0.00     0.029 A 
ATOM     50  C   UNL A   1      42.830  28.888  32.187  1.00  0.00     0.049 A 
ATOM     51  H   UNL A   1      43.222  27.276  30.871  1.00  0.00     0.167 HD
ATOM     52  C   UNL A   1      42.602  23.394  27.690  1.00  0.00     0.037 A 
ATOM     53  C   UNL A   1      43.740  28.770  33.205  1.00  0.00     0.037 A 
ATOM     54  C   UNL A   1      43.411  23.317  28.864  1.00  0.00     0.049 A 
ATOM     55  C   UNL A   1      44.595  27.629  32.824  1.00  0.00     0.074 A 
ATOM     56  C   UNL A   1      43.146  22.904  30.143  1.00  0.00     0.029 A 
ATOM     57  N   UNL A   1      44.571  24.060  28.865  1.00  0.00    -0.354 N 
ATOM     58  N   UNL A   1      45.404  27.616  31.807  1.00  0.00    -0.248 NA
ATOM     59  C   UNL A   1      44.457  26.364  33.553  1.00  0.00     0.031 C 
ATOM     60  C   UNL A   1      43.912  23.778  30.945  1.00  0.00     0.029 A 
ATOM     61  C   UNL A   1      44.740  24.565  30.135  1.00  0.00     0.049 A 
ATOM     62  H   UNL A   1      45.171  24.203  28.098  1.00  0.00     0.167 HD
ATOM     63  C   UNL A   1      45.583  26.274  31.571  1.00  0.00     0.074 A 
ATOM     64  C   UNL A   1      45.240  25.594  32.802  1.00  0.00     0.031 C 
ATOM     65  C   UNL A   1      45.488  25.799  30.300  1.00  0.00     0.037 A 
BRANCH  52  66
ATOM     66  C   UNL A   1      43.009  22.558  26.514  1.00  0.00     0.058 A 
ATOM     67  C   UNL A   1      42.573  21.214  26.479  1.00  0.00     0.135 A 
ATOM     68  C   UNL A   1      44.048  22.903  25.636  1.00  0.00     0.135 A 
ATOM     69  F   UNL A   1      41.545  20.807  27.243  1.00  0.00    -0.206 F 
ATOM     70  C   UNL A   1      43.222  20.242  25.727  1.00  0.00     0.059 A 
ATOM     71  C   UNL A   1      44.686  21.950  24.841  1.00  0.00     0.059 A 
ATOM     72  F   UNL A   1      44.534  24.151  25.592  1.00  0.00    -0.206 F 
ATOM     73  C   UNL A   1      44.307  20.614  24.942  1.00  0.00     0.060 A 
BRANCH  73  74
ATOM     74  S   UNL A   1      45.252  19.319  24.117  1.00  0.00     0.124 S 
ATOM     75  O   UNL A   1      44.643  19.309  22.791  1.00  0.00    -0.237 OA
ATOM     76  O   UNL A   1      46.615  19.839  24.183  1.00  0.00    -0.237 OA
ATOM     77  O   UNL A   1      45.000  18.140  24.939  1.00  0.00    -0.744 OA
ENDBRANCH  73  74
ENDBRANCH  52  66
BRANCH  53  78
ATOM     78  C   UNL A   1      43.974  29.360  34.584  1.00  0.00     0.058 A 
ATOM     79  C   UNL A   1      43.152  29.193  35.707  1.00  0.00     0.135 A 
ATOM     80  C   UNL A   1      45.231  29.968  34.871  1.00  0.00     0.135 A 
ATOM     81  F   UNL A   1      41.894  28.755  35.592  1.00  0.00    -0.206 F 
ATOM     82  C   UNL A   1      43.604  29.434  37.017  1.00  0.00     0.059 A 
ATOM     83  C   UNL A   1      45.724  30.161  36.160  1.00  0.00     0.059 A 
ATOM     84  F   UNL A   1      46.068  30.337  33.889  1.00  0.00    -0.206 F 
ATOM     85  C   UNL A   1      44.914  29.850  37.237  1.00  0.00     0.060 A 
BRANCH  85  86
ATOM     86  S   UNL A   1      45.621  29.831  38.901  1.00  0.00     0.124 S 
ATOM     87  O   UNL A   1      47.053  29.842  38.625  1.00  0.00    -0.237 OA
ATOM     88  O   UNL A   1      45.078  31.051  39.492  1.00  0.00    -0.237 OA
ATOM     89  O   UNL A   1      45.095  28.591  39.467  1.00  0.00    -0.744 OA
ENDBRANCH  85  86
ENDBRANCH  53  78
BRANCH  65  90
ATOM     90  C   UNL A   1      45.789  26.839  29.218  1.00  0.00     0.058 A 
ATOM     91  C   UNL A   1      47.058  27.439  29.126  1.00  0.00     0.135 A 
ATOM     92  C   UNL A   1      44.829  27.344  28.325  1.00  0.00     0.135 A 
ATOM     93  F   UNL A   1      48.061  27.007  29.909  1.00  0.00    -0.206 F 
ATOM     94  C   UNL A   1      47.336  28.486  28.235  1.00  0.00     0.059 A 
ATOM     95  C   UNL A   1      45.071  28.384  27.426  1.00  0.00     0.059 A 
ATOM     96  F   UNL A   1      43.608  26.821  28.285  1.00  0.00    -0.206 F 
ATOM     97  C   UNL A   1      46.332  28.957  27.389  1.00  0.00     0.060 A 
BRANCH  97  98
ATOM     98  S   UNL A   1      46.695  30.298  26.232  1.00  0.00     0.124 S 
ATOM     99  O   UNL A   1      48.110  30.557  26.477  1.00  0.00    -0.237 OA
ATOM    100  O   UNL A   1      46.379  29.683  24.947  1.00  0.00    -0.237 OA
ATOM    101  O   UNL A   1      45.791  31.369  26.648  1.00  0.00    -0.744 OA
ENDBRANCH  97  98
ENDBRANCH  65  90
ENDBRANCH  39  40
ENDBRANCH  32  34
ENDBRANCH  31  32
ENDBRANCH  30  31
ENDBRANCH  29  30
ENDBRANCH  28  29
ENDBRANCH  27  28
ENDBRANCH  26  27
ENDBRANCH   1  26
TORSDOF 26
ENDMDL
MODEL 2
REMARK VINA RESULT:     -10.1      4.070      5.854
REMARK SMILES C[C@@H]1CCC[C@H](C)N1C(=O)Cn1cccc1C(=O)OCCOCCOCCOCCOC(=O)c1ccc(-c2c3nc(c(-c4c(F)cc(S(=O)(=O)[O-])cc4F)c4ccc([nH]4)c(-c4c(F)cc(S(=O)(=O)[O-])cc4F)c4nc(c(-c5c(F)cc(S(=O)(=O)[O-])cc5F)c5ccc2[nH]5)C=C4)C=C3)cc1
REMARK SMILES IDX 25 1 24 2 23 3 22 4 21 5 20 6 19 7 17 8 18 9 16 10 12 11
REMARK SMILES IDX 13 12 14 13 15 14 11 15 9 16 10 17 8 18 1 19 2 20 3 21 4 22
REMARK SMILES IDX 6 23 5 24 7 25 26 26 27 27 28 28 29 29 30 30 31 31 32 32
REMARK SMILES IDX 33 33 34 34 35 35 99 36 36 37 98 38 37 39 38 40 39 41 92 42
REMARK SMILES IDX 40 43 97 44 91 45 93 46 41 47 96 48 90 49 89 50 42 52 76 53
REMARK SMILES IDX 55 54 75 55 56 56 59 57 74 58 94 59 57 60 58 61 73 63 95 64
REMARK SMILES IDX 60 65 43 66 44 67 53 68 45 69 46 70 52 71 54 72 47 73 48 74
REMARK SMILES IDX 49 75 50 76 51 77 77 78 78 79 87 80 79 81 80 82 86 83 88 84
REMARK SMILES IDX 81 85 82 86 83 87 84 88 85 89 61 90 62 91 71 92 63 93 64 94
REMARK SMILES IDX 70 95 72 96 65 97 66 98 67 99 68 100 69 101
REMARK H PARENT 93 51 59 62
REMARK Flexibility Score: inf
ROOT
ATOM      1  O   UNL A   1      31.759  29.093  22.924  1.00  0.00    -0.377 OA
ENDROOT
BRANCH   1   2
ATOM      2  C   UNL A   1      30.557  28.403  22.571  1.00  0.00     0.188 C 
BRANCH   2   3
ATOM      3  C   UNL A   1      29.820  27.794  23.784  1.00  0.00     0.188 C 
BRANCH   3   4
ATOM      4  O   UNL A   1      29.375  26.420  23.640  1.00  0.00    -0.376 OA
BRANCH   4   5
ATOM      5  C   UNL A   1      29.522  25.658  24.871  1.00  0.00     0.202 C 
BRANCH   5   6
ATOM      6  C   UNL A   1      30.415  26.288  26.013  1.00  0.00     0.261 C 
BRANCH   6   7
ATOM      7  O   UNL A   1      31.665  25.580  26.331  1.00  0.00    -0.459 OA
BRANCH   7   8
ATOM      8  C   UNL A   1      32.819  25.987  25.675  1.00  0.00     0.355 C 
ATOM      9  O   UNL A   1      33.718  26.547  26.255  1.00  0.00    -0.244 OA
BRANCH   8  10
ATOM     10  C   UNL A   1      32.984  25.374  24.321  1.00  0.00     0.128 A 
ATOM     11  N   UNL A   1      32.806  24.099  23.763  1.00  0.00    -0.333 N 
ATOM     12  C   UNL A   1      33.080  24.136  22.402  1.00  0.00     0.087 A 
ATOM     13  C   UNL A   1      33.481  25.396  22.064  1.00  0.00     0.020 A 
ATOM     14  C   UNL A   1      33.395  26.166  23.238  1.00  0.00     0.035 A 
BRANCH  11  15
ATOM     15  C   UNL A   1      32.316  22.837  24.307  1.00  0.00     0.222 C 
BRANCH  15  16
ATOM     16  C   UNL A   1      33.299  21.712  24.318  1.00  0.00     0.242 C 
ATOM     17  O   UNL A   1      32.913  20.581  24.004  1.00  0.00    -0.273 OA
BRANCH  16  18
ATOM     18  N   UNL A   1      34.536  21.941  24.893  1.00  0.00    -0.336 N 
ATOM     19  C   UNL A   1      36.471  20.388  25.016  1.00  0.00     0.031 C 
ATOM     20  C   UNL A   1      35.893  21.650  24.367  1.00  0.00     0.082 C 
ATOM     21  C   UNL A   1      36.926  22.791  24.549  1.00  0.00     0.025 C 
ATOM     22  C   UNL A   1      36.776  23.633  25.800  1.00  0.00     0.004 C 
ATOM     23  C   UNL A   1      34.433  22.488  26.214  1.00  0.00     0.082 C 
ATOM     24  C   UNL A   1      35.340  23.729  26.220  1.00  0.00     0.025 C 
ATOM     25  C   UNL A   1      34.329  21.371  27.256  1.00  0.00     0.031 C 
ENDBRANCH  16  18
ENDBRANCH  15  16
ENDBRANCH  11  15
ENDBRANCH   8  10
ENDBRANCH   7   8
ENDBRANCH   6   7
ENDBRANCH   5   6
ENDBRANCH   4   5
ENDBRANCH   3   4
ENDBRANCH   2   3
ENDBRANCH   1   2
BRANCH   1  26
ATOM     26  C   UNL A   1      31.890  29.338  24.321  1.00  0.00     0.188 C 
BRANCH  26  27
ATOM     27  C   UNL A   1      33.342  29.556  24.783  1.00  0.00     0.188 C 
BRANCH  27  28
ATOM     28  O   UNL A   1      33.423  29.521  26.203  1.00  0.00    -0.376 OA
BRANCH  28  29
ATOM     29  C   UNL A   1      32.414  30.202  26.933  1.00  0.00     0.202 C 
BRANCH  29  30
ATOM     30  C   UNL A   1      32.443  31.740  26.986  1.00  0.00     0.261 C 
BRANCH  30  31
ATOM     31  O   UNL A   1      33.505  32.311  27.746  1.00  0.00    -0.460 OA
BRANCH  31  32
ATOM     32  C   UNL A   1      33.200  33.564  28.135  1.00  0.00     0.338 C 
ATOM     33  O   UNL A   1      32.271  34.253  27.731  1.00  0.00    -0.246 OA
BRANCH  32  34
ATOM     34  C   UNL A   1      34.178  34.129  29.058  1.00  0.00     0.060 A 
ATOM     35  C   UNL A   1      35.437  34.344  28.487  1.00  0.00     0.016 A 
ATOM     36  C   UNL A   1      34.005  33.790  30.404  1.00  0.00     0.016 A 
ATOM     37  C   UNL A   1      36.547  33.966  29.201  1.00  0.00     0.010 A 
ATOM     38  C   UNL A   1      35.120  33.387  31.113  1.00  0.00     0.010 A 
ATOM     39  C   UNL A   1      36.360  33.387  30.461  1.00  0.00    -0.014 A 
BRANCH  39  40
ATOM     40  C   UNL A   1      37.522  32.695  31.029  1.00  0.00     0.031 A 
ATOM     41  C   UNL A   1      37.771  31.379  30.309  1.00  0.00     0.074 A 
ATOM     42  C   UNL A   1      38.052  33.283  32.147  1.00  0.00     0.049 A 
ATOM     43  N   UNL A   1      38.171  30.240  30.778  1.00  0.00    -0.248 NA
ATOM     44  C   UNL A   1      37.388  31.273  28.872  1.00  0.00     0.031 C 
ATOM     45  C   UNL A   1      37.593  34.575  32.717  1.00  0.00     0.029 A 
ATOM     46  N   UNL A   1      39.038  32.938  33.045  1.00  0.00    -0.354 N 
ATOM     47  C   UNL A   1      38.322  29.378  29.674  1.00  0.00     0.074 A 
ATOM     48  C   UNL A   1      37.660  30.003  28.570  1.00  0.00     0.031 C 
ATOM     49  C   UNL A   1      38.225  34.848  33.877  1.00  0.00     0.029 A 
ATOM     50  C   UNL A   1      39.167  33.791  34.176  1.00  0.00     0.049 A 
ATOM     51  H   UNL A   1      39.615  32.151  32.913  1.00  0.00     0.167 HD
ATOM     52  C   UNL A   1      39.142  28.290  29.681  1.00  0.00     0.037 A 
ATOM     53  C   UNL A   1      39.946  33.627  35.291  1.00  0.00     0.037 A 
ATOM     54  C   UNL A   1      39.805  28.175  30.939  1.00  0.00     0.049 A 
ATOM     55  C   UNL A   1      40.773  32.437  35.010  1.00  0.00     0.074 A 
ATOM     56  C   UNL A   1      39.373  27.786  32.180  1.00  0.00     0.029 A 
ATOM     57  N   UNL A   1      40.999  28.850  31.074  1.00  0.00    -0.354 N 
ATOM     58  N   UNL A   1      41.690  32.372  34.094  1.00  0.00    -0.248 NA
ATOM     59  C   UNL A   1      40.480  31.187  35.719  1.00  0.00     0.031 C 
ATOM     60  C   UNL A   1      40.090  28.619  33.064  1.00  0.00     0.029 A 
ATOM     61  C   UNL A   1      41.050  29.353  32.355  1.00  0.00     0.049 A 
ATOM     62  H   UNL A   1      41.690  28.955  30.381  1.00  0.00     0.167 HD
ATOM     63  C   UNL A   1      41.819  31.021  33.879  1.00  0.00     0.074 A 
ATOM     64  C   UNL A   1      41.298  30.369  35.062  1.00  0.00     0.031 C 
ATOM     65  C   UNL A   1      41.843  30.544  32.606  1.00  0.00     0.037 A 
BRANCH  52  66
ATOM     66  C   UNL A   1      39.633  27.425  28.559  1.00  0.00     0.058 A 
ATOM     67  C   UNL A   1      39.514  26.025  28.706  1.00  0.00     0.135 A 
ATOM     68  C   UNL A   1      40.491  27.878  27.545  1.00  0.00     0.135 A 
ATOM     69  F   UNL A   1      38.671  25.500  29.613  1.00  0.00    -0.206 F 
ATOM     70  C   UNL A   1      40.305  25.132  27.993  1.00  0.00     0.059 A 
ATOM     71  C   UNL A   1      41.264  26.996  26.787  1.00  0.00     0.059 A 
ATOM     72  F   UNL A   1      40.674  29.186  27.323  1.00  0.00    -0.206 F 
ATOM     73  C   UNL A   1      41.209  25.632  27.064  1.00  0.00     0.060 A 
BRANCH  73  74
ATOM     74  S   UNL A   1      42.356  24.482  26.278  1.00  0.00     0.124 S 
ATOM     75  O   UNL A   1      43.460  24.471  27.232  1.00  0.00    -0.237 OA
ATOM     76  O   UNL A   1      41.566  23.255  26.210  1.00  0.00    -0.237 OA
ATOM     77  O   UNL A   1      42.635  25.110  24.992  1.00  0.00    -0.744 OA
ENDBRANCH  73  74
ENDBRANCH  52  66
BRANCH  53  78
ATOM     78  C   UNL A   1      40.054  34.212  36.688  1.00  0.00     0.058 A 
ATOM     79  C   UNL A   1      41.067  35.062  37.154  1.00  0.00     0.135 A 
ATOM     80  C   UNL A   1      38.945  34.090  37.576  1.00  0.00     0.135 A 
ATOM     81  F   UNL A   1      42.227  35.188  36.502  1.00  0.00    -0.206 F 
ATOM     82  C   UNL A   1      40.914  35.860  38.303  1.00  0.00     0.059 A 
ATOM     83  C   UNL A   1      38.745  34.910  38.685  1.00  0.00     0.059 A 
ATOM     84  F   UNL A   1      37.967  33.200  37.351  1.00  0.00    -0.206 F 
ATOM     85  C   UNL A   1      39.722  35.828  39.020  1.00  0.00     0.060 A 
BRANCH  85  86
ATOM     86  S   UNL A   1      39.368  37.080  40.277  1.00  0.00     0.124 S 
ATOM     87  O   UNL A   1      40.705  37.448  40.726  1.00  0.00    -0.237 OA
ATOM     88  O   UNL A   1      38.649  38.099  39.517  1.00  0.00    -0.237 OA
ATOM     89  O   UNL A   1      38.553  36.351  41.245  1.00  0.00    -0.744 OA
ENDBRANCH  85  86
ENDBRANCH  53  78
BRANCH  65  90
ATOM     90  C   UNL A   1      42.325  31.558  31.565  1.00  0.00     0.058 A 
ATOM     91  C   UNL A   1      43.649  32.033  31.579  1.00  0.00     0.135 A 
ATOM     92  C   UNL A   1      41.489  32.161  30.610  1.00  0.00     0.135 A 
ATOM     93  F   UNL A   1      44.542  31.499  32.429  1.00  0.00    -0.206 F 
ATOM     94  C   UNL A   1      44.094  33.055  30.728  1.00  0.00     0.059 A 
ATOM     95  C   UNL A   1      41.899  33.180  29.748  1.00  0.00     0.059 A 
ATOM     96  F   UNL A   1      40.231  31.759  30.470  1.00  0.00    -0.206 F 
ATOM     97  C   UNL A   1      43.208  33.628  29.815  1.00  0.00     0.060 A 
BRANCH  97  98
ATOM     98  S   UNL A   1      43.786  34.936  28.710  1.00  0.00     0.124 S 
ATOM     99  O   UNL A   1      44.528  35.811  29.612  1.00  0.00    -0.237 OA
ATOM    100  O   UNL A   1      44.592  34.188  27.751  1.00  0.00    -0.237 OA
ATOM    101  O   UNL A   1      42.552  35.508  28.174  1.00  0.00    -0.744 OA
ENDBRANCH  97  98
ENDBRANCH  65  90
ENDBRANCH  39  40
ENDBRANCH  32  34
ENDBRANCH  31  32
ENDBRANCH  30  31
ENDBRANCH  29  30
ENDBRANCH  28  29
ENDBRANCH  27  28
ENDBRANCH  26  27
ENDBRANCH   1  26
TORSDOF 26
ENDMDL
MODEL 3
REMARK VINA RESULT:      -9.5      3.585      9.586
REMARK SMILES C[C@@H]1CCC[C@H](C)N1C(=O)Cn1cccc1C(=O)OCCOCCOCCOCCOC(=O)c1ccc(-c2c3nc(c(-c4c(F)cc(S(=O)(=O)[O-])cc4F)c4ccc([nH]4)c(-c4c(F)cc(S(=O)(=O)[O-])cc4F)c4nc(c(-c5c(F)cc(S(=O)(=O)[O-])cc5F)c5ccc2[nH]5)C=C4)C=C3)cc1
REMARK SMILES IDX 25 1 24 2 23 3 22 4 21 5 20 6 19 7 17 8 18 9 16 10 12 11
REMARK SMILES IDX 13 12 14 13 15 14 11 15 9 16 10 17 8 18 1 19 2 20 3 21 4 22
REMARK SMILES IDX 6 23 5 24 7 25 26 26 27 27 28 28 29 29 30 30 31 31 32 32
REMARK SMILES IDX 33 33 34 34 35 35 99 36 36 37 98 38 37 39 38 40 39 41 92 42
REMARK SMILES IDX 40 43 97 44 91 45 93 46 41 47 96 48 90 49 89 50 42 52 76 53
REMARK SMILES IDX 55 54 75 55 56 56 59 57 74 58 94 59 57 60 58 61 73 63 95 64
REMARK SMILES IDX 60 65 43 66 44 67 53 68 45 69 46 70 52 71 54 72 47 73 48 74
REMARK SMILES IDX 49 75 50 76 51 77 77 78 78 79 87 80 79 81 80 82 86 83 88 84
REMARK SMILES IDX 81 85 82 86 83 87 84 88 85 89 61 90 62 91 71 92 63 93 64 94
REMARK SMILES IDX 70 95 72 96 65 97 66 98 67 99 68 100 69 101
REMARK H PARENT 93 51 59 62
REMARK Flexibility Score: inf
ROOT
ATOM      1  O   UNL A   1      41.315  20.132  27.585  1.00  0.00    -0.377 OA
ENDROOT
BRANCH   1   2
ATOM      2  C   UNL A   1      40.685  20.773  26.472  1.00  0.00     0.188 C 
BRANCH   2   3
ATOM      3  C   UNL A   1      40.464  22.288  26.679  1.00  0.00     0.188 C 
BRANCH   3   4
ATOM      4  O   UNL A   1      39.088  22.748  26.632  1.00  0.00    -0.376 OA
BRANCH   4   5
ATOM      5  C   UNL A   1      38.357  22.195  25.502  1.00  0.00     0.202 C 
BRANCH   5   6
ATOM      6  C   UNL A   1      36.887  22.722  25.259  1.00  0.00     0.261 C 
BRANCH   6   7
ATOM      7  O   UNL A   1      36.130  22.074  24.177  1.00  0.00    -0.459 OA
BRANCH   7   8
ATOM      8  C   UNL A   1      34.971  22.700  23.739  1.00  0.00     0.355 C 
ATOM      9  O   UNL A   1      34.959  23.406  22.758  1.00  0.00    -0.244 OA
BRANCH   8  10
ATOM     10  C   UNL A   1      33.725  22.156  24.361  1.00  0.00     0.128 A 
ATOM     11  N   UNL A   1      32.466  22.668  24.710  1.00  0.00    -0.333 N 
ATOM     12  C   UNL A   1      31.671  21.655  25.230  1.00  0.00     0.087 A 
ATOM     13  C   UNL A   1      32.396  20.500  25.275  1.00  0.00     0.020 A 
ATOM     14  C   UNL A   1      33.651  20.800  24.714  1.00  0.00     0.035 A 
BRANCH  11  15
ATOM     15  C   UNL A   1      31.845  23.978  24.542  1.00  0.00     0.222 C 
BRANCH  15  16
ATOM     16  C   UNL A   1      31.781  24.827  25.769  1.00  0.00     0.242 C 
ATOM     17  O   UNL A   1      31.232  24.375  26.779  1.00  0.00    -0.273 OA
BRANCH  16  18
ATOM     18  N   UNL A   1      32.138  26.158  25.652  1.00  0.00    -0.336 N 
ATOM     19  C   UNL A   1      31.623  28.018  27.217  1.00  0.00     0.031 C 
ATOM     20  C   UNL A   1      32.704  27.080  26.668  1.00  0.00     0.082 C 
ATOM     21  C   UNL A   1      33.885  27.956  26.175  1.00  0.00     0.025 C 
ATOM     22  C   UNL A   1      33.834  28.386  24.724  1.00  0.00     0.004 C 
ATOM     23  C   UNL A   1      31.843  26.692  24.355  1.00  0.00     0.082 C 
ATOM     24  C   UNL A   1      33.143  27.360  23.877  1.00  0.00     0.025 C 
ATOM     25  C   UNL A   1      30.412  27.232  24.304  1.00  0.00     0.031 C 
ENDBRANCH  16  18
ENDBRANCH  15  16
ENDBRANCH  11  15
ENDBRANCH   8  10
ENDBRANCH   7   8
ENDBRANCH   6   7
ENDBRANCH   5   6
ENDBRANCH   4   5
ENDBRANCH   3   4
ENDBRANCH   2   3
ENDBRANCH   1   2
BRANCH   1  26
ATOM     26  C   UNL A   1      42.300  19.173  27.211  1.00  0.00     0.188 C 
BRANCH  26  27
ATOM     27  C   UNL A   1      42.326  18.860  25.705  1.00  0.00     0.188 C 
BRANCH  27  28
ATOM     28  O   UNL A   1      43.421  18.008  25.393  1.00  0.00    -0.376 OA
BRANCH  28  29
ATOM     29  C   UNL A   1      44.719  18.583  25.391  1.00  0.00     0.202 C 
BRANCH  29  30
ATOM     30  C   UNL A   1      45.267  19.177  24.081  1.00  0.00     0.261 C 
BRANCH  30  31
ATOM     31  O   UNL A   1      44.742  20.451  23.715  1.00  0.00    -0.460 OA
BRANCH  31  32
ATOM     32  C   UNL A   1      45.300  21.432  24.451  1.00  0.00     0.338 C 
ATOM     33  O   UNL A   1      46.493  21.595  24.675  1.00  0.00    -0.246 OA
BRANCH  32  34
ATOM     34  C   UNL A   1      44.315  22.290  25.099  1.00  0.00     0.060 A 
ATOM     35  C   UNL A   1      44.262  23.587  24.576  1.00  0.00     0.016 A 
ATOM     36  C   UNL A   1      44.056  22.006  26.444  1.00  0.00     0.016 A 
ATOM     37  C   UNL A   1      44.204  24.641  25.455  1.00  0.00     0.010 A 
ATOM     38  C   UNL A   1      44.023  23.066  27.329  1.00  0.00     0.010 A 
ATOM     39  C   UNL A   1      44.200  24.362  26.825  1.00  0.00    -0.014 A 
BRANCH  39  40
ATOM     40  C   UNL A   1      44.483  25.495  27.713  1.00  0.00     0.031 A 
ATOM     41  C   UNL A   1      43.231  26.326  27.941  1.00  0.00     0.074 A 
ATOM     42  C   UNL A   1      45.804  25.653  28.038  1.00  0.00     0.049 A 
ATOM     43  N   UNL A   1      43.098  27.610  28.058  1.00  0.00    -0.248 NA
ATOM     44  C   UNL A   1      41.907  25.642  27.899  1.00  0.00     0.031 C 
ATOM     45  C   UNL A   1      46.889  24.721  27.639  1.00  0.00     0.029 A 
ATOM     46  N   UNL A   1      46.522  26.608  28.725  1.00  0.00    -0.354 N 
ATOM     47  C   UNL A   1      41.740  27.851  28.346  1.00  0.00     0.074 A 
ATOM     48  C   UNL A   1      41.036  26.639  28.057  1.00  0.00     0.031 C 
ATOM     49  C   UNL A   1      48.097  25.191  28.010  1.00  0.00     0.029 A 
ATOM     50  C   UNL A   1      47.935  26.453  28.699  1.00  0.00     0.049 A 
ATOM     51  H   UNL A   1      46.084  27.349  29.203  1.00  0.00     0.167 HD
ATOM     52  C   UNL A   1      41.299  28.972  28.983  1.00  0.00     0.037 A 
ATOM     53  C   UNL A   1      48.902  27.308  29.161  1.00  0.00     0.037 A 
ATOM     54  C   UNL A   1      42.396  29.825  29.307  1.00  0.00     0.049 A 
ATOM     55  C   UNL A   1      48.165  28.379  29.859  1.00  0.00     0.074 A 
ATOM     56  C   UNL A   1      43.189  30.641  28.543  1.00  0.00     0.029 A 
ATOM     57  N   UNL A   1      43.019  29.602  30.515  1.00  0.00    -0.354 N 
ATOM     58  N   UNL A   1      47.479  28.217  30.949  1.00  0.00    -0.248 NA
ATOM     59  C   UNL A   1      48.084  29.705  29.237  1.00  0.00     0.031 C 
ATOM     60  C   UNL A   1      44.464  30.526  29.138  1.00  0.00     0.029 A 
ATOM     61  C   UNL A   1      44.369  29.797  30.330  1.00  0.00     0.049 A 
ATOM     62  H   UNL A   1      42.579  29.349  31.359  1.00  0.00     0.167 HD
ATOM     63  C   UNL A   1      46.621  29.291  30.938  1.00  0.00     0.074 A 
ATOM     64  C   UNL A   1      47.218  30.281  30.067  1.00  0.00     0.031 C 
ATOM     65  C   UNL A   1      45.300  29.096  31.197  1.00  0.00     0.037 A 
BRANCH  52  66
ATOM     66  C   UNL A   1      39.971  29.288  29.602  1.00  0.00     0.058 A 
ATOM     67  C   UNL A   1      38.986  29.883  28.781  1.00  0.00     0.135 A 
ATOM     68  C   UNL A   1      39.752  29.349  30.987  1.00  0.00     0.135 A 
ATOM     69  F   UNL A   1      39.083  29.823  27.442  1.00  0.00    -0.206 F 
ATOM     70  C   UNL A   1      37.928  30.618  29.302  1.00  0.00     0.059 A 
ATOM     71  C   UNL A   1      38.672  30.047  31.531  1.00  0.00     0.059 A 
ATOM     72  F   UNL A   1      40.625  28.816  31.852  1.00  0.00    -0.206 F 
ATOM     73  C   UNL A   1      37.804  30.729  30.682  1.00  0.00     0.060 A 
BRANCH  73  74
ATOM     74  S   UNL A   1      36.540  31.832  31.344  1.00  0.00     0.124 S 
ATOM     75  O   UNL A   1      35.540  31.804  30.281  1.00  0.00    -0.237 OA
ATOM     76  O   UNL A   1      36.163  31.162  32.585  1.00  0.00    -0.237 OA
ATOM     77  O   UNL A   1      37.249  33.095  31.514  1.00  0.00    -0.744 OA
ENDBRANCH  73  74
ENDBRANCH  52  66
BRANCH  53  78
ATOM     78  C   UNL A   1      50.401  27.501  29.014  1.00  0.00     0.058 A 
ATOM     79  C   UNL A   1      51.349  27.437  30.044  1.00  0.00     0.135 A 
ATOM     80  C   UNL A   1      50.967  27.544  27.707  1.00  0.00     0.135 A 
ATOM     81  F   UNL A   1      50.990  27.516  31.330  1.00  0.00    -0.206 F 
ATOM     82  C   UNL A   1      52.721  27.245  29.798  1.00  0.00     0.059 A 
ATOM     83  C   UNL A   1      52.312  27.298  27.435  1.00  0.00     0.059 A 
ATOM     84  F   UNL A   1      50.206  27.760  26.623  1.00  0.00    -0.206 F 
ATOM     85  C   UNL A   1      53.182  27.106  28.492  1.00  0.00     0.060 A 
BRANCH  85  86
ATOM     86  S   UNL A   1      54.859  26.517  28.163  1.00  0.00     0.124 S 
ATOM     87  O   UNL A   1      55.142  25.722  29.352  1.00  0.00    -0.237 OA
ATOM     88  O   UNL A   1      54.696  25.768  26.920  1.00  0.00    -0.237 OA
ATOM     89  O   UNL A   1      55.622  27.756  28.033  1.00  0.00    -0.744 OA
ENDBRANCH  85  86
ENDBRANCH  53  78
BRANCH  65  90
ATOM     90  C   UNL A   1      45.005  27.857  32.047  1.00  0.00     0.058 A 
ATOM     91  C   UNL A   1      45.403  27.794  33.395  1.00  0.00     0.135 A 
ATOM     92  C   UNL A   1      44.428  26.679  31.544  1.00  0.00     0.135 A 
ATOM     93  F   UNL A   1      45.932  28.878  33.987  1.00  0.00    -0.206 F 
ATOM     94  C   UNL A   1      45.267  26.633  34.169  1.00  0.00     0.059 A 
ATOM     95  C   UNL A   1      44.279  25.506  32.287  1.00  0.00     0.059 A 
ATOM     96  F   UNL A   1      43.969  26.635  30.299  1.00  0.00    -0.206 F 
ATOM     97  C   UNL A   1      44.706  25.488  33.605  1.00  0.00     0.060 A 
BRANCH  97  98
ATOM     98  S   UNL A   1      44.520  23.996  34.607  1.00  0.00     0.124 S 
ATOM     99  O   UNL A   1      43.786  23.103  33.718  1.00  0.00    -0.237 OA
ATOM    100  O   UNL A   1      45.909  23.630  34.865  1.00  0.00    -0.237 OA
ATOM    101  O   UNL A   1      43.772  24.454  35.777  1.00  0.00    -0.744 OA
ENDBRANCH  97  98
ENDBRANCH  65  90
ENDBRANCH  39  40
ENDBRANCH  32  34
ENDBRANCH  31  32
ENDBRANCH  30  31
ENDBRANCH  29  30
ENDBRANCH  28  29
ENDBRANCH  27  28
ENDBRANCH  26  27
ENDBRANCH   1  26
TORSDOF 26
ENDMDL
