MODEL 1
REMARK VINA RESULT:      -8.2      0.000      0.000
REMARK SMILES C=CC[C@@]1(C(=O)OCCOCCOCCOCCOC(=O)c2ccc(-c3c4nc(c(-c5c(F)cc(S(=O)(=O)[O-])cc5F)c5ccc([nH]5)c(-c5c(F)cc(S(=O)(=O)[O-])cc5F)c5nc(c(-c6c(F)cc(S(=O)(=O)[O-])cc6F)c6ccc3[nH]6)C=C5)C=C4)cc2)CCCN(C(=O)c2ccc3c(c2)OCO3)C1
REMARK SMILES IDX 14 1 13 2 12 3 11 4 10 5 9 6 8 7 7 8 5 9 6 10 4 11 88 12
REMARK SMILES IDX 103 13 89 14 91 15 90 16 3 17 2 18 1 19 92 20 93 21 94 22
REMARK SMILES IDX 95 23 99 24 96 25 98 26 97 27 100 28 102 29 101 30 15 31
REMARK SMILES IDX 16 32 17 33 18 34 19 35 20 36 21 37 22 38 23 39 87 40 24 41
REMARK SMILES IDX 86 42 25 43 26 44 27 45 80 46 28 47 85 48 79 49 81 50 29 51
REMARK SMILES IDX 84 52 78 53 77 54 30 56 64 57 43 58 63 59 44 60 47 61 62 62
REMARK SMILES IDX 82 63 45 64 46 65 61 67 83 68 48 69 31 70 32 71 41 72 33 73
REMARK SMILES IDX 34 74 40 75 42 76 35 77 36 78 37 79 38 80 39 81 65 82 66 83
REMARK SMILES IDX 75 84 67 85 68 86 74 87 76 88 69 89 70 90 71 91 72 92 73 93
REMARK SMILES IDX 49 94 50 95 59 96 51 97 52 98 58 99 60 100 53 101 54 102
REMARK SMILES IDX 55 103 56 104 57 105
REMARK H PARENT 81 55 47 66
REMARK Flexibility Score: inf
ROOT
ATOM      1  C   UNL A   1      34.650  33.556  30.421  1.00  0.00     0.188 C 
ENDROOT
BRANCH   1   2
ATOM      2  O   UNL A   1      35.287  33.082  29.249  1.00  0.00    -0.377 OA
BRANCH   2   3
ATOM      3  C   UNL A   1      34.840  31.850  28.728  1.00  0.00     0.188 C 
BRANCH   3   4
ATOM      4  C   UNL A   1      33.709  31.986  27.702  1.00  0.00     0.188 C 
BRANCH   4   5
ATOM      5  O   UNL A   1      33.011  30.830  27.291  1.00  0.00    -0.376 OA
BRANCH   5   6
ATOM      6  C   UNL A   1      33.624  29.617  26.884  1.00  0.00     0.202 C 
BRANCH   6   7
ATOM      7  C   UNL A   1      32.981  28.224  26.662  1.00  0.00     0.261 C 
BRANCH   7   8
ATOM      8  O   UNL A   1      33.750  27.143  26.139  1.00  0.00    -0.463 OA
BRANCH   8   9
ATOM      9  C   UNL A   1      33.671  26.986  24.804  1.00  0.00     0.314 C 
ATOM     10  O   UNL A   1      33.559  27.950  24.050  1.00  0.00    -0.252 OA
BRANCH   9  11
ATOM     11  C   UNL A   1      33.814  25.508  24.333  1.00  0.00     0.089 C 
ATOM     12  C   UNL A   1      33.942  25.447  22.775  1.00  0.00     0.023 C 
ATOM     13  C   UNL A   1      32.474  24.847  24.707  1.00  0.00     0.138 C 
ATOM     14  C   UNL A   1      32.744  26.030  22.024  1.00  0.00     0.023 C 
ATOM     15  N   UNL A   1      31.366  25.504  24.026  1.00  0.00    -0.337 N 
ATOM     16  C   UNL A   1      31.422  25.481  22.557  1.00  0.00     0.120 C 
BRANCH  11  17
ATOM     17  C   UNL A   1      34.970  24.713  25.059  1.00  0.00     0.047 C 
BRANCH  17  18
ATOM     18  C   UNL A   1      35.377  23.371  24.483  1.00  0.00    -0.034 C 
ATOM     19  C   UNL A   1      36.543  22.762  24.747  1.00  0.00     0.004 C 
ENDBRANCH  17  18
ENDBRANCH  11  17
BRANCH  15  20
ATOM     20  C   UNL A   1      30.542  26.342  24.791  1.00  0.00     0.254 C 
ATOM     21  O   UNL A   1      30.465  26.330  26.014  1.00  0.00    -0.269 OA
BRANCH  20  22
ATOM     22  C   UNL A   1      29.686  27.270  24.047  1.00  0.00     0.043 A 
ATOM     23  C   UNL A   1      28.355  26.930  23.731  1.00  0.00     0.018 A 
ATOM     24  C   UNL A   1      30.198  28.553  23.854  1.00  0.00     0.064 A 
ATOM     25  C   UNL A   1      27.485  27.926  23.276  1.00  0.00     0.051 A 
ATOM     26  C   UNL A   1      29.304  29.511  23.465  1.00  0.00     0.166 A 
ATOM     27  C   UNL A   1      27.983  29.212  23.197  1.00  0.00     0.165 A 
ATOM     28  O   UNL A   1      29.566  30.842  23.405  1.00  0.00    -0.454 OA
ATOM     29  O   UNL A   1      27.262  30.337  22.931  1.00  0.00    -0.454 OA
ATOM     30  C   UNL A   1      28.224  31.351  23.295  1.00  0.00     0.468 C 
ENDBRANCH  20  22
ENDBRANCH  15  20
ENDBRANCH   9  11
ENDBRANCH   8   9
ENDBRANCH   7   8
ENDBRANCH   6   7
ENDBRANCH   5   6
ENDBRANCH   4   5
ENDBRANCH   3   4
ENDBRANCH   2   3
ENDBRANCH   1   2
BRANCH   1  31
ATOM     31  C   UNL A   1      35.498  33.895  31.665  1.00  0.00     0.188 C 
BRANCH  31  32
ATOM     32  O   UNL A   1      35.619  32.841  32.611  1.00  0.00    -0.376 OA
BRANCH  32  33
ATOM     33  C   UNL A   1      36.533  31.784  32.386  1.00  0.00     0.202 C 
BRANCH  33  34
ATOM     34  C   UNL A   1      36.013  30.524  31.676  1.00  0.00     0.261 C 
BRANCH  34  35
ATOM     35  O   UNL A   1      36.982  29.511  31.384  1.00  0.00    -0.460 OA
BRANCH  35  36
ATOM     36  C   UNL A   1      37.779  29.100  32.395  1.00  0.00     0.338 C 
ATOM     37  O   UNL A   1      37.458  28.407  33.345  1.00  0.00    -0.246 OA
BRANCH  36  38
ATOM     38  C   UNL A   1      39.167  29.463  32.038  1.00  0.00     0.060 A 
ATOM     39  C   UNL A   1      39.913  30.247  32.928  1.00  0.00     0.016 A 
ATOM     40  C   UNL A   1      39.741  28.988  30.857  1.00  0.00     0.016 A 
ATOM     41  C   UNL A   1      41.230  30.588  32.622  1.00  0.00     0.010 A 
ATOM     42  C   UNL A   1      41.049  29.357  30.535  1.00  0.00     0.010 A 
ATOM     43  C   UNL A   1      41.785  30.187  31.400  1.00  0.00    -0.014 A 
BRANCH  43  44
ATOM     44  C   UNL A   1      43.029  30.830  30.919  1.00  0.00     0.031 A 
ATOM     45  C   UNL A   1      44.322  30.086  31.118  1.00  0.00     0.074 A 
ATOM     46  C   UNL A   1      43.017  32.028  30.310  1.00  0.00     0.049 A 
ATOM     47  N   UNL A   1      45.545  30.457  30.849  1.00  0.00    -0.248 NA
ATOM     48  C   UNL A   1      44.216  28.740  31.709  1.00  0.00     0.031 C 
ATOM     49  C   UNL A   1      41.822  32.819  30.019  1.00  0.00     0.029 A 
ATOM     50  N   UNL A   1      44.052  32.793  29.835  1.00  0.00    -0.354 N 
ATOM     51  C   UNL A   1      46.354  29.398  31.244  1.00  0.00     0.074 A 
ATOM     52  C   UNL A   1      45.488  28.382  31.798  1.00  0.00     0.031 C 
ATOM     53  C   UNL A   1      42.196  33.971  29.433  1.00  0.00     0.029 A 
ATOM     54  C   UNL A   1      43.655  34.012  29.339  1.00  0.00     0.049 A 
ATOM     55  H   UNL A   1      44.992  32.498  29.850  1.00  0.00     0.167 HD
ATOM     56  C   UNL A   1      47.699  29.282  31.148  1.00  0.00     0.037 A 
ATOM     57  C   UNL A   1      44.390  35.049  28.890  1.00  0.00     0.037 A 
ATOM     58  C   UNL A   1      48.552  30.301  30.598  1.00  0.00     0.049 A 
ATOM     59  C   UNL A   1      45.894  34.928  28.860  1.00  0.00     0.074 A 
ATOM     60  C   UNL A   1      49.926  30.277  30.439  1.00  0.00     0.029 A 
ATOM     61  N   UNL A   1      48.116  31.531  30.129  1.00  0.00    -0.354 N 
ATOM     62  N   UNL A   1      46.649  33.914  29.214  1.00  0.00    -0.248 NA
ATOM     63  C   UNL A   1      46.648  36.089  28.367  1.00  0.00     0.031 C 
ATOM     64  C   UNL A   1      50.326  31.515  29.930  1.00  0.00     0.029 A 
ATOM     65  C   UNL A   1      49.197  32.287  29.707  1.00  0.00     0.049 A 
ATOM     66  H   UNL A   1      47.177  31.824  30.098  1.00  0.00     0.167 HD
ATOM     67  C   UNL A   1      47.961  34.304  28.957  1.00  0.00     0.074 A 
ATOM     68  C   UNL A   1      47.896  35.642  28.408  1.00  0.00     0.031 C 
ATOM     69  C   UNL A   1      49.114  33.616  29.153  1.00  0.00     0.037 A 
BRANCH  56  70
ATOM     70  C   UNL A   1      48.330  28.026  31.681  1.00  0.00     0.058 A 
ATOM     71  C   UNL A   1      48.897  27.966  32.965  1.00  0.00     0.135 A 
ATOM     72  C   UNL A   1      48.343  26.856  30.906  1.00  0.00     0.135 A 
ATOM     73  F   UNL A   1      48.935  29.061  33.741  1.00  0.00    -0.206 F 
ATOM     74  C   UNL A   1      49.474  26.796  33.450  1.00  0.00     0.059 A 
ATOM     75  C   UNL A   1      48.886  25.668  31.383  1.00  0.00     0.059 A 
ATOM     76  F   UNL A   1      47.822  26.860  29.667  1.00  0.00    -0.206 F 
ATOM     77  C   UNL A   1      49.460  25.651  32.652  1.00  0.00     0.060 A 
BRANCH  77  78
ATOM     78  S   UNL A   1      50.200  24.139  33.303  1.00  0.00     0.124 S 
ATOM     79  O   UNL A   1      51.139  24.672  34.284  1.00  0.00    -0.237 OA
ATOM     80  O   UNL A   1      49.042  23.437  33.850  1.00  0.00    -0.237 OA
ATOM     81  O   UNL A   1      50.805  23.521  32.126  1.00  0.00    -0.744 OA
ENDBRANCH  77  78
ENDBRANCH  56  70
BRANCH  57  82
ATOM     82  C   UNL A   1      43.720  36.303  28.448  1.00  0.00     0.058 A 
ATOM     83  C   UNL A   1      43.191  36.431  27.155  1.00  0.00     0.135 A 
ATOM     84  C   UNL A   1      43.601  37.405  29.310  1.00  0.00     0.135 A 
ATOM     85  F   UNL A   1      43.291  35.413  26.287  1.00  0.00    -0.206 F 
ATOM     86  C   UNL A   1      42.583  37.608  26.727  1.00  0.00     0.059 A 
ATOM     87  C   UNL A   1      42.972  38.582  28.916  1.00  0.00     0.059 A 
ATOM     88  F   UNL A   1      44.085  37.335  30.560  1.00  0.00    -0.206 F 
ATOM     89  C   UNL A   1      42.475  38.677  27.618  1.00  0.00     0.060 A 
BRANCH  89  90
ATOM     90  S   UNL A   1      41.644  40.182  27.066  1.00  0.00     0.124 S 
ATOM     91  O   UNL A   1      42.770  40.997  26.628  1.00  0.00    -0.237 OA
ATOM     92  O   UNL A   1      40.772  39.678  26.010  1.00  0.00    -0.237 OA
ATOM     93  O   UNL A   1      40.958  40.647  28.268  1.00  0.00    -0.744 OA
ENDBRANCH  89  90
ENDBRANCH  57  82
BRANCH  69  94
ATOM     94  C   UNL A   1      50.402  34.272  28.732  1.00  0.00     0.058 A 
ATOM     95  C   UNL A   1      51.189  35.009  29.631  1.00  0.00     0.135 A 
ATOM     96  C   UNL A   1      50.889  34.102  27.425  1.00  0.00     0.135 A 
ATOM     97  F   UNL A   1      50.771  35.207  30.891  1.00  0.00    -0.206 F 
ATOM     98  C   UNL A   1      52.401  35.572  29.242  1.00  0.00     0.059 A 
ATOM     99  C   UNL A   1      52.113  34.628  27.024  1.00  0.00     0.059 A 
ATOM    100  F   UNL A   1      50.184  33.395  26.528  1.00  0.00    -0.206 F 
ATOM    101  C   UNL A   1      52.857  35.372  27.939  1.00  0.00     0.060 A 
BRANCH 101 102
ATOM    102  S   UNL A   1      54.450  36.075  27.460  1.00  0.00     0.124 S 
ATOM    103  O   UNL A   1      55.245  34.873  27.231  1.00  0.00    -0.237 OA
ATOM    104  O   UNL A   1      54.106  36.844  26.269  1.00  0.00    -0.237 OA
ATOM    105  O   UNL A   1      54.835  36.870  28.623  1.00  0.00    -0.744 OA
ENDBRANCH 101 102
ENDBRANCH  69  94
ENDBRANCH  43  44
ENDBRANCH  36  38
ENDBRANCH  35  36
ENDBRANCH  34  35
ENDBRANCH  33  34
ENDBRANCH  32  33
ENDBRANCH  31  32
ENDBRANCH   1  31
TORSDOF 27
ENDMDL
MODEL 2
REMARK VINA RESULT:      -8.1      6.787      9.576
REMARK SMILES C=CC[C@@]1(C(=O)OCCOCCOCCOCCOC(=O)c2ccc(-c3c4nc(c(-c5c(F)cc(S(=O)(=O)[O-])cc5F)c5ccc([nH]5)c(-c5c(F)cc(S(=O)(=O)[O-])cc5F)c5nc(c(-c6c(F)cc(S(=O)(=O)[O-])cc6F)c6ccc3[nH]6)C=C5)C=C4)cc2)CCCN(C(=O)c2ccc3c(c2)OCO3)C1
REMARK SMILES IDX 14 1 13 2 12 3 11 4 10 5 9 6 8 7 7 8 5 9 6 10 4 11 88 12
REMARK SMILES IDX 103 13 89 14 91 15 90 16 3 17 2 18 1 19 92 20 93 21 94 22
REMARK SMILES IDX 95 23 99 24 96 25 98 26 97 27 100 28 102 29 101 30 15 31
REMARK SMILES IDX 16 32 17 33 18 34 19 35 20 36 21 37 22 38 23 39 87 40 24 41
REMARK SMILES IDX 86 42 25 43 26 44 27 45 80 46 28 47 85 48 79 49 81 50 29 51
REMARK SMILES IDX 84 52 78 53 77 54 30 56 64 57 43 58 63 59 44 60 47 61 62 62
REMARK SMILES IDX 82 63 45 64 46 65 61 67 83 68 48 69 31 70 32 71 41 72 33 73
REMARK SMILES IDX 34 74 40 75 42 76 35 77 36 78 37 79 38 80 39 81 65 82 66 83
REMARK SMILES IDX 75 84 67 85 68 86 74 87 76 88 69 89 70 90 71 91 72 92 73 93
REMARK SMILES IDX 49 94 50 95 59 96 51 97 52 98 58 99 60 100 53 101 54 102
REMARK SMILES IDX 55 103 56 104 57 105
REMARK H PARENT 81 55 47 66
REMARK Flexibility Score: inf
ROOT
ATOM      1  C   UNL A   1      34.513  33.588  30.118  1.00  0.00     0.188 C 
ENDROOT
BRANCH   1   2
ATOM      2  O   UNL A   1      35.242  33.039  29.036  1.00  0.00    -0.377 OA
BRANCH   2   3
ATOM      3  C   UNL A   1      34.863  31.757  28.589  1.00  0.00     0.188 C 
BRANCH   3   4
ATOM      4  C   UNL A   1      33.702  31.769  27.586  1.00  0.00     0.188 C 
BRANCH   4   5
ATOM      5  O   UNL A   1      32.901  30.615  27.449  1.00  0.00    -0.376 OA
BRANCH   5   6
ATOM      6  C   UNL A   1      33.391  29.284  27.456  1.00  0.00     0.202 C 
BRANCH   6   7
ATOM      7  C   UNL A   1      32.815  28.027  26.757  1.00  0.00     0.261 C 
BRANCH   7   8
ATOM      8  O   UNL A   1      33.681  27.074  26.143  1.00  0.00    -0.463 OA
BRANCH   8   9
ATOM      9  C   UNL A   1      33.616  27.037  24.798  1.00  0.00     0.314 C 
ATOM     10  O   UNL A   1      33.512  28.064  24.131  1.00  0.00    -0.252 OA
BRANCH   9  11
ATOM     11  C   UNL A   1      33.766  25.607  24.199  1.00  0.00     0.089 C 
ATOM     12  C   UNL A   1      33.945  25.686  22.647  1.00  0.00     0.023 C 
ATOM     13  C   UNL A   1      32.411  24.926  24.468  1.00  0.00     0.138 C 
ATOM     14  C   UNL A   1      32.776  26.346  21.914  1.00  0.00     0.023 C 
ATOM     15  N   UNL A   1      31.330  25.652  23.815  1.00  0.00    -0.337 N 
ATOM     16  C   UNL A   1      31.434  25.763  22.352  1.00  0.00     0.120 C 
BRANCH  11  17
ATOM     17  C   UNL A   1      34.892  24.738  24.887  1.00  0.00     0.047 C 
BRANCH  17  18
ATOM     18  C   UNL A   1      35.512  23.613  24.081  1.00  0.00    -0.034 C 
ATOM     19  C   UNL A   1      35.158  22.324  24.194  1.00  0.00     0.004 C 
ENDBRANCH  17  18
ENDBRANCH  11  17
BRANCH  15  20
ATOM     20  C   UNL A   1      30.486  26.425  24.626  1.00  0.00     0.254 C 
ATOM     21  O   UNL A   1      30.377  26.309  25.841  1.00  0.00    -0.269 OA
BRANCH  20  22
ATOM     22  C   UNL A   1      29.650  27.414  23.940  1.00  0.00     0.043 A 
ATOM     23  C   UNL A   1      28.317  27.116  23.592  1.00  0.00     0.018 A 
ATOM     24  C   UNL A   1      30.181  28.699  23.839  1.00  0.00     0.064 A 
ATOM     25  C   UNL A   1      27.465  28.153  23.200  1.00  0.00     0.051 A 
ATOM     26  C   UNL A   1      29.304  29.694  23.510  1.00  0.00     0.166 A 
ATOM     27  C   UNL A   1      27.982  29.434  23.212  1.00  0.00     0.165 A 
ATOM     28  O   UNL A   1      29.585  31.022  23.543  1.00  0.00    -0.454 OA
ATOM     29  O   UNL A   1      27.278  30.585  23.019  1.00  0.00    -0.454 OA
ATOM     30  C   UNL A   1      28.252  31.557  23.458  1.00  0.00     0.468 C 
ENDBRANCH  20  22
ENDBRANCH  15  20
ENDBRANCH   9  11
ENDBRANCH   8   9
ENDBRANCH   7   8
ENDBRANCH   6   7
ENDBRANCH   5   6
ENDBRANCH   4   5
ENDBRANCH   3   4
ENDBRANCH   2   3
ENDBRANCH   1   2
BRANCH   1  31
ATOM     31  C   UNL A   1      35.269  34.268  31.279  1.00  0.00     0.188 C 
BRANCH  31  32
ATOM     32  O   UNL A   1      35.764  33.379  32.272  1.00  0.00    -0.376 OA
BRANCH  32  33
ATOM     33  C   UNL A   1      37.073  32.851  32.166  1.00  0.00     0.202 C 
BRANCH  33  34
ATOM     34  C   UNL A   1      37.910  33.251  30.941  1.00  0.00     0.261 C 
BRANCH  34  35
ATOM     35  O   UNL A   1      39.177  32.600  30.794  1.00  0.00    -0.460 OA
BRANCH  35  36
ATOM     36  C   UNL A   1      39.201  31.253  30.896  1.00  0.00     0.338 C 
ATOM     37  O   UNL A   1      38.770  30.450  30.086  1.00  0.00    -0.246 OA
BRANCH  36  38
ATOM     38  C   UNL A   1      40.037  30.913  32.067  1.00  0.00     0.060 A 
ATOM     39  C   UNL A   1      39.463  30.192  33.123  1.00  0.00     0.016 A 
ATOM     40  C   UNL A   1      41.389  31.261  32.097  1.00  0.00     0.016 A 
ATOM     41  C   UNL A   1      40.235  29.845  34.230  1.00  0.00     0.010 A 
ATOM     42  C   UNL A   1      42.153  30.942  33.221  1.00  0.00     0.010 A 
ATOM     43  C   UNL A   1      41.569  30.263  34.306  1.00  0.00    -0.014 A 
BRANCH  43  44
ATOM     44  C   UNL A   1      42.277  30.210  35.606  1.00  0.00     0.031 A 
ATOM     45  C   UNL A   1      43.140  29.008  35.883  1.00  0.00     0.074 A 
ATOM     46  C   UNL A   1      42.175  31.201  36.508  1.00  0.00     0.049 A 
ATOM     47  N   UNL A   1      43.805  28.693  36.961  1.00  0.00    -0.248 NA
ATOM     48  C   UNL A   1      43.261  28.026  34.790  1.00  0.00     0.031 C 
ATOM     49  C   UNL A   1      41.409  32.433  36.332  1.00  0.00     0.029 A 
ATOM     50  N   UNL A   1      42.715  31.316  37.765  1.00  0.00    -0.354 N 
ATOM     51  C   UNL A   1      44.415  27.475  36.683  1.00  0.00     0.074 A 
ATOM     52  C   UNL A   1      44.018  27.093  35.346  1.00  0.00     0.031 C 
ATOM     53  C   UNL A   1      41.513  33.173  37.451  1.00  0.00     0.029 A 
ATOM     54  C   UNL A   1      42.321  32.451  38.432  1.00  0.00     0.049 A 
ATOM     55  H   UNL A   1      43.326  30.648  38.152  1.00  0.00     0.167 HD
ATOM     56  C   UNL A   1      45.236  26.744  37.471  1.00  0.00     0.037 A 
ATOM     57  C   UNL A   1      42.564  32.843  39.700  1.00  0.00     0.037 A 
ATOM     58  C   UNL A   1      45.622  27.130  38.801  1.00  0.00     0.049 A 
ATOM     59  C   UNL A   1      43.423  31.975  40.587  1.00  0.00     0.074 A 
ATOM     60  C   UNL A   1      46.463  26.469  39.678  1.00  0.00     0.029 A 
ATOM     61  N   UNL A   1      45.183  28.274  39.452  1.00  0.00    -0.354 N 
ATOM     62  N   UNL A   1      44.014  30.837  40.308  1.00  0.00    -0.248 NA
ATOM     63  C   UNL A   1      43.652  32.446  41.960  1.00  0.00     0.031 C 
ATOM     64  C   UNL A   1      46.485  27.182  40.880  1.00  0.00     0.029 A 
ATOM     65  C   UNL A   1      45.712  28.323  40.731  1.00  0.00     0.049 A 
ATOM     66  H   UNL A   1      44.585  28.952  39.063  1.00  0.00     0.167 HD
ATOM     67  C   UNL A   1      44.708  30.473  41.459  1.00  0.00     0.074 A 
ATOM     68  C   UNL A   1      44.472  31.517  42.434  1.00  0.00     0.031 C 
ATOM     69  C   UNL A   1      45.475  29.377  41.687  1.00  0.00     0.037 A 
BRANCH  56  70
ATOM     70  C   UNL A   1      45.741  25.436  36.928  1.00  0.00     0.058 A 
ATOM     71  C   UNL A   1      45.055  24.229  37.137  1.00  0.00     0.135 A 
ATOM     72  C   UNL A   1      46.917  25.395  36.162  1.00  0.00     0.135 A 
ATOM     73  F   UNL A   1      43.939  24.204  37.882  1.00  0.00    -0.206 F 
ATOM     74  C   UNL A   1      45.529  23.025  36.624  1.00  0.00     0.059 A 
ATOM     75  C   UNL A   1      47.393  24.208  35.613  1.00  0.00     0.059 A 
ATOM     76  F   UNL A   1      47.618  26.519  35.938  1.00  0.00    -0.206 F 
ATOM     77  C   UNL A   1      46.698  23.026  35.861  1.00  0.00     0.060 A 
BRANCH  77  78
ATOM     78  S   UNL A   1      47.291  21.458  35.191  1.00  0.00     0.124 S 
ATOM     79  O   UNL A   1      48.553  21.862  34.579  1.00  0.00    -0.237 OA
ATOM     80  O   UNL A   1      47.403  20.632  36.389  1.00  0.00    -0.237 OA
ATOM     81  O   UNL A   1      46.239  21.065  34.259  1.00  0.00    -0.744 OA
ENDBRANCH  77  78
ENDBRANCH  56  70
BRANCH  57  82
ATOM     82  C   UNL A   1      41.973  34.108  40.216  1.00  0.00     0.058 A 
ATOM     83  C   UNL A   1      40.648  34.161  40.671  1.00  0.00     0.135 A 
ATOM     84  C   UNL A   1      42.723  35.295  40.258  1.00  0.00     0.135 A 
ATOM     85  F   UNL A   1      39.884  33.059  40.638  1.00  0.00    -0.206 F 
ATOM     86  C   UNL A   1      40.081  35.345  41.134  1.00  0.00     0.059 A 
ATOM     87  C   UNL A   1      42.189  36.484  40.744  1.00  0.00     0.059 A 
ATOM     88  F   UNL A   1      43.998  35.299  39.839  1.00  0.00    -0.206 F 
ATOM     89  C   UNL A   1      40.862  36.502  41.170  1.00  0.00     0.060 A 
BRANCH  89  90
ATOM     90  S   UNL A   1      40.130  38.021  41.815  1.00  0.00     0.124 S 
ATOM     91  O   UNL A   1      38.960  38.171  40.958  1.00  0.00    -0.237 OA
ATOM     92  O   UNL A   1      39.861  37.663  43.204  1.00  0.00    -0.237 OA
ATOM     93  O   UNL A   1      41.186  39.011  41.622  1.00  0.00    -0.744 OA
ENDBRANCH  89  90
ENDBRANCH  57  82
BRANCH  69  94
ATOM     94  C   UNL A   1      46.156  29.263  43.025  1.00  0.00     0.058 A 
ATOM     95  C   UNL A   1      45.609  28.511  44.076  1.00  0.00     0.135 A 
ATOM     96  C   UNL A   1      47.409  29.863  43.234  1.00  0.00     0.135 A 
ATOM     97  F   UNL A   1      44.412  27.921  43.934  1.00  0.00    -0.206 F 
ATOM     98  C   UNL A   1      46.270  28.376  45.294  1.00  0.00     0.059 A 
ATOM     99  C   UNL A   1      48.104  29.714  44.431  1.00  0.00     0.059 A 
ATOM    100  F   UNL A   1      47.986  30.583  42.258  1.00  0.00    -0.206 F 
ATOM    101  C   UNL A   1      47.519  28.977  45.459  1.00  0.00     0.060 A 
BRANCH 101 102
ATOM    102  S   UNL A   1      48.383  28.760  47.030  1.00  0.00     0.124 S 
ATOM    103  O   UNL A   1      47.754  27.549  47.547  1.00  0.00    -0.237 OA
ATOM    104  O   UNL A   1      49.772  28.620  46.605  1.00  0.00    -0.237 OA
ATOM    105  O   UNL A   1      48.078  29.986  47.760  1.00  0.00    -0.744 OA
ENDBRANCH 101 102
ENDBRANCH  69  94
ENDBRANCH  43  44
ENDBRANCH  36  38
ENDBRANCH  35  36
ENDBRANCH  34  35
ENDBRANCH  33  34
ENDBRANCH  32  33
ENDBRANCH  31  32
ENDBRANCH   1  31
TORSDOF 27
ENDMDL
MODEL 3
REMARK VINA RESULT:      -7.9      5.690     12.406
REMARK SMILES C=CC[C@@]1(C(=O)OCCOCCOCCOCCOC(=O)c2ccc(-c3c4nc(c(-c5c(F)cc(S(=O)(=O)[O-])cc5F)c5ccc([nH]5)c(-c5c(F)cc(S(=O)(=O)[O-])cc5F)c5nc(c(-c6c(F)cc(S(=O)(=O)[O-])cc6F)c6ccc3[nH]6)C=C5)C=C4)cc2)CCCN(C(=O)c2ccc3c(c2)OCO3)C1
REMARK SMILES IDX 14 1 13 2 12 3 11 4 10 5 9 6 8 7 7 8 5 9 6 10 4 11 88 12
REMARK SMILES IDX 103 13 89 14 91 15 90 16 3 17 2 18 1 19 92 20 93 21 94 22
REMARK SMILES IDX 95 23 99 24 96 25 98 26 97 27 100 28 102 29 101 30 15 31
REMARK SMILES IDX 16 32 17 33 18 34 19 35 20 36 21 37 22 38 23 39 87 40 24 41
REMARK SMILES IDX 86 42 25 43 26 44 27 45 80 46 28 47 85 48 79 49 81 50 29 51
REMARK SMILES IDX 84 52 78 53 77 54 30 56 64 57 43 58 63 59 44 60 47 61 62 62
REMARK SMILES IDX 82 63 45 64 46 65 61 67 83 68 48 69 31 70 32 71 41 72 33 73
REMARK SMILES IDX 34 74 40 75 42 76 35 77 36 78 37 79 38 80 39 81 65 82 66 83
REMARK SMILES IDX 75 84 67 85 68 86 74 87 76 88 69 89 70 90 71 91 72 92 73 93
REMARK SMILES IDX 49 94 50 95 59 96 51 97 52 98 58 99 60 100 53 101 54 102
REMARK SMILES IDX 55 103 56 104 57 105
REMARK H PARENT 81 55 47 66
REMARK Flexibility Score: inf
ROOT
ATOM      1  C   UNL A   1      50.491  20.813  33.368  1.00  0.00     0.188 C 
ENDROOT
BRANCH   1   2
ATOM      2  O   UNL A   1      51.820  21.268  33.541  1.00  0.00    -0.377 OA
BRANCH   2   3
ATOM      3  C   UNL A   1      52.102  22.594  33.153  1.00  0.00     0.188 C 
BRANCH   3   4
ATOM      4  C   UNL A   1      50.851  23.449  32.916  1.00  0.00     0.188 C 
BRANCH   4   5
ATOM      5  O   UNL A   1      50.974  24.665  32.211  1.00  0.00    -0.376 OA
BRANCH   5   6
ATOM      6  C   UNL A   1      50.548  24.872  30.874  1.00  0.00     0.202 C 
BRANCH   6   7
ATOM      7  C   UNL A   1      49.297  25.626  30.354  1.00  0.00     0.261 C 
BRANCH   7   8
ATOM      8  O   UNL A   1      49.196  26.008  28.983  1.00  0.00    -0.463 OA
BRANCH   8   9
ATOM      9  C   UNL A   1      48.407  27.074  28.750  1.00  0.00     0.314 C 
ATOM     10  O   UNL A   1      47.610  27.479  29.593  1.00  0.00    -0.252 OA
BRANCH   9  11
ATOM     11  C   UNL A   1      48.667  27.763  27.377  1.00  0.00     0.089 C 
ATOM     12  C   UNL A   1      47.754  29.024  27.223  1.00  0.00     0.023 C 
ATOM     13  C   UNL A   1      48.204  26.733  26.330  1.00  0.00     0.138 C 
ATOM     14  C   UNL A   1      46.255  28.724  27.284  1.00  0.00     0.023 C 
ATOM     15  N   UNL A   1      46.790  26.426  26.497  1.00  0.00    -0.337 N 
ATOM     16  C   UNL A   1      45.873  27.568  26.362  1.00  0.00     0.120 C 
BRANCH  11  17
ATOM     17  C   UNL A   1      50.188  28.089  27.101  1.00  0.00     0.047 C 
BRANCH  17  18
ATOM     18  C   UNL A   1      50.615  29.544  27.112  1.00  0.00    -0.034 C 
ATOM     19  C   UNL A   1      51.860  29.960  27.386  1.00  0.00     0.004 C 
ENDBRANCH  17  18
ENDBRANCH  11  17
BRANCH  15  20
ATOM     20  C   UNL A   1      46.459  25.186  27.063  1.00  0.00     0.254 C 
ATOM     21  O   UNL A   1      47.200  24.211  27.107  1.00  0.00    -0.269 OA
BRANCH  20  22
ATOM     22  C   UNL A   1      45.103  25.058  27.604  1.00  0.00     0.043 A 
ATOM     23  C   UNL A   1      44.811  25.462  28.923  1.00  0.00     0.018 A 
ATOM     24  C   UNL A   1      44.110  24.709  26.690  1.00  0.00     0.064 A 
ATOM     25  C   UNL A   1      43.476  25.592  29.318  1.00  0.00     0.051 A 
ATOM     26  C   UNL A   1      42.819  24.906  27.093  1.00  0.00     0.166 A 
ATOM     27  C   UNL A   1      42.508  25.347  28.363  1.00  0.00     0.165 A 
ATOM     28  O   UNL A   1      41.729  24.803  26.289  1.00  0.00    -0.454 OA
ATOM     29  O   UNL A   1      41.171  25.569  28.501  1.00  0.00    -0.454 OA
ATOM     30  C   UNL A   1      40.747  25.442  27.126  1.00  0.00     0.468 C 
ENDBRANCH  20  22
ENDBRANCH  15  20
ENDBRANCH   9  11
ENDBRANCH   8   9
ENDBRANCH   7   8
ENDBRANCH   6   7
ENDBRANCH   5   6
ENDBRANCH   4   5
ENDBRANCH   3   4
ENDBRANCH   2   3
ENDBRANCH   1   2
BRANCH   1  31
ATOM     31  C   UNL A   1      49.745  20.168  34.555  1.00  0.00     0.188 C 
BRANCH  31  32
ATOM     32  O   UNL A   1      48.499  20.773  34.878  1.00  0.00    -0.376 OA
BRANCH  32  33
ATOM     33  C   UNL A   1      47.780  20.353  36.023  1.00  0.00     0.202 C 
BRANCH  33  34
ATOM     34  C   UNL A   1      46.266  20.134  35.878  1.00  0.00     0.261 C 
BRANCH  34  35
ATOM     35  O   UNL A   1      45.492  21.274  35.489  1.00  0.00    -0.460 OA
BRANCH  35  36
ATOM     36  C   UNL A   1      45.470  22.329  36.333  1.00  0.00     0.338 C 
ATOM     37  O   UNL A   1      45.580  22.299  37.547  1.00  0.00    -0.246 OA
BRANCH  36  38
ATOM     38  C   UNL A   1      45.502  23.556  35.508  1.00  0.00     0.060 A 
ATOM     39  C   UNL A   1      45.640  23.435  34.119  1.00  0.00     0.016 A 
ATOM     40  C   UNL A   1      45.347  24.811  36.100  1.00  0.00     0.016 A 
ATOM     41  C   UNL A   1      45.657  24.576  33.318  1.00  0.00     0.010 A 
ATOM     42  C   UNL A   1      45.396  25.955  35.301  1.00  0.00     0.010 A 
ATOM     43  C   UNL A   1      45.586  25.842  33.912  1.00  0.00    -0.014 A 
BRANCH  43  44
ATOM     44  C   UNL A   1      45.955  27.039  33.121  1.00  0.00     0.031 A 
ATOM     45  C   UNL A   1      44.855  27.759  32.389  1.00  0.00     0.074 A 
ATOM     46  C   UNL A   1      47.221  27.487  33.064  1.00  0.00     0.049 A 
ATOM     47  N   UNL A   1      44.924  28.784  31.583  1.00  0.00    -0.248 NA
ATOM     48  C   UNL A   1      43.489  27.244  32.595  1.00  0.00     0.031 C 
ATOM     49  C   UNL A   1      48.360  26.901  33.768  1.00  0.00     0.029 A 
ATOM     50  N   UNL A   1      47.760  28.539  32.367  1.00  0.00    -0.354 N 
ATOM     51  C   UNL A   1      43.617  29.031  31.177  1.00  0.00     0.074 A 
ATOM     52  C   UNL A   1      42.780  28.032  31.802  1.00  0.00     0.031 C 
ATOM     53  C   UNL A   1      49.470  27.592  33.450  1.00  0.00     0.029 A 
ATOM     54  C   UNL A   1      49.124  28.644  32.494  1.00  0.00     0.049 A 
ATOM     55  H   UNL A   1      47.220  29.160  31.825  1.00  0.00     0.167 HD
ATOM     56  C   UNL A   1      43.159  30.007  30.360  1.00  0.00     0.037 A 
ATOM     57  C   UNL A   1      49.992  29.477  31.885  1.00  0.00     0.037 A 
ATOM     58  C   UNL A   1      44.002  30.993  29.740  1.00  0.00     0.049 A 
ATOM     59  C   UNL A   1      49.467  30.511  30.919  1.00  0.00     0.074 A 
ATOM     60  C   UNL A   1      43.635  32.036  28.908  1.00  0.00     0.029 A 
ATOM     61  N   UNL A   1      45.381  31.052  29.873  1.00  0.00    -0.354 N 
ATOM     62  N   UNL A   1      48.228  30.752  30.560  1.00  0.00    -0.248 NA
ATOM     63  C   UNL A   1      50.457  31.389  30.279  1.00  0.00     0.031 C 
ATOM     64  C   UNL A   1      44.799  32.688  28.490  1.00  0.00     0.029 A 
ATOM     65  C   UNL A   1      45.885  32.096  29.115  1.00  0.00     0.049 A 
ATOM     66  H   UNL A   1      45.922  30.444  30.425  1.00  0.00     0.167 HD
ATOM     67  C   UNL A   1      48.288  31.828  29.677  1.00  0.00     0.074 A 
ATOM     68  C   UNL A   1      49.683  32.197  29.566  1.00  0.00     0.031 C 
ATOM     69  C   UNL A   1      47.279  32.457  29.022  1.00  0.00     0.037 A 
BRANCH  56  70
ATOM     70  C   UNL A   1      41.685  30.031  30.063  1.00  0.00     0.058 A 
ATOM     71  C   UNL A   1      40.784  30.785  30.833  1.00  0.00     0.135 A 
ATOM     72  C   UNL A   1      41.171  29.311  28.973  1.00  0.00     0.135 A 
ATOM     73  F   UNL A   1      41.215  31.472  31.901  1.00  0.00    -0.206 F 
ATOM     74  C   UNL A   1      39.422  30.804  30.545  1.00  0.00     0.059 A 
ATOM     75  C   UNL A   1      39.819  29.342  28.648  1.00  0.00     0.059 A 
ATOM     76  F   UNL A   1      41.987  28.567  28.208  1.00  0.00    -0.206 F 
ATOM     77  C   UNL A   1      38.950  30.082  29.447  1.00  0.00     0.060 A 
BRANCH  77  78
ATOM     78  S   UNL A   1      37.184  30.130  29.080  1.00  0.00     0.124 S 
ATOM     79  O   UNL A   1      36.647  29.251  30.113  1.00  0.00    -0.237 OA
ATOM     80  O   UNL A   1      36.874  31.549  29.230  1.00  0.00    -0.237 OA
ATOM     81  O   UNL A   1      37.105  29.616  27.715  1.00  0.00    -0.744 OA
ENDBRANCH  77  78
ENDBRANCH  56  70
BRANCH  57  82
ATOM     82  C   UNL A   1      51.452  29.358  32.152  1.00  0.00     0.058 A 
ATOM     83  C   UNL A   1      52.283  28.583  31.331  1.00  0.00     0.135 A 
ATOM     84  C   UNL A   1      52.046  30.015  33.243  1.00  0.00     0.135 A 
ATOM     85  F   UNL A   1      51.764  27.923  30.284  1.00  0.00    -0.206 F 
ATOM     86  C   UNL A   1      53.645  28.449  31.587  1.00  0.00     0.059 A 
ATOM     87  C   UNL A   1      53.410  29.921  33.503  1.00  0.00     0.059 A 
ATOM     88  F   UNL A   1      51.297  30.775  34.058  1.00  0.00    -0.206 F 
ATOM     89  C   UNL A   1      54.200  29.126  32.675  1.00  0.00     0.060 A 
BRANCH  89  90
ATOM     90  S   UNL A   1      55.975  28.981  32.970  1.00  0.00     0.124 S 
ATOM     91  O   UNL A   1      56.513  29.154  31.627  1.00  0.00    -0.237 OA
ATOM     92  O   UNL A   1      56.219  30.078  33.902  1.00  0.00    -0.237 OA
ATOM     93  O   UNL A   1      56.112  27.643  33.538  1.00  0.00    -0.744 OA
ENDBRANCH  89  90
ENDBRANCH  57  82
BRANCH  69  94
ATOM     94  C   UNL A   1      47.632  33.638  28.159  1.00  0.00     0.058 A 
ATOM     95  C   UNL A   1      47.698  34.942  28.674  1.00  0.00     0.135 A 
ATOM     96  C   UNL A   1      47.975  33.451  26.809  1.00  0.00     0.135 A 
ATOM     97  F   UNL A   1      47.375  35.180  29.955  1.00  0.00    -0.206 F 
ATOM     98  C   UNL A   1      48.070  36.021  27.876  1.00  0.00     0.059 A 
ATOM     99  C   UNL A   1      48.382  34.509  26.002  1.00  0.00     0.059 A 
ATOM    100  F   UNL A   1      47.944  32.223  26.268  1.00  0.00    -0.206 F 
ATOM    101  C   UNL A   1      48.415  35.793  26.543  1.00  0.00     0.060 A 
BRANCH 101 102
ATOM    102  S   UNL A   1      48.934  37.196  25.531  1.00  0.00     0.124 S 
ATOM    103  O   UNL A   1      49.887  37.859  26.415  1.00  0.00    -0.237 OA
ATOM    104  O   UNL A   1      49.506  36.540  24.361  1.00  0.00    -0.237 OA
ATOM    105  O   UNL A   1      47.691  37.921  25.291  1.00  0.00    -0.744 OA
ENDBRANCH 101 102
ENDBRANCH  69  94
ENDBRANCH  43  44
ENDBRANCH  36  38
ENDBRANCH  35  36
ENDBRANCH  34  35
ENDBRANCH  33  34
ENDBRANCH  32  33
ENDBRANCH  31  32
ENDBRANCH   1  31
TORSDOF 27
ENDMDL
