MODEL 1
REMARK VINA RESULT:     -10.1      0.000      0.000
REMARK SMILES Cc1ccccc1NC(=O)C[NH+]1CCC(CC(=O)OCCOCCOCCOCCOC(=O)c2ccc(-c3c4nc(c(-c5c(F)cc(S(=O)(=O)[O-])cc5F)c5ccc([nH]5)c(-c5c(F)cc(S(=O)(=O)[O-])cc5F)c5nc(c(-c6c(F)cc(S(=O)(=O)[O-])cc6F)c6ccc3[nH]6)C=C5)C=C4)cc2)CC1
REMARK SMILES IDX 24 1 23 2 22 3 21 4 20 5 19 6 17 7 18 8 16 9 15 10 12 11
REMARK SMILES IDX 13 12 101 13 14 15 100 16 11 17 9 18 8 19 10 21 7 22 1 23
REMARK SMILES IDX 2 24 3 25 4 26 6 27 5 28 25 29 26 30 27 31 28 32 29 33 30 34
REMARK SMILES IDX 31 35 32 36 33 37 34 38 35 39 99 40 36 41 98 42 37 43 38 44
REMARK SMILES IDX 39 45 92 46 40 47 97 48 91 49 93 50 41 51 96 52 90 53 89 54
REMARK SMILES IDX 42 56 76 57 55 58 75 59 56 60 59 61 74 62 94 63 57 64 58 65
REMARK SMILES IDX 73 67 95 68 60 69 43 70 44 71 53 72 45 73 46 74 52 75 54 76
REMARK SMILES IDX 47 77 48 78 49 79 50 80 51 81 77 82 78 83 87 84 79 85 80 86
REMARK SMILES IDX 86 87 88 88 81 89 82 90 83 91 84 92 85 93 61 94 62 95 71 96
REMARK SMILES IDX 63 97 64 98 70 99 72 100 65 101 66 102 67 103 68 104 69 105
REMARK H PARENT 12 14 8 20 93 55 59 66
REMARK Flexibility Score: inf
ROOT
ATOM      1  C   UNL A   1      43.653  29.348  27.052  1.00  0.00     0.188 C 
ENDROOT
BRANCH   1   2
ATOM      2  C   UNL A   1      42.174  29.920  27.121  1.00  0.00     0.188 C 
BRANCH   2   3
ATOM      3  O   UNL A   1      40.759  29.320  27.058  1.00  0.00    -0.376 OA
BRANCH   3   4
ATOM      4  C   UNL A   1      39.432  29.521  28.080  1.00  0.00     0.202 C 
BRANCH   4   5
ATOM      5  C   UNL A   1      37.807  30.467  28.117  1.00  0.00     0.261 C 
BRANCH   5   6
ATOM      6  O   UNL A   1      36.184  30.249  27.260  1.00  0.00    -0.463 OA
BRANCH   6   7
ATOM      7  C   UNL A   1      34.630  30.149  27.492  1.00  0.00     0.306 C 
ATOM      8  O   UNL A   1      34.008  31.112  27.967  1.00  0.00    -0.252 OA
BRANCH   7   9
ATOM      9  C   UNL A   1      33.673  28.654  27.247  1.00  0.00     0.126 C 
BRANCH   9  10
ATOM     10  C   UNL A   1      32.787  27.931  25.979  1.00  0.00     0.011 C 
ATOM     11  N   UNL A   1      32.394  26.083  23.488  1.00  0.00    -0.327 N 
ATOM     12  C   UNL A   1      32.376  27.523  23.377  1.00  0.00     0.262 C 
ATOM     13  C   UNL A   1      31.972  25.693  24.836  1.00  0.00     0.262 C 
ATOM     14  H   UNL A   1      33.334  25.690  23.439  1.00  0.00     0.348 HD
ATOM     15  C   UNL A   1      33.184  28.110  24.521  1.00  0.00     0.066 C 
ATOM     16  C   UNL A   1      32.742  26.370  26.044  1.00  0.00     0.066 C 
BRANCH  11  17
ATOM     17  C   UNL A   1      31.801  25.430  22.287  1.00  0.00     0.363 C 
BRANCH  17  18
ATOM     18  C   UNL A   1      32.775  24.801  21.245  1.00  0.00     0.279 C 
ATOM     19  N   UNL A   1      33.253  23.522  21.369  1.00  0.00    -0.321 N 
ATOM     20  H   UNL A   1      33.714  23.149  20.583  1.00  0.00     0.170 HD
ATOM     21  O   UNL A   1      33.133  25.437  20.246  1.00  0.00    -0.268 OA
BRANCH  19  22
ATOM     22  C   UNL A   1      33.160  22.689  22.485  1.00  0.00     0.044 A 
ATOM     23  C   UNL A   1      35.206  23.783  23.594  1.00  0.00     0.046 C 
ATOM     24  C   UNL A   1      34.135  22.732  23.493  1.00  0.00    -0.027 A 
ATOM     25  C   UNL A   1      34.153  21.684  24.432  1.00  0.00     0.005 A 
ATOM     26  C   UNL A   1      33.198  20.665  24.398  1.00  0.00     0.000 A 
ATOM     27  C   UNL A   1      32.127  21.743  22.541  1.00  0.00     0.026 A 
ATOM     28  C   UNL A   1      32.158  20.716  23.478  1.00  0.00     0.002 A 
ENDBRANCH  19  22
ENDBRANCH  17  18
ENDBRANCH  11  17
ENDBRANCH   9  10
ENDBRANCH   7   9
ENDBRANCH   6   7
ENDBRANCH   5   6
ENDBRANCH   4   5
ENDBRANCH   3   4
ENDBRANCH   2   3
ENDBRANCH   1   2
BRANCH   1  29
ATOM     29  O   UNL A   1      44.067  28.336  26.171  1.00  0.00    -0.377 OA
BRANCH  29  30
ATOM     30  C   UNL A   1      43.156  27.261  26.143  1.00  0.00     0.188 C 
BRANCH  30  31
ATOM     31  C   UNL A   1      43.774  25.918  25.726  1.00  0.00     0.188 C 
BRANCH  31  32
ATOM     32  O   UNL A   1      43.267  24.806  26.472  1.00  0.00    -0.376 OA
BRANCH  32  33
ATOM     33  C   UNL A   1      42.449  23.885  25.763  1.00  0.00     0.202 C 
BRANCH  33  34
ATOM     34  C   UNL A   1      41.054  23.812  26.386  1.00  0.00     0.261 C 
BRANCH  34  35
ATOM     35  O   UNL A   1      41.038  24.426  27.694  1.00  0.00    -0.460 OA
BRANCH  35  36
ATOM     36  C   UNL A   1      40.274  25.554  27.777  1.00  0.00     0.338 C 
ATOM     37  O   UNL A   1      39.587  25.991  26.878  1.00  0.00    -0.246 OA
BRANCH  36  38
ATOM     38  C   UNL A   1      40.563  26.240  29.076  1.00  0.00     0.060 A 
ATOM     39  C   UNL A   1      39.501  26.706  29.833  1.00  0.00     0.016 A 
ATOM     40  C   UNL A   1      41.857  26.671  29.396  1.00  0.00     0.016 A 
ATOM     41  C   UNL A   1      39.733  27.714  30.784  1.00  0.00     0.010 A 
ATOM     42  C   UNL A   1      42.056  27.788  30.222  1.00  0.00     0.010 A 
ATOM     43  C   UNL A   1      40.978  28.412  30.876  1.00  0.00    -0.014 A 
BRANCH  43  44
ATOM     44  C   UNL A   1      41.347  29.782  31.734  1.00  0.00     0.031 A 
ATOM     45  C   UNL A   1      41.696  28.781  33.194  1.00  0.00     0.074 A 
ATOM     46  C   UNL A   1      41.141  31.434  31.537  1.00  0.00     0.049 A 
ATOM     47  N   UNL A   1      41.550  29.142  34.437  1.00  0.00    -0.248 NA
ATOM     48  C   UNL A   1      41.940  27.314  33.235  1.00  0.00     0.031 C 
ATOM     49  C   UNL A   1      41.509  32.826  32.445  1.00  0.00     0.029 A 
ATOM     50  N   UNL A   1      40.156  32.333  30.807  1.00  0.00    -0.354 N 
ATOM     51  C   UNL A   1      42.139  28.287  35.296  1.00  0.00     0.074 A 
ATOM     52  C   UNL A   1      42.170  27.070  34.536  1.00  0.00     0.031 C 
ATOM     53  C   UNL A   1      40.814  33.931  32.251  1.00  0.00     0.029 A 
ATOM     54  C   UNL A   1      39.714  33.490  31.523  1.00  0.00     0.049 A 
ATOM     55  H   UNL A   1      39.842  32.132  29.895  1.00  0.00     0.167 HD
ATOM     56  C   UNL A   1      42.644  28.794  36.464  1.00  0.00     0.037 A 
ATOM     57  C   UNL A   1      38.471  33.859  31.946  1.00  0.00     0.037 A 
ATOM     58  C   UNL A   1      42.405  30.277  36.598  1.00  0.00     0.049 A 
ATOM     59  C   UNL A   1      38.400  33.899  33.525  1.00  0.00     0.074 A 
ATOM     60  C   UNL A   1      43.212  31.403  36.487  1.00  0.00     0.029 A 
ATOM     61  N   UNL A   1      41.102  30.804  36.586  1.00  0.00    -0.354 N 
ATOM     62  N   UNL A   1      39.416  33.599  34.324  1.00  0.00    -0.248 NA
ATOM     63  C   UNL A   1      37.218  34.203  34.327  1.00  0.00     0.031 C 
ATOM     64  C   UNL A   1      42.388  32.582  36.423  1.00  0.00     0.029 A 
ATOM     65  C   UNL A   1      41.054  32.207  36.487  1.00  0.00     0.049 A 
ATOM     66  H   UNL A   1      40.295  30.243  36.641  1.00  0.00     0.167 HD
ATOM     67  C   UNL A   1      39.029  33.475  35.633  1.00  0.00     0.074 A 
ATOM     68  C   UNL A   1      37.653  33.971  35.587  1.00  0.00     0.031 C 
ATOM     69  C   UNL A   1      39.767  32.928  36.666  1.00  0.00     0.037 A 
BRANCH  56  70
ATOM     70  C   UNL A   1      43.650  27.963  37.266  1.00  0.00     0.058 A 
ATOM     71  C   UNL A   1      44.976  28.386  37.486  1.00  0.00     0.135 A 
ATOM     72  C   UNL A   1      43.366  26.681  37.795  1.00  0.00     0.135 A 
ATOM     73  F   UNL A   1      45.376  29.620  37.153  1.00  0.00    -0.206 F 
ATOM     74  C   UNL A   1      45.959  27.564  38.064  1.00  0.00     0.059 A 
ATOM     75  C   UNL A   1      44.340  25.814  38.308  1.00  0.00     0.059 A 
ATOM     76  F   UNL A   1      42.106  26.237  37.896  1.00  0.00    -0.206 F 
ATOM     77  C   UNL A   1      45.643  26.263  38.437  1.00  0.00     0.060 A 
BRANCH  77  78
ATOM     78  S   UNL A   1      46.920  25.194  39.137  1.00  0.00     0.124 S 
ATOM     79  O   UNL A   1      47.727  24.862  37.968  1.00  0.00    -0.237 OA
ATOM     80  O   UNL A   1      47.551  26.072  40.116  1.00  0.00    -0.237 OA
ATOM     81  O   UNL A   1      46.163  24.079  39.701  1.00  0.00    -0.744 OA
ENDBRANCH  77  78
ENDBRANCH  56  70
BRANCH  57  82
ATOM     82  C   UNL A   1      37.460  33.649  30.875  1.00  0.00     0.058 A 
ATOM     83  C   UNL A   1      36.184  33.190  31.308  1.00  0.00     0.135 A 
ATOM     84  C   UNL A   1      37.520  34.210  29.601  1.00  0.00     0.135 A 
ATOM     85  F   UNL A   1      36.066  32.578  32.500  1.00  0.00    -0.206 F 
ATOM     86  C   UNL A   1      35.009  33.464  30.613  1.00  0.00     0.059 A 
ATOM     87  C   UNL A   1      36.353  34.486  28.876  1.00  0.00     0.059 A 
ATOM     88  F   UNL A   1      38.696  34.618  29.101  1.00  0.00    -0.206 F 
ATOM     89  C   UNL A   1      35.101  34.151  29.409  1.00  0.00     0.060 A 
BRANCH  89  90
ATOM     90  S   UNL A   1      33.601  34.699  28.554  1.00  0.00     0.124 S 
ATOM     91  O   UNL A   1      33.852  34.254  27.189  1.00  0.00    -0.237 OA
ATOM     92  O   UNL A   1      32.528  33.997  29.251  1.00  0.00    -0.237 OA
ATOM     93  O   UNL A   1      33.625  36.146  28.756  1.00  0.00    -0.744 OA
ENDBRANCH  89  90
ENDBRANCH  57  82
BRANCH  69  94
ATOM     94  C   UNL A   1      39.283  33.078  38.088  1.00  0.00     0.058 A 
ATOM     95  C   UNL A   1      38.206  32.318  38.577  1.00  0.00     0.135 A 
ATOM     96  C   UNL A   1      39.790  34.071  38.949  1.00  0.00     0.135 A 
ATOM     97  F   UNL A   1      37.595  31.412  37.794  1.00  0.00    -0.206 F 
ATOM     98  C   UNL A   1      37.735  32.458  39.880  1.00  0.00     0.059 A 
ATOM     99  C   UNL A   1      39.294  34.273  40.231  1.00  0.00     0.059 A 
ATOM    100  F   UNL A   1      40.818  34.853  38.590  1.00  0.00    -0.206 F 
ATOM    101  C   UNL A   1      38.302  33.426  40.706  1.00  0.00     0.060 A 
BRANCH 101 102
ATOM    102  S   UNL A   1      37.774  33.549  42.422  1.00  0.00     0.124 S 
ATOM    103  O   UNL A   1      39.001  33.944  43.109  1.00  0.00    -0.237 OA
ATOM    104  O   UNL A   1      36.744  34.578  42.326  1.00  0.00    -0.237 OA
ATOM    105  O   UNL A   1      37.297  32.204  42.725  1.00  0.00    -0.744 OA
ENDBRANCH 101 102
ENDBRANCH  69  94
ENDBRANCH  43  44
ENDBRANCH  36  38
ENDBRANCH  35  36
ENDBRANCH  34  35
ENDBRANCH  33  34
ENDBRANCH  32  33
ENDBRANCH  31  32
ENDBRANCH  30  31
ENDBRANCH  29  30
ENDBRANCH   1  29
TORSDOF 27
ENDMDL
MODEL 2
REMARK VINA RESULT:      -9.9      5.176     10.159
REMARK SMILES Cc1ccccc1NC(=O)C[NH+]1CCC(CC(=O)OCCOCCOCCOCCOC(=O)c2ccc(-c3c4nc(c(-c5c(F)cc(S(=O)(=O)[O-])cc5F)c5ccc([nH]5)c(-c5c(F)cc(S(=O)(=O)[O-])cc5F)c5nc(c(-c6c(F)cc(S(=O)(=O)[O-])cc6F)c6ccc3[nH]6)C=C5)C=C4)cc2)CC1
REMARK SMILES IDX 24 1 23 2 22 3 21 4 20 5 19 6 17 7 18 8 16 9 15 10 12 11
REMARK SMILES IDX 13 12 101 13 14 15 100 16 11 17 9 18 8 19 10 21 7 22 1 23
REMARK SMILES IDX 2 24 3 25 4 26 6 27 5 28 25 29 26 30 27 31 28 32 29 33 30 34
REMARK SMILES IDX 31 35 32 36 33 37 34 38 35 39 99 40 36 41 98 42 37 43 38 44
REMARK SMILES IDX 39 45 92 46 40 47 97 48 91 49 93 50 41 51 96 52 90 53 89 54
REMARK SMILES IDX 42 56 76 57 55 58 75 59 56 60 59 61 74 62 94 63 57 64 58 65
REMARK SMILES IDX 73 67 95 68 60 69 43 70 44 71 53 72 45 73 46 74 52 75 54 76
REMARK SMILES IDX 47 77 48 78 49 79 50 80 51 81 77 82 78 83 87 84 79 85 80 86
REMARK SMILES IDX 86 87 88 88 81 89 82 90 83 91 84 92 85 93 61 94 62 95 71 96
REMARK SMILES IDX 63 97 64 98 70 99 72 100 65 101 66 102 67 103 68 104 69 105
REMARK H PARENT 12 14 8 20 93 55 59 66
REMARK Flexibility Score: inf
ROOT
ATOM      1  C   UNL A   1      37.596  31.803  29.086  1.00  0.00     0.188 C 
ENDROOT
BRANCH   1   2
ATOM      2  C   UNL A   1      37.774  30.595  28.074  1.00  0.00     0.188 C 
BRANCH   2   3
ATOM      3  O   UNL A   1      36.842  29.775  27.165  1.00  0.00    -0.376 OA
BRANCH   3   4
ATOM      4  C   UNL A   1      35.195  29.433  27.297  1.00  0.00     0.202 C 
BRANCH   4   5
ATOM      5  C   UNL A   1      33.603  30.315  27.770  1.00  0.00     0.261 C 
BRANCH   5   6
ATOM      6  O   UNL A   1      32.208  31.039  26.798  1.00  0.00    -0.463 OA
BRANCH   6   7
ATOM      7  C   UNL A   1      31.271  30.804  25.555  1.00  0.00     0.306 C 
ATOM      8  O   UNL A   1      30.438  31.664  25.231  1.00  0.00    -0.252 OA
BRANCH   7   9
ATOM      9  C   UNL A   1      31.210  29.277  24.619  1.00  0.00     0.126 C 
BRANCH   9  10
ATOM     10  C   UNL A   1      31.700  27.656  24.839  1.00  0.00     0.011 C 
ATOM     11  N   UNL A   1      33.461  25.362  26.024  1.00  0.00    -0.327 N 
ATOM     12  C   UNL A   1      33.544  25.743  24.634  1.00  0.00     0.262 C 
ATOM     13  C   UNL A   1      32.126  25.678  26.538  1.00  0.00     0.262 C 
ATOM     14  H   UNL A   1      34.060  25.924  26.629  1.00  0.00     0.348 HD
ATOM     15  C   UNL A   1      33.107  27.191  24.499  1.00  0.00     0.066 C 
ATOM     16  C   UNL A   1      31.616  27.162  26.321  1.00  0.00     0.066 C 
BRANCH  11  17
ATOM     17  C   UNL A   1      34.071  24.024  26.267  1.00  0.00     0.363 C 
BRANCH  17  18
ATOM     18  C   UNL A   1      35.395  23.680  25.518  1.00  0.00     0.279 C 
ATOM     19  N   UNL A   1      35.462  22.699  24.563  1.00  0.00    -0.321 N 
ATOM     20  H   UNL A   1      36.284  22.670  24.021  1.00  0.00     0.170 HD
ATOM     21  O   UNL A   1      36.436  24.307  25.750  1.00  0.00    -0.268 OA
BRANCH  19  22
ATOM     22  C   UNL A   1      34.495  21.735  24.272  1.00  0.00     0.044 A 
ATOM     23  C   UNL A   1      33.453  23.195  22.429  1.00  0.00     0.046 C 
ATOM     24  C   UNL A   1      33.480  21.999  23.340  1.00  0.00    -0.027 A 
ATOM     25  C   UNL A   1      32.380  21.121  23.303  1.00  0.00     0.005 A 
ATOM     26  C   UNL A   1      32.326  19.993  24.127  1.00  0.00     0.000 A 
ATOM     27  C   UNL A   1      34.498  20.532  24.991  1.00  0.00     0.026 A 
ATOM     28  C   UNL A   1      33.405  19.674  24.941  1.00  0.00     0.002 A 
ENDBRANCH  19  22
ENDBRANCH  17  18
ENDBRANCH  11  17
ENDBRANCH   9  10
ENDBRANCH   7   9
ENDBRANCH   6   7
ENDBRANCH   5   6
ENDBRANCH   4   5
ENDBRANCH   3   4
ENDBRANCH   2   3
ENDBRANCH   1   2
BRANCH   1  29
ATOM     29  O   UNL A   1      38.270  33.031  28.977  1.00  0.00    -0.377 OA
BRANCH  29  30
ATOM     30  C   UNL A   1      37.837  33.955  29.948  1.00  0.00     0.188 C 
BRANCH  30  31
ATOM     31  C   UNL A   1      36.897  33.363  31.010  1.00  0.00     0.188 C 
BRANCH  31  32
ATOM     32  O   UNL A   1      37.364  33.556  32.349  1.00  0.00    -0.376 OA
BRANCH  32  33
ATOM     33  C   UNL A   1      36.996  32.567  33.301  1.00  0.00     0.202 C 
BRANCH  33  34
ATOM     34  C   UNL A   1      36.254  31.414  32.622  1.00  0.00     0.261 C 
BRANCH  34  35
ATOM     35  O   UNL A   1      36.966  30.169  32.791  1.00  0.00    -0.460 OA
BRANCH  35  36
ATOM     36  C   UNL A   1      37.049  29.409  31.660  1.00  0.00     0.338 C 
ATOM     37  O   UNL A   1      36.163  29.291  30.840  1.00  0.00    -0.246 OA
BRANCH  36  38
ATOM     38  C   UNL A   1      38.325  28.625  31.695  1.00  0.00     0.060 A 
ATOM     39  C   UNL A   1      38.979  28.475  32.906  1.00  0.00     0.016 A 
ATOM     40  C   UNL A   1      39.006  28.296  30.517  1.00  0.00     0.016 A 
ATOM     41  C   UNL A   1      40.349  28.159  32.906  1.00  0.00     0.010 A 
ATOM     42  C   UNL A   1      40.402  28.147  30.515  1.00  0.00     0.010 A 
ATOM     43  C   UNL A   1      41.138  28.167  31.713  1.00  0.00    -0.014 A 
BRANCH  43  44
ATOM     44  C   UNL A   1      42.787  28.084  31.551  1.00  0.00     0.031 A 
ATOM     45  C   UNL A   1      42.913  29.858  31.850  1.00  0.00     0.074 A 
ATOM     46  C   UNL A   1      43.898  26.967  30.978  1.00  0.00     0.049 A 
ATOM     47  N   UNL A   1      43.822  30.663  31.379  1.00  0.00    -0.248 NA
ATOM     48  C   UNL A   1      41.872  30.742  32.443  1.00  0.00     0.031 C 
ATOM     49  C   UNL A   1      45.589  26.910  30.800  1.00  0.00     0.029 A 
ATOM     50  N   UNL A   1      43.887  25.837  29.960  1.00  0.00    -0.354 N 
ATOM     51  C   UNL A   1      43.811  31.867  31.986  1.00  0.00     0.074 A 
ATOM     52  C   UNL A   1      42.463  31.948  32.470  1.00  0.00     0.031 C 
ATOM     53  C   UNL A   1      46.123  26.105  29.901  1.00  0.00     0.029 A 
ATOM     54  C   UNL A   1      45.035  25.749  29.110  1.00  0.00     0.049 A 
ATOM     55  H   UNL A   1      43.135  25.204  29.890  1.00  0.00     0.167 HD
ATOM     56  C   UNL A   1      45.000  32.535  32.110  1.00  0.00     0.037 A 
ATOM     57  C   UNL A   1      45.157  25.864  27.757  1.00  0.00     0.037 A 
ATOM     58  C   UNL A   1      46.150  31.786  31.484  1.00  0.00     0.049 A 
ATOM     59  C   UNL A   1      46.023  27.130  27.373  1.00  0.00     0.074 A 
ATOM     60  C   UNL A   1      47.221  31.057  31.988  1.00  0.00     0.029 A 
ATOM     61  N   UNL A   1      46.139  31.453  30.118  1.00  0.00    -0.354 N 
ATOM     62  N   UNL A   1      46.547  27.969  28.256  1.00  0.00    -0.248 NA
ATOM     63  C   UNL A   1      46.319  27.592  26.020  1.00  0.00     0.031 C 
ATOM     64  C   UNL A   1      47.840  30.313  30.922  1.00  0.00     0.029 A 
ATOM     65  C   UNL A   1      47.160  30.562  29.739  1.00  0.00     0.049 A 
ATOM     66  H   UNL A   1      45.476  31.810  29.483  1.00  0.00     0.167 HD
ATOM     67  C   UNL A   1      47.038  29.105  27.666  1.00  0.00     0.074 A 
ATOM     68  C   UNL A   1      46.961  28.761  26.245  1.00  0.00     0.031 C 
ATOM     69  C   UNL A   1      47.409  30.274  28.303  1.00  0.00     0.037 A 
BRANCH  56  70
ATOM     70  C   UNL A   1      45.109  33.684  33.117  1.00  0.00     0.058 A 
ATOM     71  C   UNL A   1      44.639  34.983  32.837  1.00  0.00     0.135 A 
ATOM     72  C   UNL A   1      45.745  33.567  34.377  1.00  0.00     0.135 A 
ATOM     73  F   UNL A   1      43.913  35.238  31.741  1.00  0.00    -0.206 F 
ATOM     74  C   UNL A   1      44.886  36.086  33.672  1.00  0.00     0.059 A 
ATOM     75  C   UNL A   1      46.069  34.659  35.193  1.00  0.00     0.059 A 
ATOM     76  F   UNL A   1      46.022  32.367  34.904  1.00  0.00    -0.206 F 
ATOM     77  C   UNL A   1      45.638  35.924  34.830  1.00  0.00     0.060 A 
BRANCH  77  78
ATOM     78  S   UNL A   1      45.994  37.352  35.877  1.00  0.00     0.124 S 
ATOM     79  O   UNL A   1      46.165  38.423  34.901  1.00  0.00    -0.237 OA
ATOM     80  O   UNL A   1      44.793  37.432  36.703  1.00  0.00    -0.237 OA
ATOM     81  O   UNL A   1      47.210  36.965  36.587  1.00  0.00    -0.744 OA
ENDBRANCH  77  78
ENDBRANCH  56  70
BRANCH  57  82
ATOM     82  C   UNL A   1      44.090  25.096  27.060  1.00  0.00     0.058 A 
ATOM     83  C   UNL A   1      44.393  23.735  26.772  1.00  0.00     0.135 A 
ATOM     84  C   UNL A   1      42.744  25.456  27.021  1.00  0.00     0.135 A 
ATOM     85  F   UNL A   1      45.676  23.333  26.727  1.00  0.00    -0.206 F 
ATOM     86  C   UNL A   1      43.414  22.751  26.665  1.00  0.00     0.059 A 
ATOM     87  C   UNL A   1      41.740  24.485  26.903  1.00  0.00     0.059 A 
ATOM     88  F   UNL A   1      42.383  26.730  27.229  1.00  0.00    -0.206 F 
ATOM     89  C   UNL A   1      42.082  23.133  26.771  1.00  0.00     0.060 A 
BRANCH  89  90
ATOM     90  S   UNL A   1      40.775  21.881  26.828  1.00  0.00     0.124 S 
ATOM     91  O   UNL A   1      39.635  22.610  26.286  1.00  0.00    -0.237 OA
ATOM     92  O   UNL A   1      41.286  20.807  25.983  1.00  0.00    -0.237 OA
ATOM     93  O   UNL A   1      40.695  21.561  28.251  1.00  0.00    -0.744 OA
ENDBRANCH  89  90
ENDBRANCH  57  82
BRANCH  69  94
ATOM     94  C   UNL A   1      48.143  31.343  27.529  1.00  0.00     0.058 A 
ATOM     95  C   UNL A   1      49.546  31.350  27.445  1.00  0.00     0.135 A 
ATOM     96  C   UNL A   1      47.477  32.451  26.971  1.00  0.00     0.135 A 
ATOM     97  F   UNL A   1      50.273  30.383  28.030  1.00  0.00    -0.206 F 
ATOM     98  C   UNL A   1      50.239  32.339  26.751  1.00  0.00     0.059 A 
ATOM     99  C   UNL A   1      48.151  33.483  26.330  1.00  0.00     0.059 A 
ATOM    100  F   UNL A   1      46.140  32.550  26.990  1.00  0.00    -0.206 F 
ATOM    101  C   UNL A   1      49.528  33.391  26.179  1.00  0.00     0.060 A 
BRANCH 101 102
ATOM    102  S   UNL A   1      50.398  34.621  25.195  1.00  0.00     0.124 S 
ATOM    103  O   UNL A   1      51.213  33.802  24.302  1.00  0.00    -0.237 OA
ATOM    104  O   UNL A   1      49.282  35.321  24.568  1.00  0.00    -0.237 OA
ATOM    105  O   UNL A   1      51.143  35.384  26.191  1.00  0.00    -0.744 OA
ENDBRANCH 101 102
ENDBRANCH  69  94
ENDBRANCH  43  44
ENDBRANCH  36  38
ENDBRANCH  35  36
ENDBRANCH  34  35
ENDBRANCH  33  34
ENDBRANCH  32  33
ENDBRANCH  31  32
ENDBRANCH  30  31
ENDBRANCH  29  30
ENDBRANCH   1  29
TORSDOF 27
ENDMDL
MODEL 3
REMARK VINA RESULT:      -9.7      6.701     11.029
REMARK SMILES Cc1ccccc1NC(=O)C[NH+]1CCC(CC(=O)OCCOCCOCCOCCOC(=O)c2ccc(-c3c4nc(c(-c5c(F)cc(S(=O)(=O)[O-])cc5F)c5ccc([nH]5)c(-c5c(F)cc(S(=O)(=O)[O-])cc5F)c5nc(c(-c6c(F)cc(S(=O)(=O)[O-])cc6F)c6ccc3[nH]6)C=C5)C=C4)cc2)CC1
REMARK SMILES IDX 24 1 23 2 22 3 21 4 20 5 19 6 17 7 18 8 16 9 15 10 12 11
REMARK SMILES IDX 13 12 101 13 14 15 100 16 11 17 9 18 8 19 10 21 7 22 1 23
REMARK SMILES IDX 2 24 3 25 4 26 6 27 5 28 25 29 26 30 27 31 28 32 29 33 30 34
REMARK SMILES IDX 31 35 32 36 33 37 34 38 35 39 99 40 36 41 98 42 37 43 38 44
REMARK SMILES IDX 39 45 92 46 40 47 97 48 91 49 93 50 41 51 96 52 90 53 89 54
REMARK SMILES IDX 42 56 76 57 55 58 75 59 56 60 59 61 74 62 94 63 57 64 58 65
REMARK SMILES IDX 73 67 95 68 60 69 43 70 44 71 53 72 45 73 46 74 52 75 54 76
REMARK SMILES IDX 47 77 48 78 49 79 50 80 51 81 77 82 78 83 87 84 79 85 80 86
REMARK SMILES IDX 86 87 88 88 81 89 82 90 83 91 84 92 85 93 61 94 62 95 71 96
REMARK SMILES IDX 63 97 64 98 70 99 72 100 65 101 66 102 67 103 68 104 69 105
REMARK H PARENT 12 14 8 20 93 55 59 66
REMARK Flexibility Score: inf
ROOT
ATOM      1  C   UNL A   1      40.672  29.458  33.995  1.00  0.00     0.188 C 
ENDROOT
BRANCH   1   2
ATOM      2  C   UNL A   1      40.535  28.193  33.048  1.00  0.00     0.188 C 
BRANCH   2   3
ATOM      3  O   UNL A   1      39.584  27.761  31.918  1.00  0.00    -0.376 OA
BRANCH   3   4
ATOM      4  C   UNL A   1      39.610  28.102  30.266  1.00  0.00     0.202 C 
BRANCH   4   5
ATOM      5  C   UNL A   1      39.018  27.332  28.656  1.00  0.00     0.261 C 
BRANCH   5   6
ATOM      6  O   UNL A   1      38.922  25.596  28.030  1.00  0.00    -0.463 OA
BRANCH   6   7
ATOM      7  C   UNL A   1      39.199  24.681  26.778  1.00  0.00     0.306 C 
ATOM      8  O   UNL A   1      40.133  24.947  26.007  1.00  0.00    -0.252 OA
BRANCH   7   9
ATOM      9  C   UNL A   1      38.148  23.317  26.281  1.00  0.00     0.126 C 
BRANCH   9  10
ATOM     10  C   UNL A   1      36.534  23.107  25.765  1.00  0.00     0.011 C 
ATOM     11  N   UNL A   1      33.498  23.827  25.584  1.00  0.00    -0.327 N 
ATOM     12  C   UNL A   1      33.963  22.670  26.313  1.00  0.00     0.262 C 
ATOM     13  C   UNL A   1      34.450  24.147  24.517  1.00  0.00     0.262 C 
ATOM     14  H   UNL A   1      33.509  24.682  26.141  1.00  0.00     0.348 HD
ATOM     15  C   UNL A   1      35.395  22.916  26.754  1.00  0.00     0.066 C 
ATOM     16  C   UNL A   1      35.966  24.312  24.946  1.00  0.00     0.066 C 
BRANCH  11  17
ATOM     17  C   UNL A   1      32.037  23.750  25.300  1.00  0.00     0.363 C 
BRANCH  17  18
ATOM     18  C   UNL A   1      31.052  24.208  26.418  1.00  0.00     0.279 C 
ATOM     19  N   UNL A   1      30.353  25.385  26.340  1.00  0.00    -0.321 N 
ATOM     20  H   UNL A   1      29.629  25.508  26.996  1.00  0.00     0.170 HD
ATOM     21  O   UNL A   1      30.850  23.502  27.414  1.00  0.00    -0.268 OA
BRANCH  19  22
ATOM     22  C   UNL A   1      30.553  26.428  25.435  1.00  0.00     0.044 A 
ATOM     23  C   UNL A   1      32.436  27.439  26.867  1.00  0.00     0.046 C 
ATOM     24  C   UNL A   1      31.460  27.460  25.722  1.00  0.00    -0.027 A 
ATOM     25  C   UNL A   1      31.406  28.620  24.927  1.00  0.00     0.005 A 
ATOM     26  C   UNL A   1      30.519  28.720  23.852  1.00  0.00     0.000 A 
ATOM     27  C   UNL A   1      29.767  26.482  24.277  1.00  0.00     0.026 A 
ATOM     28  C   UNL A   1      29.728  27.634  23.499  1.00  0.00     0.002 A 
ENDBRANCH  19  22
ENDBRANCH  17  18
ENDBRANCH  11  17
ENDBRANCH   9  10
ENDBRANCH   7   9
ENDBRANCH   6   7
ENDBRANCH   5   6
ENDBRANCH   4   5
ENDBRANCH   3   4
ENDBRANCH   2   3
ENDBRANCH   1   2
BRANCH   1  29
ATOM     29  O   UNL A   1      39.923  29.651  35.167  1.00  0.00    -0.377 OA
BRANCH  29  30
ATOM     30  C   UNL A   1      39.338  30.933  35.210  1.00  0.00     0.188 C 
BRANCH  30  31
ATOM     31  C   UNL A   1      38.095  31.031  36.107  1.00  0.00     0.188 C 
BRANCH  31  32
ATOM     32  O   UNL A   1      38.156  32.115  37.041  1.00  0.00    -0.376 OA
BRANCH  32  33
ATOM     33  C   UNL A   1      39.420  32.367  37.641  1.00  0.00     0.202 C 
BRANCH  33  34
ATOM     34  C   UNL A   1      39.251  32.772  39.106  1.00  0.00     0.261 C 
BRANCH  34  35
ATOM     35  O   UNL A   1      40.207  33.791  39.475  1.00  0.00    -0.460 OA
BRANCH  35  36
ATOM     36  C   UNL A   1      39.855  35.055  39.099  1.00  0.00     0.338 C 
ATOM     37  O   UNL A   1      38.815  35.601  39.401  1.00  0.00    -0.246 OA
BRANCH  36  38
ATOM     38  C   UNL A   1      40.871  35.572  38.127  1.00  0.00     0.060 A 
ATOM     39  C   UNL A   1      40.452  36.423  37.118  1.00  0.00     0.016 A 
ATOM     40  C   UNL A   1      42.146  35.001  38.039  1.00  0.00     0.016 A 
ATOM     41  C   UNL A   1      41.246  36.556  35.966  1.00  0.00     0.010 A 
ATOM     42  C   UNL A   1      42.850  35.004  36.825  1.00  0.00     0.010 A 
ATOM     43  C   UNL A   1      42.371  35.712  35.708  1.00  0.00    -0.014 A 
BRANCH  43  44
ATOM     44  C   UNL A   1      43.251  35.542  34.312  1.00  0.00     0.031 A 
ATOM     45  C   UNL A   1      43.832  37.243  34.463  1.00  0.00     0.074 A 
ATOM     46  C   UNL A   1      43.323  34.447  33.045  1.00  0.00     0.049 A 
ATOM     47  N   UNL A   1      44.153  38.045  33.488  1.00  0.00    -0.248 NA
ATOM     48  C   UNL A   1      43.783  38.100  35.679  1.00  0.00     0.031 C 
ATOM     49  C   UNL A   1      44.221  34.303  31.607  1.00  0.00     0.029 A 
ATOM     50  N   UNL A   1      42.358  33.478  32.381  1.00  0.00    -0.354 N 
ATOM     51  C   UNL A   1      44.800  39.147  33.917  1.00  0.00     0.074 A 
ATOM     52  C   UNL A   1      44.353  39.248  35.277  1.00  0.00     0.031 C 
ATOM     53  C   UNL A   1      43.733  33.601  30.601  1.00  0.00     0.029 A 
ATOM     54  C   UNL A   1      42.397  33.435  30.951  1.00  0.00     0.049 A 
ATOM     55  H   UNL A   1      41.742  32.913  32.904  1.00  0.00     0.167 HD
ATOM     56  C   UNL A   1      45.732  39.710  33.087  1.00  0.00     0.037 A 
ATOM     57  C   UNL A   1      41.446  33.734  30.021  1.00  0.00     0.037 A 
ATOM     58  C   UNL A   1      45.844  38.983  31.770  1.00  0.00     0.049 A 
ATOM     59  C   UNL A   1      41.878  34.981  29.151  1.00  0.00     0.074 A 
ATOM     60  C   UNL A   1      46.782  38.119  31.216  1.00  0.00     0.029 A 
ATOM     61  N   UNL A   1      44.732  38.850  30.920  1.00  0.00    -0.354 N 
ATOM     62  N   UNL A   1      43.012  35.649  29.318  1.00  0.00    -0.248 NA
ATOM     63  C   UNL A   1      41.088  35.611  28.096  1.00  0.00     0.031 C 
ATOM     64  C   UNL A   1      46.227  37.495  30.042  1.00  0.00     0.029 A 
ATOM     65  C   UNL A   1      44.933  37.956  29.851  1.00  0.00     0.049 A 
ATOM     66  H   UNL A   1      43.888  39.338  31.059  1.00  0.00     0.167 HD
ATOM     67  C   UNL A   1      43.034  36.821  28.609  1.00  0.00     0.074 A 
ATOM     68  C   UNL A   1      41.838  36.690  27.775  1.00  0.00     0.031 C 
ATOM     69  C   UNL A   1      43.934  37.860  28.756  1.00  0.00     0.037 A 
BRANCH  56  70
ATOM     70  C   UNL A   1      46.753  40.693  33.667  1.00  0.00     0.058 A 
ATOM     71  C   UNL A   1      46.508  42.079  33.746  1.00  0.00     0.135 A 
ATOM     72  C   UNL A   1      48.044  40.316  34.109  1.00  0.00     0.135 A 
ATOM     73  F   UNL A   1      45.299  42.588  33.478  1.00  0.00    -0.206 F 
ATOM     74  C   UNL A   1      47.494  43.013  34.110  1.00  0.00     0.059 A 
ATOM     75  C   UNL A   1      49.066  41.228  34.405  1.00  0.00     0.059 A 
ATOM     76  F   UNL A   1      48.351  39.032  34.336  1.00  0.00    -0.206 F 
ATOM     77  C   UNL A   1      48.783  42.583  34.399  1.00  0.00     0.060 A 
BRANCH  77  78
ATOM     78  S   UNL A   1      50.059  43.791  34.821  1.00  0.00     0.124 S 
ATOM     79  O   UNL A   1      49.557  44.355  36.070  1.00  0.00    -0.237 OA
ATOM     80  O   UNL A   1      51.247  42.952  34.936  1.00  0.00    -0.237 OA
ATOM     81  O   UNL A   1      50.054  44.708  33.684  1.00  0.00    -0.744 OA
ENDBRANCH  77  78
ENDBRANCH  56  70
BRANCH  57  82
ATOM     82  C   UNL A   1      40.131  33.146  30.397  1.00  0.00     0.058 A 
ATOM     83  C   UNL A   1      39.129  34.075  30.796  1.00  0.00     0.135 A 
ATOM     84  C   UNL A   1      39.693  31.875  30.031  1.00  0.00     0.135 A 
ATOM     85  F   UNL A   1      39.487  35.298  31.225  1.00  0.00    -0.206 F 
ATOM     86  C   UNL A   1      37.768  33.828  30.639  1.00  0.00     0.059 A 
ATOM     87  C   UNL A   1      38.328  31.598  29.876  1.00  0.00     0.059 A 
ATOM     88  F   UNL A   1      40.581  30.929  29.692  1.00  0.00    -0.206 F 
ATOM     89  C   UNL A   1      37.376  32.593  30.138  1.00  0.00     0.060 A 
BRANCH  89  90
ATOM     90  S   UNL A   1      35.637  32.280  29.735  1.00  0.00     0.124 S 
ATOM     91  O   UNL A   1      35.033  32.188  31.059  1.00  0.00    -0.237 OA
ATOM     92  O   UNL A   1      35.248  33.447  28.952  1.00  0.00    -0.237 OA
ATOM     93  O   UNL A   1      35.700  31.027  28.987  1.00  0.00    -0.744 OA
ENDBRANCH  89  90
ENDBRANCH  57  82
BRANCH  69  94
ATOM     94  C   UNL A   1      43.955  38.977  27.740  1.00  0.00     0.058 A 
ATOM     95  C   UNL A   1      45.038  39.145  26.860  1.00  0.00     0.135 A 
ATOM     96  C   UNL A   1      42.963  39.977  27.710  1.00  0.00     0.135 A 
ATOM     97  F   UNL A   1      46.077  38.293  26.882  1.00  0.00    -0.206 F 
ATOM     98  C   UNL A   1      45.080  40.181  25.931  1.00  0.00     0.059 A 
ATOM     99  C   UNL A   1      43.016  41.056  26.836  1.00  0.00     0.059 A 
ATOM    100  F   UNL A   1      41.883  39.919  28.502  1.00  0.00    -0.206 F 
ATOM    101  C   UNL A   1      44.052  41.120  25.914  1.00  0.00     0.060 A 
BRANCH 101 102
ATOM    102  S   UNL A   1      44.041  42.404  24.653  1.00  0.00     0.124 S 
ATOM    103  O   UNL A   1      42.624  42.515  24.318  1.00  0.00    -0.237 OA
ATOM    104  O   UNL A   1      44.606  43.528  25.391  1.00  0.00    -0.237 OA
ATOM    105  O   UNL A   1      44.887  41.850  23.601  1.00  0.00    -0.744 OA
ENDBRANCH 101 102
ENDBRANCH  69  94
ENDBRANCH  43  44
ENDBRANCH  36  38
ENDBRANCH  35  36
ENDBRANCH  34  35
ENDBRANCH  33  34
ENDBRANCH  32  33
ENDBRANCH  31  32
ENDBRANCH  30  31
ENDBRANCH  29  30
ENDBRANCH   1  29
TORSDOF 27
ENDMDL
