MODEL 1
REMARK VINA RESULT:      -6.4      0.000      0.000
REMARK SMILES CS(=O)(=O)c1ccc(/C=C(/C(=O)OCCOCCOCCOCCOC(=O)c2ccc(-c3c4nc(c(-c5c(F)cc(S(=O)(=O)[O-])cc5F)c5ccc([nH]5)c(-c5c(F)cc(S(=O)(=O)[O-])cc5F)c5nc(c(-c6c(F)cc(S(=O)(=O)[O-])cc6F)c6ccc3[nH]6)C=C5)C=C4)cc2)c2ccccc2)cc1
REMARK SMILES IDX 20 1 19 2 18 3 17 4 16 5 15 6 14 7 13 8 11 9 12 10 10 11
REMARK SMILES IDX 9 12 8 13 5 14 6 15 101 16 7 17 100 18 2 19 1 20 3 21 4 22
REMARK SMILES IDX 94 23 95 24 99 25 96 26 98 27 97 28 21 29 22 30 23 31 24 32
REMARK SMILES IDX 25 33 26 34 27 35 28 36 29 37 93 38 30 39 92 40 31 41 32 42
REMARK SMILES IDX 33 43 86 44 34 45 91 46 85 47 87 48 35 49 90 50 84 51 83 52
REMARK SMILES IDX 36 54 70 55 49 56 69 57 50 58 53 59 68 60 88 61 51 62 52 63
REMARK SMILES IDX 67 65 89 66 54 67 37 68 38 69 47 70 39 71 40 72 46 73 48 74
REMARK SMILES IDX 41 75 42 76 43 77 44 78 45 79 71 80 72 81 81 82 73 83 74 84
REMARK SMILES IDX 80 85 82 86 75 87 76 88 77 89 78 90 79 91 55 92 56 93 65 94
REMARK SMILES IDX 57 95 58 96 64 97 66 98 59 99 60 100 61 101 62 102 63 103
REMARK H PARENT 87 53 53 64
REMARK Flexibility Score: inf
ROOT
ATOM      1  C   UNL A   1      47.125  25.844  28.359  1.00  0.00     0.188 C 
ENDROOT
BRANCH   1   2
ATOM      2  O   UNL A   1      45.830  26.347  28.044  1.00  0.00    -0.377 OA
BRANCH   2   3
ATOM      3  C   UNL A   1      44.866  26.485  29.074  1.00  0.00     0.188 C 
BRANCH   3   4
ATOM      4  C   UNL A   1      43.951  27.730  29.054  1.00  0.00     0.188 C 
BRANCH   4   5
ATOM      5  O   UNL A   1      43.451  28.043  27.769  1.00  0.00    -0.376 OA
BRANCH   5   6
ATOM      6  C   UNL A   1      42.154  27.593  27.426  1.00  0.00     0.202 C 
BRANCH   6   7
ATOM      7  C   UNL A   1      41.273  28.422  26.474  1.00  0.00     0.261 C 
BRANCH   7   8
ATOM      8  O   UNL A   1      40.137  29.084  27.052  1.00  0.00    -0.460 OA
BRANCH   8   9
ATOM      9  C   UNL A   1      39.303  28.354  27.829  1.00  0.00     0.338 C 
ATOM     10  O   UNL A   1      38.985  27.192  27.627  1.00  0.00    -0.246 OA
BRANCH   9  11
ATOM     11  C   UNL A   1      38.939  29.120  29.074  1.00  0.00     0.067 C 
ATOM     12  C   UNL A   1      38.223  30.268  28.966  1.00  0.00     0.024 C 
BRANCH  12  13
ATOM     13  C   UNL A   1      37.597  31.075  30.045  1.00  0.00    -0.025 A 
ATOM     14  C   UNL A   1      36.440  33.001  31.729  1.00  0.00     0.067 A 
ATOM     15  C   UNL A   1      35.652  31.982  31.203  1.00  0.00     0.021 A 
ATOM     16  C   UNL A   1      37.820  32.989  31.544  1.00  0.00     0.021 A 
ATOM     17  C   UNL A   1      36.243  31.007  30.399  1.00  0.00     0.009 A 
ATOM     18  C   UNL A   1      38.394  32.025  30.705  1.00  0.00     0.009 A 
BRANCH  14  19
ATOM     19  S   UNL A   1      35.648  34.338  32.585  1.00  0.00     0.175 S 
ATOM     20  C   UNL A   1      34.669  33.526  33.827  1.00  0.00     0.163 C 
ATOM     21  O   UNL A   1      34.727  34.977  31.664  1.00  0.00    -0.224 OA
ATOM     22  O   UNL A   1      36.688  35.095  33.253  1.00  0.00    -0.224 OA
ENDBRANCH  14  19
ENDBRANCH  12  13
BRANCH  11  23
ATOM     23  C   UNL A   1      39.368  28.564  30.375  1.00  0.00    -0.011 A 
ATOM     24  C   UNL A   1      40.694  28.741  30.819  1.00  0.00     0.009 A 
ATOM     25  C   UNL A   1      38.441  27.984  31.243  1.00  0.00     0.009 A 
ATOM     26  C   UNL A   1      41.074  28.375  32.109  1.00  0.00     0.001 A 
ATOM     27  C   UNL A   1      38.821  27.627  32.539  1.00  0.00     0.001 A 
ATOM     28  C   UNL A   1      40.132  27.830  32.974  1.00  0.00     0.000 A 
ENDBRANCH  11  23
ENDBRANCH   9  11
ENDBRANCH   8   9
ENDBRANCH   7   8
ENDBRANCH   6   7
ENDBRANCH   5   6
ENDBRANCH   4   5
ENDBRANCH   3   4
ENDBRANCH   2   3
ENDBRANCH   1   2
BRANCH   1  29
ATOM     29  C   UNL A   1      47.931  24.983  27.356  1.00  0.00     0.188 C 
BRANCH  29  30
ATOM     30  O   UNL A   1      49.010  25.647  26.717  1.00  0.00    -0.376 OA
BRANCH  30  31
ATOM     31  C   UNL A   1      50.224  25.788  27.433  1.00  0.00     0.202 C 
BRANCH  31  32
ATOM     32  C   UNL A   1      51.275  26.733  26.835  1.00  0.00     0.261 C 
BRANCH  32  33
ATOM     33  O   UNL A   1      50.770  27.775  25.988  1.00  0.00    -0.460 OA
BRANCH  33  34
ATOM     34  C   UNL A   1      51.084  29.040  26.333  1.00  0.00     0.338 C 
ATOM     35  O   UNL A   1      52.054  29.683  25.956  1.00  0.00    -0.246 OA
BRANCH  34  36
ATOM     36  C   UNL A   1      49.951  29.606  27.088  1.00  0.00     0.060 A 
ATOM     37  C   UNL A   1      50.220  30.469  28.158  1.00  0.00     0.016 A 
ATOM     38  C   UNL A   1      48.635  29.282  26.749  1.00  0.00     0.016 A 
ATOM     39  C   UNL A   1      49.174  30.958  28.935  1.00  0.00     0.010 A 
ATOM     40  C   UNL A   1      47.587  29.756  27.543  1.00  0.00     0.010 A 
ATOM     41  C   UNL A   1      47.860  30.551  28.670  1.00  0.00    -0.014 A 
BRANCH  41  42
ATOM     42  C   UNL A   1      46.831  30.749  29.721  1.00  0.00     0.031 A 
ATOM     43  C   UNL A   1      45.968  31.981  29.639  1.00  0.00     0.074 A 
ATOM     44  C   UNL A   1      46.614  29.826  30.673  1.00  0.00     0.049 A 
ATOM     45  N   UNL A   1      44.983  32.360  30.409  1.00  0.00    -0.248 NA
ATOM     46  C   UNL A   1      46.256  32.911  28.533  1.00  0.00     0.031 C 
ATOM     47  C   UNL A   1      47.357  28.577  30.829  1.00  0.00     0.029 A 
ATOM     48  N   UNL A   1      45.693  29.800  31.690  1.00  0.00    -0.354 N 
ATOM     49  C   UNL A   1      44.538  33.569  29.886  1.00  0.00     0.074 A 
ATOM     50  C   UNL A   1      45.386  33.883  28.758  1.00  0.00     0.031 C 
ATOM     51  C   UNL A   1      46.863  27.905  31.883  1.00  0.00     0.029 A 
ATOM     52  C   UNL A   1      45.787  28.687  32.492  1.00  0.00     0.049 A 
ATOM     53  H   UNL A   1      45.027  30.510  31.833  1.00  0.00     0.167 HD
ATOM     54  C   UNL A   1      43.505  34.342  30.297  1.00  0.00     0.037 A 
ATOM     55  C   UNL A   1      45.091  28.350  33.595  1.00  0.00     0.037 A 
ATOM     56  C   UNL A   1      42.666  34.024  31.422  1.00  0.00     0.049 A 
ATOM     57  C   UNL A   1      43.984  29.257  34.072  1.00  0.00     0.074 A 
ATOM     58  C   UNL A   1      41.587  34.734  31.918  1.00  0.00     0.029 A 
ATOM     59  N   UNL A   1      42.816  32.907  32.232  1.00  0.00    -0.354 N 
ATOM     60  N   UNL A   1      43.558  30.387  33.555  1.00  0.00    -0.248 NA
ATOM     61  C   UNL A   1      43.254  28.836  35.274  1.00  0.00     0.031 C 
ATOM     62  C   UNL A   1      41.122  34.078  33.062  1.00  0.00     0.029 A 
ATOM     63  C   UNL A   1      41.865  32.922  33.240  1.00  0.00     0.049 A 
ATOM     64  H   UNL A   1      43.497  32.208  32.110  1.00  0.00     0.167 HD
ATOM     65  C   UNL A   1      42.491  30.793  34.353  1.00  0.00     0.074 A 
ATOM     66  C   UNL A   1      42.326  29.778  35.372  1.00  0.00     0.031 C 
ATOM     67  C   UNL A   1      41.716  31.904  34.251  1.00  0.00     0.037 A 
BRANCH  54  68
ATOM     68  C   UNL A   1      43.250  35.620  29.545  1.00  0.00     0.058 A 
ATOM     69  C   UNL A   1      42.326  35.691  28.489  1.00  0.00     0.135 A 
ATOM     70  C   UNL A   1      43.926  36.799  29.900  1.00  0.00     0.135 A 
ATOM     71  F   UNL A   1      41.668  34.590  28.090  1.00  0.00    -0.206 F 
ATOM     72  C   UNL A   1      42.101  36.877  27.796  1.00  0.00     0.059 A 
ATOM     73  C   UNL A   1      43.692  38.004  29.243  1.00  0.00     0.059 A 
ATOM     74  F   UNL A   1      44.825  36.789  30.896  1.00  0.00    -0.206 F 
ATOM     75  C   UNL A   1      42.788  38.029  28.183  1.00  0.00     0.060 A 
BRANCH  75  76
ATOM     76  S   UNL A   1      42.475  39.562  27.282  1.00  0.00     0.124 S 
ATOM     77  O   UNL A   1      42.230  40.498  28.375  1.00  0.00    -0.237 OA
ATOM     78  O   UNL A   1      43.724  39.753  26.552  1.00  0.00    -0.237 OA
ATOM     79  O   UNL A   1      41.313  39.243  26.459  1.00  0.00    -0.744 OA
ENDBRANCH  75  76
ENDBRANCH  54  68
BRANCH  55  80
ATOM     80  C   UNL A   1      45.418  27.097  34.330  1.00  0.00     0.058 A 
ATOM     81  C   UNL A   1      46.444  27.056  35.286  1.00  0.00     0.135 A 
ATOM     82  C   UNL A   1      44.714  25.908  34.080  1.00  0.00     0.135 A 
ATOM     83  F   UNL A   1      47.156  28.162  35.553  1.00  0.00    -0.206 F 
ATOM     84  C   UNL A   1      46.773  25.881  35.954  1.00  0.00     0.059 A 
ATOM     85  C   UNL A   1      45.004  24.728  34.757  1.00  0.00     0.059 A 
ATOM     86  F   UNL A   1      43.717  25.892  33.182  1.00  0.00    -0.206 F 
ATOM     87  C   UNL A   1      46.044  24.722  35.686  1.00  0.00     0.060 A 
BRANCH  87  88
ATOM     88  S   UNL A   1      46.446  23.214  36.596  1.00  0.00     0.124 S 
ATOM     89  O   UNL A   1      46.677  23.732  37.939  1.00  0.00    -0.237 OA
ATOM     90  O   UNL A   1      45.235  22.419  36.415  1.00  0.00    -0.237 OA
ATOM     91  O   UNL A   1      47.627  22.708  35.902  1.00  0.00    -0.744 OA
ENDBRANCH  87  88
ENDBRANCH  55  80
BRANCH  67  92
ATOM     92  C   UNL A   1      40.592  32.054  35.243  1.00  0.00     0.058 A 
ATOM     93  C   UNL A   1      40.745  32.774  36.440  1.00  0.00     0.135 A 
ATOM     94  C   UNL A   1      39.336  31.478  34.986  1.00  0.00     0.135 A 
ATOM     95  F   UNL A   1      41.923  33.347  36.737  1.00  0.00    -0.206 F 
ATOM     96  C   UNL A   1      39.714  32.870  37.369  1.00  0.00     0.059 A 
ATOM     97  C   UNL A   1      38.279  31.594  35.884  1.00  0.00     0.059 A 
ATOM     98  F   UNL A   1      39.124  30.795  33.850  1.00  0.00    -0.206 F 
ATOM     99  C   UNL A   1      38.485  32.271  37.085  1.00  0.00     0.060 A 
BRANCH  99 100
ATOM    100  S   UNL A   1      37.161  32.387  38.305  1.00  0.00     0.124 S 
ATOM    101  O   UNL A   1      37.858  32.989  39.438  1.00  0.00    -0.237 OA
ATOM    102  O   UNL A   1      36.189  33.243  37.632  1.00  0.00    -0.237 OA
ATOM    103  O   UNL A   1      36.746  31.000  38.490  1.00  0.00    -0.744 OA
ENDBRANCH  99 100
ENDBRANCH  67  92
ENDBRANCH  41  42
ENDBRANCH  34  36
ENDBRANCH  33  34
ENDBRANCH  32  33
ENDBRANCH  31  32
ENDBRANCH  30  31
ENDBRANCH  29  30
ENDBRANCH   1  29
TORSDOF 26
ENDMDL
MODEL 2
REMARK VINA RESULT:      -6.1      4.146     11.441
REMARK SMILES CS(=O)(=O)c1ccc(/C=C(/C(=O)OCCOCCOCCOCCOC(=O)c2ccc(-c3c4nc(c(-c5c(F)cc(S(=O)(=O)[O-])cc5F)c5ccc([nH]5)c(-c5c(F)cc(S(=O)(=O)[O-])cc5F)c5nc(c(-c6c(F)cc(S(=O)(=O)[O-])cc6F)c6ccc3[nH]6)C=C5)C=C4)cc2)c2ccccc2)cc1
REMARK SMILES IDX 20 1 19 2 18 3 17 4 16 5 15 6 14 7 13 8 11 9 12 10 10 11
REMARK SMILES IDX 9 12 8 13 5 14 6 15 101 16 7 17 100 18 2 19 1 20 3 21 4 22
REMARK SMILES IDX 94 23 95 24 99 25 96 26 98 27 97 28 21 29 22 30 23 31 24 32
REMARK SMILES IDX 25 33 26 34 27 35 28 36 29 37 93 38 30 39 92 40 31 41 32 42
REMARK SMILES IDX 33 43 86 44 34 45 91 46 85 47 87 48 35 49 90 50 84 51 83 52
REMARK SMILES IDX 36 54 70 55 49 56 69 57 50 58 53 59 68 60 88 61 51 62 52 63
REMARK SMILES IDX 67 65 89 66 54 67 37 68 38 69 47 70 39 71 40 72 46 73 48 74
REMARK SMILES IDX 41 75 42 76 43 77 44 78 45 79 71 80 72 81 81 82 73 83 74 84
REMARK SMILES IDX 80 85 82 86 75 87 76 88 77 89 78 90 79 91 55 92 56 93 65 94
REMARK SMILES IDX 57 95 58 96 64 97 66 98 59 99 60 100 61 101 62 102 63 103
REMARK H PARENT 87 53 53 64
REMARK Flexibility Score: inf
ROOT
ATOM      1  C   UNL A   1      37.912  33.241  34.768  1.00  0.00     0.188 C 
ENDROOT
BRANCH   1   2
ATOM      2  O   UNL A   1      39.281  33.255  34.373  1.00  0.00    -0.377 OA
BRANCH   2   3
ATOM      3  C   UNL A   1      40.199  32.384  35.010  1.00  0.00     0.188 C 
BRANCH   3   4
ATOM      4  C   UNL A   1      41.145  31.546  34.122  1.00  0.00     0.188 C 
BRANCH   4   5
ATOM      5  O   UNL A   1      42.162  32.308  33.502  1.00  0.00    -0.376 OA
BRANCH   5   6
ATOM      6  C   UNL A   1      43.355  31.650  33.118  1.00  0.00     0.202 C 
BRANCH   6   7
ATOM      7  C   UNL A   1      43.824  30.395  33.876  1.00  0.00     0.261 C 
BRANCH   7   8
ATOM      8  O   UNL A   1      44.494  29.384  33.107  1.00  0.00    -0.460 OA
BRANCH   8   9
ATOM      9  C   UNL A   1      43.882  28.185  32.964  1.00  0.00     0.338 C 
ATOM     10  O   UNL A   1      42.768  28.011  32.495  1.00  0.00    -0.246 OA
BRANCH   9  11
ATOM     11  C   UNL A   1      44.828  27.067  33.319  1.00  0.00     0.067 C 
ATOM     12  C   UNL A   1      46.130  27.351  33.574  1.00  0.00     0.024 C 
BRANCH  12  13
ATOM     13  C   UNL A   1      47.184  26.456  34.120  1.00  0.00    -0.025 A 
ATOM     14  C   UNL A   1      49.510  25.070  34.862  1.00  0.00     0.067 A 
ATOM     15  C   UNL A   1      48.859  25.873  35.793  1.00  0.00     0.021 A 
ATOM     16  C   UNL A   1      48.938  24.835  33.614  1.00  0.00     0.021 A 
ATOM     17  C   UNL A   1      47.683  26.528  35.427  1.00  0.00     0.009 A 
ATOM     18  C   UNL A   1      47.776  25.527  33.249  1.00  0.00     0.009 A 
BRANCH  14  19
ATOM     19  S   UNL A   1      51.101  24.402  35.273  1.00  0.00     0.175 S 
ATOM     20  C   UNL A   1      50.723  22.832  36.018  1.00  0.00     0.163 C 
ATOM     21  O   UNL A   1      51.684  25.236  36.308  1.00  0.00    -0.224 OA
ATOM     22  O   UNL A   1      51.798  24.154  34.027  1.00  0.00    -0.224 OA
ENDBRANCH  14  19
ENDBRANCH  12  13
BRANCH  11  23
ATOM     23  C   UNL A   1      44.277  25.696  33.393  1.00  0.00    -0.011 A 
ATOM     24  C   UNL A   1      44.626  24.739  32.421  1.00  0.00     0.009 A 
ATOM     25  C   UNL A   1      43.524  25.290  34.496  1.00  0.00     0.009 A 
ATOM     26  C   UNL A   1      44.258  23.402  32.564  1.00  0.00     0.001 A 
ATOM     27  C   UNL A   1      43.164  23.948  34.644  1.00  0.00     0.001 A 
ATOM     28  C   UNL A   1      43.537  23.005  33.684  1.00  0.00     0.000 A 
ENDBRANCH  11  23
ENDBRANCH   9  11
ENDBRANCH   8   9
ENDBRANCH   7   8
ENDBRANCH   6   7
ENDBRANCH   5   6
ENDBRANCH   4   5
ENDBRANCH   3   4
ENDBRANCH   2   3
ENDBRANCH   1   2
BRANCH   1  29
ATOM     29  C   UNL A   1      36.836  32.482  33.955  1.00  0.00     0.188 C 
BRANCH  29  30
ATOM     30  O   UNL A   1      35.849  33.297  33.343  1.00  0.00    -0.376 OA
BRANCH  30  31
ATOM     31  C   UNL A   1      35.215  32.812  32.174  1.00  0.00     0.202 C 
BRANCH  31  32
ATOM     32  C   UNL A   1      36.078  32.722  30.907  1.00  0.00     0.261 C 
BRANCH  32  33
ATOM     33  O   UNL A   1      36.090  31.448  30.248  1.00  0.00    -0.460 OA
BRANCH  33  34
ATOM     34  C   UNL A   1      36.713  30.440  30.893  1.00  0.00     0.338 C 
ATOM     35  O   UNL A   1      36.197  29.611  31.629  1.00  0.00    -0.246 OA
BRANCH  34  36
ATOM     36  C   UNL A   1      38.104  30.372  30.406  1.00  0.00     0.060 A 
ATOM     37  C   UNL A   1      38.331  30.330  29.025  1.00  0.00     0.016 A 
ATOM     38  C   UNL A   1      39.173  30.344  31.304  1.00  0.00     0.016 A 
ATOM     39  C   UNL A   1      39.627  30.190  28.538  1.00  0.00     0.010 A 
ATOM     40  C   UNL A   1      40.473  30.181  30.816  1.00  0.00     0.010 A 
ATOM     41  C   UNL A   1      40.695  30.049  29.434  1.00  0.00    -0.014 A 
BRANCH  41  42
ATOM     42  C   UNL A   1      41.981  29.511  28.925  1.00  0.00     0.031 A 
ATOM     43  C   UNL A   1      43.164  30.441  28.873  1.00  0.00     0.074 A 
ATOM     44  C   UNL A   1      42.117  28.215  28.594  1.00  0.00     0.049 A 
ATOM     45  N   UNL A   1      44.395  30.203  28.504  1.00  0.00    -0.248 NA
ATOM     46  C   UNL A   1      42.923  31.832  29.297  1.00  0.00     0.031 C 
ATOM     47  C   UNL A   1      41.055  27.212  28.642  1.00  0.00     0.029 A 
ATOM     48  N   UNL A   1      43.217  27.523  28.154  1.00  0.00    -0.354 N 
ATOM     49  C   UNL A   1      45.072  31.410  28.649  1.00  0.00     0.074 A 
ATOM     50  C   UNL A   1      44.108  32.388  29.098  1.00  0.00     0.031 C 
ATOM     51  C   UNL A   1      41.557  26.029  28.245  1.00  0.00     0.029 A 
ATOM     52  C   UNL A   1      42.965  26.197  27.890  1.00  0.00     0.049 A 
ATOM     53  H   UNL A   1      44.103  27.935  28.038  1.00  0.00     0.167 HD
ATOM     54  C   UNL A   1      46.384  31.675  28.442  1.00  0.00     0.037 A 
ATOM     55  C   UNL A   1      43.779  25.238  27.407  1.00  0.00     0.037 A 
ATOM     56  C   UNL A   1      47.338  30.696  27.994  1.00  0.00     0.049 A 
ATOM     57  C   UNL A   1      45.224  25.572  27.125  1.00  0.00     0.074 A 
ATOM     58  C   UNL A   1      48.692  30.858  27.761  1.00  0.00     0.029 A 
ATOM     59  N   UNL A   1      47.038  29.373  27.701  1.00  0.00    -0.354 N 
ATOM     60  N   UNL A   1      45.857  26.711  27.287  1.00  0.00    -0.248 NA
ATOM     61  C   UNL A   1      46.065  24.486  26.607  1.00  0.00     0.031 C 
ATOM     62  C   UNL A   1      49.198  29.649  27.272  1.00  0.00     0.029 A 
ATOM     63  C   UNL A   1      48.176  28.714  27.265  1.00  0.00     0.049 A 
ATOM     64  H   UNL A   1      46.147  28.963  27.789  1.00  0.00     0.167 HD
ATOM     65  C   UNL A   1      47.178  26.467  26.920  1.00  0.00     0.074 A 
ATOM     66  C   UNL A   1      47.254  25.070  26.549  1.00  0.00     0.031 C 
ATOM     67  C   UNL A   1      48.235  27.321  26.895  1.00  0.00     0.037 A 
BRANCH  54  68
ATOM     68  C   UNL A   1      46.851  33.088  28.668  1.00  0.00     0.058 A 
ATOM     69  C   UNL A   1      47.176  33.569  29.948  1.00  0.00     0.135 A 
ATOM     70  C   UNL A   1      46.998  33.968  27.583  1.00  0.00     0.135 A 
ATOM     71  F   UNL A   1      47.033  32.779  31.024  1.00  0.00    -0.206 F 
ATOM     72  C   UNL A   1      47.603  34.879  30.146  1.00  0.00     0.059 A 
ATOM     73  C   UNL A   1      47.455  35.272  27.755  1.00  0.00     0.059 A 
ATOM     74  F   UNL A   1      46.695  33.565  26.340  1.00  0.00    -0.206 F 
ATOM     75  C   UNL A   1      47.742  35.722  29.043  1.00  0.00     0.060 A 
BRANCH  75  76
ATOM     76  S   UNL A   1      48.308  37.414  29.317  1.00  0.00     0.124 S 
ATOM     77  O   UNL A   1      48.436  37.447  30.770  1.00  0.00    -0.237 OA
ATOM     78  O   UNL A   1      49.561  37.447  28.569  1.00  0.00    -0.237 OA
ATOM     79  O   UNL A   1      47.230  38.228  28.764  1.00  0.00    -0.744 OA
ENDBRANCH  75  76
ENDBRANCH  54  68
BRANCH  55  80
ATOM     80  C   UNL A   1      43.252  23.869  27.155  1.00  0.00     0.058 A 
ATOM     81  C   UNL A   1      43.205  22.904  28.173  1.00  0.00     0.135 A 
ATOM     82  C   UNL A   1      42.795  23.492  25.882  1.00  0.00     0.135 A 
ATOM     83  F   UNL A   1      43.642  23.208  29.406  1.00  0.00    -0.206 F 
ATOM     84  C   UNL A   1      42.741  21.614  27.936  1.00  0.00     0.059 A 
ATOM     85  C   UNL A   1      42.299  22.218  25.628  1.00  0.00     0.059 A 
ATOM     86  F   UNL A   1      42.810  24.378  24.873  1.00  0.00    -0.206 F 
ATOM     87  C   UNL A   1      42.286  21.281  26.660  1.00  0.00     0.060 A 
BRANCH  87  88
ATOM     88  S   UNL A   1      41.639  19.619  26.376  1.00  0.00     0.124 S 
ATOM     89  O   UNL A   1      42.415  19.194  25.217  1.00  0.00    -0.237 OA
ATOM     90  O   UNL A   1      41.953  18.952  27.636  1.00  0.00    -0.237 OA
ATOM     91  O   UNL A   1      40.217  19.849  26.134  1.00  0.00    -0.744 OA
ENDBRANCH  87  88
ENDBRANCH  55  80
BRANCH  67  92
ATOM     92  C   UNL A   1      49.571  26.753  26.492  1.00  0.00     0.058 A 
ATOM     93  C   UNL A   1      50.451  26.180  27.426  1.00  0.00     0.135 A 
ATOM     94  C   UNL A   1      49.973  26.773  25.146  1.00  0.00     0.135 A 
ATOM     95  F   UNL A   1      50.117  26.133  28.726  1.00  0.00    -0.206 F 
ATOM     96  C   UNL A   1      51.700  25.698  27.049  1.00  0.00     0.059 A 
ATOM     97  C   UNL A   1      51.203  26.262  24.741  1.00  0.00     0.059 A 
ATOM     98  F   UNL A   1      49.167  27.291  24.206  1.00  0.00    -0.206 F 
ATOM     99  C   UNL A   1      52.070  25.749  25.704  1.00  0.00     0.060 A 
BRANCH  99 100
ATOM    100  S   UNL A   1      53.699  25.136  25.230  1.00  0.00     0.124 S 
ATOM    101  O   UNL A   1      54.553  25.767  26.232  1.00  0.00    -0.237 OA
ATOM    102  O   UNL A   1      53.539  23.691  25.353  1.00  0.00    -0.237 OA
ATOM    103  O   UNL A   1      53.865  25.629  23.866  1.00  0.00    -0.744 OA
ENDBRANCH  99 100
ENDBRANCH  67  92
ENDBRANCH  41  42
ENDBRANCH  34  36
ENDBRANCH  33  34
ENDBRANCH  32  33
ENDBRANCH  31  32
ENDBRANCH  30  31
ENDBRANCH  29  30
ENDBRANCH   1  29
TORSDOF 26
ENDMDL
MODEL 3
REMARK VINA RESULT:      -6.1      4.130     11.101
REMARK SMILES CS(=O)(=O)c1ccc(/C=C(/C(=O)OCCOCCOCCOCCOC(=O)c2ccc(-c3c4nc(c(-c5c(F)cc(S(=O)(=O)[O-])cc5F)c5ccc([nH]5)c(-c5c(F)cc(S(=O)(=O)[O-])cc5F)c5nc(c(-c6c(F)cc(S(=O)(=O)[O-])cc6F)c6ccc3[nH]6)C=C5)C=C4)cc2)c2ccccc2)cc1
REMARK SMILES IDX 20 1 19 2 18 3 17 4 16 5 15 6 14 7 13 8 11 9 12 10 10 11
REMARK SMILES IDX 9 12 8 13 5 14 6 15 101 16 7 17 100 18 2 19 1 20 3 21 4 22
REMARK SMILES IDX 94 23 95 24 99 25 96 26 98 27 97 28 21 29 22 30 23 31 24 32
REMARK SMILES IDX 25 33 26 34 27 35 28 36 29 37 93 38 30 39 92 40 31 41 32 42
REMARK SMILES IDX 33 43 86 44 34 45 91 46 85 47 87 48 35 49 90 50 84 51 83 52
REMARK SMILES IDX 36 54 70 55 49 56 69 57 50 58 53 59 68 60 88 61 51 62 52 63
REMARK SMILES IDX 67 65 89 66 54 67 37 68 38 69 47 70 39 71 40 72 46 73 48 74
REMARK SMILES IDX 41 75 42 76 43 77 44 78 45 79 71 80 72 81 81 82 73 83 74 84
REMARK SMILES IDX 80 85 82 86 75 87 76 88 77 89 78 90 79 91 55 92 56 93 65 94
REMARK SMILES IDX 57 95 58 96 64 97 66 98 59 99 60 100 61 101 62 102 63 103
REMARK H PARENT 87 53 53 64
REMARK Flexibility Score: inf
ROOT
ATOM      1  C   UNL A   1      38.096  32.796  34.887  1.00  0.00     0.188 C 
ENDROOT
BRANCH   1   2
ATOM      2  O   UNL A   1      39.429  32.483  34.494  1.00  0.00    -0.377 OA
BRANCH   2   3
ATOM      3  C   UNL A   1      40.134  33.373  33.647  1.00  0.00     0.188 C 
BRANCH   3   4
ATOM      4  C   UNL A   1      40.086  34.882  33.972  1.00  0.00     0.188 C 
BRANCH   4   5
ATOM      5  O   UNL A   1      41.331  35.535  33.811  1.00  0.00    -0.376 OA
BRANCH   5   6
ATOM      6  C   UNL A   1      42.223  35.046  32.828  1.00  0.00     0.202 C 
BRANCH   6   7
ATOM      7  C   UNL A   1      43.529  34.347  33.247  1.00  0.00     0.261 C 
BRANCH   7   8
ATOM      8  O   UNL A   1      43.446  33.414  34.336  1.00  0.00    -0.460 OA
BRANCH   8   9
ATOM      9  C   UNL A   1      44.601  32.908  34.829  1.00  0.00     0.338 C 
ATOM     10  O   UNL A   1      45.247  33.388  35.747  1.00  0.00    -0.246 OA
BRANCH   9  11
ATOM     11  C   UNL A   1      44.903  31.575  34.196  1.00  0.00     0.067 C 
ATOM     12  C   UNL A   1      46.133  31.351  33.666  1.00  0.00     0.024 C 
BRANCH  12  13
ATOM     13  C   UNL A   1      46.711  30.075  33.171  1.00  0.00    -0.025 A 
ATOM     14  C   UNL A   1      47.339  27.449  32.401  1.00  0.00     0.067 A 
ATOM     15  C   UNL A   1      47.075  28.408  31.429  1.00  0.00     0.021 A 
ATOM     16  C   UNL A   1      47.437  27.815  33.741  1.00  0.00     0.021 A 
ATOM     17  C   UNL A   1      46.801  29.720  31.819  1.00  0.00     0.009 A 
ATOM     18  C   UNL A   1      47.125  29.127  34.121  1.00  0.00     0.009 A 
BRANCH  14  19
ATOM     19  S   UNL A   1      47.492  25.752  31.908  1.00  0.00     0.175 S 
ATOM     20  C   UNL A   1      46.291  25.578  30.608  1.00  0.00     0.163 C 
ATOM     21  O   UNL A   1      47.049  24.923  33.013  1.00  0.00    -0.224 OA
ATOM     22  O   UNL A   1      48.810  25.590  31.329  1.00  0.00    -0.224 OA
ENDBRANCH  14  19
ENDBRANCH  12  13
BRANCH  11  23
ATOM     23  C   UNL A   1      43.835  30.551  34.201  1.00  0.00    -0.011 A 
ATOM     24  C   UNL A   1      43.541  29.828  33.028  1.00  0.00     0.009 A 
ATOM     25  C   UNL A   1      43.204  30.187  35.392  1.00  0.00     0.009 A 
ATOM     26  C   UNL A   1      42.661  28.747  33.052  1.00  0.00     0.001 A 
ATOM     27  C   UNL A   1      42.331  29.097  35.416  1.00  0.00     0.001 A 
ATOM     28  C   UNL A   1      42.066  28.373  34.252  1.00  0.00     0.000 A 
ENDBRANCH  11  23
ENDBRANCH   9  11
ENDBRANCH   8   9
ENDBRANCH   7   8
ENDBRANCH   6   7
ENDBRANCH   5   6
ENDBRANCH   4   5
ENDBRANCH   3   4
ENDBRANCH   2   3
ENDBRANCH   1   2
BRANCH   1  29
ATOM     29  C   UNL A   1      36.869  32.246  34.120  1.00  0.00     0.188 C 
BRANCH  29  30
ATOM     30  O   UNL A   1      36.019  33.229  33.550  1.00  0.00    -0.376 OA
BRANCH  30  31
ATOM     31  C   UNL A   1      35.248  32.868  32.418  1.00  0.00     0.202 C 
BRANCH  31  32
ATOM     32  C   UNL A   1      36.003  32.698  31.093  1.00  0.00     0.261 C 
BRANCH  32  33
ATOM     33  O   UNL A   1      35.963  31.385  30.514  1.00  0.00    -0.460 OA
BRANCH  33  34
ATOM     34  C   UNL A   1      36.637  30.416  31.168  1.00  0.00     0.338 C 
ATOM     35  O   UNL A   1      36.170  29.598  31.947  1.00  0.00    -0.246 OA
BRANCH  34  36
ATOM     36  C   UNL A   1      38.011  30.370  30.632  1.00  0.00     0.060 A 
ATOM     37  C   UNL A   1      38.190  30.301  29.245  1.00  0.00     0.016 A 
ATOM     38  C   UNL A   1      39.111  30.388  31.492  1.00  0.00     0.016 A 
ATOM     39  C   UNL A   1      39.471  30.180  28.716  1.00  0.00     0.010 A 
ATOM     40  C   UNL A   1      40.396  30.245  30.962  1.00  0.00     0.010 A 
ATOM     41  C   UNL A   1      40.573  30.086  29.576  1.00  0.00    -0.014 A 
BRANCH  41  42
ATOM     42  C   UNL A   1      41.853  29.567  29.034  1.00  0.00     0.031 A 
ATOM     43  C   UNL A   1      43.024  30.511  28.962  1.00  0.00     0.074 A 
ATOM     44  C   UNL A   1      41.997  28.275  28.690  1.00  0.00     0.049 A 
ATOM     45  N   UNL A   1      44.248  30.290  28.563  1.00  0.00    -0.248 NA
ATOM     46  C   UNL A   1      42.777  31.896  29.401  1.00  0.00     0.031 C 
ATOM     47  C   UNL A   1      40.948  27.258  28.756  1.00  0.00     0.029 A 
ATOM     48  N   UNL A   1      43.095  27.598  28.220  1.00  0.00    -0.354 N 
ATOM     49  C   UNL A   1      44.914  31.504  28.700  1.00  0.00     0.074 A 
ATOM     50  C   UNL A   1      43.950  32.468  29.178  1.00  0.00     0.031 C 
ATOM     51  C   UNL A   1      41.454  26.085  28.339  1.00  0.00     0.029 A 
ATOM     52  C   UNL A   1      42.852  26.272  27.954  1.00  0.00     0.049 A 
ATOM     53  H   UNL A   1      43.972  28.022  28.088  1.00  0.00     0.167 HD
ATOM     54  C   UNL A   1      46.218  31.786  28.466  1.00  0.00     0.037 A 
ATOM     55  C   UNL A   1      43.666  25.326  27.445  1.00  0.00     0.037 A 
ATOM     56  C   UNL A   1      47.173  30.822  27.988  1.00  0.00     0.049 A 
ATOM     57  C   UNL A   1      45.099  25.679  27.132  1.00  0.00     0.074 A 
ATOM     58  C   UNL A   1      48.519  31.001  27.726  1.00  0.00     0.029 A 
ATOM     59  N   UNL A   1      46.882  29.497  27.693  1.00  0.00    -0.354 N 
ATOM     60  N   UNL A   1      45.723  26.824  27.287  1.00  0.00    -0.248 NA
ATOM     61  C   UNL A   1      45.941  24.606  26.588  1.00  0.00     0.031 C 
ATOM     62  C   UNL A   1      49.028  29.802  27.217  1.00  0.00     0.029 A 
ATOM     63  C   UNL A   1      48.017  28.855  27.227  1.00  0.00     0.049 A 
ATOM     64  H   UNL A   1      45.999  29.076  27.799  1.00  0.00     0.167 HD
ATOM     65  C   UNL A   1      47.038  26.599  26.889  1.00  0.00     0.074 A 
ATOM     66  C   UNL A   1      47.122  25.205  26.506  1.00  0.00     0.031 C 
ATOM     67  C   UNL A   1      48.084  27.465  26.846  1.00  0.00     0.037 A 
BRANCH  54  68
ATOM     68  C   UNL A   1      46.674  33.203  28.691  1.00  0.00     0.058 A 
ATOM     69  C   UNL A   1      47.205  33.628  29.920  1.00  0.00     0.135 A 
ATOM     70  C   UNL A   1      46.598  34.146  27.652  1.00  0.00     0.135 A 
ATOM     71  F   UNL A   1      47.279  32.776  30.956  1.00  0.00    -0.206 F 
ATOM     72  C   UNL A   1      47.619  34.941  30.120  1.00  0.00     0.059 A 
ATOM     73  C   UNL A   1      47.038  35.456  27.819  1.00  0.00     0.059 A 
ATOM     74  F   UNL A   1      46.093  33.798  26.459  1.00  0.00    -0.206 F 
ATOM     75  C   UNL A   1      47.534  35.847  29.062  1.00  0.00     0.060 A 
BRANCH  75  76
ATOM     76  S   UNL A   1      48.087  37.544  29.334  1.00  0.00     0.124 S 
ATOM     77  O   UNL A   1      47.963  38.110  27.994  1.00  0.00    -0.237 OA
ATOM     78  O   UNL A   1      47.126  38.030  30.318  1.00  0.00    -0.237 OA
ATOM     79  O   UNL A   1      49.453  37.383  29.821  1.00  0.00    -0.744 OA
ENDBRANCH  75  76
ENDBRANCH  54  68
BRANCH  55  80
ATOM     80  C   UNL A   1      43.149  23.952  27.196  1.00  0.00     0.058 A 
ATOM     81  C   UNL A   1      42.938  23.047  28.248  1.00  0.00     0.135 A 
ATOM     82  C   UNL A   1      42.868  23.510  25.892  1.00  0.00     0.135 A 
ATOM     83  F   UNL A   1      43.204  23.415  29.511  1.00  0.00    -0.206 F 
ATOM     84  C   UNL A   1      42.484  21.752  28.017  1.00  0.00     0.059 A 
ATOM     85  C   UNL A   1      42.384  22.231  25.640  1.00  0.00     0.059 A 
ATOM     86  F   UNL A   1      43.044  24.337  24.849  1.00  0.00    -0.206 F 
ATOM     87  C   UNL A   1      42.205  21.355  26.709  1.00  0.00     0.060 A 
BRANCH  87  88
ATOM     88  S   UNL A   1      41.568  19.688  26.427  1.00  0.00     0.124 S 
ATOM     89  O   UNL A   1      42.262  19.311  25.202  1.00  0.00    -0.237 OA
ATOM     90  O   UNL A   1      41.988  18.994  27.640  1.00  0.00    -0.237 OA
ATOM     91  O   UNL A   1      40.128  19.897  26.299  1.00  0.00    -0.744 OA
ENDBRANCH  87  88
ENDBRANCH  55  80
BRANCH  67  92
ATOM     92  C   UNL A   1      49.417  26.916  26.408  1.00  0.00     0.058 A 
ATOM     93  C   UNL A   1      50.237  26.171  27.272  1.00  0.00     0.135 A 
ATOM     94  C   UNL A   1      49.877  27.130  25.098  1.00  0.00     0.135 A 
ATOM     95  F   UNL A   1      49.847  25.934  28.535  1.00  0.00    -0.206 F 
ATOM     96  C   UNL A   1      51.484  25.705  26.870  1.00  0.00     0.059 A 
ATOM     97  C   UNL A   1      51.105  26.642  24.663  1.00  0.00     0.059 A 
ATOM     98  F   UNL A   1      49.129  27.819  24.221  1.00  0.00    -0.206 F 
ATOM     99  C   UNL A   1      51.913  25.951  25.564  1.00  0.00     0.060 A 
BRANCH  99 100
ATOM    100  S   UNL A   1      53.541  25.358  25.061  1.00  0.00     0.124 S 
ATOM    101  O   UNL A   1      53.504  23.973  25.520  1.00  0.00    -0.237 OA
ATOM    102  O   UNL A   1      53.509  25.547  23.614  1.00  0.00    -0.237 OA
ATOM    103  O   UNL A   1      54.461  26.233  25.782  1.00  0.00    -0.744 OA
ENDBRANCH  99 100
ENDBRANCH  67  92
ENDBRANCH  41  42
ENDBRANCH  34  36
ENDBRANCH  33  34
ENDBRANCH  32  33
ENDBRANCH  31  32
ENDBRANCH  30  31
ENDBRANCH  29  30
ENDBRANCH   1  29
TORSDOF 26
ENDMDL
