MODEL 1
REMARK VINA RESULT:      -9.4      0.000      0.000
REMARK SMILES NC(=O)[C@@H]1CCC[N@H+]1[C@@H](C(=O)OCCOCCOCCOCCOC(=O)c1ccc(-c2c3nc(c(-c4c(F)cc(S(=O)(=O)[O-])cc4F)c4ccc([nH]4)c(-c4c(F)cc(S(=O)(=O)[O-])cc4F)c4nc(c(-c5c(F)cc(S(=O)(=O)[O-])cc5F)c5ccc2[nH]5)C=C4)C=C3)cc1)c1c[nH]c2cc(OCc3ccccc3)ccc12
REMARK SMILES IDX 17 1 16 2 15 3 14 4 13 5 12 6 10 7 11 8 9 9 8 10 4 11 5 12
REMARK SMILES IDX 6 13 7 14 2 16 1 17 3 20 93 21 94 22 109 23 95 24 96 25
REMARK SMILES IDX 108 26 97 28 107 29 98 30 99 31 100 32 101 33 102 34 106 35
REMARK SMILES IDX 103 36 105 37 104 38 18 39 19 40 20 41 21 42 22 43 23 44
REMARK SMILES IDX 24 45 25 46 26 47 27 48 28 49 92 50 29 51 91 52 30 53 31 54
REMARK SMILES IDX 32 55 85 56 33 57 90 58 84 59 86 60 34 61 89 62 83 63 82 64
REMARK SMILES IDX 35 66 69 67 48 68 68 69 49 70 52 71 67 72 87 73 50 74 51 75
REMARK SMILES IDX 66 77 88 78 53 79 36 80 37 81 46 82 38 83 39 84 45 85 47 86
REMARK SMILES IDX 40 87 41 88 42 89 43 90 44 91 70 92 71 93 80 94 72 95 73 96
REMARK SMILES IDX 79 97 81 98 74 99 75 100 76 101 77 102 78 103 54 104 55 105
REMARK SMILES IDX 64 106 56 107 57 108 63 109 65 110 58 111 59 112 60 113
REMARK SMILES IDX 61 114 62 115
REMARK H PARENT 8 15 1 18 1 19 95 27 86 65 52 76
REMARK Flexibility Score: inf
ROOT
ATOM      1  C   UNL A   1      38.170  19.594  25.004  1.00  0.00     0.188 C 
ENDROOT
BRANCH   1   2
ATOM      2  C   UNL A   1      36.918  18.713  25.006  1.00  0.00     0.188 C 
BRANCH   2   3
ATOM      3  O   UNL A   1      35.644  19.275  24.726  1.00  0.00    -0.376 OA
BRANCH   3   4
ATOM      4  C   UNL A   1      34.577  18.409  24.372  1.00  0.00     0.202 C 
BRANCH   4   5
ATOM      5  C   UNL A   1      33.294  18.451  25.218  1.00  0.00     0.261 C 
BRANCH   5   6
ATOM      6  O   UNL A   1      32.462  19.619  25.042  1.00  0.00    -0.459 OA
BRANCH   6   7
ATOM      7  C   UNL A   1      32.643  20.722  25.849  1.00  0.00     0.370 C 
ATOM      8  O   UNL A   1      33.168  20.658  26.956  1.00  0.00    -0.245 OA
BRANCH   7   9
ATOM      9  C   UNL A   1      32.082  22.054  25.219  1.00  0.00     0.329 C 
BRANCH   9  10
ATOM     10  N   UNL A   1      33.007  22.608  24.185  1.00  0.00    -0.309 N 
ATOM     11  C   UNL A   1      34.472  22.546  24.319  1.00  0.00     0.275 C 
ATOM     12  C   UNL A   1      34.820  23.648  23.314  1.00  0.00     0.081 C 
ATOM     13  C   UNL A   1      33.902  23.334  22.139  1.00  0.00     0.068 C 
ATOM     14  C   UNL A   1      32.792  22.472  22.747  1.00  0.00     0.264 C 
ATOM     15  H   UNL A   1      32.611  23.482  24.535  1.00  0.00     0.349 HD
BRANCH  11  16
ATOM     16  C   UNL A   1      35.069  22.729  25.706  1.00  0.00     0.275 C 
ATOM     17  N   UNL A   1      35.624  21.649  26.309  1.00  0.00    -0.365 N 
ATOM     18  H   UNL A   1      36.018  21.736  27.208  1.00  0.00     0.159 HD
ATOM     19  H   UNL A   1      35.631  20.779  25.850  1.00  0.00     0.159 HD
ATOM     20  O   UNL A   1      35.066  23.820  26.274  1.00  0.00    -0.268 OA
ENDBRANCH  11  16
ENDBRANCH   9  10
BRANCH   9  21
ATOM     21  C   UNL A   1      31.633  23.128  26.263  1.00  0.00     0.046 A 
ATOM     22  C   UNL A   1      30.514  22.998  27.077  1.00  0.00     0.094 A 
ATOM     23  C   UNL A   1      31.803  24.560  26.356  1.00  0.00     0.009 A 
ATOM     24  N   UNL A   1      29.685  23.998  26.639  1.00  0.00    -0.361 N 
ATOM     25  C   UNL A   1      30.494  25.048  26.281  1.00  0.00     0.050 A 
ATOM     26  C   UNL A   1      32.819  25.534  26.444  1.00  0.00     0.015 A 
ATOM     27  H   UNL A   1      28.701  23.969  26.591  1.00  0.00     0.166 HD
ATOM     28  C   UNL A   1      30.189  26.355  25.913  1.00  0.00     0.073 A 
ATOM     29  C   UNL A   1      32.517  26.899  26.223  1.00  0.00     0.047 A 
ATOM     30  C   UNL A   1      31.231  27.281  25.852  1.00  0.00     0.121 A 
BRANCH  30  31
ATOM     31  O   UNL A   1      30.834  28.490  25.359  1.00  0.00    -0.489 OA
BRANCH  31  32
ATOM     32  C   UNL A   1      30.567  28.668  23.969  1.00  0.00     0.265 C 
BRANCH  32  33
ATOM     33  C   UNL A   1      31.726  28.214  23.107  1.00  0.00    -0.011 A 
ATOM     34  C   UNL A   1      31.605  27.042  22.345  1.00  0.00     0.007 A 
ATOM     35  C   UNL A   1      32.940  28.915  23.065  1.00  0.00     0.007 A 
ATOM     36  C   UNL A   1      32.680  26.578  21.581  1.00  0.00     0.000 A 
ATOM     37  C   UNL A   1      34.012  28.451  22.304  1.00  0.00     0.000 A 
ATOM     38  C   UNL A   1      33.885  27.277  21.569  1.00  0.00     0.000 A 
ENDBRANCH  32  33
ENDBRANCH  31  32
ENDBRANCH  30  31
ENDBRANCH   9  21
ENDBRANCH   7   9
ENDBRANCH   6   7
ENDBRANCH   5   6
ENDBRANCH   4   5
ENDBRANCH   3   4
ENDBRANCH   2   3
ENDBRANCH   1   2
BRANCH   1  39
ATOM     39  O   UNL A   1      39.309  18.980  25.563  1.00  0.00    -0.377 OA
BRANCH  39  40
ATOM     40  C   UNL A   1      40.402  19.849  25.777  1.00  0.00     0.188 C 
BRANCH  40  41
ATOM     41  C   UNL A   1      40.707  20.100  27.259  1.00  0.00     0.188 C 
BRANCH  41  42
ATOM     42  O   UNL A   1      41.685  21.118  27.479  1.00  0.00    -0.376 OA
BRANCH  42  43
ATOM     43  C   UNL A   1      42.442  21.561  26.359  1.00  0.00     0.202 C 
BRANCH  43  44
ATOM     44  C   UNL A   1      42.479  23.077  26.086  1.00  0.00     0.261 C 
BRANCH  44  45
ATOM     45  O   UNL A   1      43.259  23.867  26.998  1.00  0.00    -0.460 OA
BRANCH  45  46
ATOM     46  C   UNL A   1      43.600  25.116  26.627  1.00  0.00     0.338 C 
ATOM     47  O   UNL A   1      44.097  25.470  25.570  1.00  0.00    -0.246 OA
BRANCH  46  48
ATOM     48  C   UNL A   1      43.034  26.030  27.632  1.00  0.00     0.060 A 
ATOM     49  C   UNL A   1      43.512  27.346  27.677  1.00  0.00     0.016 A 
ATOM     50  C   UNL A   1      42.023  25.605  28.497  1.00  0.00     0.016 A 
ATOM     51  C   UNL A   1      42.989  28.243  28.598  1.00  0.00     0.010 A 
ATOM     52  C   UNL A   1      41.533  26.492  29.457  1.00  0.00     0.010 A 
ATOM     53  C   UNL A   1      42.039  27.801  29.527  1.00  0.00    -0.014 A 
BRANCH  53  54
ATOM     54  C   UNL A   1      41.803  28.629  30.727  1.00  0.00     0.031 A 
ATOM     55  C   UNL A   1      40.643  29.586  30.685  1.00  0.00     0.074 A 
ATOM     56  C   UNL A   1      42.548  28.484  31.835  1.00  0.00     0.049 A 
ATOM     57  N   UNL A   1      40.224  30.421  31.596  1.00  0.00    -0.248 NA
ATOM     58  C   UNL A   1      39.843  29.592  29.446  1.00  0.00     0.031 C 
ATOM     59  C   UNL A   1      43.652  27.538  31.998  1.00  0.00     0.029 A 
ATOM     60  N   UNL A   1      42.482  29.136  33.039  1.00  0.00    -0.354 N 
ATOM     61  C   UNL A   1      39.112  31.047  31.045  1.00  0.00     0.074 A 
ATOM     62  C   UNL A   1      38.938  30.521  29.711  1.00  0.00     0.031 C 
ATOM     63  C   UNL A   1      44.169  27.682  33.230  1.00  0.00     0.029 A 
ATOM     64  C   UNL A   1      43.454  28.748  33.930  1.00  0.00     0.049 A 
ATOM     65  H   UNL A   1      41.802  29.817  33.247  1.00  0.00     0.167 HD
ATOM     66  C   UNL A   1      38.305  31.973  31.609  1.00  0.00     0.037 A 
ATOM     67  C   UNL A   1      43.738  29.224  35.159  1.00  0.00     0.037 A 
ATOM     68  C   UNL A   1      38.498  32.496  32.932  1.00  0.00     0.049 A 
ATOM     69  C   UNL A   1      42.877  30.325  35.728  1.00  0.00     0.074 A 
ATOM     70  C   UNL A   1      37.750  33.448  33.600  1.00  0.00     0.029 A 
ATOM     71  N   UNL A   1      39.522  32.115  33.789  1.00  0.00    -0.354 N 
ATOM     72  N   UNL A   1      41.824  30.906  35.203  1.00  0.00    -0.248 NA
ATOM     73  C   UNL A   1      43.242  30.833  37.058  1.00  0.00     0.031 C 
ATOM     74  C   UNL A   1      38.350  33.678  34.841  1.00  0.00     0.029 A 
ATOM     75  C   UNL A   1      39.438  32.828  34.970  1.00  0.00     0.049 A 
ATOM     76  H   UNL A   1      40.205  31.436  33.585  1.00  0.00     0.167 HD
ATOM     77  C   UNL A   1      41.382  31.825  36.150  1.00  0.00     0.074 A 
ATOM     78  C   UNL A   1      42.276  31.713  37.284  1.00  0.00     0.031 C 
ATOM     79  C   UNL A   1      40.334  32.684  36.090  1.00  0.00     0.037 A 
BRANCH  66  80
ATOM     80  C   UNL A   1      37.162  32.495  30.784  1.00  0.00     0.058 A 
ATOM     81  C   UNL A   1      37.320  33.582  29.909  1.00  0.00     0.135 A 
ATOM     82  C   UNL A   1      35.902  31.882  30.848  1.00  0.00     0.135 A 
ATOM     83  F   UNL A   1      38.496  34.224  29.832  1.00  0.00    -0.206 F 
ATOM     84  C   UNL A   1      36.264  34.049  29.134  1.00  0.00     0.059 A 
ATOM     85  C   UNL A   1      34.839  32.315  30.063  1.00  0.00     0.059 A 
ATOM     86  F   UNL A   1      35.694  30.849  31.680  1.00  0.00    -0.206 F 
ATOM     87  C   UNL A   1      35.028  33.404  29.214  1.00  0.00     0.060 A 
BRANCH  87  88
ATOM     88  S   UNL A   1      33.675  34.003  28.180  1.00  0.00     0.124 S 
ATOM     89  O   UNL A   1      32.875  34.747  29.149  1.00  0.00    -0.237 OA
ATOM     90  O   UNL A   1      34.378  34.809  27.186  1.00  0.00    -0.237 OA
ATOM     91  O   UNL A   1      33.064  32.779  27.673  1.00  0.00    -0.744 OA
ENDBRANCH  87  88
ENDBRANCH  66  80
BRANCH  67  92
ATOM     92  C   UNL A   1      44.897  28.689  35.924  1.00  0.00     0.058 A 
ATOM     93  C   UNL A   1      44.755  27.603  36.802  1.00  0.00     0.135 A 
ATOM     94  C   UNL A   1      46.169  29.277  35.818  1.00  0.00     0.135 A 
ATOM     95  F   UNL A   1      43.560  27.012  36.947  1.00  0.00    -0.206 F 
ATOM     96  C   UNL A   1      45.821  27.137  37.565  1.00  0.00     0.059 A 
ATOM     97  C   UNL A   1      47.257  28.809  36.548  1.00  0.00     0.059 A 
ATOM     98  F   UNL A   1      46.364  30.312  34.986  1.00  0.00    -0.206 F 
ATOM     99  C   UNL A   1      47.069  27.748  37.432  1.00  0.00     0.060 A 
BRANCH  99 100
ATOM    100  S   UNL A   1      48.452  27.121  38.409  1.00  0.00     0.124 S 
ATOM    101  O   UNL A   1      49.383  28.241  38.352  1.00  0.00    -0.237 OA
ATOM    102  O   UNL A   1      47.824  26.875  39.704  1.00  0.00    -0.237 OA
ATOM    103  O   UNL A   1      48.860  25.922  37.681  1.00  0.00    -0.744 OA
ENDBRANCH  99 100
ENDBRANCH  67  92
BRANCH  79 104
ATOM    104  C   UNL A   1      40.067  33.539  37.299  1.00  0.00     0.058 A 
ATOM    105  C   UNL A   1      39.098  33.192  38.252  1.00  0.00     0.135 A 
ATOM    106  C   UNL A   1      40.840  34.689  37.536  1.00  0.00     0.135 A 
ATOM    107  F   UNL A   1      38.331  32.105  38.070  1.00  0.00    -0.206 F 
ATOM    108  C   UNL A   1      38.887  33.968  39.386  1.00  0.00     0.059 A 
ATOM    109  C   UNL A   1      40.667  35.461  38.679  1.00  0.00     0.059 A 
ATOM    110  F   UNL A   1      41.791  35.057  36.663  1.00  0.00    -0.206 F 
ATOM    111  C   UNL A   1      39.680  35.098  39.593  1.00  0.00     0.060 A 
BRANCH 111 112
ATOM    112  S   UNL A   1      39.418  36.074  41.088  1.00  0.00     0.124 S 
ATOM    113  O   UNL A   1      40.767  36.561  41.362  1.00  0.00    -0.237 OA
ATOM    114  O   UNL A   1      38.460  37.081  40.640  1.00  0.00    -0.237 OA
ATOM    115  O   UNL A   1      38.897  35.101  42.043  1.00  0.00    -0.744 OA
ENDBRANCH 111 112
ENDBRANCH  79 104
ENDBRANCH  53  54
ENDBRANCH  46  48
ENDBRANCH  45  46
ENDBRANCH  44  45
ENDBRANCH  43  44
ENDBRANCH  42  43
ENDBRANCH  41  42
ENDBRANCH  40  41
ENDBRANCH  39  40
ENDBRANCH   1  39
TORSDOF 29
ENDMDL
MODEL 2
REMARK VINA RESULT:      -9.3      0.769      7.635
REMARK SMILES NC(=O)[C@@H]1CCC[N@H+]1[C@@H](C(=O)OCCOCCOCCOCCOC(=O)c1ccc(-c2c3nc(c(-c4c(F)cc(S(=O)(=O)[O-])cc4F)c4ccc([nH]4)c(-c4c(F)cc(S(=O)(=O)[O-])cc4F)c4nc(c(-c5c(F)cc(S(=O)(=O)[O-])cc5F)c5ccc2[nH]5)C=C4)C=C3)cc1)c1c[nH]c2cc(OCc3ccccc3)ccc12
REMARK SMILES IDX 17 1 16 2 15 3 14 4 13 5 12 6 10 7 11 8 9 9 8 10 4 11 5 12
REMARK SMILES IDX 6 13 7 14 2 16 1 17 3 20 93 21 94 22 109 23 95 24 96 25
REMARK SMILES IDX 108 26 97 28 107 29 98 30 99 31 100 32 101 33 102 34 106 35
REMARK SMILES IDX 103 36 105 37 104 38 18 39 19 40 20 41 21 42 22 43 23 44
REMARK SMILES IDX 24 45 25 46 26 47 27 48 28 49 92 50 29 51 91 52 30 53 31 54
REMARK SMILES IDX 32 55 85 56 33 57 90 58 84 59 86 60 34 61 89 62 83 63 82 64
REMARK SMILES IDX 35 66 69 67 48 68 68 69 49 70 52 71 67 72 87 73 50 74 51 75
REMARK SMILES IDX 66 77 88 78 53 79 36 80 37 81 46 82 38 83 39 84 45 85 47 86
REMARK SMILES IDX 40 87 41 88 42 89 43 90 44 91 70 92 71 93 80 94 72 95 73 96
REMARK SMILES IDX 79 97 81 98 74 99 75 100 76 101 77 102 78 103 54 104 55 105
REMARK SMILES IDX 64 106 56 107 57 108 63 109 65 110 58 111 59 112 60 113
REMARK SMILES IDX 61 114 62 115
REMARK H PARENT 8 15 1 18 1 19 95 27 86 65 52 76
REMARK Flexibility Score: inf
ROOT
ATOM      1  C   UNL A   1      38.165  19.524  24.997  1.00  0.00     0.188 C 
ENDROOT
BRANCH   1   2
ATOM      2  C   UNL A   1      36.920  18.632  25.022  1.00  0.00     0.188 C 
BRANCH   2   3
ATOM      3  O   UNL A   1      35.643  19.173  24.718  1.00  0.00    -0.376 OA
BRANCH   3   4
ATOM      4  C   UNL A   1      34.610  18.294  24.299  1.00  0.00     0.202 C 
BRANCH   4   5
ATOM      5  C   UNL A   1      33.263  18.350  25.039  1.00  0.00     0.261 C 
BRANCH   5   6
ATOM      6  O   UNL A   1      32.480  19.547  24.832  1.00  0.00    -0.459 OA
BRANCH   6   7
ATOM      7  C   UNL A   1      32.567  20.591  25.727  1.00  0.00     0.370 C 
ATOM      8  O   UNL A   1      33.025  20.461  26.858  1.00  0.00    -0.245 OA
BRANCH   7   9
ATOM      9  C   UNL A   1      31.992  21.946  25.162  1.00  0.00     0.329 C 
BRANCH   9  10
ATOM     10  N   UNL A   1      32.837  22.485  24.055  1.00  0.00    -0.309 N 
ATOM     11  C   UNL A   1      34.309  22.442  24.089  1.00  0.00     0.275 C 
ATOM     12  C   UNL A   1      34.574  23.523  23.039  1.00  0.00     0.081 C 
ATOM     13  C   UNL A   1      33.582  23.172  21.936  1.00  0.00     0.068 C 
ATOM     14  C   UNL A   1      32.527  22.312  22.638  1.00  0.00     0.264 C 
ATOM     15  H   UNL A   1      32.456  23.362  24.410  1.00  0.00     0.349 HD
BRANCH  11  16
ATOM     16  C   UNL A   1      34.997  22.665  25.428  1.00  0.00     0.275 C 
ATOM     17  N   UNL A   1      35.459  23.909  25.708  1.00  0.00    -0.365 N 
ATOM     18  H   UNL A   1      35.909  24.085  26.566  1.00  0.00     0.159 HD
ATOM     19  H   UNL A   1      35.346  24.635  25.054  1.00  0.00     0.159 HD
ATOM     20  O   UNL A   1      35.131  21.758  26.247  1.00  0.00    -0.268 OA
ENDBRANCH  11  16
ENDBRANCH   9  10
BRANCH   9  21
ATOM     21  C   UNL A   1      31.670  23.020  26.252  1.00  0.00     0.046 A 
ATOM     22  C   UNL A   1      30.621  22.916  27.157  1.00  0.00     0.094 A 
ATOM     23  C   UNL A   1      31.896  24.444  26.346  1.00  0.00     0.009 A 
ATOM     24  N   UNL A   1      29.792  23.949  26.803  1.00  0.00    -0.361 N 
ATOM     25  C   UNL A   1      30.604  24.976  26.388  1.00  0.00     0.050 A 
ATOM     26  C   UNL A   1      32.949  25.382  26.357  1.00  0.00     0.015 A 
ATOM     27  H   UNL A   1      28.808  23.953  26.838  1.00  0.00     0.166 HD
ATOM     28  C   UNL A   1      30.313  26.297  26.061  1.00  0.00     0.073 A 
ATOM     29  C   UNL A   1      32.676  26.759  26.177  1.00  0.00     0.047 A 
ATOM     30  C   UNL A   1      31.377  27.189  25.922  1.00  0.00     0.121 A 
BRANCH  30  31
ATOM     31  O   UNL A   1      30.981  28.417  25.477  1.00  0.00    -0.489 OA
BRANCH  31  32
ATOM     32  C   UNL A   1      30.670  28.639  24.103  1.00  0.00     0.265 C 
BRANCH  32  33
ATOM     33  C   UNL A   1      31.697  28.015  23.182  1.00  0.00    -0.011 A 
ATOM     34  C   UNL A   1      32.945  28.636  23.015  1.00  0.00     0.007 A 
ATOM     35  C   UNL A   1      31.434  26.842  22.459  1.00  0.00     0.007 A 
ATOM     36  C   UNL A   1      33.890  28.104  22.132  1.00  0.00     0.000 A 
ATOM     37  C   UNL A   1      32.375  26.314  21.578  1.00  0.00     0.000 A 
ATOM     38  C   UNL A   1      33.601  26.950  21.408  1.00  0.00     0.000 A 
ENDBRANCH  32  33
ENDBRANCH  31  32
ENDBRANCH  30  31
ENDBRANCH   9  21
ENDBRANCH   7   9
ENDBRANCH   6   7
ENDBRANCH   5   6
ENDBRANCH   4   5
ENDBRANCH   3   4
ENDBRANCH   2   3
ENDBRANCH   1   2
BRANCH   1  39
ATOM     39  O   UNL A   1      39.321  18.919  25.531  1.00  0.00    -0.377 OA
BRANCH  39  40
ATOM     40  C   UNL A   1      40.425  19.786  25.682  1.00  0.00     0.188 C 
BRANCH  40  41
ATOM     41  C   UNL A   1      40.798  20.058  27.144  1.00  0.00     0.188 C 
BRANCH  41  42
ATOM     42  O   UNL A   1      41.828  21.034  27.302  1.00  0.00    -0.376 OA
BRANCH  42  43
ATOM     43  C   UNL A   1      42.632  21.336  26.167  1.00  0.00     0.202 C 
BRANCH  43  44
ATOM     44  C   UNL A   1      42.680  22.805  25.705  1.00  0.00     0.261 C 
BRANCH  44  45
ATOM     45  O   UNL A   1      43.271  23.740  26.621  1.00  0.00    -0.460 OA
BRANCH  45  46
ATOM     46  C   UNL A   1      43.505  24.994  26.188  1.00  0.00     0.338 C 
ATOM     47  O   UNL A   1      43.979  25.336  25.116  1.00  0.00    -0.246 OA
BRANCH  46  48
ATOM     48  C   UNL A   1      42.852  25.905  27.142  1.00  0.00     0.060 A 
ATOM     49  C   UNL A   1      43.271  27.240  27.178  1.00  0.00     0.016 A 
ATOM     50  C   UNL A   1      41.818  25.456  27.967  1.00  0.00     0.016 A 
ATOM     51  C   UNL A   1      42.666  28.134  28.051  1.00  0.00     0.010 A 
ATOM     52  C   UNL A   1      41.245  26.341  28.880  1.00  0.00     0.010 A 
ATOM     53  C   UNL A   1      41.691  27.672  28.943  1.00  0.00    -0.014 A 
BRANCH  53  54
ATOM     54  C   UNL A   1      41.361  28.516  30.109  1.00  0.00     0.031 A 
ATOM     55  C   UNL A   1      42.211  28.354  31.339  1.00  0.00     0.074 A 
ATOM     56  C   UNL A   1      40.389  29.441  30.050  1.00  0.00     0.049 A 
ATOM     57  N   UNL A   1      42.132  28.965  32.489  1.00  0.00    -0.248 NA
ATOM     58  C   UNL A   1      43.306  27.370  31.254  1.00  0.00     0.031 C 
ATOM     59  C   UNL A   1      39.554  29.721  28.883  1.00  0.00     0.029 A 
ATOM     60  N   UNL A   1      39.943  30.320  31.003  1.00  0.00    -0.354 N 
ATOM     61  C   UNL A   1      43.165  28.448  33.260  1.00  0.00     0.074 A 
ATOM     62  C   UNL A   1      43.839  27.450  32.463  1.00  0.00     0.031 C 
ATOM     63  C   UNL A   1      38.684  30.698  29.195  1.00  0.00     0.029 A 
ATOM     64  C   UNL A   1      38.883  31.091  30.589  1.00  0.00     0.049 A 
ATOM     65  H   UNL A   1      40.346  30.394  31.899  1.00  0.00     0.167 HD
ATOM     66  C   UNL A   1      43.522  28.783  34.520  1.00  0.00     0.037 A 
ATOM     67  C   UNL A   1      38.149  31.989  31.275  1.00  0.00     0.037 A 
ATOM     68  C   UNL A   1      42.834  29.768  35.306  1.00  0.00     0.049 A 
ATOM     69  C   UNL A   1      38.511  32.277  32.712  1.00  0.00     0.074 A 
ATOM     70  C   UNL A   1      43.099  30.178  36.599  1.00  0.00     0.029 A 
ATOM     71  N   UNL A   1      41.734  30.495  34.871  1.00  0.00    -0.354 N 
ATOM     72  N   UNL A   1      39.494  31.787  33.431  1.00  0.00    -0.248 NA
ATOM     73  C   UNL A   1      37.666  33.242  33.430  1.00  0.00     0.031 C 
ATOM     74  C   UNL A   1      42.131  31.117  36.964  1.00  0.00     0.029 A 
ATOM     75  C   UNL A   1      41.296  31.335  35.878  1.00  0.00     0.049 A 
ATOM     76  H   UNL A   1      41.327  30.424  33.977  1.00  0.00     0.167 HD
ATOM     77  C   UNL A   1      39.404  32.407  34.674  1.00  0.00     0.074 A 
ATOM     78  C   UNL A   1      38.279  33.316  34.603  1.00  0.00     0.031 C 
ATOM     79  C   UNL A   1      40.180  32.242  35.774  1.00  0.00     0.037 A 
BRANCH  66  80
ATOM     80  C   UNL A   1      44.688  28.057  35.130  1.00  0.00     0.058 A 
ATOM     81  C   UNL A   1      44.510  26.924  35.940  1.00  0.00     0.135 A 
ATOM     82  C   UNL A   1      46.001  28.482  34.876  1.00  0.00     0.135 A 
ATOM     83  F   UNL A   1      43.274  26.493  36.240  1.00  0.00    -0.206 F 
ATOM     84  C   UNL A   1      45.594  26.245  36.486  1.00  0.00     0.059 A 
ATOM     85  C   UNL A   1      47.100  27.803  35.389  1.00  0.00     0.059 A 
ATOM     86  F   UNL A   1      46.225  29.569  34.120  1.00  0.00    -0.206 F 
ATOM     87  C   UNL A   1      46.886  26.689  36.199  1.00  0.00     0.060 A 
BRANCH  87  88
ATOM     88  S   UNL A   1      48.283  25.780  36.892  1.00  0.00     0.124 S 
ATOM     89  O   UNL A   1      48.441  26.430  38.190  1.00  0.00    -0.237 OA
ATOM     90  O   UNL A   1      47.776  24.412  36.926  1.00  0.00    -0.237 OA
ATOM     91  O   UNL A   1      49.358  26.024  35.935  1.00  0.00    -0.744 OA
ENDBRANCH  87  88
ENDBRANCH  66  80
BRANCH  67  92
ATOM     92  C   UNL A   1      36.988  32.663  30.632  1.00  0.00     0.058 A 
ATOM     93  C   UNL A   1      37.166  33.701  29.704  1.00  0.00     0.135 A 
ATOM     94  C   UNL A   1      35.670  32.302  30.958  1.00  0.00     0.135 A 
ATOM     95  F   UNL A   1      38.405  34.090  29.365  1.00  0.00    -0.206 F 
ATOM     96  C   UNL A   1      36.085  34.374  29.144  1.00  0.00     0.059 A 
ATOM     97  C   UNL A   1      34.572  32.940  30.389  1.00  0.00     0.059 A 
ATOM     98  F   UNL A   1      35.441  31.310  31.832  1.00  0.00    -0.206 F 
ATOM     99  C   UNL A   1      34.791  33.987  29.495  1.00  0.00     0.060 A 
BRANCH  99 100
ATOM    100  S   UNL A   1      33.393  34.851  28.745  1.00  0.00     0.124 S 
ATOM    101  O   UNL A   1      32.993  33.912  27.703  1.00  0.00    -0.237 OA
ATOM    102  O   UNL A   1      32.477  34.984  29.873  1.00  0.00    -0.237 OA
ATOM    103  O   UNL A   1      33.985  36.101  28.276  1.00  0.00    -0.744 OA
ENDBRANCH  99 100
ENDBRANCH  67  92
BRANCH  79 104
ATOM    104  C   UNL A   1      39.869  33.090  36.977  1.00  0.00     0.058 A 
ATOM    105  C   UNL A   1      38.868  32.736  37.894  1.00  0.00     0.135 A 
ATOM    106  C   UNL A   1      40.630  34.241  37.246  1.00  0.00     0.135 A 
ATOM    107  F   UNL A   1      38.110  31.648  37.680  1.00  0.00    -0.206 F 
ATOM    108  C   UNL A   1      38.615  33.506  39.024  1.00  0.00     0.059 A 
ATOM    109  C   UNL A   1      40.414  35.007  38.386  1.00  0.00     0.059 A 
ATOM    110  F   UNL A   1      41.609  34.616  36.409  1.00  0.00    -0.206 F 
ATOM    111  C   UNL A   1      39.396  34.638  39.263  1.00  0.00     0.060 A 
BRANCH 111 112
ATOM    112  S   UNL A   1      39.080  35.606  40.752  1.00  0.00     0.124 S 
ATOM    113  O   UNL A   1      37.899  34.940  41.291  1.00  0.00    -0.237 OA
ATOM    114  O   UNL A   1      40.313  35.422  41.512  1.00  0.00    -0.237 OA
ATOM    115  O   UNL A   1      38.861  36.955  40.241  1.00  0.00    -0.744 OA
ENDBRANCH 111 112
ENDBRANCH  79 104
ENDBRANCH  53  54
ENDBRANCH  46  48
ENDBRANCH  45  46
ENDBRANCH  44  45
ENDBRANCH  43  44
ENDBRANCH  42  43
ENDBRANCH  41  42
ENDBRANCH  40  41
ENDBRANCH  39  40
ENDBRANCH   1  39
TORSDOF 29
ENDMDL
MODEL 3
REMARK VINA RESULT:      -8.7      5.775      8.466
REMARK SMILES NC(=O)[C@@H]1CCC[N@H+]1[C@@H](C(=O)OCCOCCOCCOCCOC(=O)c1ccc(-c2c3nc(c(-c4c(F)cc(S(=O)(=O)[O-])cc4F)c4ccc([nH]4)c(-c4c(F)cc(S(=O)(=O)[O-])cc4F)c4nc(c(-c5c(F)cc(S(=O)(=O)[O-])cc5F)c5ccc2[nH]5)C=C4)C=C3)cc1)c1c[nH]c2cc(OCc3ccccc3)ccc12
REMARK SMILES IDX 17 1 16 2 15 3 14 4 13 5 12 6 10 7 11 8 9 9 8 10 4 11 5 12
REMARK SMILES IDX 6 13 7 14 2 16 1 17 3 20 93 21 94 22 109 23 95 24 96 25
REMARK SMILES IDX 108 26 97 28 107 29 98 30 99 31 100 32 101 33 102 34 106 35
REMARK SMILES IDX 103 36 105 37 104 38 18 39 19 40 20 41 21 42 22 43 23 44
REMARK SMILES IDX 24 45 25 46 26 47 27 48 28 49 92 50 29 51 91 52 30 53 31 54
REMARK SMILES IDX 32 55 85 56 33 57 90 58 84 59 86 60 34 61 89 62 83 63 82 64
REMARK SMILES IDX 35 66 69 67 48 68 68 69 49 70 52 71 67 72 87 73 50 74 51 75
REMARK SMILES IDX 66 77 88 78 53 79 36 80 37 81 46 82 38 83 39 84 45 85 47 86
REMARK SMILES IDX 40 87 41 88 42 89 43 90 44 91 70 92 71 93 80 94 72 95 73 96
REMARK SMILES IDX 79 97 81 98 74 99 75 100 76 101 77 102 78 103 54 104 55 105
REMARK SMILES IDX 64 106 56 107 57 108 63 109 65 110 58 111 59 112 60 113
REMARK SMILES IDX 61 114 62 115
REMARK H PARENT 8 15 1 18 1 19 95 27 86 65 52 76
REMARK Flexibility Score: inf
ROOT
ATOM      1  C   UNL A   1      37.929  22.782  25.869  1.00  0.00     0.188 C 
ENDROOT
BRANCH   1   2
ATOM      2  C   UNL A   1      36.672  22.364  25.101  1.00  0.00     0.188 C 
BRANCH   2   3
ATOM      3  O   UNL A   1      35.629  23.299  24.868  1.00  0.00    -0.376 OA
BRANCH   3   4
ATOM      4  C   UNL A   1      34.777  23.110  23.749  1.00  0.00     0.202 C 
BRANCH   4   5
ATOM      5  C   UNL A   1      33.899  24.288  23.296  1.00  0.00     0.261 C 
BRANCH   5   6
ATOM      6  O   UNL A   1      34.138  25.545  23.966  1.00  0.00    -0.459 OA
BRANCH   6   7
ATOM      7  C   UNL A   1      33.441  26.672  23.586  1.00  0.00     0.370 C 
ATOM      8  O   UNL A   1      33.804  27.402  22.669  1.00  0.00    -0.245 OA
BRANCH   7   9
ATOM      9  C   UNL A   1      32.160  26.938  24.465  1.00  0.00     0.329 C 
BRANCH   9  10
ATOM     10  N   UNL A   1      31.207  27.866  23.787  1.00  0.00    -0.309 N 
ATOM     11  C   UNL A   1      29.746  27.713  23.885  1.00  0.00     0.275 C 
ATOM     12  C   UNL A   1      29.365  28.550  22.662  1.00  0.00     0.081 C 
ATOM     13  C   UNL A   1      30.260  29.775  22.799  1.00  0.00     0.068 C 
ATOM     14  C   UNL A   1      31.392  29.314  23.722  1.00  0.00     0.264 C 
ATOM     15  H   UNL A   1      31.601  27.409  22.964  1.00  0.00     0.349 HD
BRANCH  11  16
ATOM     16  C   UNL A   1      29.177  26.302  23.901  1.00  0.00     0.275 C 
ATOM     17  N   UNL A   1      27.829  26.158  23.933  1.00  0.00    -0.365 N 
ATOM     18  H   UNL A   1      27.431  25.257  23.945  1.00  0.00     0.159 HD
ATOM     19  H   UNL A   1      27.250  26.952  23.946  1.00  0.00     0.159 HD
ATOM     20  O   UNL A   1      29.904  25.310  23.877  1.00  0.00    -0.268 OA
ENDBRANCH  11  16
ENDBRANCH   9  10
BRANCH   9  21
ATOM     21  C   UNL A   1      32.460  27.358  25.942  1.00  0.00     0.046 A 
ATOM     22  C   UNL A   1      31.529  27.293  26.972  1.00  0.00     0.094 A 
ATOM     23  C   UNL A   1      33.384  28.290  26.545  1.00  0.00     0.009 A 
ATOM     24  N   UNL A   1      31.335  28.607  27.307  1.00  0.00    -0.361 N 
ATOM     25  C   UNL A   1      32.547  29.234  27.148  1.00  0.00     0.050 A 
ATOM     26  C   UNL A   1      34.768  28.537  26.655  1.00  0.00     0.015 A 
ATOM     27  H   UNL A   1      30.492  29.021  27.605  1.00  0.00     0.166 HD
ATOM     28  C   UNL A   1      32.963  30.520  27.481  1.00  0.00     0.073 A 
ATOM     29  C   UNL A   1      35.232  29.786  27.134  1.00  0.00     0.047 A 
ATOM     30  C   UNL A   1      34.329  30.799  27.437  1.00  0.00     0.121 A 
BRANCH  30  31
ATOM     31  O   UNL A   1      34.604  32.118  27.658  1.00  0.00    -0.489 OA
BRANCH  31  32
ATOM     32  C   UNL A   1      35.159  32.558  28.897  1.00  0.00     0.265 C 
BRANCH  32  33
ATOM     33  C   UNL A   1      34.424  33.759  29.453  1.00  0.00    -0.011 A 
ATOM     34  C   UNL A   1      33.716  34.602  28.582  1.00  0.00     0.007 A 
ATOM     35  C   UNL A   1      34.450  34.081  30.817  1.00  0.00     0.007 A 
ATOM     36  C   UNL A   1      33.072  35.744  29.066  1.00  0.00     0.000 A 
ATOM     37  C   UNL A   1      33.809  35.220  31.300  1.00  0.00     0.000 A 
ATOM     38  C   UNL A   1      33.127  36.057  30.422  1.00  0.00     0.000 A 
ENDBRANCH  32  33
ENDBRANCH  31  32
ENDBRANCH  30  31
ENDBRANCH   9  21
ENDBRANCH   7   9
ENDBRANCH   6   7
ENDBRANCH   5   6
ENDBRANCH   4   5
ENDBRANCH   3   4
ENDBRANCH   2   3
ENDBRANCH   1   2
BRANCH   1  39
ATOM     39  O   UNL A   1      38.823  21.724  26.134  1.00  0.00    -0.377 OA
BRANCH  39  40
ATOM     40  C   UNL A   1      40.178  22.108  26.238  1.00  0.00     0.188 C 
BRANCH  40  41
ATOM     41  C   UNL A   1      40.529  22.766  27.578  1.00  0.00     0.188 C 
BRANCH  41  42
ATOM     42  O   UNL A   1      41.695  23.589  27.525  1.00  0.00    -0.376 OA
BRANCH  42  43
ATOM     43  C   UNL A   1      42.158  23.999  26.243  1.00  0.00     0.202 C 
BRANCH  43  44
ATOM     44  C   UNL A   1      42.908  25.342  26.158  1.00  0.00     0.261 C 
BRANCH  44  45
ATOM     45  O   UNL A   1      43.729  25.683  27.287  1.00  0.00    -0.460 OA
BRANCH  45  46
ATOM     46  C   UNL A   1      44.772  26.512  27.088  1.00  0.00     0.338 C 
ATOM     47  O   UNL A   1      45.626  26.439  26.219  1.00  0.00    -0.246 OA
BRANCH  46  48
ATOM     48  C   UNL A   1      44.563  27.679  27.959  1.00  0.00     0.060 A 
ATOM     49  C   UNL A   1      43.572  28.602  27.606  1.00  0.00     0.016 A 
ATOM     50  C   UNL A   1      45.314  27.845  29.126  1.00  0.00     0.016 A 
ATOM     51  C   UNL A   1      43.332  29.706  28.413  1.00  0.00     0.010 A 
ATOM     52  C   UNL A   1      45.108  28.980  29.910  1.00  0.00     0.010 A 
ATOM     53  C   UNL A   1      44.139  29.927  29.535  1.00  0.00    -0.014 A 
BRANCH  53  54
ATOM     54  C   UNL A   1      44.143  31.277  30.133  1.00  0.00     0.031 A 
ATOM     55  C   UNL A   1      45.084  32.289  29.541  1.00  0.00     0.074 A 
ATOM     56  C   UNL A   1      43.291  31.609  31.117  1.00  0.00     0.049 A 
ATOM     57  N   UNL A   1      45.285  33.534  29.879  1.00  0.00    -0.248 NA
ATOM     58  C   UNL A   1      45.907  31.833  28.405  1.00  0.00     0.031 C 
ATOM     59  C   UNL A   1      42.295  30.719  31.713  1.00  0.00     0.029 A 
ATOM     60  N   UNL A   1      43.129  32.794  31.787  1.00  0.00    -0.354 N 
ATOM     61  C   UNL A   1      46.247  34.010  28.998  1.00  0.00     0.074 A 
ATOM     62  C   UNL A   1      46.617  32.916  28.130  1.00  0.00     0.031 C 
ATOM     63  C   UNL A   1      41.633  31.389  32.673  1.00  0.00     0.029 A 
ATOM     64  C   UNL A   1      42.178  32.742  32.778  1.00  0.00     0.049 A 
ATOM     65  H   UNL A   1      43.644  33.607  31.577  1.00  0.00     0.167 HD
ATOM     66  C   UNL A   1      46.770  35.254  28.917  1.00  0.00     0.037 A 
ATOM     67  C   UNL A   1      41.816  33.678  33.677  1.00  0.00     0.037 A 
ATOM     68  C   UNL A   1      46.403  36.329  29.796  1.00  0.00     0.049 A 
ATOM     69  C   UNL A   1      42.483  35.031  33.625  1.00  0.00     0.074 A 
ATOM     70  C   UNL A   1      46.879  37.627  29.816  1.00  0.00     0.029 A 
ATOM     71  N   UNL A   1      45.471  36.226  30.820  1.00  0.00    -0.354 N 
ATOM     72  N   UNL A   1      43.388  35.475  32.784  1.00  0.00    -0.248 NA
ATOM     73  C   UNL A   1      42.078  36.012  34.643  1.00  0.00     0.031 C 
ATOM     74  C   UNL A   1      46.271  38.295  30.882  1.00  0.00     0.029 A 
ATOM     75  C   UNL A   1      45.373  37.431  31.491  1.00  0.00     0.049 A 
ATOM     76  H   UNL A   1      44.955  35.416  31.035  1.00  0.00     0.167 HD
ATOM     77  C   UNL A   1      43.638  36.794  33.152  1.00  0.00     0.074 A 
ATOM     78  C   UNL A   1      42.778  37.078  34.283  1.00  0.00     0.031 C 
ATOM     79  C   UNL A   1      44.497  37.690  32.606  1.00  0.00     0.037 A 
BRANCH  66  80
ATOM     80  C   UNL A   1      47.812  35.505  27.864  1.00  0.00     0.058 A 
ATOM     81  C   UNL A   1      49.163  35.178  28.069  1.00  0.00     0.135 A 
ATOM     82  C   UNL A   1      47.450  36.051  26.623  1.00  0.00     0.135 A 
ATOM     83  F   UNL A   1      49.568  34.681  29.249  1.00  0.00    -0.206 F 
ATOM     84  C   UNL A   1      50.119  35.395  27.083  1.00  0.00     0.059 A 
ATOM     85  C   UNL A   1      48.386  36.252  25.614  1.00  0.00     0.059 A 
ATOM     86  F   UNL A   1      46.175  36.395  26.382  1.00  0.00    -0.206 F 
ATOM     87  C   UNL A   1      49.719  35.927  25.856  1.00  0.00     0.060 A 
BRANCH  87  88
ATOM     88  S   UNL A   1      50.968  36.175  24.577  1.00  0.00     0.124 S 
ATOM     89  O   UNL A   1      51.419  34.806  24.340  1.00  0.00    -0.237 OA
ATOM     90  O   UNL A   1      50.193  36.782  23.500  1.00  0.00    -0.237 OA
ATOM     91  O   UNL A   1      51.942  37.053  25.217  1.00  0.00    -0.744 OA
ENDBRANCH  87  88
ENDBRANCH  66  80
BRANCH  67  92
ATOM     92  C   UNL A   1      40.796  33.371  34.717  1.00  0.00     0.058 A 
ATOM     93  C   UNL A   1      41.160  32.841  35.964  1.00  0.00     0.135 A 
ATOM     94  C   UNL A   1      39.427  33.571  34.470  1.00  0.00     0.135 A 
ATOM     95  F   UNL A   1      42.453  32.622  36.246  1.00  0.00    -0.206 F 
ATOM     96  C   UNL A   1      40.207  32.496  36.917  1.00  0.00     0.059 A 
ATOM     97  C   UNL A   1      38.458  33.261  35.418  1.00  0.00     0.059 A 
ATOM     98  F   UNL A   1      39.023  34.084  33.297  1.00  0.00    -0.206 F 
ATOM     99  C   UNL A   1      38.857  32.709  36.634  1.00  0.00     0.060 A 
BRANCH  99 100
ATOM    100  S   UNL A   1      37.629  32.279  37.887  1.00  0.00     0.124 S 
ATOM    101  O   UNL A   1      38.306  32.687  39.112  1.00  0.00    -0.237 OA
ATOM    102  O   UNL A   1      36.486  33.094  37.485  1.00  0.00    -0.237 OA
ATOM    103  O   UNL A   1      37.457  30.840  37.707  1.00  0.00    -0.744 OA
ENDBRANCH  99 100
ENDBRANCH  67  92
BRANCH  79 104
ATOM    104  C   UNL A   1      44.521  39.075  33.192  1.00  0.00     0.058 A 
ATOM    105  C   UNL A   1      43.664  40.088  32.735  1.00  0.00     0.135 A 
ATOM    106  C   UNL A   1      45.371  39.371  34.272  1.00  0.00     0.135 A 
ATOM    107  F   UNL A   1      42.836  39.857  31.704  1.00  0.00    -0.206 F 
ATOM    108  C   UNL A   1      43.667  41.353  33.311  1.00  0.00     0.059 A 
ATOM    109  C   UNL A   1      45.367  40.620  34.882  1.00  0.00     0.059 A 
ATOM    110  F   UNL A   1      46.199  38.433  34.757  1.00  0.00    -0.206 F 
ATOM    111  C   UNL A   1      44.518  41.608  34.388  1.00  0.00     0.060 A 
BRANCH 111 112
ATOM    112  S   UNL A   1      44.483  43.244  35.148  1.00  0.00     0.124 S 
ATOM    113  O   UNL A   1      43.147  43.707  34.788  1.00  0.00    -0.237 OA
ATOM    114  O   UNL A   1      44.688  42.936  36.560  1.00  0.00    -0.237 OA
ATOM    115  O   UNL A   1      45.587  43.945  34.498  1.00  0.00    -0.744 OA
ENDBRANCH 111 112
ENDBRANCH  79 104
ENDBRANCH  53  54
ENDBRANCH  46  48
ENDBRANCH  45  46
ENDBRANCH  44  45
ENDBRANCH  43  44
ENDBRANCH  42  43
ENDBRANCH  41  42
ENDBRANCH  40  41
ENDBRANCH  39  40
ENDBRANCH   1  39
TORSDOF 29
ENDMDL
