MODEL 1
REMARK VINA RESULT:     -10.8      0.000      0.000
REMARK SMILES Cc1cccc(-n2c(C)cc(/C=N\c3ccc(O)c(C(=O)OCCOCCOCCOCCOC(=O)c4ccc(-c5c6nc(c(-c7c(F)cc(S(=O)(=O)[O-])cc7F)c7ccc([nH]7)c(-c7c(F)cc(S(=O)(=O)[O-])cc7F)c7nc(c(-c8c(F)cc(S(=O)(=O)[O-])cc8F)c8ccc5[nH]8)C=C7)C=C6)cc4)c3)c2C)c1
REMARK SMILES IDX 28 1 27 2 26 3 25 4 24 5 23 6 22 7 20 8 21 9 19 10 14 11
REMARK SMILES IDX 15 12 103 13 16 14 17 15 13 16 12 17 11 18 7 19 8 20 104 21
REMARK SMILES IDX 9 22 10 23 105 24 6 25 1 26 2 27 3 28 106 29 4 30 5 31 18 32
REMARK SMILES IDX 29 34 30 35 31 36 32 37 33 38 34 39 35 40 36 41 37 42 38 43
REMARK SMILES IDX 102 44 39 45 101 46 40 47 41 48 42 49 95 50 43 51 100 52
REMARK SMILES IDX 94 53 96 54 44 55 99 56 93 57 92 58 45 60 79 61 58 62 78 63
REMARK SMILES IDX 59 64 62 65 77 66 97 67 60 68 61 69 76 71 98 72 63 73 46 74
REMARK SMILES IDX 47 75 56 76 48 77 49 78 55 79 57 80 50 81 51 82 52 83 53 84
REMARK SMILES IDX 54 85 80 86 81 87 90 88 82 89 83 90 89 91 91 92 84 93 85 94
REMARK SMILES IDX 86 95 87 96 88 97 64 98 65 99 74 100 66 101 67 102 73 103
REMARK SMILES IDX 75 104 68 105 69 106 70 107 71 108 72 109
REMARK H PARENT 18 33 96 59 62 70
REMARK Flexibility Score: inf
ROOT
ATOM      1  O   UNL A   1      36.363  20.631  25.766  1.00  0.00    -0.377 OA
ENDROOT
BRANCH   1   2
ATOM      2  C   UNL A   1      36.459  19.769  24.652  1.00  0.00     0.188 C 
BRANCH   2   3
ATOM      3  C   UNL A   1      35.838  18.359  24.821  1.00  0.00     0.188 C 
BRANCH   3   4
ATOM      4  O   UNL A   1      34.601  17.968  24.232  1.00  0.00    -0.376 OA
BRANCH   4   5
ATOM      5  C   UNL A   1      33.668  17.182  24.953  1.00  0.00     0.202 C 
BRANCH   5   6
ATOM      6  C   UNL A   1      32.689  17.992  25.762  1.00  0.00     0.261 C 
BRANCH   6   7
ATOM      7  O   UNL A   1      32.416  19.144  24.968  1.00  0.00    -0.460 OA
BRANCH   7   8
ATOM      8  C   UNL A   1      32.658  20.248  25.674  1.00  0.00     0.342 C 
ATOM      9  O   UNL A   1      33.451  20.359  26.583  1.00  0.00    -0.246 OA
BRANCH   8  10
ATOM     10  C   UNL A   1      31.948  21.367  25.025  1.00  0.00     0.103 A 
ATOM     11  C   UNL A   1      32.123  22.779  23.106  1.00  0.00     0.064 A 
ATOM     12  C   UNL A   1      31.147  23.638  23.605  1.00  0.00     0.032 A 
ATOM     13  C   UNL A   1      32.402  21.582  23.737  1.00  0.00     0.048 A 
ATOM     14  C   UNL A   1      30.592  23.379  24.860  1.00  0.00     0.049 A 
ATOM     15  C   UNL A   1      31.045  22.276  25.595  1.00  0.00     0.130 A 
BRANCH  11  16
ATOM     16  N   UNL A   1      32.923  23.065  22.021  1.00  0.00    -0.256 NA
ATOM     17  C   UNL A   1      33.674  24.130  22.022  1.00  0.00     0.121 C 
BRANCH  17  18
ATOM     18  C   UNL A   1      33.736  25.367  22.826  1.00  0.00     0.014 A 
ATOM     19  N   UNL A   1      33.620  27.102  24.304  1.00  0.00    -0.318 N 
ATOM     20  C   UNL A   1      33.392  27.621  23.053  1.00  0.00     0.021 A 
ATOM     21  C   UNL A   1      33.869  25.738  24.174  1.00  0.00     0.029 A 
ATOM     22  C   UNL A   1      33.052  29.037  22.805  1.00  0.00     0.065 C 
ATOM     23  C   UNL A   1      33.563  26.608  22.140  1.00  0.00     0.033 A 
ATOM     24  C   UNL A   1      34.118  24.979  25.414  1.00  0.00     0.065 C 
BRANCH  19  25
ATOM     25  C   UNL A   1      33.385  27.756  25.550  1.00  0.00     0.046 A 
ATOM     26  C   UNL A   1      35.301  30.172  27.776  1.00  0.00     0.044 C 
ATOM     27  C   UNL A   1      34.186  29.384  27.158  1.00  0.00    -0.049 A 
ATOM     28  C   UNL A   1      32.868  29.578  27.596  1.00  0.00     0.003 A 
ATOM     29  C   UNL A   1      34.442  28.469  26.127  1.00  0.00     0.030 A 
ATOM     30  C   UNL A   1      31.819  28.848  27.035  1.00  0.00     0.002 A 
ATOM     31  C   UNL A   1      32.075  27.919  26.026  1.00  0.00     0.026 A 
ENDBRANCH  19  25
ENDBRANCH  17  18
ENDBRANCH  11  16
BRANCH  15  32
ATOM     32  O   UNL A   1      30.613  22.214  26.883  1.00  0.00    -0.507 OA
ATOM     33  H   UNL A   1      29.697  22.273  27.073  1.00  0.00     0.293 HD
ENDBRANCH  15  32
ENDBRANCH   8  10
ENDBRANCH   7   8
ENDBRANCH   6   7
ENDBRANCH   5   6
ENDBRANCH   4   5
ENDBRANCH   3   4
ENDBRANCH   2   3
ENDBRANCH   1   2
BRANCH   1  34
ATOM     34  C   UNL A   1      36.451  22.013  25.446  1.00  0.00     0.188 C 
BRANCH  34  35
ATOM     35  C   UNL A   1      37.811  22.554  25.037  1.00  0.00     0.188 C 
BRANCH  35  36
ATOM     36  O   UNL A   1      38.602  23.046  26.091  1.00  0.00    -0.376 OA
BRANCH  36  37
ATOM     37  C   UNL A   1      39.424  22.091  26.763  1.00  0.00     0.202 C 
BRANCH  37  38
ATOM     38  C   UNL A   1      40.976  22.078  26.610  1.00  0.00     0.261 C 
BRANCH  38  39
ATOM     39  O   UNL A   1      41.434  23.184  25.787  1.00  0.00    -0.460 OA
BRANCH  39  40
ATOM     40  C   UNL A   1      42.364  24.033  26.327  1.00  0.00     0.338 C 
ATOM     41  O   UNL A   1      43.570  23.891  26.255  1.00  0.00    -0.246 OA
BRANCH  40  42
ATOM     42  C   UNL A   1      41.674  25.203  26.967  1.00  0.00     0.060 A 
ATOM     43  C   UNL A   1      41.202  26.277  26.206  1.00  0.00     0.016 A 
ATOM     44  C   UNL A   1      41.710  25.334  28.351  1.00  0.00     0.016 A 
ATOM     45  C   UNL A   1      41.051  27.546  26.799  1.00  0.00     0.010 A 
ATOM     46  C   UNL A   1      41.702  26.608  28.904  1.00  0.00     0.010 A 
ATOM     47  C   UNL A   1      41.452  27.742  28.123  1.00  0.00    -0.014 A 
BRANCH  47  48
ATOM     48  C   UNL A   1      41.849  29.053  28.692  1.00  0.00     0.031 A 
ATOM     49  C   UNL A   1      40.845  29.876  29.459  1.00  0.00     0.074 A 
ATOM     50  C   UNL A   1      43.180  29.345  28.803  1.00  0.00     0.049 A 
ATOM     51  N   UNL A   1      41.126  30.971  30.070  1.00  0.00    -0.248 NA
ATOM     52  C   UNL A   1      39.454  29.500  29.704  1.00  0.00     0.031 C 
ATOM     53  C   UNL A   1      43.803  30.430  29.554  1.00  0.00     0.029 A 
ATOM     54  N   UNL A   1      44.297  28.723  28.229  1.00  0.00    -0.354 N 
ATOM     55  C   UNL A   1      40.139  31.290  30.981  1.00  0.00     0.074 A 
ATOM     56  C   UNL A   1      39.093  30.348  30.679  1.00  0.00     0.031 C 
ATOM     57  C   UNL A   1      45.108  30.541  29.283  1.00  0.00     0.029 A 
ATOM     58  C   UNL A   1      45.352  29.653  28.184  1.00  0.00     0.049 A 
ATOM     59  H   UNL A   1      44.338  27.792  27.913  1.00  0.00     0.167 HD
ATOM     60  C   UNL A   1      40.408  32.267  31.910  1.00  0.00     0.037 A 
ATOM     61  C   UNL A   1      45.755  30.103  26.969  1.00  0.00     0.037 A 
ATOM     62  C   UNL A   1      41.659  32.986  31.529  1.00  0.00     0.049 A 
ATOM     63  C   UNL A   1      45.217  31.545  26.815  1.00  0.00     0.074 A 
ATOM     64  C   UNL A   1      42.878  33.259  32.125  1.00  0.00     0.029 A 
ATOM     65  N   UNL A   1      41.822  33.366  30.186  1.00  0.00    -0.354 N 
ATOM     66  N   UNL A   1      44.098  31.984  27.378  1.00  0.00    -0.248 NA
ATOM     67  C   UNL A   1      46.066  32.661  26.399  1.00  0.00     0.031 C 
ATOM     68  C   UNL A   1      43.807  33.626  31.089  1.00  0.00     0.029 A 
ATOM     69  C   UNL A   1      43.145  33.626  29.861  1.00  0.00     0.049 A 
ATOM     70  H   UNL A   1      41.079  33.441  29.544  1.00  0.00     0.167 HD
ATOM     71  C   UNL A   1      44.177  33.348  27.601  1.00  0.00     0.074 A 
ATOM     72  C   UNL A   1      45.404  33.723  26.900  1.00  0.00     0.031 C 
ATOM     73  C   UNL A   1      43.494  34.124  28.523  1.00  0.00     0.037 A 
BRANCH  60  74
ATOM     74  C   UNL A   1      39.626  32.537  33.217  1.00  0.00     0.058 A 
ATOM     75  C   UNL A   1      39.238  31.476  34.075  1.00  0.00     0.135 A 
ATOM     76  C   UNL A   1      39.168  33.802  33.662  1.00  0.00     0.135 A 
ATOM     77  F   UNL A   1      39.554  30.206  33.792  1.00  0.00    -0.206 F 
ATOM     78  C   UNL A   1      38.503  31.656  35.263  1.00  0.00     0.059 A 
ATOM     79  C   UNL A   1      38.467  34.011  34.866  1.00  0.00     0.059 A 
ATOM     80  F   UNL A   1      39.338  34.911  32.936  1.00  0.00    -0.206 F 
ATOM     81  C   UNL A   1      38.137  32.931  35.666  1.00  0.00     0.060 A 
BRANCH  81  82
ATOM     82  S   UNL A   1      37.259  33.158  37.232  1.00  0.00     0.124 S 
ATOM     83  O   UNL A   1      38.039  34.208  37.879  1.00  0.00    -0.237 OA
ATOM     84  O   UNL A   1      35.923  33.543  36.787  1.00  0.00    -0.237 OA
ATOM     85  O   UNL A   1      37.342  31.845  37.866  1.00  0.00    -0.744 OA
ENDBRANCH  81  82
ENDBRANCH  60  74
BRANCH  61  86
ATOM     86  C   UNL A   1      46.149  28.889  26.151  1.00  0.00     0.058 A 
ATOM     87  C   UNL A   1      47.471  28.421  26.418  1.00  0.00     0.135 A 
ATOM     88  C   UNL A   1      45.238  27.880  25.784  1.00  0.00     0.135 A 
ATOM     89  F   UNL A   1      48.422  29.306  26.758  1.00  0.00    -0.206 F 
ATOM     90  C   UNL A   1      47.806  27.062  26.527  1.00  0.00     0.059 A 
ATOM     91  C   UNL A   1      45.561  26.503  25.872  1.00  0.00     0.059 A 
ATOM     92  F   UNL A   1      43.973  28.205  25.477  1.00  0.00    -0.206 F 
ATOM     93  C   UNL A   1      46.827  26.104  26.305  1.00  0.00     0.060 A 
BRANCH  93  94
ATOM     94  S   UNL A   1      47.196  24.370  26.717  1.00  0.00     0.124 S 
ATOM     95  O   UNL A   1      48.622  24.422  27.021  1.00  0.00    -0.237 OA
ATOM     96  O   UNL A   1      46.316  24.110  27.854  1.00  0.00    -0.237 OA
ATOM     97  O   UNL A   1      46.831  23.657  25.500  1.00  0.00    -0.744 OA
ENDBRANCH  93  94
ENDBRANCH  61  86
BRANCH  73  98
ATOM     98  C   UNL A   1      43.022  35.546  28.203  1.00  0.00     0.058 A 
ATOM     99  C   UNL A   1      43.217  36.637  29.062  1.00  0.00     0.135 A 
ATOM    100  C   UNL A   1      42.540  35.885  26.903  1.00  0.00     0.135 A 
ATOM    101  F   UNL A   1      43.712  36.485  30.296  1.00  0.00    -0.206 F 
ATOM    102  C   UNL A   1      42.939  37.949  28.676  1.00  0.00     0.059 A 
ATOM    103  C   UNL A   1      42.329  37.191  26.477  1.00  0.00     0.059 A 
ATOM    104  F   UNL A   1      42.270  34.965  25.967  1.00  0.00    -0.206 F 
ATOM    105  C   UNL A   1      42.511  38.216  27.381  1.00  0.00     0.060 A 
BRANCH 105 106
ATOM    106  S   UNL A   1      42.210  39.916  26.886  1.00  0.00     0.124 S 
ATOM    107  O   UNL A   1      42.235  40.596  28.177  1.00  0.00    -0.237 OA
ATOM    108  O   UNL A   1      43.341  40.188  26.004  1.00  0.00    -0.237 OA
ATOM    109  O   UNL A   1      40.909  39.858  26.228  1.00  0.00    -0.744 OA
ENDBRANCH 105 106
ENDBRANCH  73  98
ENDBRANCH  47  48
ENDBRANCH  40  42
ENDBRANCH  39  40
ENDBRANCH  38  39
ENDBRANCH  37  38
ENDBRANCH  36  37
ENDBRANCH  35  36
ENDBRANCH  34  35
ENDBRANCH   1  34
TORSDOF 27
ENDMDL
MODEL 2
REMARK VINA RESULT:     -10.1      1.463      2.253
REMARK SMILES Cc1cccc(-n2c(C)cc(/C=N\c3ccc(O)c(C(=O)OCCOCCOCCOCCOC(=O)c4ccc(-c5c6nc(c(-c7c(F)cc(S(=O)(=O)[O-])cc7F)c7ccc([nH]7)c(-c7c(F)cc(S(=O)(=O)[O-])cc7F)c7nc(c(-c8c(F)cc(S(=O)(=O)[O-])cc8F)c8ccc5[nH]8)C=C7)C=C6)cc4)c3)c2C)c1
REMARK SMILES IDX 28 1 27 2 26 3 25 4 24 5 23 6 22 7 20 8 21 9 19 10 14 11
REMARK SMILES IDX 15 12 103 13 16 14 17 15 13 16 12 17 11 18 7 19 8 20 104 21
REMARK SMILES IDX 9 22 10 23 105 24 6 25 1 26 2 27 3 28 106 29 4 30 5 31 18 32
REMARK SMILES IDX 29 34 30 35 31 36 32 37 33 38 34 39 35 40 36 41 37 42 38 43
REMARK SMILES IDX 102 44 39 45 101 46 40 47 41 48 42 49 95 50 43 51 100 52
REMARK SMILES IDX 94 53 96 54 44 55 99 56 93 57 92 58 45 60 79 61 58 62 78 63
REMARK SMILES IDX 59 64 62 65 77 66 97 67 60 68 61 69 76 71 98 72 63 73 46 74
REMARK SMILES IDX 47 75 56 76 48 77 49 78 55 79 57 80 50 81 51 82 52 83 53 84
REMARK SMILES IDX 54 85 80 86 81 87 90 88 82 89 83 90 89 91 91 92 84 93 85 94
REMARK SMILES IDX 86 95 87 96 88 97 64 98 65 99 74 100 66 101 67 102 73 103
REMARK SMILES IDX 75 104 68 105 69 106 70 107 71 108 72 109
REMARK H PARENT 18 33 96 59 62 70
REMARK Flexibility Score: inf
ROOT
ATOM      1  O   UNL A   1      36.106  20.078  25.302  1.00  0.00    -0.377 OA
ENDROOT
BRANCH   1   2
ATOM      2  C   UNL A   1      36.490  18.900  24.625  1.00  0.00     0.188 C 
BRANCH   2   3
ATOM      3  C   UNL A   1      35.520  17.698  24.734  1.00  0.00     0.188 C 
BRANCH   3   4
ATOM      4  O   UNL A   1      34.504  17.416  23.775  1.00  0.00    -0.376 OA
BRANCH   4   5
ATOM      5  C   UNL A   1      33.274  16.832  24.169  1.00  0.00     0.202 C 
BRANCH   5   6
ATOM      6  C   UNL A   1      32.378  17.766  24.940  1.00  0.00     0.261 C 
BRANCH   6   7
ATOM      7  O   UNL A   1      32.575  19.045  24.344  1.00  0.00    -0.460 OA
BRANCH   7   8
ATOM      8  C   UNL A   1      32.546  19.991  25.281  1.00  0.00     0.342 C 
ATOM      9  O   UNL A   1      33.093  19.948  26.362  1.00  0.00    -0.246 OA
BRANCH   8  10
ATOM     10  C   UNL A   1      31.910  21.189  24.700  1.00  0.00     0.103 A 
ATOM     11  C   UNL A   1      32.200  22.721  22.891  1.00  0.00     0.064 A 
ATOM     12  C   UNL A   1      31.258  23.593  23.430  1.00  0.00     0.032 A 
ATOM     13  C   UNL A   1      32.403  21.469  23.440  1.00  0.00     0.048 A 
ATOM     14  C   UNL A   1      30.661  23.275  24.652  1.00  0.00     0.049 A 
ATOM     15  C   UNL A   1      31.040  22.101  25.316  1.00  0.00     0.130 A 
BRANCH  11  16
ATOM     16  N   UNL A   1      33.038  23.040  21.845  1.00  0.00    -0.256 NA
ATOM     17  C   UNL A   1      33.779  24.110  21.900  1.00  0.00     0.121 C 
BRANCH  17  18
ATOM     18  C   UNL A   1      33.799  25.328  22.736  1.00  0.00     0.014 A 
ATOM     19  N   UNL A   1      33.632  27.016  24.263  1.00  0.00    -0.318 N 
ATOM     20  C   UNL A   1      33.346  27.555  23.031  1.00  0.00     0.021 A 
ATOM     21  C   UNL A   1      33.947  25.671  24.089  1.00  0.00     0.029 A 
ATOM     22  C   UNL A   1      32.929  28.958  22.830  1.00  0.00     0.065 C 
ATOM     23  C   UNL A   1      33.545  26.576  22.088  1.00  0.00     0.033 A 
ATOM     24  C   UNL A   1      34.264  24.893  25.302  1.00  0.00     0.065 C 
BRANCH  19  25
ATOM     25  C   UNL A   1      33.396  27.625  25.531  1.00  0.00     0.046 A 
ATOM     26  C   UNL A   1      35.137  30.235  27.681  1.00  0.00     0.044 C 
ATOM     27  C   UNL A   1      34.090  29.323  27.116  1.00  0.00    -0.049 A 
ATOM     28  C   UNL A   1      32.788  29.351  27.634  1.00  0.00     0.003 A 
ATOM     29  C   UNL A   1      34.392  28.456  26.056  1.00  0.00     0.030 A 
ATOM     30  C   UNL A   1      31.802  28.504  27.123  1.00  0.00     0.002 A 
ATOM     31  C   UNL A   1      32.107  27.623  26.086  1.00  0.00     0.026 A 
ENDBRANCH  19  25
ENDBRANCH  17  18
ENDBRANCH  11  16
BRANCH  15  32
ATOM     32  O   UNL A   1      30.576  21.972  26.588  1.00  0.00    -0.507 OA
ATOM     33  H   UNL A   1      30.800  22.611  27.235  1.00  0.00     0.293 HD
ENDBRANCH  15  32
ENDBRANCH   8  10
ENDBRANCH   7   8
ENDBRANCH   6   7
ENDBRANCH   5   6
ENDBRANCH   4   5
ENDBRANCH   3   4
ENDBRANCH   2   3
ENDBRANCH   1   2
BRANCH   1  34
ATOM     34  C   UNL A   1      35.925  21.207  24.458  1.00  0.00     0.188 C 
BRANCH  34  35
ATOM     35  C   UNL A   1      37.067  22.205  24.366  1.00  0.00     0.188 C 
BRANCH  35  36
ATOM     36  O   UNL A   1      37.786  22.407  25.558  1.00  0.00    -0.376 OA
BRANCH  36  37
ATOM     37  C   UNL A   1      38.946  21.594  25.740  1.00  0.00     0.202 C 
BRANCH  37  38
ATOM     38  C   UNL A   1      40.293  22.178  26.268  1.00  0.00     0.261 C 
BRANCH  38  39
ATOM     39  O   UNL A   1      40.089  22.978  27.462  1.00  0.00    -0.460 OA
BRANCH  39  40
ATOM     40  C   UNL A   1      39.713  24.285  27.294  1.00  0.00     0.338 C 
ATOM     41  O   UNL A   1      38.568  24.678  27.181  1.00  0.00    -0.246 OA
BRANCH  40  42
ATOM     42  C   UNL A   1      40.925  25.171  27.333  1.00  0.00     0.060 A 
ATOM     43  C   UNL A   1      41.888  25.045  28.339  1.00  0.00     0.016 A 
ATOM     44  C   UNL A   1      40.977  26.283  26.499  1.00  0.00     0.016 A 
ATOM     45  C   UNL A   1      42.696  26.148  28.681  1.00  0.00     0.010 A 
ATOM     46  C   UNL A   1      41.665  27.411  26.928  1.00  0.00     0.010 A 
ATOM     47  C   UNL A   1      42.472  27.384  28.071  1.00  0.00    -0.014 A 
BRANCH  47  48
ATOM     48  C   UNL A   1      42.836  28.693  28.668  1.00  0.00     0.031 A 
ATOM     49  C   UNL A   1      41.776  29.541  29.324  1.00  0.00     0.074 A 
ATOM     50  C   UNL A   1      44.154  28.960  28.911  1.00  0.00     0.049 A 
ATOM     51  N   UNL A   1      42.016  30.636  29.952  1.00  0.00    -0.248 NA
ATOM     52  C   UNL A   1      40.360  29.194  29.429  1.00  0.00     0.031 C 
ATOM     53  C   UNL A   1      44.720  30.039  29.713  1.00  0.00     0.029 A 
ATOM     54  N   UNL A   1      45.311  28.310  28.457  1.00  0.00    -0.354 N 
ATOM     55  C   UNL A   1      40.949  30.983  30.756  1.00  0.00     0.074 A 
ATOM     56  C   UNL A   1      39.920  30.059  30.357  1.00  0.00     0.031 C 
ATOM     57  C   UNL A   1      46.048  30.122  29.574  1.00  0.00     0.029 A 
ATOM     58  C   UNL A   1      46.384  29.220  28.512  1.00  0.00     0.049 A 
ATOM     59  H   UNL A   1      45.364  27.376  28.154  1.00  0.00     0.167 HD
ATOM     60  C   UNL A   1      41.143  31.963  31.701  1.00  0.00     0.037 A 
ATOM     61  C   UNL A   1      46.916  29.650  27.341  1.00  0.00     0.037 A 
ATOM     62  C   UNL A   1      42.439  32.654  31.442  1.00  0.00     0.049 A 
ATOM     63  C   UNL A   1      46.426  31.101  27.123  1.00  0.00     0.074 A 
ATOM     64  C   UNL A   1      43.598  32.909  32.157  1.00  0.00     0.029 A 
ATOM     65  N   UNL A   1      42.745  33.018  30.120  1.00  0.00    -0.354 N 
ATOM     66  N   UNL A   1      45.264  31.567  27.566  1.00  0.00    -0.248 NA
ATOM     67  C   UNL A   1      47.335  32.197  26.787  1.00  0.00     0.031 C 
ATOM     68  C   UNL A   1      44.634  33.248  31.217  1.00  0.00     0.029 A 
ATOM     69  C   UNL A   1      44.100  33.250  29.929  1.00  0.00     0.049 A 
ATOM     70  H   UNL A   1      42.072  33.102  29.406  1.00  0.00     0.167 HD
ATOM     71  C   UNL A   1      45.348  32.931  27.787  1.00  0.00     0.074 A 
ATOM     72  C   UNL A   1      46.647  33.276  27.211  1.00  0.00     0.031 C 
ATOM     73  C   UNL A   1      44.591  33.729  28.629  1.00  0.00     0.037 A 
BRANCH  60  74
ATOM     74  C   UNL A   1      40.238  32.260  32.920  1.00  0.00     0.058 A 
ATOM     75  C   UNL A   1      40.065  33.582  33.403  1.00  0.00     0.135 A 
ATOM     76  C   UNL A   1      39.559  31.293  33.703  1.00  0.00     0.135 A 
ATOM     77  F   UNL A   1      40.664  34.621  32.807  1.00  0.00    -0.206 F 
ATOM     78  C   UNL A   1      39.276  33.913  34.522  1.00  0.00     0.059 A 
ATOM     79  C   UNL A   1      38.733  31.603  34.800  1.00  0.00     0.059 A 
ATOM     80  F   UNL A   1      39.685  29.983  33.474  1.00  0.00    -0.206 F 
ATOM     81  C   UNL A   1      38.594  32.919  35.207  1.00  0.00     0.060 A 
BRANCH  81  82
ATOM     82  S   UNL A   1      37.523  33.363  36.598  1.00  0.00     0.124 S 
ATOM     83  O   UNL A   1      37.540  32.148  37.405  1.00  0.00    -0.237 OA
ATOM     84  O   UNL A   1      38.216  34.513  37.168  1.00  0.00    -0.237 OA
ATOM     85  O   UNL A   1      36.244  33.667  35.963  1.00  0.00    -0.744 OA
ENDBRANCH  81  82
ENDBRANCH  60  74
BRANCH  61  86
ATOM     86  C   UNL A   1      47.366  28.422  26.576  1.00  0.00     0.058 A 
ATOM     87  C   UNL A   1      46.567  28.135  25.428  1.00  0.00     0.135 A 
ATOM     88  C   UNL A   1      48.717  28.046  26.452  1.00  0.00     0.135 A 
ATOM     89  F   UNL A   1      45.259  28.437  25.449  1.00  0.00    -0.206 F 
ATOM     90  C   UNL A   1      47.098  27.719  24.196  1.00  0.00     0.059 A 
ATOM     91  C   UNL A   1      49.270  27.609  25.223  1.00  0.00     0.059 A 
ATOM     92  F   UNL A   1      49.557  28.235  27.481  1.00  0.00    -0.206 F 
ATOM     93  C   UNL A   1      48.465  27.510  24.086  1.00  0.00     0.060 A 
BRANCH  93  94
ATOM     94  S   UNL A   1      49.175  27.243  22.430  1.00  0.00     0.124 S 
ATOM     95  O   UNL A   1      48.457  26.059  21.975  1.00  0.00    -0.237 OA
ATOM     96  O   UNL A   1      48.853  28.486  21.733  1.00  0.00    -0.237 OA
ATOM     97  O   UNL A   1      50.594  27.060  22.706  1.00  0.00    -0.744 OA
ENDBRANCH  93  94
ENDBRANCH  61  86
BRANCH  73  98
ATOM     98  C   UNL A   1      44.183  35.156  28.253  1.00  0.00     0.058 A 
ATOM     99  C   UNL A   1      43.232  35.453  27.265  1.00  0.00     0.135 A 
ATOM    100  C   UNL A   1      44.595  36.271  29.042  1.00  0.00     0.135 A 
ATOM    101  F   UNL A   1      42.711  34.504  26.478  1.00  0.00    -0.206 F 
ATOM    102  C   UNL A   1      42.747  36.745  27.062  1.00  0.00     0.059 A 
ATOM    103  C   UNL A   1      44.068  37.550  28.903  1.00  0.00     0.059 A 
ATOM    104  F   UNL A   1      45.517  36.174  30.009  1.00  0.00    -0.206 F 
ATOM    105  C   UNL A   1      43.158  37.781  27.893  1.00  0.00     0.060 A 
BRANCH 105 106
ATOM    106  S   UNL A   1      42.483  39.427  27.649  1.00  0.00     0.124 S 
ATOM    107  O   UNL A   1      43.681  40.248  27.777  1.00  0.00    -0.237 OA
ATOM    108  O   UNL A   1      41.918  39.334  26.305  1.00  0.00    -0.237 OA
ATOM    109  O   UNL A   1      41.506  39.561  28.725  1.00  0.00    -0.744 OA
ENDBRANCH 105 106
ENDBRANCH  73  98
ENDBRANCH  47  48
ENDBRANCH  40  42
ENDBRANCH  39  40
ENDBRANCH  38  39
ENDBRANCH  37  38
ENDBRANCH  36  37
ENDBRANCH  35  36
ENDBRANCH  34  35
ENDBRANCH   1  34
TORSDOF 27
ENDMDL
MODEL 3
REMARK VINA RESULT:      -9.4      5.475     11.751
REMARK SMILES Cc1cccc(-n2c(C)cc(/C=N\c3ccc(O)c(C(=O)OCCOCCOCCOCCOC(=O)c4ccc(-c5c6nc(c(-c7c(F)cc(S(=O)(=O)[O-])cc7F)c7ccc([nH]7)c(-c7c(F)cc(S(=O)(=O)[O-])cc7F)c7nc(c(-c8c(F)cc(S(=O)(=O)[O-])cc8F)c8ccc5[nH]8)C=C7)C=C6)cc4)c3)c2C)c1
REMARK SMILES IDX 28 1 27 2 26 3 25 4 24 5 23 6 22 7 20 8 21 9 19 10 14 11
REMARK SMILES IDX 15 12 103 13 16 14 17 15 13 16 12 17 11 18 7 19 8 20 104 21
REMARK SMILES IDX 9 22 10 23 105 24 6 25 1 26 2 27 3 28 106 29 4 30 5 31 18 32
REMARK SMILES IDX 29 34 30 35 31 36 32 37 33 38 34 39 35 40 36 41 37 42 38 43
REMARK SMILES IDX 102 44 39 45 101 46 40 47 41 48 42 49 95 50 43 51 100 52
REMARK SMILES IDX 94 53 96 54 44 55 99 56 93 57 92 58 45 60 79 61 58 62 78 63
REMARK SMILES IDX 59 64 62 65 77 66 97 67 60 68 61 69 76 71 98 72 63 73 46 74
REMARK SMILES IDX 47 75 56 76 48 77 49 78 55 79 57 80 50 81 51 82 52 83 53 84
REMARK SMILES IDX 54 85 80 86 81 87 90 88 82 89 83 90 89 91 91 92 84 93 85 94
REMARK SMILES IDX 86 95 87 96 88 97 64 98 65 99 74 100 66 101 67 102 73 103
REMARK SMILES IDX 75 104 68 105 69 106 70 107 71 108 72 109
REMARK H PARENT 18 33 96 59 62 70
REMARK Flexibility Score: inf
ROOT
ATOM      1  O   UNL A   1      34.000  32.189  28.428  1.00  0.00    -0.377 OA
ENDROOT
BRANCH   1   2
ATOM      2  C   UNL A   1      34.071  33.438  27.773  1.00  0.00     0.188 C 
BRANCH   2   3
ATOM      3  C   UNL A   1      33.268  34.596  28.417  1.00  0.00     0.188 C 
BRANCH   3   4
ATOM      4  O   UNL A   1      33.711  35.322  29.561  1.00  0.00    -0.376 OA
BRANCH   4   5
ATOM      5  C   UNL A   1      32.809  36.114  30.314  1.00  0.00     0.202 C 
BRANCH   5   6
ATOM      6  C   UNL A   1      33.263  36.377  31.726  1.00  0.00     0.261 C 
BRANCH   6   7
ATOM      7  O   UNL A   1      34.138  35.297  32.040  1.00  0.00    -0.460 OA
BRANCH   7   8
ATOM      8  C   UNL A   1      34.778  35.550  33.181  1.00  0.00     0.342 C 
ATOM      9  O   UNL A   1      34.468  36.378  34.009  1.00  0.00    -0.246 OA
BRANCH   8  10
ATOM     10  C   UNL A   1      35.809  34.510  33.365  1.00  0.00     0.103 A 
ATOM     11  C   UNL A   1      37.239  33.101  32.071  1.00  0.00     0.064 A 
ATOM     12  C   UNL A   1      37.561  32.339  33.191  1.00  0.00     0.032 A 
ATOM     13  C   UNL A   1      36.498  34.261  32.193  1.00  0.00     0.048 A 
ATOM     14  C   UNL A   1      36.960  32.643  34.415  1.00  0.00     0.049 A 
ATOM     15  C   UNL A   1      36.033  33.691  34.481  1.00  0.00     0.130 A 
BRANCH  11  16
ATOM     16  N   UNL A   1      37.555  32.745  30.778  1.00  0.00    -0.256 NA
ATOM     17  C   UNL A   1      38.798  32.577  30.428  1.00  0.00     0.121 C 
BRANCH  17  18
ATOM     18  C   UNL A   1      40.108  32.934  31.012  1.00  0.00     0.014 A 
ATOM     19  N   UNL A   1      42.012  33.826  31.896  1.00  0.00    -0.318 N 
ATOM     20  C   UNL A   1      42.397  32.926  30.932  1.00  0.00     0.021 A 
ATOM     21  C   UNL A   1      40.623  33.810  31.980  1.00  0.00     0.029 A 
ATOM     22  C   UNL A   1      43.804  32.702  30.539  1.00  0.00     0.065 C 
ATOM     23  C   UNL A   1      41.267  32.302  30.463  1.00  0.00     0.033 A 
ATOM     24  C   UNL A   1      39.997  34.731  32.947  1.00  0.00     0.065 C 
BRANCH  19  25
ATOM     25  C   UNL A   1      42.839  34.806  32.521  1.00  0.00     0.046 A 
ATOM     26  C   UNL A   1      45.242  34.883  35.469  1.00  0.00     0.044 C 
ATOM     27  C   UNL A   1      44.535  35.245  34.198  1.00  0.00    -0.049 A 
ATOM     28  C   UNL A   1      44.950  36.365  33.463  1.00  0.00     0.003 A 
ATOM     29  C   UNL A   1      43.475  34.462  33.720  1.00  0.00     0.030 A 
ATOM     30  C   UNL A   1      44.300  36.719  32.280  1.00  0.00     0.002 A 
ATOM     31  C   UNL A   1      43.228  35.956  31.816  1.00  0.00     0.026 A 
ENDBRANCH  19  25
ENDBRANCH  17  18
ENDBRANCH  11  16
BRANCH  15  32
ATOM     32  O   UNL A   1      35.340  33.785  35.648  1.00  0.00    -0.507 OA
ATOM     33  H   UNL A   1      35.034  34.619  35.944  1.00  0.00     0.293 HD
ENDBRANCH  15  32
ENDBRANCH   8  10
ENDBRANCH   7   8
ENDBRANCH   6   7
ENDBRANCH   5   6
ENDBRANCH   4   5
ENDBRANCH   3   4
ENDBRANCH   2   3
ENDBRANCH   1   2
BRANCH   1  34
ATOM     34  C   UNL A   1      33.441  31.146  27.640  1.00  0.00     0.188 C 
BRANCH  34  35
ATOM     35  C   UNL A   1      34.391  30.091  27.097  1.00  0.00     0.188 C 
BRANCH  35  36
ATOM     36  O   UNL A   1      35.759  30.368  27.270  1.00  0.00    -0.376 OA
BRANCH  36  37
ATOM     37  C   UNL A   1      36.547  29.326  27.847  1.00  0.00     0.202 C 
BRANCH  37  38
ATOM     38  C   UNL A   1      37.704  29.620  28.850  1.00  0.00     0.261 C 
BRANCH  38  39
ATOM     39  O   UNL A   1      38.053  28.435  29.615  1.00  0.00    -0.460 OA
BRANCH  39  40
ATOM     40  C   UNL A   1      39.027  27.616  29.107  1.00  0.00     0.338 C 
ATOM     41  O   UNL A   1      38.967  26.403  29.052  1.00  0.00    -0.246 OA
BRANCH  40  42
ATOM     42  C   UNL A   1      40.157  28.445  28.567  1.00  0.00     0.060 A 
ATOM     43  C   UNL A   1      40.453  28.472  27.201  1.00  0.00     0.016 A 
ATOM     44  C   UNL A   1      41.068  29.007  29.455  1.00  0.00     0.016 A 
ATOM     45  C   UNL A   1      41.756  28.790  26.770  1.00  0.00     0.010 A 
ATOM     46  C   UNL A   1      42.384  29.178  29.048  1.00  0.00     0.010 A 
ATOM     47  C   UNL A   1      42.766  28.994  27.714  1.00  0.00    -0.014 A 
BRANCH  47  48
ATOM     48  C   UNL A   1      44.213  28.807  27.447  1.00  0.00     0.031 A 
ATOM     49  C   UNL A   1      45.088  30.003  27.169  1.00  0.00     0.074 A 
ATOM     50  C   UNL A   1      44.793  27.614  27.779  1.00  0.00     0.049 A 
ATOM     51  N   UNL A   1      46.364  29.945  27.027  1.00  0.00    -0.248 NA
ATOM     52  C   UNL A   1      44.633  31.392  27.126  1.00  0.00     0.031 C 
ATOM     53  C   UNL A   1      46.214  27.296  27.855  1.00  0.00     0.029 A 
ATOM     54  N   UNL A   1      44.211  26.383  28.110  1.00  0.00    -0.354 N 
ATOM     55  C   UNL A   1      46.929  31.197  27.167  1.00  0.00     0.074 A 
ATOM     56  C   UNL A   1      45.787  32.074  27.189  1.00  0.00     0.031 C 
ATOM     57  C   UNL A   1      46.426  25.985  28.014  1.00  0.00     0.029 A 
ATOM     58  C   UNL A   1      45.145  25.363  27.847  1.00  0.00     0.049 A 
ATOM     59  H   UNL A   1      43.303  26.253  28.467  1.00  0.00     0.167 HD
ATOM     60  C   UNL A   1      48.292  31.278  27.323  1.00  0.00     0.037 A 
ATOM     61  C   UNL A   1      44.886  24.507  26.827  1.00  0.00     0.037 A 
ATOM     62  C   UNL A   1      48.908  29.955  27.012  1.00  0.00     0.049 A 
ATOM     63  C   UNL A   1      45.819  24.897  25.657  1.00  0.00     0.074 A 
ATOM     64  C   UNL A   1      49.729  29.053  27.668  1.00  0.00     0.029 A 
ATOM     65  N   UNL A   1      48.468  29.272  25.865  1.00  0.00    -0.354 N 
ATOM     66  N   UNL A   1      46.249  26.132  25.430  1.00  0.00    -0.248 NA
ATOM     67  C   UNL A   1      46.642  23.918  24.947  1.00  0.00     0.031 C 
ATOM     68  C   UNL A   1      49.620  27.784  26.998  1.00  0.00     0.029 A 
ATOM     69  C   UNL A   1      48.771  27.918  25.900  1.00  0.00     0.049 A 
ATOM     70  H   UNL A   1      47.998  29.706  25.117  1.00  0.00     0.167 HD
ATOM     71  C   UNL A   1      47.471  26.102  24.778  1.00  0.00     0.074 A 
ATOM     72  C   UNL A   1      47.626  24.688  24.441  1.00  0.00     0.031 C 
ATOM     73  C   UNL A   1      48.467  27.063  24.744  1.00  0.00     0.037 A 
BRANCH  60  74
ATOM     74  C   UNL A   1      49.090  32.496  27.845  1.00  0.00     0.058 A 
ATOM     75  C   UNL A   1      49.255  33.661  27.053  1.00  0.00     0.135 A 
ATOM     76  C   UNL A   1      49.773  32.570  29.084  1.00  0.00     0.135 A 
ATOM     77  F   UNL A   1      48.708  33.753  25.834  1.00  0.00    -0.206 F 
ATOM     78  C   UNL A   1      49.991  34.790  27.461  1.00  0.00     0.059 A 
ATOM     79  C   UNL A   1      50.481  33.702  29.531  1.00  0.00     0.059 A 
ATOM     80  F   UNL A   1      49.829  31.532  29.924  1.00  0.00    -0.206 F 
ATOM     81  C   UNL A   1      50.587  34.814  28.713  1.00  0.00     0.060 A 
BRANCH  81  82
ATOM     82  S   UNL A   1      51.466  36.299  29.258  1.00  0.00     0.124 S 
ATOM     83  O   UNL A   1      52.432  35.759  30.210  1.00  0.00    -0.237 OA
ATOM     84  O   UNL A   1      52.023  36.807  28.009  1.00  0.00    -0.237 OA
ATOM     85  O   UNL A   1      50.415  37.126  29.845  1.00  0.00    -0.744 OA
ENDBRANCH  81  82
ENDBRANCH  60  74
BRANCH  61  86
ATOM     86  C   UNL A   1      43.542  23.866  27.111  1.00  0.00     0.058 A 
ATOM     87  C   UNL A   1      42.782  23.580  25.937  1.00  0.00     0.135 A 
ATOM     88  C   UNL A   1      43.328  22.969  28.175  1.00  0.00     0.135 A 
ATOM     89  F   UNL A   1      42.898  24.387  24.870  1.00  0.00    -0.206 F 
ATOM     90  C   UNL A   1      42.049  22.396  25.756  1.00  0.00     0.059 A 
ATOM     91  C   UNL A   1      42.579  21.776  28.018  1.00  0.00     0.059 A 
ATOM     92  F   UNL A   1      43.963  23.157  29.342  1.00  0.00    -0.206 F 
ATOM     93  C   UNL A   1      41.997  21.469  26.786  1.00  0.00     0.060 A 
BRANCH  93  94
ATOM     94  S   UNL A   1      41.284  19.828  26.447  1.00  0.00     0.124 S 
ATOM     95  O   UNL A   1      41.461  19.146  27.723  1.00  0.00    -0.237 OA
ATOM     96  O   UNL A   1      39.905  20.142  26.082  1.00  0.00    -0.237 OA
ATOM     97  O   UNL A   1      42.100  19.336  25.344  1.00  0.00    -0.744 OA
ENDBRANCH  93  94
ENDBRANCH  61  86
BRANCH  73  98
ATOM     98  C   UNL A   1      49.302  27.329  23.488  1.00  0.00     0.058 A 
ATOM     99  C   UNL A   1      50.660  26.994  23.376  1.00  0.00     0.135 A 
ATOM    100  C   UNL A   1      48.686  27.742  22.269  1.00  0.00     0.135 A 
ATOM    101  F   UNL A   1      51.364  26.540  24.421  1.00  0.00    -0.206 F 
ATOM    102  C   UNL A   1      51.353  27.081  22.169  1.00  0.00     0.059 A 
ATOM    103  C   UNL A   1      49.341  27.764  21.044  1.00  0.00     0.059 A 
ATOM    104  F   UNL A   1      47.404  28.126  22.198  1.00  0.00    -0.206 F 
ATOM    105  C   UNL A   1      50.684  27.452  21.008  1.00  0.00     0.060 A 
BRANCH 105 106
ATOM    106  S   UNL A   1      51.581  27.507  19.454  1.00  0.00     0.124 S 
ATOM    107  O   UNL A   1      51.926  28.922  19.375  1.00  0.00    -0.237 OA
ATOM    108  O   UNL A   1      52.694  26.596  19.706  1.00  0.00    -0.237 OA
ATOM    109  O   UNL A   1      50.605  27.039  18.476  1.00  0.00    -0.744 OA
ENDBRANCH 105 106
ENDBRANCH  73  98
ENDBRANCH  47  48
ENDBRANCH  40  42
ENDBRANCH  39  40
ENDBRANCH  38  39
ENDBRANCH  37  38
ENDBRANCH  36  37
ENDBRANCH  35  36
ENDBRANCH  34  35
ENDBRANCH   1  34
TORSDOF 27
ENDMDL
