MODEL 1
REMARK VINA RESULT:      -9.4      0.000      0.000
REMARK SMILES C[C@@H](CCO)Sc1cc(C(=O)OCCOCCOCCOCCOC(=O)c2ccc(-c3c4nc(c(-c5c(F)cc(S(=O)(=O)[O-])cc5F)c5ccc([nH]5)c(-c5c(F)cc(S(=O)(=O)[O-])cc5F)c5nc(c(-c6c(F)cc(S(=O)(=O)[O-])cc6F)c6ccc3[nH]6)C=C5)C=C4)cc2)c2ccccc2n1
REMARK SMILES IDX 17 1 16 2 15 3 14 4 13 5 12 6 10 7 11 8 9 9 7 10 8 11 99 12
REMARK SMILES IDX 98 13 93 14 97 15 94 16 96 17 95 18 6 19 2 20 1 21 3 22 4 23
REMARK SMILES IDX 5 24 18 26 19 27 20 28 21 29 22 30 23 31 24 32 25 33 26 34
REMARK SMILES IDX 27 35 28 36 92 37 29 38 91 39 30 40 31 41 32 42 85 43 33 44
REMARK SMILES IDX 90 45 84 46 86 47 34 48 89 49 83 50 82 51 35 53 69 54 48 55
REMARK SMILES IDX 68 56 49 57 52 58 67 59 87 60 50 61 51 62 66 64 88 65 53 66
REMARK SMILES IDX 36 67 37 68 46 69 38 70 39 71 45 72 47 73 40 74 41 75 42 76
REMARK SMILES IDX 43 77 44 78 70 79 71 80 80 81 72 82 73 83 79 84 81 85 74 86
REMARK SMILES IDX 75 87 76 88 77 89 78 90 54 91 55 92 64 93 56 94 57 95 63 96
REMARK SMILES IDX 65 97 58 98 59 99 60 100 61 101 62 102
REMARK H PARENT 5 25 86 52 52 63
REMARK Flexibility Score: inf
ROOT
ATOM      1  C   UNL A   1      35.613  21.354  24.755  1.00  0.00     0.188 C 
ENDROOT
BRANCH   1   2
ATOM      2  C   UNL A   1      35.477  22.886  24.712  1.00  0.00     0.188 C 
BRANCH   2   3
ATOM      3  O   UNL A   1      35.482  23.512  25.990  1.00  0.00    -0.376 OA
BRANCH   3   4
ATOM      4  C   UNL A   1      34.560  22.984  26.934  1.00  0.00     0.202 C 
BRANCH   4   5
ATOM      5  C   UNL A   1      33.250  23.771  27.080  1.00  0.00     0.261 C 
BRANCH   5   6
ATOM      6  O   UNL A   1      32.154  23.012  27.614  1.00  0.00    -0.460 OA
BRANCH   6   7
ATOM      7  C   UNL A   1      30.984  23.112  26.956  1.00  0.00     0.338 C 
ATOM      8  O   UNL A   1      29.880  23.281  27.450  1.00  0.00    -0.246 OA
BRANCH   7   9
ATOM      9  C   UNL A   1      31.235  23.258  25.508  1.00  0.00     0.072 A 
ATOM     10  C   UNL A   1      31.137  24.807  23.689  1.00  0.00     0.098 A 
ATOM     11  C   UNL A   1      31.015  24.543  25.029  1.00  0.00     0.052 A 
ATOM     12  N   UNL A   1      31.457  23.838  22.809  1.00  0.00    -0.241 NA
ATOM     13  C   UNL A   1      31.709  22.589  23.269  1.00  0.00     0.072 A 
ATOM     14  C   UNL A   1      31.647  22.241  24.637  1.00  0.00     0.015 A 
ATOM     15  C   UNL A   1      32.051  21.599  22.356  1.00  0.00     0.029 A 
ATOM     16  C   UNL A   1      31.990  20.929  25.042  1.00  0.00     0.011 A 
ATOM     17  C   UNL A   1      32.376  20.300  22.758  1.00  0.00     0.002 A 
ATOM     18  C   UNL A   1      32.364  19.971  24.106  1.00  0.00     0.001 A 
BRANCH  10  19
ATOM     19  S   UNL A   1      31.022  26.480  23.076  1.00  0.00    -0.103 SA
BRANCH  19  20
ATOM     20  C   UNL A   1      32.688  27.227  23.378  1.00  0.00     0.052 C 
ATOM     21  C   UNL A   1      33.521  27.484  22.125  1.00  0.00     0.020 C 
BRANCH  20  22
ATOM     22  C   UNL A   1      32.721  28.392  24.398  1.00  0.00     0.043 C 
BRANCH  22  23
ATOM     23  C   UNL A   1      31.403  29.016  24.838  1.00  0.00     0.157 C 
BRANCH  23  24
ATOM     24  O   UNL A   1      30.897  29.931  23.872  1.00  0.00    -0.396 OA
ATOM     25  H   UNL A   1      29.930  29.966  23.938  1.00  0.00     0.210 HD
ENDBRANCH  23  24
ENDBRANCH  22  23
ENDBRANCH  20  22
ENDBRANCH  19  20
ENDBRANCH  10  19
ENDBRANCH   7   9
ENDBRANCH   6   7
ENDBRANCH   5   6
ENDBRANCH   4   5
ENDBRANCH   3   4
ENDBRANCH   2   3
ENDBRANCH   1   2
BRANCH   1  26
ATOM     26  O   UNL A   1      36.756  20.799  25.379  1.00  0.00    -0.377 OA
BRANCH  26  27
ATOM     27  C   UNL A   1      38.047  21.306  25.055  1.00  0.00     0.188 C 
BRANCH  27  28
ATOM     28  C   UNL A   1      38.902  22.058  26.099  1.00  0.00     0.188 C 
BRANCH  28  29
ATOM     29  O   UNL A   1      40.294  21.772  26.064  1.00  0.00    -0.376 OA
BRANCH  29  30
ATOM     30  C   UNL A   1      41.124  22.615  26.852  1.00  0.00     0.202 C 
BRANCH  30  31
ATOM     31  C   UNL A   1      42.197  23.363  26.054  1.00  0.00     0.261 C 
BRANCH  31  32
ATOM     32  O   UNL A   1      42.817  24.460  26.745  1.00  0.00    -0.460 OA
BRANCH  32  33
ATOM     33  C   UNL A   1      42.587  25.709  26.282  1.00  0.00     0.338 C 
ATOM     34  O   UNL A   1      42.558  26.076  25.121  1.00  0.00    -0.246 OA
BRANCH  33  35
ATOM     35  C   UNL A   1      42.185  26.529  27.438  1.00  0.00     0.060 A 
ATOM     36  C   UNL A   1      42.866  27.725  27.703  1.00  0.00     0.016 A 
ATOM     37  C   UNL A   1      41.099  26.138  28.224  1.00  0.00     0.016 A 
ATOM     38  C   UNL A   1      42.460  28.534  28.764  1.00  0.00     0.010 A 
ATOM     39  C   UNL A   1      40.710  26.937  29.299  1.00  0.00     0.010 A 
ATOM     40  C   UNL A   1      41.396  28.129  29.582  1.00  0.00    -0.014 A 
BRANCH  40  41
ATOM     41  C   UNL A   1      41.081  28.856  30.833  1.00  0.00     0.031 A 
ATOM     42  C   UNL A   1      39.975  29.872  30.808  1.00  0.00     0.074 A 
ATOM     43  C   UNL A   1      41.791  28.650  31.956  1.00  0.00     0.049 A 
ATOM     44  N   UNL A   1      39.597  30.709  31.736  1.00  0.00    -0.248 NA
ATOM     45  C   UNL A   1      39.196  29.955  29.562  1.00  0.00     0.031 C 
ATOM     46  C   UNL A   1      42.856  27.661  32.114  1.00  0.00     0.029 A 
ATOM     47  N   UNL A   1      41.732  29.282  33.173  1.00  0.00    -0.354 N 
ATOM     48  C   UNL A   1      38.536  31.420  31.190  1.00  0.00     0.074 A 
ATOM     49  C   UNL A   1      38.349  30.933  29.839  1.00  0.00     0.031 C 
ATOM     50  C   UNL A   1      43.363  27.765  33.355  1.00  0.00     0.029 A 
ATOM     51  C   UNL A   1      42.689  28.854  34.062  1.00  0.00     0.049 A 
ATOM     52  H   UNL A   1      41.068  29.975  33.389  1.00  0.00     0.167 HD
ATOM     53  C   UNL A   1      37.785  32.389  31.763  1.00  0.00     0.037 A 
ATOM     54  C   UNL A   1      43.003  29.314  35.290  1.00  0.00     0.037 A 
ATOM     55  C   UNL A   1      37.996  32.888  33.095  1.00  0.00     0.049 A 
ATOM     56  C   UNL A   1      42.234  30.477  35.863  1.00  0.00     0.074 A 
ATOM     57  C   UNL A   1      37.280  33.856  33.775  1.00  0.00     0.029 A 
ATOM     58  N   UNL A   1      39.012  32.471  33.942  1.00  0.00    -0.354 N 
ATOM     59  N   UNL A   1      41.214  31.124  35.351  1.00  0.00    -0.248 NA
ATOM     60  C   UNL A   1      42.669  30.983  37.172  1.00  0.00     0.031 C 
ATOM     61  C   UNL A   1      37.897  34.064  35.014  1.00  0.00     0.029 A 
ATOM     62  C   UNL A   1      38.969  33.192  35.124  1.00  0.00     0.049 A 
ATOM     63  H   UNL A   1      39.668  31.767  33.734  1.00  0.00     0.167 HD
ATOM     64  C   UNL A   1      40.877  32.104  36.280  1.00  0.00     0.074 A 
ATOM     65  C   UNL A   1      41.794  31.957  37.392  1.00  0.00     0.031 C 
ATOM     66  C   UNL A   1      39.897  33.040  36.219  1.00  0.00     0.037 A 
BRANCH  53  67
ATOM     67  C   UNL A   1      36.693  32.993  30.926  1.00  0.00     0.058 A 
ATOM     68  C   UNL A   1      36.966  33.970  29.954  1.00  0.00     0.135 A 
ATOM     69  C   UNL A   1      35.358  32.601  31.106  1.00  0.00     0.135 A 
ATOM     70  F   UNL A   1      38.224  34.394  29.756  1.00  0.00    -0.206 F 
ATOM     71  C   UNL A   1      35.947  34.565  29.219  1.00  0.00     0.059 A 
ATOM     72  C   UNL A   1      34.326  33.165  30.363  1.00  0.00     0.059 A 
ATOM     73  F   UNL A   1      35.043  31.674  32.024  1.00  0.00    -0.206 F 
ATOM     74  C   UNL A   1      34.629  34.161  29.436  1.00  0.00     0.060 A 
BRANCH  74  75
ATOM     75  S   UNL A   1      33.314  34.965  28.497  1.00  0.00     0.124 S 
ATOM     76  O   UNL A   1      32.545  35.602  29.562  1.00  0.00    -0.237 OA
ATOM     77  O   UNL A   1      34.059  35.870  27.626  1.00  0.00    -0.237 OA
ATOM     78  O   UNL A   1      32.651  33.855  27.821  1.00  0.00    -0.744 OA
ENDBRANCH  74  75
ENDBRANCH  53  67
BRANCH  54  79
ATOM     79  C   UNL A   1      44.116  28.688  36.052  1.00  0.00     0.058 A 
ATOM     80  C   UNL A   1      45.426  29.177  35.944  1.00  0.00     0.135 A 
ATOM     81  C   UNL A   1      43.892  27.603  36.914  1.00  0.00     0.135 A 
ATOM     82  F   UNL A   1      45.693  30.200  35.119  1.00  0.00    -0.206 F 
ATOM     83  C   UNL A   1      46.474  28.617  36.665  1.00  0.00     0.059 A 
ATOM     84  C   UNL A   1      44.920  27.040  37.663  1.00  0.00     0.059 A 
ATOM     85  F   UNL A   1      42.655  27.099  37.055  1.00  0.00    -0.206 F 
ATOM     86  C   UNL A   1      46.209  27.553  37.530  1.00  0.00     0.060 A 
BRANCH  86  87
ATOM     87  S   UNL A   1      47.563  26.886  38.523  1.00  0.00     0.124 S 
ATOM     88  O   UNL A   1      46.887  26.584  39.779  1.00  0.00    -0.237 OA
ATOM     89  O   UNL A   1      47.984  25.736  37.730  1.00  0.00    -0.237 OA
ATOM     90  O   UNL A   1      48.518  27.989  38.569  1.00  0.00    -0.744 OA
ENDBRANCH  86  87
ENDBRANCH  54  79
BRANCH  66  91
ATOM     91  C   UNL A   1      39.756  33.983  37.382  1.00  0.00     0.058 A 
ATOM     92  C   UNL A   1      38.998  33.641  38.513  1.00  0.00     0.135 A 
ATOM     93  C   UNL A   1      40.453  35.202  37.402  1.00  0.00     0.135 A 
ATOM     94  F   UNL A   1      38.305  32.492  38.540  1.00  0.00    -0.206 F 
ATOM     95  C   UNL A   1      38.934  34.477  39.624  1.00  0.00     0.059 A 
ATOM     96  C   UNL A   1      40.421  36.042  38.512  1.00  0.00     0.059 A 
ATOM     97  F   UNL A   1      41.199  35.572  36.350  1.00  0.00    -0.206 F 
ATOM     98  C   UNL A   1      39.656  35.672  39.617  1.00  0.00     0.060 A 
BRANCH  98  99
ATOM     99  S   UNL A   1      39.615  36.715  41.091  1.00  0.00     0.124 S 
ATOM    100  O   UNL A   1      41.033  36.811  41.423  1.00  0.00    -0.237 OA
ATOM    101  O   UNL A   1      38.999  37.940  40.588  1.00  0.00    -0.237 OA
ATOM    102  O   UNL A   1      38.801  35.950  42.028  1.00  0.00    -0.744 OA
ENDBRANCH  98  99
ENDBRANCH  66  91
ENDBRANCH  40  41
ENDBRANCH  33  35
ENDBRANCH  32  33
ENDBRANCH  31  32
ENDBRANCH  30  31
ENDBRANCH  29  30
ENDBRANCH  28  29
ENDBRANCH  27  28
ENDBRANCH  26  27
ENDBRANCH   1  26
TORSDOF 28
ENDMDL
MODEL 2
REMARK VINA RESULT:      -8.3      1.875      8.346
REMARK SMILES C[C@@H](CCO)Sc1cc(C(=O)OCCOCCOCCOCCOC(=O)c2ccc(-c3c4nc(c(-c5c(F)cc(S(=O)(=O)[O-])cc5F)c5ccc([nH]5)c(-c5c(F)cc(S(=O)(=O)[O-])cc5F)c5nc(c(-c6c(F)cc(S(=O)(=O)[O-])cc6F)c6ccc3[nH]6)C=C5)C=C4)cc2)c2ccccc2n1
REMARK SMILES IDX 17 1 16 2 15 3 14 4 13 5 12 6 10 7 11 8 9 9 7 10 8 11 99 12
REMARK SMILES IDX 98 13 93 14 97 15 94 16 96 17 95 18 6 19 2 20 1 21 3 22 4 23
REMARK SMILES IDX 5 24 18 26 19 27 20 28 21 29 22 30 23 31 24 32 25 33 26 34
REMARK SMILES IDX 27 35 28 36 92 37 29 38 91 39 30 40 31 41 32 42 85 43 33 44
REMARK SMILES IDX 90 45 84 46 86 47 34 48 89 49 83 50 82 51 35 53 69 54 48 55
REMARK SMILES IDX 68 56 49 57 52 58 67 59 87 60 50 61 51 62 66 64 88 65 53 66
REMARK SMILES IDX 36 67 37 68 46 69 38 70 39 71 45 72 47 73 40 74 41 75 42 76
REMARK SMILES IDX 43 77 44 78 70 79 71 80 80 81 72 82 73 83 79 84 81 85 74 86
REMARK SMILES IDX 75 87 76 88 77 89 78 90 54 91 55 92 64 93 56 94 57 95 63 96
REMARK SMILES IDX 65 97 58 98 59 99 60 100 61 101 62 102
REMARK H PARENT 5 25 86 52 52 63
REMARK Flexibility Score: inf
ROOT
ATOM      1  C   UNL A   1      40.889  23.620  26.949  1.00  0.00     0.188 C 
ENDROOT
BRANCH   1   2
ATOM      2  C   UNL A   1      39.871  24.304  27.879  1.00  0.00     0.188 C 
BRANCH   2   3
ATOM      3  O   UNL A   1      38.510  24.052  27.546  1.00  0.00    -0.376 OA
BRANCH   3   4
ATOM      4  C   UNL A   1      38.210  24.049  26.157  1.00  0.00     0.202 C 
BRANCH   4   5
ATOM      5  C   UNL A   1      36.799  23.565  25.793  1.00  0.00     0.261 C 
BRANCH   5   6
ATOM      6  O   UNL A   1      35.820  24.611  25.683  1.00  0.00    -0.460 OA
BRANCH   6   7
ATOM      7  C   UNL A   1      34.819  24.399  24.808  1.00  0.00     0.338 C 
ATOM      8  O   UNL A   1      34.881  23.762  23.768  1.00  0.00    -0.246 OA
BRANCH   7   9
ATOM      9  C   UNL A   1      33.535  24.820  25.405  1.00  0.00     0.072 A 
ATOM     10  C   UNL A   1      32.356  26.701  26.292  1.00  0.00     0.098 A 
ATOM     11  C   UNL A   1      33.462  26.182  25.670  1.00  0.00     0.052 A 
ATOM     12  N   UNL A   1      31.329  25.916  26.671  1.00  0.00    -0.241 NA
ATOM     13  C   UNL A   1      31.374  24.593  26.385  1.00  0.00     0.072 A 
ATOM     14  C   UNL A   1      32.455  23.982  25.710  1.00  0.00     0.015 A 
ATOM     15  C   UNL A   1      30.304  23.792  26.767  1.00  0.00     0.029 A 
ATOM     16  C   UNL A   1      32.394  22.605  25.391  1.00  0.00     0.011 A 
ATOM     17  C   UNL A   1      30.253  22.428  26.462  1.00  0.00     0.002 A 
ATOM     18  C   UNL A   1      31.292  21.839  25.755  1.00  0.00     0.001 A 
BRANCH  10  19
ATOM     19  S   UNL A   1      32.170  28.466  26.493  1.00  0.00    -0.103 SA
BRANCH  19  20
ATOM     20  C   UNL A   1      31.829  29.118  24.795  1.00  0.00     0.052 C 
ATOM     21  C   UNL A   1      33.061  29.317  23.916  1.00  0.00     0.020 C 
BRANCH  20  22
ATOM     22  C   UNL A   1      30.636  28.462  24.056  1.00  0.00     0.043 C 
BRANCH  22  23
ATOM     23  C   UNL A   1      30.883  27.817  22.698  1.00  0.00     0.157 C 
BRANCH  23  24
ATOM     24  O   UNL A   1      31.026  26.405  22.795  1.00  0.00    -0.396 OA
ATOM     25  H   UNL A   1      30.971  26.138  23.726  1.00  0.00     0.210 HD
ENDBRANCH  23  24
ENDBRANCH  22  23
ENDBRANCH  20  22
ENDBRANCH  19  20
ENDBRANCH  10  19
ENDBRANCH   7   9
ENDBRANCH   6   7
ENDBRANCH   5   6
ENDBRANCH   4   5
ENDBRANCH   3   4
ENDBRANCH   2   3
ENDBRANCH   1   2
BRANCH   1  26
ATOM     26  O   UNL A   1      41.140  22.239  27.130  1.00  0.00    -0.377 OA
BRANCH  26  27
ATOM     27  C   UNL A   1      41.488  21.437  26.007  1.00  0.00     0.188 C 
BRANCH  27  28
ATOM     28  C   UNL A   1      42.462  20.245  26.140  1.00  0.00     0.188 C 
BRANCH  28  29
ATOM     29  O   UNL A   1      43.802  20.508  25.744  1.00  0.00    -0.376 OA
BRANCH  29  30
ATOM     30  C   UNL A   1      44.060  21.811  25.240  1.00  0.00     0.202 C 
BRANCH  30  31
ATOM     31  C   UNL A   1      44.956  22.668  26.139  1.00  0.00     0.261 C 
BRANCH  31  32
ATOM     32  O   UNL A   1      44.289  23.741  26.822  1.00  0.00    -0.460 OA
BRANCH  32  33
ATOM     33  C   UNL A   1      44.440  24.991  26.332  1.00  0.00     0.338 C 
ATOM     34  O   UNL A   1      44.805  25.312  25.215  1.00  0.00    -0.246 OA
BRANCH  33  35
ATOM     35  C   UNL A   1      43.898  25.917  27.343  1.00  0.00     0.060 A 
ATOM     36  C   UNL A   1      44.059  27.298  27.167  1.00  0.00     0.016 A 
ATOM     37  C   UNL A   1      43.185  25.416  28.434  1.00  0.00     0.016 A 
ATOM     38  C   UNL A   1      43.505  28.184  28.091  1.00  0.00     0.010 A 
ATOM     39  C   UNL A   1      42.652  26.303  29.368  1.00  0.00     0.010 A 
ATOM     40  C   UNL A   1      42.822  27.689  29.209  1.00  0.00    -0.014 A 
BRANCH  40  41
ATOM     41  C   UNL A   1      42.409  28.591  30.308  1.00  0.00     0.031 A 
ATOM     42  C   UNL A   1      43.172  28.534  31.601  1.00  0.00     0.074 A 
ATOM     43  C   UNL A   1      41.353  29.411  30.176  1.00  0.00     0.049 A 
ATOM     44  N   UNL A   1      42.929  29.136  32.734  1.00  0.00    -0.248 NA
ATOM     45  C   UNL A   1      44.369  27.677  31.614  1.00  0.00     0.031 C 
ATOM     46  C   UNL A   1      40.564  29.585  28.958  1.00  0.00     0.029 A 
ATOM     47  N   UNL A   1      40.751  30.239  31.091  1.00  0.00    -0.354 N 
ATOM     48  C   UNL A   1      43.939  28.731  33.598  1.00  0.00     0.074 A 
ATOM     49  C   UNL A   1      44.783  27.813  32.863  1.00  0.00     0.031 C 
ATOM     50  C   UNL A   1      39.568  30.454  29.207  1.00  0.00     0.029 A 
ATOM     51  C   UNL A   1      39.625  30.863  30.611  1.00  0.00     0.049 A 
ATOM     52  H   UNL A   1      41.093  30.372  32.004  1.00  0.00     0.167 HD
ATOM     53  C   UNL A   1      44.146  29.096  34.884  1.00  0.00     0.037 A 
ATOM     54  C   UNL A   1      38.727  31.646  31.243  1.00  0.00     0.037 A 
ATOM     55  C   UNL A   1      43.286  29.986  35.616  1.00  0.00     0.049 A 
ATOM     56  C   UNL A   1      38.907  31.940  32.710  1.00  0.00     0.074 A 
ATOM     57  C   UNL A   1      43.416  30.432  36.919  1.00  0.00     0.029 A 
ATOM     58  N   UNL A   1      42.123  30.551  35.114  1.00  0.00    -0.354 N 
ATOM     59  N   UNL A   1      39.881  31.577  33.511  1.00  0.00    -0.248 NA
ATOM     60  C   UNL A   1      37.858  32.736  33.364  1.00  0.00     0.031 C 
ATOM     61  C   UNL A   1      42.303  31.223  37.222  1.00  0.00     0.029 A 
ATOM     62  C   UNL A   1      41.502  31.308  36.094  1.00  0.00     0.049 A 
ATOM     63  H   UNL A   1      41.787  30.431  34.196  1.00  0.00     0.167 HD
ATOM     64  C   UNL A   1      39.570  32.111  34.759  1.00  0.00     0.074 A 
ATOM     65  C   UNL A   1      38.323  32.833  34.604  1.00  0.00     0.031 C 
ATOM     66  C   UNL A   1      40.254  32.014  35.925  1.00  0.00     0.037 A 
BRANCH  53  67
ATOM     67  C   UNL A   1      45.330  28.492  35.584  1.00  0.00     0.058 A 
ATOM     68  C   UNL A   1      45.229  27.283  36.292  1.00  0.00     0.135 A 
ATOM     69  C   UNL A   1      46.577  29.136  35.559  1.00  0.00     0.135 A 
ATOM     70  F   UNL A   1      44.054  26.637  36.364  1.00  0.00    -0.206 F 
ATOM     71  C   UNL A   1      46.314  26.754  36.983  1.00  0.00     0.059 A 
ATOM     72  C   UNL A   1      47.682  28.611  36.222  1.00  0.00     0.059 A 
ATOM     73  F   UNL A   1      46.726  30.295  34.901  1.00  0.00    -0.206 F 
ATOM     74  C   UNL A   1      47.534  27.430  36.948  1.00  0.00     0.060 A 
BRANCH  74  75
ATOM     75  S   UNL A   1      48.925  26.749  37.876  1.00  0.00     0.124 S 
ATOM     76  O   UNL A   1      48.631  25.319  37.827  1.00  0.00    -0.237 OA
ATOM     77  O   UNL A   1      50.072  27.186  37.085  1.00  0.00    -0.237 OA
ATOM     78  O   UNL A   1      48.797  27.373  39.188  1.00  0.00    -0.744 OA
ENDBRANCH  74  75
ENDBRANCH  53  67
BRANCH  54  79
ATOM     79  C   UNL A   1      37.560  32.186  30.497  1.00  0.00     0.058 A 
ATOM     80  C   UNL A   1      36.390  31.429  30.344  1.00  0.00     0.135 A 
ATOM     81  C   UNL A   1      37.585  33.473  29.935  1.00  0.00     0.135 A 
ATOM     82  F   UNL A   1      36.326  30.187  30.846  1.00  0.00    -0.206 F 
ATOM     83  C   UNL A   1      35.283  31.927  29.666  1.00  0.00     0.059 A 
ATOM     84  C   UNL A   1      36.482  34.002  29.272  1.00  0.00     0.059 A 
ATOM     85  F   UNL A   1      38.680  34.239  30.055  1.00  0.00    -0.206 F 
ATOM     86  C   UNL A   1      35.335  33.221  29.141  1.00  0.00     0.060 A 
BRANCH  86  87
ATOM     87  S   UNL A   1      33.864  33.888  28.334  1.00  0.00     0.124 S 
ATOM     88  O   UNL A   1      34.445  34.875  27.432  1.00  0.00    -0.237 OA
ATOM     89  O   UNL A   1      33.297  32.700  27.704  1.00  0.00    -0.237 OA
ATOM     90  O   UNL A   1      33.088  34.429  29.446  1.00  0.00    -0.744 OA
ENDBRANCH  86  87
ENDBRANCH  54  79
BRANCH  66  91
ATOM     91  C   UNL A   1      39.680  32.701  37.134  1.00  0.00     0.058 A 
ATOM     92  C   UNL A   1      38.628  32.131  37.868  1.00  0.00     0.135 A 
ATOM     93  C   UNL A   1      40.243  33.895  37.612  1.00  0.00     0.135 A 
ATOM     94  F   UNL A   1      38.049  30.995  37.448  1.00  0.00    -0.206 F 
ATOM     95  C   UNL A   1      38.151  32.724  39.033  1.00  0.00     0.059 A 
ATOM     96  C   UNL A   1      39.797  34.493  38.787  1.00  0.00     0.059 A 
ATOM     97  F   UNL A   1      41.256  34.477  36.952  1.00  0.00    -0.206 F 
ATOM     98  C   UNL A   1      38.747  33.901  39.490  1.00  0.00     0.060 A 
BRANCH  98  99
ATOM     99  S   UNL A   1      38.162  34.624  41.038  1.00  0.00     0.124 S 
ATOM    100  O   UNL A   1      36.825  34.049  41.144  1.00  0.00    -0.237 OA
ATOM    101  O   UNL A   1      39.142  34.131  42.001  1.00  0.00    -0.237 OA
ATOM    102  O   UNL A   1      38.210  36.060  40.783  1.00  0.00    -0.744 OA
ENDBRANCH  98  99
ENDBRANCH  66  91
ENDBRANCH  40  41
ENDBRANCH  33  35
ENDBRANCH  32  33
ENDBRANCH  31  32
ENDBRANCH  30  31
ENDBRANCH  29  30
ENDBRANCH  28  29
ENDBRANCH  27  28
ENDBRANCH  26  27
ENDBRANCH   1  26
TORSDOF 28
ENDMDL
MODEL 3
REMARK VINA RESULT:      -7.8      6.805     14.296
REMARK SMILES C[C@@H](CCO)Sc1cc(C(=O)OCCOCCOCCOCCOC(=O)c2ccc(-c3c4nc(c(-c5c(F)cc(S(=O)(=O)[O-])cc5F)c5ccc([nH]5)c(-c5c(F)cc(S(=O)(=O)[O-])cc5F)c5nc(c(-c6c(F)cc(S(=O)(=O)[O-])cc6F)c6ccc3[nH]6)C=C5)C=C4)cc2)c2ccccc2n1
REMARK SMILES IDX 17 1 16 2 15 3 14 4 13 5 12 6 10 7 11 8 9 9 7 10 8 11 99 12
REMARK SMILES IDX 98 13 93 14 97 15 94 16 96 17 95 18 6 19 2 20 1 21 3 22 4 23
REMARK SMILES IDX 5 24 18 26 19 27 20 28 21 29 22 30 23 31 24 32 25 33 26 34
REMARK SMILES IDX 27 35 28 36 92 37 29 38 91 39 30 40 31 41 32 42 85 43 33 44
REMARK SMILES IDX 90 45 84 46 86 47 34 48 89 49 83 50 82 51 35 53 69 54 48 55
REMARK SMILES IDX 68 56 49 57 52 58 67 59 87 60 50 61 51 62 66 64 88 65 53 66
REMARK SMILES IDX 36 67 37 68 46 69 38 70 39 71 45 72 47 73 40 74 41 75 42 76
REMARK SMILES IDX 43 77 44 78 70 79 71 80 80 81 72 82 73 83 79 84 81 85 74 86
REMARK SMILES IDX 75 87 76 88 77 89 78 90 54 91 55 92 64 93 56 94 57 95 63 96
REMARK SMILES IDX 65 97 58 98 59 99 60 100 61 101 62 102
REMARK H PARENT 5 25 86 52 52 63
REMARK Flexibility Score: inf
ROOT
ATOM      1  C   UNL A   1      45.666  19.869  35.570  1.00  0.00     0.188 C 
ENDROOT
BRANCH   1   2
ATOM      2  C   UNL A   1      45.238  18.444  35.961  1.00  0.00     0.188 C 
BRANCH   2   3
ATOM      3  O   UNL A   1      44.945  18.277  37.344  1.00  0.00    -0.376 OA
BRANCH   3   4
ATOM      4  C   UNL A   1      44.372  17.026  37.702  1.00  0.00     0.202 C 
BRANCH   4   5
ATOM      5  C   UNL A   1      44.963  16.372  38.959  1.00  0.00     0.261 C 
BRANCH   5   6
ATOM      6  O   UNL A   1      43.987  15.915  39.909  1.00  0.00    -0.460 OA
BRANCH   6   7
ATOM      7  C   UNL A   1      43.839  16.663  41.017  1.00  0.00     0.338 C 
ATOM      8  O   UNL A   1      43.759  17.881  41.071  1.00  0.00    -0.246 OA
BRANCH   7   9
ATOM      9  C   UNL A   1      43.512  15.797  42.168  1.00  0.00     0.072 A 
ATOM     10  C   UNL A   1      43.958  15.439  44.489  1.00  0.00     0.098 A 
ATOM     11  C   UNL A   1      44.113  16.194  43.355  1.00  0.00     0.052 A 
ATOM     12  N   UNL A   1      43.239  14.300  44.482  1.00  0.00    -0.241 NA
ATOM     13  C   UNL A   1      42.619  13.922  43.339  1.00  0.00     0.072 A 
ATOM     14  C   UNL A   1      42.691  14.662  42.137  1.00  0.00     0.015 A 
ATOM     15  C   UNL A   1      41.868  12.753  43.343  1.00  0.00     0.029 A 
ATOM     16  C   UNL A   1      41.959  14.234  41.005  1.00  0.00     0.011 A 
ATOM     17  C   UNL A   1      41.156  12.324  42.218  1.00  0.00     0.002 A 
ATOM     18  C   UNL A   1      41.186  13.078  41.053  1.00  0.00     0.001 A 
BRANCH  10  19
ATOM     19  S   UNL A   1      44.583  16.016  46.060  1.00  0.00    -0.103 SA
BRANCH  19  20
ATOM     20  C   UNL A   1      46.171  15.102  46.319  1.00  0.00     0.052 C 
ATOM     21  C   UNL A   1      46.668  14.308  45.113  1.00  0.00     0.020 C 
BRANCH  20  22
ATOM     22  C   UNL A   1      47.286  15.895  47.044  1.00  0.00     0.043 C 
BRANCH  22  23
ATOM     23  C   UNL A   1      47.913  15.296  48.297  1.00  0.00     0.157 C 
BRANCH  23  24
ATOM     24  O   UNL A   1      48.671  16.254  49.026  1.00  0.00    -0.396 OA
ATOM     25  H   UNL A   1      48.874  17.009  48.452  1.00  0.00     0.210 HD
ENDBRANCH  23  24
ENDBRANCH  22  23
ENDBRANCH  20  22
ENDBRANCH  19  20
ENDBRANCH  10  19
ENDBRANCH   7   9
ENDBRANCH   6   7
ENDBRANCH   5   6
ENDBRANCH   4   5
ENDBRANCH   3   4
ENDBRANCH   2   3
ENDBRANCH   1   2
BRANCH   1  26
ATOM     26  O   UNL A   1      47.022  20.093  35.231  1.00  0.00    -0.377 OA
BRANCH  26  27
ATOM     27  C   UNL A   1      47.400  21.328  34.632  1.00  0.00     0.188 C 
BRANCH  27  28
ATOM     28  C   UNL A   1      47.908  22.513  35.484  1.00  0.00     0.188 C 
BRANCH  28  29
ATOM     29  O   UNL A   1      46.894  23.308  36.084  1.00  0.00    -0.376 OA
BRANCH  29  30
ATOM     30  C   UNL A   1      47.042  23.565  37.474  1.00  0.00     0.202 C 
BRANCH  30  31
ATOM     31  C   UNL A   1      47.961  24.747  37.800  1.00  0.00     0.261 C 
BRANCH  31  32
ATOM     32  O   UNL A   1      47.287  25.984  38.080  1.00  0.00    -0.460 OA
BRANCH  32  33
ATOM     33  C   UNL A   1      47.680  27.084  37.400  1.00  0.00     0.338 C 
ATOM     34  O   UNL A   1      48.817  27.485  37.230  1.00  0.00    -0.246 OA
BRANCH  33  35
ATOM     35  C   UNL A   1      46.483  27.626  36.730  1.00  0.00     0.060 A 
ATOM     36  C   UNL A   1      46.563  28.861  36.073  1.00  0.00     0.016 A 
ATOM     37  C   UNL A   1      45.302  26.881  36.708  1.00  0.00     0.016 A 
ATOM     38  C   UNL A   1      45.452  29.357  35.392  1.00  0.00     0.010 A 
ATOM     39  C   UNL A   1      44.186  27.390  36.046  1.00  0.00     0.010 A 
ATOM     40  C   UNL A   1      44.250  28.635  35.398  1.00  0.00    -0.014 A 
BRANCH  40  41
ATOM     41  C   UNL A   1      43.004  29.232  34.868  1.00  0.00     0.031 A 
ATOM     42  C   UNL A   1      42.585  28.882  33.469  1.00  0.00     0.074 A 
ATOM     43  C   UNL A   1      42.282  30.100  35.597  1.00  0.00     0.049 A 
ATOM     44  N   UNL A   1      41.607  29.363  32.751  1.00  0.00    -0.248 NA
ATOM     45  C   UNL A   1      43.387  27.851  32.788  1.00  0.00     0.031 C 
ATOM     46  C   UNL A   1      42.563  30.481  36.980  1.00  0.00     0.029 A 
ATOM     47  N   UNL A   1      41.171  30.833  35.262  1.00  0.00    -0.354 N 
ATOM     48  C   UNL A   1      41.672  28.698  31.533  1.00  0.00     0.074 A 
ATOM     49  C   UNL A   1      42.803  27.797  31.602  1.00  0.00     0.031 C 
ATOM     50  C   UNL A   1      41.656  31.394  37.371  1.00  0.00     0.029 A 
ATOM     51  C   UNL A   1      40.759  31.691  36.253  1.00  0.00     0.049 A 
ATOM     52  H   UNL A   1      40.713  30.752  34.395  1.00  0.00     0.167 HD
ATOM     53  C   UNL A   1      40.861  28.824  30.457  1.00  0.00     0.037 A 
ATOM     54  C   UNL A   1      39.791  32.630  36.244  1.00  0.00     0.037 A 
ATOM     55  C   UNL A   1      39.757  29.742  30.386  1.00  0.00     0.049 A 
ATOM     56  C   UNL A   1      38.978  32.842  34.993  1.00  0.00     0.074 A 
ATOM     57  C   UNL A   1      38.863  29.936  29.348  1.00  0.00     0.029 A 
ATOM     58  N   UNL A   1      39.408  30.637  31.387  1.00  0.00    -0.354 N 
ATOM     59  N   UNL A   1      39.027  32.188  33.856  1.00  0.00    -0.248 NA
ATOM     60  C   UNL A   1      37.989  33.929  35.016  1.00  0.00     0.031 C 
ATOM     61  C   UNL A   1      38.008  30.986  29.700  1.00  0.00     0.029 A 
ATOM     62  C   UNL A   1      38.338  31.415  30.976  1.00  0.00     0.049 A 
ATOM     63  H   UNL A   1      39.855  30.709  32.261  1.00  0.00     0.167 HD
ATOM     64  C   UNL A   1      38.069  32.775  33.035  1.00  0.00     0.074 A 
ATOM     65  C   UNL A   1      37.446  33.829  33.809  1.00  0.00     0.031 C 
ATOM     66  C   UNL A   1      37.735  32.468  31.757  1.00  0.00     0.037 A 
BRANCH  53  67
ATOM     67  C   UNL A   1      41.173  27.970  29.261  1.00  0.00     0.058 A 
ATOM     68  C   UNL A   1      40.485  26.772  29.012  1.00  0.00     0.135 A 
ATOM     69  C   UNL A   1      42.182  28.348  28.361  1.00  0.00     0.135 A 
ATOM     70  F   UNL A   1      39.525  26.356  29.853  1.00  0.00    -0.206 F 
ATOM     71  C   UNL A   1      40.813  25.958  27.933  1.00  0.00     0.059 A 
ATOM     72  C   UNL A   1      42.509  27.561  27.261  1.00  0.00     0.059 A 
ATOM     73  F   UNL A   1      42.873  29.481  28.557  1.00  0.00    -0.206 F 
ATOM     74  C   UNL A   1      41.832  26.358  27.068  1.00  0.00     0.060 A 
BRANCH  74  75
ATOM     75  S   UNL A   1      42.269  25.276  25.690  1.00  0.00     0.124 S 
ATOM     76  O   UNL A   1      40.984  24.647  25.399  1.00  0.00    -0.237 OA
ATOM     77  O   UNL A   1      42.751  26.223  24.689  1.00  0.00    -0.237 OA
ATOM     78  O   UNL A   1      43.286  24.396  26.257  1.00  0.00    -0.744 OA
ENDBRANCH  74  75
ENDBRANCH  53  67
BRANCH  54  79
ATOM     79  C   UNL A   1      39.555  33.462  37.454  1.00  0.00     0.058 A 
ATOM     80  C   UNL A   1      38.700  33.021  38.474  1.00  0.00     0.135 A 
ATOM     81  C   UNL A   1      40.189  34.703  37.622  1.00  0.00     0.135 A 
ATOM     82  F   UNL A   1      38.057  31.851  38.350  1.00  0.00    -0.206 F 
ATOM     83  C   UNL A   1      38.485  33.777  39.622  1.00  0.00     0.059 A 
ATOM     84  C   UNL A   1      40.007  35.467  38.771  1.00  0.00     0.059 A 
ATOM     85  F   UNL A   1      41.019  35.169  36.676  1.00  0.00    -0.206 F 
ATOM     86  C   UNL A   1      39.151  34.996  39.765  1.00  0.00     0.060 A 
BRANCH  86  87
ATOM     87  S   UNL A   1      38.927  35.932  41.294  1.00  0.00     0.124 S 
ATOM     88  O   UNL A   1      39.067  37.304  40.823  1.00  0.00    -0.237 OA
ATOM     89  O   UNL A   1      37.585  35.530  41.703  1.00  0.00    -0.237 OA
ATOM     90  O   UNL A   1      40.006  35.443  42.146  1.00  0.00    -0.744 OA
ENDBRANCH  86  87
ENDBRANCH  54  79
BRANCH  66  91
ATOM     91  C   UNL A   1      36.646  33.276  31.105  1.00  0.00     0.058 A 
ATOM     92  C   UNL A   1      36.937  34.241  30.128  1.00  0.00     0.135 A 
ATOM     93  C   UNL A   1      35.296  33.023  31.396  1.00  0.00     0.135 A 
ATOM     94  F   UNL A   1      38.212  34.527  29.819  1.00  0.00    -0.206 F 
ATOM     95  C   UNL A   1      35.927  34.930  29.464  1.00  0.00     0.059 A 
ATOM     96  C   UNL A   1      34.270  33.684  30.728  1.00  0.00     0.059 A 
ATOM     97  F   UNL A   1      34.964  32.104  32.317  1.00  0.00    -0.206 F 
ATOM     98  C   UNL A   1      34.595  34.639  29.765  1.00  0.00     0.060 A 
BRANCH  98  99
ATOM     99  S   UNL A   1      33.294  35.493  28.850  1.00  0.00     0.124 S 
ATOM    100  O   UNL A   1      32.553  34.374  28.277  1.00  0.00    -0.237 OA
ATOM    101  O   UNL A   1      32.607  36.234  29.904  1.00  0.00    -0.237 OA
ATOM    102  O   UNL A   1      34.032  36.314  27.895  1.00  0.00    -0.744 OA
ENDBRANCH  98  99
ENDBRANCH  66  91
ENDBRANCH  40  41
ENDBRANCH  33  35
ENDBRANCH  32  33
ENDBRANCH  31  32
ENDBRANCH  30  31
ENDBRANCH  29  30
ENDBRANCH  28  29
ENDBRANCH  27  28
ENDBRANCH  26  27
ENDBRANCH   1  26
TORSDOF 28
ENDMDL
