MODEL 1
REMARK VINA RESULT:      -9.1      0.000      0.000
REMARK SMILES CC[C@](C)(C(=O)OCCOCCOCCOCCOC(=O)c1ccc(-c2c3nc(c(-c4c(F)cc(S(=O)(=O)[O-])cc4F)c4ccc([nH]4)c(-c4c(F)cc(S(=O)(=O)[O-])cc4F)c4nc(c(-c5c(F)cc(S(=O)(=O)[O-])cc5F)c5ccc2[nH]5)C=C4)C=C3)cc1)[C@H]1CCC[C@H](OC)C1
REMARK SMILES IDX 14 1 13 2 12 3 11 4 10 5 9 6 8 7 7 8 5 9 6 10 3 11 4 12 2 13
REMARK SMILES IDX 1 14 88 15 89 16 95 17 90 18 92 19 91 20 93 21 94 22 15 23
REMARK SMILES IDX 16 24 17 25 18 26 19 27 20 28 21 29 22 30 23 31 87 32 24 33
REMARK SMILES IDX 86 34 25 35 26 36 27 37 80 38 28 39 85 40 79 41 81 42 29 43
REMARK SMILES IDX 84 44 78 45 77 46 30 48 64 49 43 50 63 51 44 52 47 53 62 54
REMARK SMILES IDX 82 55 45 56 46 57 61 59 83 60 48 61 31 62 32 63 41 64 33 65
REMARK SMILES IDX 34 66 40 67 42 68 35 69 36 70 37 71 38 72 39 73 65 74 66 75
REMARK SMILES IDX 75 76 67 77 68 78 74 79 76 80 69 81 70 82 71 83 72 84 73 85
REMARK SMILES IDX 49 86 50 87 59 88 51 89 52 90 58 91 60 92 53 93 54 94 55 95
REMARK SMILES IDX 56 96 57 97
REMARK H PARENT 81 47 47 58
REMARK Flexibility Score: inf
ROOT
ATOM      1  C   UNL A   1      31.803  29.615  25.951  1.00  0.00     0.188 C 
ENDROOT
BRANCH   1   2
ATOM      2  O   UNL A   1      31.843  28.955  24.695  1.00  0.00    -0.377 OA
BRANCH   2   3
ATOM      3  C   UNL A   1      30.786  28.074  24.393  1.00  0.00     0.188 C 
BRANCH   3   4
ATOM      4  C   UNL A   1      30.474  27.794  22.913  1.00  0.00     0.188 C 
BRANCH   4   5
ATOM      5  O   UNL A   1      31.377  26.896  22.283  1.00  0.00    -0.376 OA
BRANCH   5   6
ATOM      6  C   UNL A   1      32.113  26.069  23.174  1.00  0.00     0.202 C 
BRANCH   6   7
ATOM      7  C   UNL A   1      33.611  25.947  22.863  1.00  0.00     0.261 C 
BRANCH   7   8
ATOM      8  O   UNL A   1      34.483  25.583  23.956  1.00  0.00    -0.463 OA
BRANCH   8   9
ATOM      9  C   UNL A   1      33.985  24.831  24.965  1.00  0.00     0.312 C 
ATOM     10  O   UNL A   1      33.392  25.323  25.918  1.00  0.00    -0.252 OA
BRANCH   9  11
ATOM     11  C   UNL A   1      34.340  23.321  24.849  1.00  0.00     0.068 C 
ATOM     12  C   UNL A   1      35.144  22.968  23.545  1.00  0.00     0.024 C 
BRANCH  11  13
ATOM     13  C   UNL A   1      35.390  23.063  26.014  1.00  0.00     0.015 C 
ATOM     14  C   UNL A   1      36.776  23.694  25.931  1.00  0.00     0.005 C 
ENDBRANCH  11  13
BRANCH  11  15
ATOM     15  C   UNL A   1      33.058  22.329  25.021  1.00  0.00     0.008 C 
ATOM     16  C   UNL A   1      32.013  22.313  23.876  1.00  0.00     0.005 C 
ATOM     17  C   UNL A   1      33.226  20.859  25.532  1.00  0.00     0.036 C 
ATOM     18  C   UNL A   1      32.200  21.235  22.801  1.00  0.00     0.003 C 
ATOM     19  C   UNL A   1      33.420  19.792  24.457  1.00  0.00     0.118 C 
ATOM     20  C   UNL A   1      32.351  19.835  23.375  1.00  0.00     0.032 C 
BRANCH  19  21
ATOM     21  O   UNL A   1      33.670  18.512  25.045  1.00  0.00    -0.381 OA
ATOM     22  C   UNL A   1      32.544  17.732  25.407  1.00  0.00     0.195 C 
ENDBRANCH  19  21
ENDBRANCH  11  15
ENDBRANCH   9  11
ENDBRANCH   8   9
ENDBRANCH   7   8
ENDBRANCH   6   7
ENDBRANCH   5   6
ENDBRANCH   4   5
ENDBRANCH   3   4
ENDBRANCH   2   3
ENDBRANCH   1   2
BRANCH   1  23
ATOM     23  C   UNL A   1      32.353  28.910  27.212  1.00  0.00     0.188 C 
BRANCH  23  24
ATOM     24  O   UNL A   1      33.709  28.481  27.144  1.00  0.00    -0.376 OA
BRANCH  24  25
ATOM     25  C   UNL A   1      34.705  29.467  26.916  1.00  0.00     0.202 C 
BRANCH  25  26
ATOM     26  C   UNL A   1      34.884  30.507  28.030  1.00  0.00     0.261 C 
BRANCH  26  27
ATOM     27  O   UNL A   1      36.180  31.117  28.099  1.00  0.00    -0.460 OA
BRANCH  27  28
ATOM     28  C   UNL A   1      36.831  31.085  29.284  1.00  0.00     0.338 C 
ATOM     29  O   UNL A   1      36.365  31.285  30.391  1.00  0.00    -0.246 OA
BRANCH  28  30
ATOM     30  C   UNL A   1      38.172  30.527  29.017  1.00  0.00     0.060 A 
ATOM     31  C   UNL A   1      39.169  30.672  29.993  1.00  0.00     0.016 A 
ATOM     32  C   UNL A   1      38.409  29.779  27.861  1.00  0.00     0.016 A 
ATOM     33  C   UNL A   1      40.412  30.073  29.810  1.00  0.00     0.010 A 
ATOM     34  C   UNL A   1      39.669  29.217  27.657  1.00  0.00     0.010 A 
ATOM     35  C   UNL A   1      40.682  29.388  28.617  1.00  0.00    -0.014 A 
BRANCH  35  36
ATOM     36  C   UNL A   1      42.088  29.115  28.250  1.00  0.00     0.031 A 
ATOM     37  C   UNL A   1      42.437  27.694  27.904  1.00  0.00     0.074 A 
ATOM     38  C   UNL A   1      43.017  30.084  28.207  1.00  0.00     0.049 A 
ATOM     39  N   UNL A   1      43.592  27.175  27.584  1.00  0.00    -0.248 NA
ATOM     40  C   UNL A   1      41.325  26.726  27.926  1.00  0.00     0.031 C 
ATOM     41  C   UNL A   1      42.783  31.500  28.484  1.00  0.00     0.029 A 
ATOM     42  N   UNL A   1      44.358  30.012  27.920  1.00  0.00    -0.354 N 
ATOM     43  C   UNL A   1      43.343  25.826  27.361  1.00  0.00     0.074 A 
ATOM     44  C   UNL A   1      41.939  25.597  27.614  1.00  0.00     0.031 C 
ATOM     45  C   UNL A   1      43.950  32.162  28.373  1.00  0.00     0.029 A 
ATOM     46  C   UNL A   1      45.013  31.213  28.043  1.00  0.00     0.049 A 
ATOM     47  H   UNL A   1      44.807  29.179  27.650  1.00  0.00     0.167 HD
ATOM     48  C   UNL A   1      44.209  24.862  26.972  1.00  0.00     0.037 A 
ATOM     49  C   UNL A   1      46.326  31.500  27.925  1.00  0.00     0.037 A 
ATOM     50  C   UNL A   1      45.609  25.092  26.749  1.00  0.00     0.049 A 
ATOM     51  C   UNL A   1      47.289  30.394  27.568  1.00  0.00     0.074 A 
ATOM     52  C   UNL A   1      46.579  24.186  26.362  1.00  0.00     0.029 A 
ATOM     53  N   UNL A   1      46.242  26.317  26.908  1.00  0.00    -0.354 N 
ATOM     54  N   UNL A   1      47.043  29.126  27.337  1.00  0.00    -0.248 NA
ATOM     55  C   UNL A   1      48.710  30.758  27.453  1.00  0.00     0.031 C 
ATOM     56  C   UNL A   1      47.808  24.853  26.333  1.00  0.00     0.029 A 
ATOM     57  C   UNL A   1      47.595  26.186  26.647  1.00  0.00     0.049 A 
ATOM     58  H   UNL A   1      45.795  27.155  27.168  1.00  0.00     0.167 HD
ATOM     59  C   UNL A   1      48.270  28.547  27.022  1.00  0.00     0.074 A 
ATOM     60  C   UNL A   1      49.255  29.607  27.084  1.00  0.00     0.031 C 
ATOM     61  C   UNL A   1      48.557  27.259  26.707  1.00  0.00     0.037 A 
BRANCH  48  62
ATOM     62  C   UNL A   1      43.661  23.474  26.800  1.00  0.00     0.058 A 
ATOM     63  C   UNL A   1      43.345  22.666  27.904  1.00  0.00     0.135 A 
ATOM     64  C   UNL A   1      43.455  22.946  25.517  1.00  0.00     0.135 A 
ATOM     65  F   UNL A   1      43.551  23.112  29.153  1.00  0.00    -0.206 F 
ATOM     66  C   UNL A   1      42.863  21.370  27.740  1.00  0.00     0.059 A 
ATOM     67  C   UNL A   1      42.948  21.663  25.330  1.00  0.00     0.059 A 
ATOM     68  F   UNL A   1      43.755  23.672  24.430  1.00  0.00    -0.206 F 
ATOM     69  C   UNL A   1      42.669  20.879  26.448  1.00  0.00     0.060 A 
BRANCH  69  70
ATOM     70  S   UNL A   1      42.040  19.198  26.252  1.00  0.00     0.124 S 
ATOM     71  O   UNL A   1      42.289  18.638  27.577  1.00  0.00    -0.237 OA
ATOM     72  O   UNL A   1      40.638  19.428  25.916  1.00  0.00    -0.237 OA
ATOM     73  O   UNL A   1      42.859  18.652  25.175  1.00  0.00    -0.744 OA
ENDBRANCH  69  70
ENDBRANCH  48  62
BRANCH  49  74
ATOM     74  C   UNL A   1      46.812  32.887  28.164  1.00  0.00     0.058 A 
ATOM     75  C   UNL A   1      46.832  33.840  27.134  1.00  0.00     0.135 A 
ATOM     76  C   UNL A   1      47.275  33.285  29.428  1.00  0.00     0.135 A 
ATOM     77  F   UNL A   1      46.415  33.506  25.903  1.00  0.00    -0.206 F 
ATOM     78  C   UNL A   1      47.302  35.133  27.345  1.00  0.00     0.059 A 
ATOM     79  C   UNL A   1      47.727  34.579  29.670  1.00  0.00     0.059 A 
ATOM     80  F   UNL A   1      47.275  32.414  30.449  1.00  0.00    -0.206 F 
ATOM     81  C   UNL A   1      47.745  35.494  28.619  1.00  0.00     0.060 A 
BRANCH  81  82
ATOM     82  S   UNL A   1      48.303  37.190  28.896  1.00  0.00     0.124 S 
ATOM     83  O   UNL A   1      48.858  37.534  27.592  1.00  0.00    -0.237 OA
ATOM     84  O   UNL A   1      47.061  37.866  29.260  1.00  0.00    -0.237 OA
ATOM     85  O   UNL A   1      49.272  37.053  29.979  1.00  0.00    -0.744 OA
ENDBRANCH  81  82
ENDBRANCH  49  74
BRANCH  61  86
ATOM     86  C   UNL A   1      49.983  26.924  26.366  1.00  0.00     0.058 A 
ATOM     87  C   UNL A   1      50.463  26.990  25.049  1.00  0.00     0.135 A 
ATOM     88  C   UNL A   1      50.897  26.601  27.382  1.00  0.00     0.135 A 
ATOM     89  F   UNL A   1      49.631  27.291  24.039  1.00  0.00    -0.206 F 
ATOM     90  C   UNL A   1      51.796  26.726  24.748  1.00  0.00     0.059 A 
ATOM     91  C   UNL A   1      52.240  26.362  27.108  1.00  0.00     0.059 A 
ATOM     92  F   UNL A   1      50.493  26.540  28.660  1.00  0.00    -0.206 F 
ATOM     93  C   UNL A   1      52.678  26.415  25.787  1.00  0.00     0.060 A 
BRANCH  93  94
ATOM     94  S   UNL A   1      54.412  26.111  25.388  1.00  0.00     0.124 S 
ATOM     95  O   UNL A   1      54.364  24.739  24.896  1.00  0.00    -0.237 OA
ATOM     96  O   UNL A   1      54.687  27.135  24.386  1.00  0.00    -0.237 OA
ATOM     97  O   UNL A   1      55.092  26.297  26.667  1.00  0.00    -0.744 OA
ENDBRANCH  93  94
ENDBRANCH  61  86
ENDBRANCH  35  36
ENDBRANCH  28  30
ENDBRANCH  27  28
ENDBRANCH  26  27
ENDBRANCH  25  26
ENDBRANCH  24  25
ENDBRANCH  23  24
ENDBRANCH   1  23
TORSDOF 26
ENDMDL
MODEL 2
REMARK VINA RESULT:      -8.1      1.078      2.497
REMARK SMILES CC[C@](C)(C(=O)OCCOCCOCCOCCOC(=O)c1ccc(-c2c3nc(c(-c4c(F)cc(S(=O)(=O)[O-])cc4F)c4ccc([nH]4)c(-c4c(F)cc(S(=O)(=O)[O-])cc4F)c4nc(c(-c5c(F)cc(S(=O)(=O)[O-])cc5F)c5ccc2[nH]5)C=C4)C=C3)cc1)[C@H]1CCC[C@H](OC)C1
REMARK SMILES IDX 14 1 13 2 12 3 11 4 10 5 9 6 8 7 7 8 5 9 6 10 3 11 4 12 2 13
REMARK SMILES IDX 1 14 88 15 89 16 95 17 90 18 92 19 91 20 93 21 94 22 15 23
REMARK SMILES IDX 16 24 17 25 18 26 19 27 20 28 21 29 22 30 23 31 87 32 24 33
REMARK SMILES IDX 86 34 25 35 26 36 27 37 80 38 28 39 85 40 79 41 81 42 29 43
REMARK SMILES IDX 84 44 78 45 77 46 30 48 64 49 43 50 63 51 44 52 47 53 62 54
REMARK SMILES IDX 82 55 45 56 46 57 61 59 83 60 48 61 31 62 32 63 41 64 33 65
REMARK SMILES IDX 34 66 40 67 42 68 35 69 36 70 37 71 38 72 39 73 65 74 66 75
REMARK SMILES IDX 75 76 67 77 68 78 74 79 76 80 69 81 70 82 71 83 72 84 73 85
REMARK SMILES IDX 49 86 50 87 59 88 51 89 52 90 58 91 60 92 53 93 54 94 55 95
REMARK SMILES IDX 56 96 57 97
REMARK H PARENT 81 47 47 58
REMARK Flexibility Score: inf
ROOT
ATOM      1  C   UNL A   1      32.086  30.710  26.318  1.00  0.00     0.188 C 
ENDROOT
BRANCH   1   2
ATOM      2  O   UNL A   1      31.965  30.132  25.028  1.00  0.00    -0.377 OA
BRANCH   2   3
ATOM      3  C   UNL A   1      30.963  29.158  24.847  1.00  0.00     0.188 C 
BRANCH   3   4
ATOM      4  C   UNL A   1      30.268  29.075  23.477  1.00  0.00     0.188 C 
BRANCH   4   5
ATOM      5  O   UNL A   1      30.161  27.759  22.953  1.00  0.00    -0.376 OA
BRANCH   5   6
ATOM      6  C   UNL A   1      30.037  26.736  23.932  1.00  0.00     0.202 C 
BRANCH   6   7
ATOM      7  C   UNL A   1      30.223  25.305  23.406  1.00  0.00     0.261 C 
BRANCH   7   8
ATOM      8  O   UNL A   1      30.632  24.302  24.361  1.00  0.00    -0.463 OA
BRANCH   8   9
ATOM      9  C   UNL A   1      31.451  23.306  23.951  1.00  0.00     0.312 C 
ATOM     10  O   UNL A   1      31.693  23.102  22.767  1.00  0.00    -0.252 OA
BRANCH   9  11
ATOM     11  C   UNL A   1      31.950  22.395  25.108  1.00  0.00     0.068 C 
ATOM     12  C   UNL A   1      30.786  21.819  25.995  1.00  0.00     0.024 C 
BRANCH  11  13
ATOM     13  C   UNL A   1      32.535  21.106  24.384  1.00  0.00     0.015 C 
ATOM     14  C   UNL A   1      32.458  19.752  25.079  1.00  0.00     0.005 C 
ENDBRANCH  11  13
BRANCH  11  15
ATOM     15  C   UNL A   1      33.096  23.083  26.040  1.00  0.00     0.008 C 
ATOM     16  C   UNL A   1      34.550  22.574  25.871  1.00  0.00     0.005 C 
ATOM     17  C   UNL A   1      33.156  24.634  26.248  1.00  0.00     0.036 C 
ATOM     18  C   UNL A   1      35.435  23.359  24.895  1.00  0.00     0.003 C 
ATOM     19  C   UNL A   1      34.032  25.410  25.268  1.00  0.00     0.118 C 
ATOM     20  C   UNL A   1      35.446  24.856  25.164  1.00  0.00     0.032 C 
BRANCH  19  21
ATOM     21  O   UNL A   1      33.923  26.819  25.488  1.00  0.00    -0.381 OA
ATOM     22  C   UNL A   1      34.056  27.665  24.359  1.00  0.00     0.195 C 
ENDBRANCH  19  21
ENDBRANCH  11  15
ENDBRANCH   9  11
ENDBRANCH   8   9
ENDBRANCH   7   8
ENDBRANCH   6   7
ENDBRANCH   5   6
ENDBRANCH   4   5
ENDBRANCH   3   4
ENDBRANCH   2   3
ENDBRANCH   1   2
BRANCH   1  23
ATOM     23  C   UNL A   1      32.962  30.025  27.392  1.00  0.00     0.188 C 
BRANCH  23  24
ATOM     24  O   UNL A   1      34.332  29.840  27.054  1.00  0.00    -0.376 OA
BRANCH  24  25
ATOM     25  C   UNL A   1      35.295  30.637  27.729  1.00  0.00     0.202 C 
BRANCH  25  26
ATOM     26  C   UNL A   1      35.756  30.113  29.096  1.00  0.00     0.261 C 
BRANCH  26  27
ATOM     27  O   UNL A   1      36.257  31.108  29.999  1.00  0.00    -0.460 OA
BRANCH  27  28
ATOM     28  C   UNL A   1      37.059  30.700  31.008  1.00  0.00     0.338 C 
ATOM     29  O   UNL A   1      36.759  30.558  32.180  1.00  0.00    -0.246 OA
BRANCH  28  30
ATOM     30  C   UNL A   1      38.312  30.225  30.390  1.00  0.00     0.060 A 
ATOM     31  C   UNL A   1      39.150  29.377  31.130  1.00  0.00     0.016 A 
ATOM     32  C   UNL A   1      38.604  30.530  29.057  1.00  0.00     0.016 A 
ATOM     33  C   UNL A   1      40.289  28.838  30.539  1.00  0.00     0.010 A 
ATOM     34  C   UNL A   1      39.768  30.025  28.480  1.00  0.00     0.010 A 
ATOM     35  C   UNL A   1      40.628  29.202  29.229  1.00  0.00    -0.014 A 
BRANCH  35  36
ATOM     36  C   UNL A   1      42.009  28.969  28.755  1.00  0.00     0.031 A 
ATOM     37  C   UNL A   1      42.352  27.572  28.315  1.00  0.00     0.074 A 
ATOM     38  C   UNL A   1      42.922  29.954  28.698  1.00  0.00     0.049 A 
ATOM     39  N   UNL A   1      43.488  27.088  27.892  1.00  0.00    -0.248 NA
ATOM     40  C   UNL A   1      41.255  26.587  28.363  1.00  0.00     0.031 C 
ATOM     41  C   UNL A   1      42.690  31.350  29.061  1.00  0.00     0.029 A 
ATOM     42  N   UNL A   1      44.240  29.917  28.318  1.00  0.00    -0.354 N 
ATOM     43  C   UNL A   1      43.241  25.748  27.618  1.00  0.00     0.074 A 
ATOM     44  C   UNL A   1      41.861  25.485  27.953  1.00  0.00     0.031 C 
ATOM     45  C   UNL A   1      43.838  32.035  28.906  1.00  0.00     0.029 A 
ATOM     46  C   UNL A   1      44.888  31.120  28.458  1.00  0.00     0.049 A 
ATOM     47  H   UNL A   1      44.680  29.105  27.978  1.00  0.00     0.167 HD
ATOM     48  C   UNL A   1      44.090  24.819  27.125  1.00  0.00     0.037 A 
ATOM     49  C   UNL A   1      46.186  31.433  28.266  1.00  0.00     0.037 A 
ATOM     50  C   UNL A   1      45.469  25.080  26.819  1.00  0.00     0.049 A 
ATOM     51  C   UNL A   1      47.136  30.361  27.790  1.00  0.00     0.074 A 
ATOM     52  C   UNL A   1      46.422  24.210  26.324  1.00  0.00     0.029 A 
ATOM     53  N   UNL A   1      46.096  26.306  26.997  1.00  0.00    -0.354 N 
ATOM     54  N   UNL A   1      46.891  29.102  27.512  1.00  0.00    -0.248 NA
ATOM     55  C   UNL A   1      48.541  30.752  27.598  1.00  0.00     0.031 C 
ATOM     56  C   UNL A   1      47.638  24.897  26.245  1.00  0.00     0.029 A 
ATOM     57  C   UNL A   1      47.430  26.209  26.640  1.00  0.00     0.049 A 
ATOM     58  H   UNL A   1      45.657  27.123  27.329  1.00  0.00     0.167 HD
ATOM     59  C   UNL A   1      48.100  28.559  27.087  1.00  0.00     0.074 A 
ATOM     60  C   UNL A   1      49.074  29.630  27.136  1.00  0.00     0.031 C 
ATOM     61  C   UNL A   1      48.380  27.293  26.689  1.00  0.00     0.037 A 
BRANCH  48  62
ATOM     62  C   UNL A   1      43.549  23.432  26.920  1.00  0.00     0.058 A 
ATOM     63  C   UNL A   1      43.394  22.537  27.991  1.00  0.00     0.135 A 
ATOM     64  C   UNL A   1      43.185  22.993  25.638  1.00  0.00     0.135 A 
ATOM     65  F   UNL A   1      43.755  22.896  29.233  1.00  0.00    -0.206 F 
ATOM     66  C   UNL A   1      42.918  21.244  27.793  1.00  0.00     0.059 A 
ATOM     67  C   UNL A   1      42.681  21.715  25.421  1.00  0.00     0.059 A 
ATOM     68  F   UNL A   1      43.327  23.805  24.580  1.00  0.00    -0.206 F 
ATOM     69  C   UNL A   1      42.564  20.843  26.504  1.00  0.00     0.060 A 
BRANCH  69  70
ATOM     70  S   UNL A   1      41.945  19.165  26.263  1.00  0.00     0.124 S 
ATOM     71  O   UNL A   1      40.552  19.419  25.901  1.00  0.00    -0.237 OA
ATOM     72  O   UNL A   1      42.798  18.669  25.188  1.00  0.00    -0.237 OA
ATOM     73  O   UNL A   1      42.150  18.537  27.564  1.00  0.00    -0.744 OA
ENDBRANCH  69  70
ENDBRANCH  48  62
BRANCH  49  74
ATOM     74  C   UNL A   1      46.670  32.814  28.542  1.00  0.00     0.058 A 
ATOM     75  C   UNL A   1      46.711  33.787  27.531  1.00  0.00     0.135 A 
ATOM     76  C   UNL A   1      47.110  33.186  29.821  1.00  0.00     0.135 A 
ATOM     77  F   UNL A   1      46.317  33.479  26.287  1.00  0.00    -0.206 F 
ATOM     78  C   UNL A   1      47.180  35.074  27.776  1.00  0.00     0.059 A 
ATOM     79  C   UNL A   1      47.560  34.474  30.098  1.00  0.00     0.059 A 
ATOM     80  F   UNL A   1      47.089  32.295  30.825  1.00  0.00    -0.206 F 
ATOM     81  C   UNL A   1      47.599  35.410  29.065  1.00  0.00     0.060 A 
BRANCH  81  82
ATOM     82  S   UNL A   1      48.155  37.098  29.386  1.00  0.00     0.124 S 
ATOM     83  O   UNL A   1      49.541  36.881  29.784  1.00  0.00    -0.237 OA
ATOM     84  O   UNL A   1      47.956  37.738  28.088  1.00  0.00    -0.237 OA
ATOM     85  O   UNL A   1      47.257  37.553  30.444  1.00  0.00    -0.744 OA
ENDBRANCH  81  82
ENDBRANCH  49  74
BRANCH  61  86
ATOM     86  C   UNL A   1      49.784  26.998  26.236  1.00  0.00     0.058 A 
ATOM     87  C   UNL A   1      50.793  26.638  27.142  1.00  0.00     0.135 A 
ATOM     88  C   UNL A   1      50.104  27.008  24.869  1.00  0.00     0.135 A 
ATOM     89  F   UNL A   1      50.542  26.615  28.461  1.00  0.00    -0.206 F 
ATOM     90  C   UNL A   1      52.077  26.318  26.710  1.00  0.00     0.059 A 
ATOM     91  C   UNL A   1      51.372  26.664  24.412  1.00  0.00     0.059 A 
ATOM     92  F   UNL A   1      49.171  27.330  23.959  1.00  0.00    -0.206 F 
ATOM     93  C   UNL A   1      52.356  26.333  25.341  1.00  0.00     0.060 A 
BRANCH  93  94
ATOM     94  S   UNL A   1      54.014  25.880  24.790  1.00  0.00     0.124 S 
ATOM     95  O   UNL A   1      54.019  26.389  23.423  1.00  0.00    -0.237 OA
ATOM     96  O   UNL A   1      54.864  26.597  25.736  1.00  0.00    -0.237 OA
ATOM     97  O   UNL A   1      54.031  24.426  24.920  1.00  0.00    -0.744 OA
ENDBRANCH  93  94
ENDBRANCH  61  86
ENDBRANCH  35  36
ENDBRANCH  28  30
ENDBRANCH  27  28
ENDBRANCH  26  27
ENDBRANCH  25  26
ENDBRANCH  24  25
ENDBRANCH  23  24
ENDBRANCH   1  23
TORSDOF 26
ENDMDL
MODEL 3
REMARK VINA RESULT:      -7.6      7.132     14.587
REMARK SMILES CC[C@](C)(C(=O)OCCOCCOCCOCCOC(=O)c1ccc(-c2c3nc(c(-c4c(F)cc(S(=O)(=O)[O-])cc4F)c4ccc([nH]4)c(-c4c(F)cc(S(=O)(=O)[O-])cc4F)c4nc(c(-c5c(F)cc(S(=O)(=O)[O-])cc5F)c5ccc2[nH]5)C=C4)C=C3)cc1)[C@H]1CCC[C@H](OC)C1
REMARK SMILES IDX 14 1 13 2 12 3 11 4 10 5 9 6 8 7 7 8 5 9 6 10 3 11 4 12 2 13
REMARK SMILES IDX 1 14 88 15 89 16 95 17 90 18 92 19 91 20 93 21 94 22 15 23
REMARK SMILES IDX 16 24 17 25 18 26 19 27 20 28 21 29 22 30 23 31 87 32 24 33
REMARK SMILES IDX 86 34 25 35 26 36 27 37 80 38 28 39 85 40 79 41 81 42 29 43
REMARK SMILES IDX 84 44 78 45 77 46 30 48 64 49 43 50 63 51 44 52 47 53 62 54
REMARK SMILES IDX 82 55 45 56 46 57 61 59 83 60 48 61 31 62 32 63 41 64 33 65
REMARK SMILES IDX 34 66 40 67 42 68 35 69 36 70 37 71 38 72 39 73 65 74 66 75
REMARK SMILES IDX 75 76 67 77 68 78 74 79 76 80 69 81 70 82 71 83 72 84 73 85
REMARK SMILES IDX 49 86 50 87 59 88 51 89 52 90 58 91 60 92 53 93 54 94 55 95
REMARK SMILES IDX 56 96 57 97
REMARK H PARENT 81 47 47 58
REMARK Flexibility Score: inf
ROOT
ATOM      1  C   UNL A   1      42.366  29.672  26.477  1.00  0.00     0.188 C 
ENDROOT
BRANCH   1   2
ATOM      2  O   UNL A   1      43.769  29.881  26.431  1.00  0.00    -0.377 OA
BRANCH   2   3
ATOM      3  C   UNL A   1      44.307  30.855  27.296  1.00  0.00     0.188 C 
BRANCH   3   4
ATOM      4  C   UNL A   1      44.327  32.317  26.820  1.00  0.00     0.188 C 
BRANCH   4   5
ATOM      5  O   UNL A   1      44.351  33.275  27.869  1.00  0.00    -0.376 OA
BRANCH   5   6
ATOM      6  C   UNL A   1      43.537  32.952  28.989  1.00  0.00     0.202 C 
BRANCH   6   7
ATOM      7  C   UNL A   1      42.582  34.066  29.442  1.00  0.00     0.261 C 
BRANCH   7   8
ATOM      8  O   UNL A   1      43.176  35.326  29.823  1.00  0.00    -0.463 OA
BRANCH   8   9
ATOM      9  C   UNL A   1      43.196  36.336  28.924  1.00  0.00     0.312 C 
ATOM     10  O   UNL A   1      42.221  36.625  28.240  1.00  0.00    -0.252 OA
BRANCH   9  11
ATOM     11  C   UNL A   1      44.593  37.003  28.768  1.00  0.00     0.068 C 
ATOM     12  C   UNL A   1      45.777  36.092  29.256  1.00  0.00     0.024 C 
BRANCH  11  13
ATOM     13  C   UNL A   1      44.821  37.099  27.197  1.00  0.00     0.015 C 
ATOM     14  C   UNL A   1      45.877  36.220  26.536  1.00  0.00     0.005 C 
ENDBRANCH  11  13
BRANCH  11  15
ATOM     15  C   UNL A   1      44.693  38.485  29.440  1.00  0.00     0.008 C 
ATOM     16  C   UNL A   1      45.653  39.504  28.775  1.00  0.00     0.005 C 
ATOM     17  C   UNL A   1      43.412  39.264  29.893  1.00  0.00     0.036 C 
ATOM     18  C   UNL A   1      45.029  40.450  27.741  1.00  0.00     0.003 C 
ATOM     19  C   UNL A   1      42.792  40.197  28.856  1.00  0.00     0.118 C 
ATOM     20  C   UNL A   1      43.794  41.173  28.257  1.00  0.00     0.032 C 
BRANCH  19  21
ATOM     21  O   UNL A   1      41.573  40.767  29.344  1.00  0.00    -0.381 OA
ATOM     22  C   UNL A   1      41.618  41.417  30.603  1.00  0.00     0.195 C 
ENDBRANCH  19  21
ENDBRANCH  11  15
ENDBRANCH   9  11
ENDBRANCH   8   9
ENDBRANCH   7   8
ENDBRANCH   6   7
ENDBRANCH   5   6
ENDBRANCH   4   5
ENDBRANCH   3   4
ENDBRANCH   2   3
ENDBRANCH   1   2
BRANCH   1  23
ATOM     23  C   UNL A   1      41.741  28.459  25.749  1.00  0.00     0.188 C 
BRANCH  23  24
ATOM     24  O   UNL A   1      42.528  27.883  24.712  1.00  0.00    -0.376 OA
BRANCH  24  25
ATOM     25  C   UNL A   1      43.350  26.773  25.043  1.00  0.00     0.202 C 
BRANCH  25  26
ATOM     26  C   UNL A   1      42.676  25.397  24.973  1.00  0.00     0.261 C 
BRANCH  26  27
ATOM     27  O   UNL A   1      42.041  24.960  26.181  1.00  0.00    -0.460 OA
BRANCH  27  28
ATOM     28  C   UNL A   1      42.823  24.741  27.263  1.00  0.00     0.338 C 
ATOM     29  O   UNL A   1      43.761  23.969  27.354  1.00  0.00    -0.246 OA
BRANCH  28  30
ATOM     30  C   UNL A   1      42.483  25.784  28.251  1.00  0.00     0.060 A 
ATOM     31  C   UNL A   1      43.469  26.714  28.614  1.00  0.00     0.016 A 
ATOM     32  C   UNL A   1      41.177  25.904  28.733  1.00  0.00     0.016 A 
ATOM     33  C   UNL A   1      43.150  27.765  29.470  1.00  0.00     0.010 A 
ATOM     34  C   UNL A   1      40.870  26.930  29.625  1.00  0.00     0.010 A 
ATOM     35  C   UNL A   1      41.863  27.845  30.018  1.00  0.00    -0.014 A 
BRANCH  35  36
ATOM     36  C   UNL A   1      41.643  28.690  31.212  1.00  0.00     0.031 A 
ATOM     37  C   UNL A   1      40.536  29.705  31.133  1.00  0.00     0.074 A 
ATOM     38  C   UNL A   1      42.380  28.558  32.327  1.00  0.00     0.049 A 
ATOM     39  N   UNL A   1      40.154  30.590  32.013  1.00  0.00    -0.248 NA
ATOM     40  C   UNL A   1      39.754  29.720  29.883  1.00  0.00     0.031 C 
ATOM     41  C   UNL A   1      43.451  27.584  32.529  1.00  0.00     0.029 A 
ATOM     42  N   UNL A   1      42.338  29.263  33.504  1.00  0.00    -0.354 N 
ATOM     43  C   UNL A   1      39.087  31.260  31.427  1.00  0.00     0.074 A 
ATOM     44  C   UNL A   1      38.902  30.706  30.106  1.00  0.00     0.031 C 
ATOM     45  C   UNL A   1      43.980  27.769  33.752  1.00  0.00     0.029 A 
ATOM     46  C   UNL A   1      43.303  28.888  34.407  1.00  0.00     0.049 A 
ATOM     47  H   UNL A   1      41.679  29.972  33.684  1.00  0.00     0.167 HD
ATOM     48  C   UNL A   1      38.324  32.248  31.948  1.00  0.00     0.037 A 
ATOM     49  C   UNL A   1      43.613  29.409  35.612  1.00  0.00     0.037 A 
ATOM     50  C   UNL A   1      38.532  32.813  33.252  1.00  0.00     0.049 A 
ATOM     51  C   UNL A   1      42.798  30.564  36.142  1.00  0.00     0.074 A 
ATOM     52  C   UNL A   1      37.824  33.823  33.876  1.00  0.00     0.029 A 
ATOM     53  N   UNL A   1      39.535  32.423  34.128  1.00  0.00    -0.354 N 
ATOM     54  N   UNL A   1      41.777  31.178  35.592  1.00  0.00    -0.248 NA
ATOM     55  C   UNL A   1      43.176  31.098  37.459  1.00  0.00     0.031 C 
ATOM     56  C   UNL A   1      38.428  34.077  35.111  1.00  0.00     0.029 A 
ATOM     57  C   UNL A   1      39.478  33.188  35.280  1.00  0.00     0.049 A 
ATOM     58  H   UNL A   1      40.191  31.708  33.956  1.00  0.00     0.167 HD
ATOM     59  C   UNL A   1      41.373  32.148  36.505  1.00  0.00     0.074 A 
ATOM     60  C   UNL A   1      42.256  32.034  37.648  1.00  0.00     0.031 C 
ATOM     61  C   UNL A   1      40.364  33.049  36.410  1.00  0.00     0.037 A 
BRANCH  48  62
ATOM     62  C   UNL A   1      37.222  32.792  31.085  1.00  0.00     0.058 A 
ATOM     63  C   UNL A   1      35.878  32.451  31.305  1.00  0.00     0.135 A 
ATOM     64  C   UNL A   1      37.513  33.662  30.024  1.00  0.00     0.135 A 
ATOM     65  F   UNL A   1      35.547  31.599  32.289  1.00  0.00    -0.206 F 
ATOM     66  C   UNL A   1      34.862  32.936  30.487  1.00  0.00     0.059 A 
ATOM     67  C   UNL A   1      36.511  34.182  29.210  1.00  0.00     0.059 A 
ATOM     68  F   UNL A   1      38.783  34.009  29.762  1.00  0.00    -0.206 F 
ATOM     69  C   UNL A   1      35.190  33.801  29.442  1.00  0.00     0.060 A 
BRANCH  69  70
ATOM     70  S   UNL A   1      33.861  34.425  28.392  1.00  0.00     0.124 S 
ATOM     71  O   UNL A   1      33.768  33.372  27.384  1.00  0.00    -0.237 OA
ATOM     72  O   UNL A   1      32.741  34.510  29.323  1.00  0.00    -0.237 OA
ATOM     73  O   UNL A   1      34.376  35.705  27.916  1.00  0.00    -0.744 OA
ENDBRANCH  69  70
ENDBRANCH  48  62
BRANCH  49  74
ATOM     74  C   UNL A   1      44.755  28.859  36.393  1.00  0.00     0.058 A 
ATOM     75  C   UNL A   1      44.584  27.777  37.270  1.00  0.00     0.135 A 
ATOM     76  C   UNL A   1      46.040  29.412  36.283  1.00  0.00     0.135 A 
ATOM     77  F   UNL A   1      43.372  27.223  37.424  1.00  0.00    -0.206 F 
ATOM     78  C   UNL A   1      45.643  27.270  38.017  1.00  0.00     0.059 A 
ATOM     79  C   UNL A   1      47.120  28.906  37.001  1.00  0.00     0.059 A 
ATOM     80  F   UNL A   1      46.259  30.446  35.456  1.00  0.00    -0.206 F 
ATOM     81  C   UNL A   1      46.909  27.839  37.873  1.00  0.00     0.060 A 
BRANCH  81  82
ATOM     82  S   UNL A   1      48.288  27.139  38.807  1.00  0.00     0.124 S 
ATOM     83  O   UNL A   1      48.887  28.334  39.388  1.00  0.00    -0.237 OA
ATOM     84  O   UNL A   1      47.604  26.249  39.741  1.00  0.00    -0.237 OA
ATOM     85  O   UNL A   1      49.082  26.467  37.782  1.00  0.00    -0.744 OA
ENDBRANCH  81  82
ENDBRANCH  49  74
BRANCH  61  86
ATOM     86  C   UNL A   1      40.128  33.960  37.585  1.00  0.00     0.058 A 
ATOM     87  C   UNL A   1      40.754  35.211  37.688  1.00  0.00     0.135 A 
ATOM     88  C   UNL A   1      39.209  33.603  38.584  1.00  0.00     0.135 A 
ATOM     89  F   UNL A   1      41.645  35.601  36.761  1.00  0.00    -0.206 F 
ATOM     90  C   UNL A   1      40.493  36.068  38.753  1.00  0.00     0.059 A 
ATOM     91  C   UNL A   1      38.910  34.455  39.642  1.00  0.00     0.059 A 
ATOM     92  F   UNL A   1      38.570  32.423  38.525  1.00  0.00    -0.206 F 
ATOM     93  C   UNL A   1      39.567  35.681  39.724  1.00  0.00     0.060 A 
BRANCH  93  94
ATOM     94  S   UNL A   1      39.210  36.818  41.081  1.00  0.00     0.124 S 
ATOM     95  O   UNL A   1      38.467  35.957  41.996  1.00  0.00    -0.237 OA
ATOM     96  O   UNL A   1      40.544  37.209  41.521  1.00  0.00    -0.237 OA
ATOM     97  O   UNL A   1      38.432  37.876  40.442  1.00  0.00    -0.744 OA
ENDBRANCH  93  94
ENDBRANCH  61  86
ENDBRANCH  35  36
ENDBRANCH  28  30
ENDBRANCH  27  28
ENDBRANCH  26  27
ENDBRANCH  25  26
ENDBRANCH  24  25
ENDBRANCH  23  24
ENDBRANCH   1  23
TORSDOF 26
ENDMDL
