MODEL 1
REMARK VINA RESULT:     -10.2      0.000      0.000
REMARK SMILES O=C(C[C@H]1CN(S(=O)(=O)N2CCCCC2)CCO1)OCCOCCOCCOCCOC(=O)c1ccc(-c2c3nc(c(-c4c(F)cc(S(=O)(=O)[O-])cc4F)c4ccc([nH]4)c(-c4c(F)cc(S(=O)(=O)[O-])cc4F)c4nc(c(-c5c(F)cc(S(=O)(=O)[O-])cc5F)c5ccc2[nH]5)C=C4)C=C3)cc1
REMARK SMILES IDX 25 1 24 2 23 3 22 4 21 5 20 6 19 7 2 8 1 9 3 10 4 11 5 12
REMARK SMILES IDX 18 13 6 14 17 15 16 16 7 17 8 18 9 19 10 20 11 21 15 22
REMARK SMILES IDX 12 23 14 24 13 25 26 26 27 27 28 28 29 29 30 30 31 31 32 32
REMARK SMILES IDX 33 33 34 34 35 35 99 36 36 37 98 38 37 39 38 40 39 41 92 42
REMARK SMILES IDX 40 43 97 44 91 45 93 46 41 47 96 48 90 49 89 50 42 52 76 53
REMARK SMILES IDX 55 54 75 55 56 56 59 57 74 58 94 59 57 60 58 61 73 63 95 64
REMARK SMILES IDX 60 65 43 66 44 67 53 68 45 69 46 70 52 71 54 72 47 73 48 74
REMARK SMILES IDX 49 75 50 76 51 77 77 78 78 79 87 80 79 81 80 82 86 83 88 84
REMARK SMILES IDX 81 85 82 86 83 87 84 88 85 89 61 90 62 91 71 92 63 93 64 94
REMARK SMILES IDX 70 95 72 96 65 97 66 98 67 99 68 100 69 101
REMARK H PARENT 93 51 59 62
REMARK Flexibility Score: inf
ROOT
ATOM      1  O   UNL A   1      31.190  29.050  24.101  1.00  0.00    -0.377 OA
ENDROOT
BRANCH   1   2
ATOM      2  C   UNL A   1      30.171  29.893  23.628  1.00  0.00     0.188 C 
BRANCH   2   3
ATOM      3  C   UNL A   1      29.024  29.300  22.744  1.00  0.00     0.188 C 
BRANCH   3   4
ATOM      4  O   UNL A   1      28.391  27.961  23.024  1.00  0.00    -0.376 OA
BRANCH   4   5
ATOM      5  C   UNL A   1      28.651  26.696  23.815  1.00  0.00     0.202 C 
BRANCH   5   6
ATOM      6  C   UNL A   1      29.783  26.036  25.084  1.00  0.00     0.261 C 
BRANCH   6   7
ATOM      7  O   UNL A   1      30.302  24.444  25.559  1.00  0.00    -0.463 OA
BRANCH   7   8
ATOM      8  C   UNL A   1      31.076  23.531  26.372  1.00  0.00     0.308 C 
ATOM      9  O   UNL A   1      30.791  23.406  27.567  1.00  0.00    -0.252 OA
BRANCH   8  10
ATOM     10  C   UNL A   1      32.264  22.571  25.833  1.00  0.00     0.156 C 
BRANCH  10  11
ATOM     11  C   UNL A   1      31.722  21.263  25.326  1.00  0.00     0.144 C 
ATOM     12  C   UNL A   1      32.091  21.427  23.908  1.00  0.00     0.136 C 
ATOM     13  O   UNL A   1      32.329  20.091  25.911  1.00  0.00    -0.375 OA
ATOM     14  N   UNL A   1      33.703  21.662  23.957  1.00  0.00    -0.184 NA
ATOM     15  C   UNL A   1      33.380  19.416  25.191  1.00  0.00     0.177 C 
ATOM     16  C   UNL A   1      34.027  20.131  24.001  1.00  0.00     0.132 C 
BRANCH  14  17
ATOM     17  S   UNL A   1      34.932  23.360  24.555  1.00  0.00     0.282 S 
ATOM     18  O   UNL A   1      34.677  24.394  23.563  1.00  0.00    -0.195 OA
ATOM     19  O   UNL A   1      34.753  23.686  25.940  1.00  0.00    -0.195 OA
BRANCH  17  20
ATOM     20  N   UNL A   1      36.681  23.192  24.695  1.00  0.00    -0.189 NA
ATOM     21  C   UNL A   1      37.371  21.808  24.505  1.00  0.00     0.103 C 
ATOM     22  C   UNL A   1      37.391  24.097  25.644  1.00  0.00     0.103 C 
ATOM     23  C   UNL A   1      38.328  21.312  25.615  1.00  0.00     0.017 C 
ATOM     24  C   UNL A   1      38.108  23.408  26.796  1.00  0.00     0.017 C 
ATOM     25  C   UNL A   1      39.124  22.427  26.253  1.00  0.00     0.003 C 
ENDBRANCH  17  20
ENDBRANCH  14  17
ENDBRANCH  10  11
ENDBRANCH   8  10
ENDBRANCH   7   8
ENDBRANCH   6   7
ENDBRANCH   5   6
ENDBRANCH   4   5
ENDBRANCH   3   4
ENDBRANCH   2   3
ENDBRANCH   1   2
BRANCH   1  26
ATOM     26  C   UNL A   1      31.718  29.432  25.348  1.00  0.00     0.188 C 
BRANCH  26  27
ATOM     27  C   UNL A   1      33.249  29.255  25.449  1.00  0.00     0.188 C 
BRANCH  27  28
ATOM     28  O   UNL A   1      33.978  29.942  26.458  1.00  0.00    -0.376 OA
BRANCH  28  29
ATOM     29  C   UNL A   1      33.302  30.666  27.472  1.00  0.00     0.202 C 
BRANCH  29  30
ATOM     30  C   UNL A   1      33.761  32.047  27.982  1.00  0.00     0.261 C 
BRANCH  30  31
ATOM     31  O   UNL A   1      35.133  32.238  28.357  1.00  0.00    -0.460 OA
BRANCH  31  32
ATOM     32  C   UNL A   1      35.520  31.738  29.559  1.00  0.00     0.338 C 
ATOM     33  O   UNL A   1      34.916  31.857  30.612  1.00  0.00    -0.246 OA
BRANCH  32  34
ATOM     34  C   UNL A   1      36.676  30.808  29.375  1.00  0.00     0.060 A 
ATOM     35  C   UNL A   1      37.353  30.324  30.512  1.00  0.00     0.016 A 
ATOM     36  C   UNL A   1      37.081  30.388  28.107  1.00  0.00     0.016 A 
ATOM     37  C   UNL A   1      38.473  29.502  30.387  1.00  0.00     0.010 A 
ATOM     38  C   UNL A   1      38.237  29.604  27.977  1.00  0.00     0.010 A 
ATOM     39  C   UNL A   1      38.974  29.217  29.114  1.00  0.00    -0.014 A 
BRANCH  39  40
ATOM     40  C   UNL A   1      40.411  28.854  28.985  1.00  0.00     0.031 A 
ATOM     41  C   UNL A   1      41.422  29.927  29.314  1.00  0.00     0.074 A 
ATOM     42  C   UNL A   1      40.827  27.617  28.659  1.00  0.00     0.049 A 
ATOM     43  N   UNL A   1      42.727  29.896  29.252  1.00  0.00    -0.248 NA
ATOM     44  C   UNL A   1      40.876  31.219  29.771  1.00  0.00     0.031 C 
ATOM     45  C   UNL A   1      39.962  26.471  28.393  1.00  0.00     0.029 A 
ATOM     46  N   UNL A   1      42.100  27.124  28.494  1.00  0.00    -0.354 N 
ATOM     47  C   UNL A   1      43.153  31.162  29.641  1.00  0.00     0.074 A 
ATOM     48  C   UNL A   1      41.970  31.949  29.903  1.00  0.00     0.031 C 
ATOM     49  C   UNL A   1      40.729  25.409  28.084  1.00  0.00     0.029 A 
ATOM     50  C   UNL A   1      42.138  25.809  28.099  1.00  0.00     0.049 A 
ATOM     51  H   UNL A   1      42.909  27.665  28.645  1.00  0.00     0.167 HD
ATOM     52  C   UNL A   1      44.416  31.630  29.779  1.00  0.00     0.037 A 
ATOM     53  C   UNL A   1      43.188  25.027  27.768  1.00  0.00     0.037 A 
ATOM     54  C   UNL A   1      45.594  30.845  29.519  1.00  0.00     0.049 A 
ATOM     55  C   UNL A   1      44.586  25.595  27.843  1.00  0.00     0.074 A 
ATOM     56  C   UNL A   1      46.920  31.219  29.638  1.00  0.00     0.029 A 
ATOM     57  N   UNL A   1      45.587  29.530  29.075  1.00  0.00    -0.354 N 
ATOM     58  N   UNL A   1      44.978  26.788  28.225  1.00  0.00    -0.248 NA
ATOM     59  C   UNL A   1      45.688  24.704  27.444  1.00  0.00     0.031 C 
ATOM     60  C   UNL A   1      47.713  30.155  29.199  1.00  0.00     0.029 A 
ATOM     61  C   UNL A   1      46.885  29.090  28.884  1.00  0.00     0.049 A 
ATOM     62  H   UNL A   1      44.777  28.991  28.919  1.00  0.00     0.167 HD
ATOM     63  C   UNL A   1      46.370  26.777  28.152  1.00  0.00     0.074 A 
ATOM     64  C   UNL A   1      46.751  25.455  27.699  1.00  0.00     0.031 C 
ATOM     65  C   UNL A   1      47.253  27.766  28.441  1.00  0.00     0.037 A 
BRANCH  52  66
ATOM     66  C   UNL A   1      44.584  33.070  30.187  1.00  0.00     0.058 A 
ATOM     67  C   UNL A   1      44.568  34.120  29.254  1.00  0.00     0.135 A 
ATOM     68  C   UNL A   1      44.756  33.405  31.540  1.00  0.00     0.135 A 
ATOM     69  F   UNL A   1      44.429  33.860  27.944  1.00  0.00    -0.206 F 
ATOM     70  C   UNL A   1      44.752  35.444  29.643  1.00  0.00     0.059 A 
ATOM     71  C   UNL A   1      44.904  34.724  31.956  1.00  0.00     0.059 A 
ATOM     72  F   UNL A   1      44.784  32.444  32.477  1.00  0.00    -0.206 F 
ATOM     73  C   UNL A   1      44.918  35.735  30.998  1.00  0.00     0.060 A 
BRANCH  73  74
ATOM     74  S   UNL A   1      45.155  37.457  31.486  1.00  0.00     0.124 S 
ATOM     75  O   UNL A   1      44.077  38.119  30.757  1.00  0.00    -0.237 OA
ATOM     76  O   UNL A   1      44.993  37.392  32.935  1.00  0.00    -0.237 OA
ATOM     77  O   UNL A   1      46.504  37.760  31.021  1.00  0.00    -0.744 OA
ENDBRANCH  73  74
ENDBRANCH  52  66
BRANCH  53  78
ATOM     78  C   UNL A   1      42.970  23.619  27.332  1.00  0.00     0.058 A 
ATOM     79  C   UNL A   1      42.897  23.283  25.971  1.00  0.00     0.135 A 
ATOM     80  C   UNL A   1      42.810  22.582  28.266  1.00  0.00     0.135 A 
ATOM     81  F   UNL A   1      43.024  24.238  25.037  1.00  0.00    -0.206 F 
ATOM     82  C   UNL A   1      42.660  21.976  25.552  1.00  0.00     0.059 A 
ATOM     83  C   UNL A   1      42.605  21.263  27.871  1.00  0.00     0.059 A 
ATOM     84  F   UNL A   1      42.873  22.845  29.581  1.00  0.00    -0.206 F 
ATOM     85  C   UNL A   1      42.523  20.972  26.510  1.00  0.00     0.060 A 
BRANCH  85  86
ATOM     86  S   UNL A   1      42.279  19.272  25.951  1.00  0.00     0.124 S 
ATOM     87  O   UNL A   1      40.829  19.210  25.816  1.00  0.00    -0.237 OA
ATOM     88  O   UNL A   1      43.039  19.252  24.705  1.00  0.00    -0.237 OA
ATOM     89  O   UNL A   1      42.847  18.477  27.035  1.00  0.00    -0.744 OA
ENDBRANCH  85  86
ENDBRANCH  53  78
BRANCH  65  90
ATOM     90  C   UNL A   1      48.724  27.449  28.335  1.00  0.00     0.058 A 
ATOM     91  C   UNL A   1      49.484  27.792  27.205  1.00  0.00     0.135 A 
ATOM     92  C   UNL A   1      49.393  26.833  29.406  1.00  0.00     0.135 A 
ATOM     93  F   UNL A   1      48.900  28.383  26.150  1.00  0.00    -0.206 F 
ATOM     94  C   UNL A   1      50.844  27.501  27.127  1.00  0.00     0.059 A 
ATOM     95  C   UNL A   1      50.758  26.567  29.365  1.00  0.00     0.059 A 
ATOM     96  F   UNL A   1      48.721  26.495  30.519  1.00  0.00    -0.206 F 
ATOM     97  C   UNL A   1      51.472  26.889  28.213  1.00  0.00     0.060 A 
BRANCH  97  98
ATOM     98  S   UNL A   1      53.238  26.534  28.105  1.00  0.00     0.124 S 
ATOM     99  O   UNL A   1      53.563  26.231  29.494  1.00  0.00    -0.237 OA
ATOM    100  O   UNL A   1      53.272  25.401  27.184  1.00  0.00    -0.237 OA
ATOM    101  O   UNL A   1      53.805  27.774  27.584  1.00  0.00    -0.744 OA
ENDBRANCH  97  98
ENDBRANCH  65  90
ENDBRANCH  39  40
ENDBRANCH  32  34
ENDBRANCH  31  32
ENDBRANCH  30  31
ENDBRANCH  29  30
ENDBRANCH  28  29
ENDBRANCH  27  28
ENDBRANCH  26  27
ENDBRANCH   1  26
TORSDOF 26
ENDMDL
MODEL 2
REMARK VINA RESULT:      -9.9      1.933      2.948
REMARK SMILES O=C(C[C@H]1CN(S(=O)(=O)N2CCCCC2)CCO1)OCCOCCOCCOCCOC(=O)c1ccc(-c2c3nc(c(-c4c(F)cc(S(=O)(=O)[O-])cc4F)c4ccc([nH]4)c(-c4c(F)cc(S(=O)(=O)[O-])cc4F)c4nc(c(-c5c(F)cc(S(=O)(=O)[O-])cc5F)c5ccc2[nH]5)C=C4)C=C3)cc1
REMARK SMILES IDX 25 1 24 2 23 3 22 4 21 5 20 6 19 7 2 8 1 9 3 10 4 11 5 12
REMARK SMILES IDX 18 13 6 14 17 15 16 16 7 17 8 18 9 19 10 20 11 21 15 22
REMARK SMILES IDX 12 23 14 24 13 25 26 26 27 27 28 28 29 29 30 30 31 31 32 32
REMARK SMILES IDX 33 33 34 34 35 35 99 36 36 37 98 38 37 39 38 40 39 41 92 42
REMARK SMILES IDX 40 43 97 44 91 45 93 46 41 47 96 48 90 49 89 50 42 52 76 53
REMARK SMILES IDX 55 54 75 55 56 56 59 57 74 58 94 59 57 60 58 61 73 63 95 64
REMARK SMILES IDX 60 65 43 66 44 67 53 68 45 69 46 70 52 71 54 72 47 73 48 74
REMARK SMILES IDX 49 75 50 76 51 77 77 78 78 79 87 80 79 81 80 82 86 83 88 84
REMARK SMILES IDX 81 85 82 86 83 87 84 88 85 89 61 90 62 91 71 92 63 93 64 94
REMARK SMILES IDX 70 95 72 96 65 97 66 98 67 99 68 100 69 101
REMARK H PARENT 93 51 59 62
REMARK Flexibility Score: inf
ROOT
ATOM      1  O   UNL A   1      31.390  29.527  25.134  1.00  0.00    -0.377 OA
ENDROOT
BRANCH   1   2
ATOM      2  C   UNL A   1      30.654  30.715  24.996  1.00  0.00     0.188 C 
BRANCH   2   3
ATOM      3  C   UNL A   1      29.887  31.000  23.662  1.00  0.00     0.188 C 
BRANCH   3   4
ATOM      4  O   UNL A   1      29.369  29.900  22.771  1.00  0.00    -0.376 OA
BRANCH   4   5
ATOM      5  C   UNL A   1      29.147  28.402  22.785  1.00  0.00     0.202 C 
BRANCH   5   6
ATOM      6  C   UNL A   1      28.941  27.019  23.957  1.00  0.00     0.261 C 
BRANCH   6   7
ATOM      7  O   UNL A   1      29.986  26.189  25.074  1.00  0.00    -0.463 OA
BRANCH   7   8
ATOM      8  C   UNL A   1      30.340  25.067  25.916  1.00  0.00     0.308 C 
ATOM      9  O   UNL A   1      29.611  24.785  26.872  1.00  0.00    -0.252 OA
BRANCH   8  10
ATOM     10  C   UNL A   1      31.592  24.069  25.673  1.00  0.00     0.156 C 
BRANCH  10  11
ATOM     11  C   UNL A   1      31.352  22.728  26.309  1.00  0.00     0.144 C 
ATOM     12  C   UNL A   1      32.230  21.928  25.434  1.00  0.00     0.136 C 
ATOM     13  O   UNL A   1      31.745  22.638  27.695  1.00  0.00    -0.375 OA
ATOM     14  N   UNL A   1      33.686  22.644  25.595  1.00  0.00    -0.184 NA
ATOM     15  C   UNL A   1      33.025  22.060  28.022  1.00  0.00     0.177 C 
ATOM     16  C   UNL A   1      34.043  21.853  26.897  1.00  0.00     0.132 C 
BRANCH  14  17
ATOM     17  S   UNL A   1      34.504  24.517  24.839  1.00  0.00     0.282 S 
ATOM     18  O   UNL A   1      34.206  25.513  25.859  1.00  0.00    -0.195 OA
ATOM     19  O   UNL A   1      35.865  24.370  24.409  1.00  0.00    -0.195 OA
BRANCH  17  20
ATOM     20  N   UNL A   1      33.960  25.172  23.296  1.00  0.00    -0.189 NA
ATOM     21  C   UNL A   1      33.648  26.690  23.135  1.00  0.00     0.103 C 
ATOM     22  C   UNL A   1      33.138  24.290  22.418  1.00  0.00     0.103 C 
ATOM     23  C   UNL A   1      32.274  27.095  22.551  1.00  0.00     0.017 C 
ATOM     24  C   UNL A   1      31.727  24.779  22.131  1.00  0.00     0.017 C 
ATOM     25  C   UNL A   1      31.781  26.146  21.484  1.00  0.00     0.003 C 
ENDBRANCH  17  20
ENDBRANCH  14  17
ENDBRANCH  10  11
ENDBRANCH   8  10
ENDBRANCH   7   8
ENDBRANCH   6   7
ENDBRANCH   5   6
ENDBRANCH   4   5
ENDBRANCH   3   4
ENDBRANCH   2   3
ENDBRANCH   1   2
BRANCH   1  26
ATOM     26  C   UNL A   1      32.232  29.502  26.262  1.00  0.00     0.188 C 
BRANCH  26  27
ATOM     27  C   UNL A   1      33.702  29.167  25.927  1.00  0.00     0.188 C 
BRANCH  27  28
ATOM     28  O   UNL A   1      34.740  29.562  26.814  1.00  0.00    -0.376 OA
BRANCH  28  29
ATOM     29  C   UNL A   1      34.483  30.475  27.866  1.00  0.00     0.202 C 
BRANCH  29  30
ATOM     30  C   UNL A   1      34.962  31.941  27.859  1.00  0.00     0.261 C 
BRANCH  30  31
ATOM     31  O   UNL A   1      36.352  32.228  28.070  1.00  0.00    -0.460 OA
BRANCH  31  32
ATOM     32  C   UNL A   1      36.873  31.897  29.280  1.00  0.00     0.338 C 
ATOM     33  O   UNL A   1      36.417  32.209  30.366  1.00  0.00    -0.246 OA
BRANCH  32  34
ATOM     34  C   UNL A   1      37.961  30.885  29.105  1.00  0.00     0.060 A 
ATOM     35  C   UNL A   1      38.923  30.732  30.123  1.00  0.00     0.016 A 
ATOM     36  C   UNL A   1      38.027  30.072  27.973  1.00  0.00     0.016 A 
ATOM     37  C   UNL A   1      39.988  29.844  29.977  1.00  0.00     0.010 A 
ATOM     38  C   UNL A   1      39.125  29.215  27.802  1.00  0.00     0.010 A 
ATOM     39  C   UNL A   1      40.143  29.151  28.774  1.00  0.00    -0.014 A 
BRANCH  39  40
ATOM     40  C   UNL A   1      41.503  28.677  28.401  1.00  0.00     0.031 A 
ATOM     41  C   UNL A   1      42.613  29.703  28.409  1.00  0.00     0.074 A 
ATOM     42  C   UNL A   1      41.781  27.390  28.128  1.00  0.00     0.049 A 
ATOM     43  N   UNL A   1      43.874  29.574  28.093  1.00  0.00    -0.248 NA
ATOM     44  C   UNL A   1      42.238  31.065  28.829  1.00  0.00     0.031 C 
ATOM     45  C   UNL A   1      40.823  26.288  28.159  1.00  0.00     0.029 A 
ATOM     46  N   UNL A   1      42.966  26.796  27.766  1.00  0.00    -0.354 N 
ATOM     47  C   UNL A   1      44.435  30.837  28.257  1.00  0.00     0.074 A 
ATOM     48  C   UNL A   1      43.372  31.726  28.665  1.00  0.00     0.031 C 
ATOM     49  C   UNL A   1      41.456  25.151  27.816  1.00  0.00     0.029 A 
ATOM     50  C   UNL A   1      42.857  25.450  27.509  1.00  0.00     0.049 A 
ATOM     51  H   UNL A   1      43.815  27.289  27.697  1.00  0.00     0.167 HD
ATOM     52  C   UNL A   1      45.721  31.225  28.092  1.00  0.00     0.037 A 
ATOM     53  C   UNL A   1      43.776  24.570  27.060  1.00  0.00     0.037 A 
ATOM     54  C   UNL A   1      46.779  30.339  27.687  1.00  0.00     0.049 A 
ATOM     55  C   UNL A   1      45.187  25.042  26.797  1.00  0.00     0.074 A 
ATOM     56  C   UNL A   1      48.119  30.628  27.501  1.00  0.00     0.029 A 
ATOM     57  N   UNL A   1      46.616  28.993  27.392  1.00  0.00    -0.354 N 
ATOM     58  N   UNL A   1      45.709  26.235  26.968  1.00  0.00    -0.248 NA
ATOM     59  C   UNL A   1      46.137  24.044  26.282  1.00  0.00     0.031 C 
ATOM     60  C   UNL A   1      48.751  29.475  27.026  1.00  0.00     0.029 A 
ATOM     61  C   UNL A   1      47.824  28.447  26.993  1.00  0.00     0.049 A 
ATOM     62  H   UNL A   1      45.765  28.500  27.456  1.00  0.00     0.167 HD
ATOM     63  C   UNL A   1      47.053  26.118  26.622  1.00  0.00     0.074 A 
ATOM     64  C   UNL A   1      47.266  24.737  26.241  1.00  0.00     0.031 C 
ATOM     65  C   UNL A   1      48.026  27.066  26.626  1.00  0.00     0.037 A 
BRANCH  52  66
ATOM     66  C   UNL A   1      46.042  32.682  28.308  1.00  0.00     0.058 A 
ATOM     67  C   UNL A   1      46.447  33.183  29.556  1.00  0.00     0.135 A 
ATOM     68  C   UNL A   1      45.949  33.590  27.240  1.00  0.00     0.135 A 
ATOM     69  F   UNL A   1      46.534  32.366  30.619  1.00  0.00    -0.206 F 
ATOM     70  C   UNL A   1      46.714  34.536  29.746  1.00  0.00     0.059 A 
ATOM     71  C   UNL A   1      46.247  34.939  27.399  1.00  0.00     0.059 A 
ATOM     72  F   UNL A   1      45.563  33.170  26.026  1.00  0.00    -0.206 F 
ATOM     73  C   UNL A   1      46.612  35.406  28.660  1.00  0.00     0.060 A 
BRANCH  73  74
ATOM     74  S   UNL A   1      46.961  37.158  28.923  1.00  0.00     0.124 S 
ATOM     75  O   UNL A   1      47.618  37.516  27.669  1.00  0.00    -0.237 OA
ATOM     76  O   UNL A   1      45.625  37.712  29.121  1.00  0.00    -0.237 OA
ATOM     77  O   UNL A   1      47.819  37.161  30.103  1.00  0.00    -0.744 OA
ENDBRANCH  73  74
ENDBRANCH  52  66
BRANCH  53  78
ATOM     78  C   UNL A   1      43.402  23.146  26.824  1.00  0.00     0.058 A 
ATOM     79  C   UNL A   1      43.142  22.277  27.895  1.00  0.00     0.135 A 
ATOM     80  C   UNL A   1      43.316  22.619  25.525  1.00  0.00     0.135 A 
ATOM     81  F   UNL A   1      43.228  22.724  29.157  1.00  0.00    -0.206 F 
ATOM     82  C   UNL A   1      42.824  20.938  27.689  1.00  0.00     0.059 A 
ATOM     83  C   UNL A   1      42.968  21.292  25.292  1.00  0.00     0.059 A 
ATOM     84  F   UNL A   1      43.552  23.406  24.463  1.00  0.00    -0.206 F 
ATOM     85  C   UNL A   1      42.732  20.456  26.384  1.00  0.00     0.060 A 
BRANCH  85  86
ATOM     86  S   UNL A   1      42.258  18.732  26.130  1.00  0.00     0.124 S 
ATOM     87  O   UNL A   1      42.383  18.188  27.476  1.00  0.00    -0.237 OA
ATOM     88  O   UNL A   1      40.898  18.866  25.617  1.00  0.00    -0.237 OA
ATOM     89  O   UNL A   1      43.240  18.253  25.162  1.00  0.00    -0.744 OA
ENDBRANCH  85  86
ENDBRANCH  53  78
BRANCH  65  90
ATOM     90  C   UNL A   1      49.426  26.637  26.263  1.00  0.00     0.058 A 
ATOM     91  C   UNL A   1      49.961  26.836  24.980  1.00  0.00     0.135 A 
ATOM     92  C   UNL A   1      50.262  26.061  27.235  1.00  0.00     0.135 A 
ATOM     93  F   UNL A   1      49.210  27.381  24.011  1.00  0.00    -0.206 F 
ATOM     94  C   UNL A   1      51.260  26.443  24.665  1.00  0.00     0.059 A 
ATOM     95  C   UNL A   1      51.575  25.696  26.952  1.00  0.00     0.059 A 
ATOM     96  F   UNL A   1      49.810  25.861  28.484  1.00  0.00    -0.206 F 
ATOM     97  C   UNL A   1      52.059  25.876  25.658  1.00  0.00     0.060 A 
BRANCH  97  98
ATOM     98  S   UNL A   1      53.746  25.388  25.239  1.00  0.00     0.124 S 
ATOM     99  O   UNL A   1      53.730  23.966  25.565  1.00  0.00    -0.237 OA
ATOM    100  O   UNL A   1      53.819  25.712  23.818  1.00  0.00    -0.237 OA
ATOM    101  O   UNL A   1      54.568  26.222  26.110  1.00  0.00    -0.744 OA
ENDBRANCH  97  98
ENDBRANCH  65  90
ENDBRANCH  39  40
ENDBRANCH  32  34
ENDBRANCH  31  32
ENDBRANCH  30  31
ENDBRANCH  29  30
ENDBRANCH  28  29
ENDBRANCH  27  28
ENDBRANCH  26  27
ENDBRANCH   1  26
TORSDOF 26
ENDMDL
MODEL 3
REMARK VINA RESULT:      -9.7      1.262      8.155
REMARK SMILES O=C(C[C@H]1CN(S(=O)(=O)N2CCCCC2)CCO1)OCCOCCOCCOCCOC(=O)c1ccc(-c2c3nc(c(-c4c(F)cc(S(=O)(=O)[O-])cc4F)c4ccc([nH]4)c(-c4c(F)cc(S(=O)(=O)[O-])cc4F)c4nc(c(-c5c(F)cc(S(=O)(=O)[O-])cc5F)c5ccc2[nH]5)C=C4)C=C3)cc1
REMARK SMILES IDX 25 1 24 2 23 3 22 4 21 5 20 6 19 7 2 8 1 9 3 10 4 11 5 12
REMARK SMILES IDX 18 13 6 14 17 15 16 16 7 17 8 18 9 19 10 20 11 21 15 22
REMARK SMILES IDX 12 23 14 24 13 25 26 26 27 27 28 28 29 29 30 30 31 31 32 32
REMARK SMILES IDX 33 33 34 34 35 35 99 36 36 37 98 38 37 39 38 40 39 41 92 42
REMARK SMILES IDX 40 43 97 44 91 45 93 46 41 47 96 48 90 49 89 50 42 52 76 53
REMARK SMILES IDX 55 54 75 55 56 56 59 57 74 58 94 59 57 60 58 61 73 63 95 64
REMARK SMILES IDX 60 65 43 66 44 67 53 68 45 69 46 70 52 71 54 72 47 73 48 74
REMARK SMILES IDX 49 75 50 76 51 77 77 78 78 79 87 80 79 81 80 82 86 83 88 84
REMARK SMILES IDX 81 85 82 86 83 87 84 88 85 89 61 90 62 91 71 92 63 93 64 94
REMARK SMILES IDX 70 95 72 96 65 97 66 98 67 99 68 100 69 101
REMARK H PARENT 93 51 59 62
REMARK Flexibility Score: inf
ROOT
ATOM      1  O   UNL A   1      31.122  29.236  24.663  1.00  0.00    -0.377 OA
ENDROOT
BRANCH   1   2
ATOM      2  C   UNL A   1      30.330  30.303  24.210  1.00  0.00     0.188 C 
BRANCH   2   3
ATOM      3  C   UNL A   1      29.253  30.052  23.104  1.00  0.00     0.188 C 
BRANCH   3   4
ATOM      4  O   UNL A   1      28.599  28.710  22.896  1.00  0.00    -0.376 OA
BRANCH   4   5
ATOM      5  C   UNL A   1      28.573  27.324  23.504  1.00  0.00     0.202 C 
BRANCH   5   6
ATOM      6  C   UNL A   1      29.211  26.406  24.946  1.00  0.00     0.261 C 
BRANCH   6   7
ATOM      7  O   UNL A   1      30.609  25.416  25.252  1.00  0.00    -0.463 OA
BRANCH   7   8
ATOM      8  C   UNL A   1      31.360  24.451  26.026  1.00  0.00     0.308 C 
ATOM      9  O   UNL A   1      31.131  24.346  27.235  1.00  0.00    -0.252 OA
BRANCH   8  10
ATOM     10  C   UNL A   1      32.448  23.410  25.429  1.00  0.00     0.156 C 
BRANCH  10  11
ATOM     11  C   UNL A   1      32.148  22.001  25.858  1.00  0.00     0.144 C 
ATOM     12  C   UNL A   1      32.490  21.326  24.591  1.00  0.00     0.136 C 
ATOM     13  O   UNL A   1      32.949  21.522  26.959  1.00  0.00    -0.375 OA
ATOM     14  N   UNL A   1      34.035  21.773  24.325  1.00  0.00    -0.184 NA
ATOM     15  C   UNL A   1      34.107  20.709  26.678  1.00  0.00     0.177 C 
ATOM     16  C   UNL A   1      34.624  20.645  25.238  1.00  0.00     0.132 C 
BRANCH  14  17
ATOM     17  S   UNL A   1      34.941  23.642  23.667  1.00  0.00     0.282 S 
ATOM     18  O   UNL A   1      35.209  24.395  24.884  1.00  0.00    -0.195 OA
ATOM     19  O   UNL A   1      36.025  23.417  22.754  1.00  0.00    -0.195 OA
BRANCH  17  20
ATOM     20  N   UNL A   1      34.078  24.715  22.568  1.00  0.00    -0.189 NA
ATOM     21  C   UNL A   1      34.025  26.251  22.824  1.00  0.00     0.103 C 
ATOM     22  C   UNL A   1      32.873  24.176  21.875  1.00  0.00     0.103 C 
ATOM     23  C   UNL A   1      32.640  26.940  22.844  1.00  0.00     0.017 C 
ATOM     24  C   UNL A   1      31.561  24.877  22.197  1.00  0.00     0.017 C 
ATOM     25  C   UNL A   1      31.669  26.347  21.851  1.00  0.00     0.003 C 
ENDBRANCH  17  20
ENDBRANCH  14  17
ENDBRANCH  10  11
ENDBRANCH   8  10
ENDBRANCH   7   8
ENDBRANCH   6   7
ENDBRANCH   5   6
ENDBRANCH   4   5
ENDBRANCH   3   4
ENDBRANCH   2   3
ENDBRANCH   1   2
BRANCH   1  26
ATOM     26  C   UNL A   1      31.892  29.536  25.803  1.00  0.00     0.188 C 
BRANCH  26  27
ATOM     27  C   UNL A   1      33.396  29.229  25.629  1.00  0.00     0.188 C 
BRANCH  27  28
ATOM     28  O   UNL A   1      34.332  29.696  26.592  1.00  0.00    -0.376 OA
BRANCH  28  29
ATOM     29  C   UNL A   1      33.904  30.466  27.701  1.00  0.00     0.202 C 
BRANCH  29  30
ATOM     30  C   UNL A   1      34.339  31.926  27.944  1.00  0.00     0.261 C 
BRANCH  30  31
ATOM     31  O   UNL A   1      35.646  32.192  28.474  1.00  0.00    -0.460 OA
BRANCH  31  32
ATOM     32  C   UNL A   1      35.975  31.577  29.640  1.00  0.00     0.338 C 
ATOM     33  O   UNL A   1      35.278  31.513  30.638  1.00  0.00    -0.246 OA
BRANCH  32  34
ATOM     34  C   UNL A   1      37.223  30.773  29.456  1.00  0.00     0.060 A 
ATOM     35  C   UNL A   1      37.974  30.407  30.590  1.00  0.00     0.016 A 
ATOM     36  C   UNL A   1      37.643  30.355  28.192  1.00  0.00     0.016 A 
ATOM     37  C   UNL A   1      39.175  29.709  30.462  1.00  0.00     0.010 A 
ATOM     38  C   UNL A   1      38.875  29.698  28.058  1.00  0.00     0.010 A 
ATOM     39  C   UNL A   1      39.676  29.435  29.187  1.00  0.00    -0.014 A 
BRANCH  39  40
ATOM     40  C   UNL A   1      41.140  29.226  29.032  1.00  0.00     0.031 A 
ATOM     41  C   UNL A   1      41.594  27.858  28.580  1.00  0.00     0.074 A 
ATOM     42  C   UNL A   1      42.043  30.207  29.212  1.00  0.00     0.049 A 
ATOM     43  N   UNL A   1      42.802  27.392  28.402  1.00  0.00    -0.248 NA
ATOM     44  C   UNL A   1      40.529  26.878  28.299  1.00  0.00     0.031 C 
ATOM     45  C   UNL A   1      41.737  31.589  29.572  1.00  0.00     0.029 A 
ATOM     46  N   UNL A   1      43.414  30.179  29.116  1.00  0.00    -0.354 N 
ATOM     47  C   UNL A   1      42.641  26.068  28.007  1.00  0.00     0.074 A 
ATOM     48  C   UNL A   1      41.223  25.791  28.008  1.00  0.00     0.031 C 
ATOM     49  C   UNL A   1      42.890  32.276  29.680  1.00  0.00     0.029 A 
ATOM     50  C   UNL A   1      44.016  31.374  29.428  1.00  0.00     0.049 A 
ATOM     51  H   UNL A   1      43.917  29.377  28.848  1.00  0.00     0.167 HD
ATOM     52  C   UNL A   1      43.587  25.161  27.666  1.00  0.00     0.037 A 
ATOM     53  C   UNL A   1      45.324  31.694  29.521  1.00  0.00     0.037 A 
ATOM     54  C   UNL A   1      44.998  25.437  27.665  1.00  0.00     0.049 A 
ATOM     55  C   UNL A   1      46.367  30.642  29.221  1.00  0.00     0.074 A 
ATOM     56  C   UNL A   1      46.040  24.593  27.326  1.00  0.00     0.029 A 
ATOM     57  N   UNL A   1      45.569  26.648  28.034  1.00  0.00    -0.354 N 
ATOM     58  N   UNL A   1      46.204  29.398  28.836  1.00  0.00    -0.248 NA
ATOM     59  C   UNL A   1      47.776  31.042  29.365  1.00  0.00     0.031 C 
ATOM     60  C   UNL A   1      47.241  25.269  27.556  1.00  0.00     0.029 A 
ATOM     61  C   UNL A   1      46.948  26.561  27.961  1.00  0.00     0.049 A 
ATOM     62  H   UNL A   1      45.065  27.449  28.306  1.00  0.00     0.167 HD
ATOM     63  C   UNL A   1      47.485  28.882  28.653  1.00  0.00     0.074 A 
ATOM     64  C   UNL A   1      48.411  29.952  28.960  1.00  0.00     0.031 C 
ATOM     65  C   UNL A   1      47.862  27.638  28.259  1.00  0.00     0.037 A 
BRANCH  52  66
ATOM     66  C   UNL A   1      43.123  23.772  27.309  1.00  0.00     0.058 A 
ATOM     67  C   UNL A   1      42.748  23.420  26.002  1.00  0.00     0.135 A 
ATOM     68  C   UNL A   1      43.061  22.774  28.296  1.00  0.00     0.135 A 
ATOM     69  F   UNL A   1      42.765  24.338  25.022  1.00  0.00    -0.206 F 
ATOM     70  C   UNL A   1      42.295  22.141  25.693  1.00  0.00     0.059 A 
ATOM     71  C   UNL A   1      42.648  21.479  28.002  1.00  0.00     0.059 A 
ATOM     72  F   UNL A   1      43.404  23.053  29.563  1.00  0.00    -0.206 F 
ATOM     73  C   UNL A   1      42.250  21.176  26.701  1.00  0.00     0.060 A 
BRANCH  73  74
ATOM     74  S   UNL A   1      41.661  19.521  26.285  1.00  0.00     0.124 S 
ATOM     75  O   UNL A   1      42.467  19.212  25.107  1.00  0.00    -0.237 OA
ATOM     76  O   UNL A   1      41.984  18.766  27.491  1.00  0.00    -0.237 OA
ATOM     77  O   UNL A   1      40.237  19.720  26.035  1.00  0.00    -0.744 OA
ENDBRANCH  73  74
ENDBRANCH  52  66
BRANCH  53  78
ATOM     78  C   UNL A   1      45.736  33.072  29.915  1.00  0.00     0.058 A 
ATOM     79  C   UNL A   1      45.973  34.063  28.950  1.00  0.00     0.135 A 
ATOM     80  C   UNL A   1      45.920  33.421  31.263  1.00  0.00     0.135 A 
ATOM     81  F   UNL A   1      45.830  33.777  27.647  1.00  0.00    -0.206 F 
ATOM     82  C   UNL A   1      46.390  35.343  29.304  1.00  0.00     0.059 A 
ATOM     83  C   UNL A   1      46.304  34.703  31.643  1.00  0.00     0.059 A 
ATOM     84  F   UNL A   1      45.704  32.514  32.229  1.00  0.00    -0.206 F 
ATOM     85  C   UNL A   1      46.545  35.656  30.654  1.00  0.00     0.060 A 
BRANCH  85  86
ATOM     86  S   UNL A   1      47.026  37.338  31.101  1.00  0.00     0.124 S 
ATOM     87  O   UNL A   1      47.527  37.153  32.458  1.00  0.00    -0.237 OA
ATOM     88  O   UNL A   1      48.028  37.645  30.086  1.00  0.00    -0.237 OA
ATOM     89  O   UNL A   1      45.778  38.087  30.986  1.00  0.00    -0.744 OA
ENDBRANCH  85  86
ENDBRANCH  53  78
BRANCH  65  90
ATOM     90  C   UNL A   1      49.336  27.374  28.079  1.00  0.00     0.058 A 
ATOM     91  C   UNL A   1      50.135  26.854  29.110  1.00  0.00     0.135 A 
ATOM     92  C   UNL A   1      49.947  27.602  26.834  1.00  0.00     0.135 A 
ATOM     93  F   UNL A   1      49.607  26.617  30.321  1.00  0.00    -0.206 F 
ATOM     94  C   UNL A   1      51.493  26.607  28.923  1.00  0.00     0.059 A 
ATOM     95  C   UNL A   1      51.293  27.326  26.614  1.00  0.00     0.059 A 
ATOM     96  F   UNL A   1      49.229  28.084  25.806  1.00  0.00    -0.206 F 
ATOM     97  C   UNL A   1      52.062  26.845  27.671  1.00  0.00     0.060 A 
BRANCH  97  98
ATOM     98  S   UNL A   1      53.819  26.503  27.439  1.00  0.00     0.124 S 
ATOM     99  O   UNL A   1      53.778  25.308  26.604  1.00  0.00    -0.237 OA
ATOM    100  O   UNL A   1      54.289  27.719  26.782  1.00  0.00    -0.237 OA
ATOM    101  O   UNL A   1      54.310  26.302  28.799  1.00  0.00    -0.744 OA
ENDBRANCH  97  98
ENDBRANCH  65  90
ENDBRANCH  39  40
ENDBRANCH  32  34
ENDBRANCH  31  32
ENDBRANCH  30  31
ENDBRANCH  29  30
ENDBRANCH  28  29
ENDBRANCH  27  28
ENDBRANCH  26  27
ENDBRANCH   1  26
TORSDOF 26
ENDMDL
