MODEL 1
REMARK VINA RESULT:     -10.0      0.000      0.000
REMARK SMILES C[C@H]1[C@H](C)CC[C@@]2(C(=O)OCCOCCOCCOCCOC(=O)c3ccc(-c4c5nc(c(-c6c(F)cc(S(=O)(=O)[O-])cc6F)c6ccc([nH]6)c(-c6c(F)cc(S(=O)(=O)[O-])cc6F)c6nc(c(-c7c(F)cc(S(=O)(=O)[O-])cc7F)c7ccc4[nH]7)C=C6)C=C5)cc3)CC[C@@]3(C)C(=CC[C@@H]4[C@@]5(C)CC[C@H](O)C(C)(C)[C@@H]5CC[C@]43C)[C@H]12
REMARK SMILES IDX 17 1 16 2 15 3 14 4 13 5 12 6 11 7 10 8 8 9 9 10 7 11 1 12
REMARK SMILES IDX 2 13 3 14 113 15 4 16 5 17 95 18 6 19 91 20 93 21 96 22
REMARK SMILES IDX 92 23 94 24 111 25 97 26 98 27 110 28 112 29 99 30 109 31
REMARK SMILES IDX 100 32 101 33 108 34 102 35 105 36 103 37 106 38 107 39
REMARK SMILES IDX 104 40 18 42 19 43 20 44 21 45 22 46 23 47 24 48 25 49 26 50
REMARK SMILES IDX 90 51 27 52 89 53 28 54 29 55 30 56 83 57 31 58 88 59 82 60
REMARK SMILES IDX 84 61 32 62 87 63 81 64 80 65 33 67 67 68 46 69 66 70 47 71
REMARK SMILES IDX 50 72 65 73 85 74 48 75 49 76 64 78 86 79 51 80 34 81 35 82
REMARK SMILES IDX 44 83 36 84 37 85 43 86 45 87 38 88 39 89 40 90 41 91 42 92
REMARK SMILES IDX 68 93 69 94 78 95 70 96 71 97 77 98 79 99 72 100 73 101
REMARK SMILES IDX 74 102 75 103 76 104 52 105 53 106 62 107 54 108 55 109
REMARK SMILES IDX 61 110 63 111 56 112 57 113 58 114 59 115 60 116
REMARK H PARENT 104 41 84 66 50 77
REMARK Flexibility Score: inf
ROOT
ATOM      1  C   UNL A   1      34.901  32.526  29.585  1.00  0.00     0.188 C 
ENDROOT
BRANCH   1   2
ATOM      2  O   UNL A   1      34.687  32.308  28.209  1.00  0.00    -0.377 OA
BRANCH   2   3
ATOM      3  C   UNL A   1      35.088  31.096  27.620  1.00  0.00     0.188 C 
BRANCH   3   4
ATOM      4  C   UNL A   1      34.280  29.850  28.025  1.00  0.00     0.188 C 
BRANCH   4   5
ATOM      5  O   UNL A   1      34.229  28.795  27.081  1.00  0.00    -0.376 OA
BRANCH   5   6
ATOM      6  C   UNL A   1      34.998  28.929  25.909  1.00  0.00     0.202 C 
BRANCH   6   7
ATOM      7  C   UNL A   1      34.373  28.799  24.527  1.00  0.00     0.261 C 
BRANCH   7   8
ATOM      8  O   UNL A   1      33.112  28.079  24.278  1.00  0.00    -0.463 OA
BRANCH   8   9
ATOM      9  C   UNL A   1      31.884  27.987  23.732  1.00  0.00     0.312 C 
ATOM     10  O   UNL A   1      31.555  27.594  22.621  1.00  0.00    -0.252 OA
BRANCH   9  11
ATOM     11  C   UNL A   1      30.819  28.382  24.775  1.00  0.00     0.075 C 
ATOM     12  C   UNL A   1      27.343  27.770  22.946  1.00  0.00     0.008 C 
ATOM     13  C   UNL A   1      28.764  28.276  23.191  1.00  0.00    -0.003 C 
ATOM     14  C   UNL A   1      28.832  29.851  23.091  1.00  0.00    -0.011 C 
ATOM     15  C   UNL A   1      29.490  27.616  24.481  1.00  0.00     0.036 C 
ATOM     16  C   UNL A   1      28.484  30.401  21.691  1.00  0.00     0.008 C 
ATOM     17  C   UNL A   1      30.207  30.435  23.419  1.00  0.00     0.005 C 
ATOM     18  C   UNL A   1      29.952  26.072  24.552  1.00  0.00    -0.063 C 
ATOM     19  C   UNL A   1      30.716  29.915  24.738  1.00  0.00     0.020 C 
ATOM     20  C   UNL A   1      31.301  28.040  26.203  1.00  0.00     0.020 C 
ATOM     21  C   UNL A   1      30.626  25.552  25.890  1.00  0.00    -0.006 C 
ATOM     22  C   UNL A   1      30.036  25.299  23.447  1.00  0.00    -0.027 C 
ATOM     23  C   UNL A   1      31.677  26.580  26.390  1.00  0.00     0.013 C 
ATOM     24  C   UNL A   1      29.507  25.478  26.956  1.00  0.00     0.017 C 
ATOM     25  C   UNL A   1      31.367  24.070  25.733  1.00  0.00    -0.020 C 
ATOM     26  C   UNL A   1      31.005  24.142  23.287  1.00  0.00     0.032 C 
ATOM     27  C   UNL A   1      32.123  24.099  24.360  1.00  0.00     0.006 C 
ATOM     28  C   UNL A   1      32.376  23.733  26.863  1.00  0.00     0.008 C 
ATOM     29  C   UNL A   1      30.299  22.935  25.772  1.00  0.00     0.012 C 
ATOM     30  C   UNL A   1      33.332  23.060  24.077  1.00  0.00    -0.025 C 
ATOM     31  C   UNL A   1      33.229  22.480  26.574  1.00  0.00     0.005 C 
ATOM     32  C   UNL A   1      32.788  21.826  23.329  1.00  0.00     0.012 C 
ATOM     33  C   UNL A   1      34.392  23.723  23.137  1.00  0.00     0.010 C 
ATOM     34  C   UNL A   1      34.153  22.751  25.383  1.00  0.00     0.003 C 
ATOM     35  C   UNL A   1      35.677  22.921  22.890  1.00  0.00     0.033 C 
ATOM     36  C   UNL A   1      35.393  21.776  25.203  1.00  0.00    -0.006 C 
ATOM     37  C   UNL A   1      36.360  22.437  24.169  1.00  0.00     0.120 C 
ATOM     38  C   UNL A   1      35.039  20.330  24.796  1.00  0.00     0.014 C 
ATOM     39  C   UNL A   1      36.180  21.640  26.535  1.00  0.00     0.014 C 
BRANCH  37  40
ATOM     40  O   UNL A   1      37.442  21.562  23.833  1.00  0.00    -0.393 OA
ATOM     41  H   UNL A   1      37.478  21.450  22.871  1.00  0.00     0.210 HD
ENDBRANCH  37  40
ENDBRANCH   9  11
ENDBRANCH   8   9
ENDBRANCH   7   8
ENDBRANCH   6   7
ENDBRANCH   5   6
ENDBRANCH   4   5
ENDBRANCH   3   4
ENDBRANCH   2   3
ENDBRANCH   1   2
BRANCH   1  42
ATOM     42  C   UNL A   1      34.652  33.892  30.258  1.00  0.00     0.188 C 
BRANCH  42  43
ATOM     43  O   UNL A   1      34.735  33.898  31.671  1.00  0.00    -0.376 OA
BRANCH  43  44
ATOM     44  C   UNL A   1      35.856  34.493  32.297  1.00  0.00     0.202 C 
BRANCH  44  45
ATOM     45  C   UNL A   1      37.251  33.917  32.000  1.00  0.00     0.261 C 
BRANCH  45  46
ATOM     46  O   UNL A   1      37.303  32.603  31.428  1.00  0.00    -0.460 OA
BRANCH  46  47
ATOM     47  C   UNL A   1      37.808  31.590  32.168  1.00  0.00     0.338 C 
ATOM     48  O   UNL A   1      37.307  31.095  33.164  1.00  0.00    -0.246 OA
BRANCH  47  49
ATOM     49  C   UNL A   1      38.919  30.993  31.381  1.00  0.00     0.060 A 
ATOM     50  C   UNL A   1      39.871  30.209  32.057  1.00  0.00     0.016 A 
ATOM     51  C   UNL A   1      38.911  31.034  29.980  1.00  0.00     0.016 A 
ATOM     52  C   UNL A   1      40.824  29.485  31.340  1.00  0.00     0.010 A 
ATOM     53  C   UNL A   1      39.908  30.366  29.264  1.00  0.00     0.010 A 
ATOM     54  C   UNL A   1      40.895  29.633  29.947  1.00  0.00    -0.014 A 
BRANCH  54  55
ATOM     55  C   UNL A   1      42.211  29.434  29.296  1.00  0.00     0.031 A 
ATOM     56  C   UNL A   1      42.459  28.049  28.749  1.00  0.00     0.074 A 
ATOM     57  C   UNL A   1      43.139  30.400  29.181  1.00  0.00     0.049 A 
ATOM     58  N   UNL A   1      43.520  27.555  28.174  1.00  0.00    -0.248 NA
ATOM     59  C   UNL A   1      41.344  27.089  28.871  1.00  0.00     0.031 C 
ATOM     60  C   UNL A   1      42.994  31.785  29.624  1.00  0.00     0.029 A 
ATOM     61  N   UNL A   1      44.406  30.346  28.655  1.00  0.00    -0.354 N 
ATOM     62  C   UNL A   1      43.194  26.238  27.865  1.00  0.00     0.074 A 
ATOM     63  C   UNL A   1      41.851  25.999  28.328  1.00  0.00     0.031 C 
ATOM     64  C   UNL A   1      44.139  32.446  29.368  1.00  0.00     0.029 A 
ATOM     65  C   UNL A   1      45.107  31.524  28.773  1.00  0.00     0.049 A 
ATOM     66  H   UNL A   1      44.779  29.540  28.231  1.00  0.00     0.167 HD
ATOM     67  C   UNL A   1      43.948  25.301  27.252  1.00  0.00     0.037 A 
ATOM     68  C   UNL A   1      46.389  31.802  28.457  1.00  0.00     0.037 A 
ATOM     69  C   UNL A   1      45.299  25.529  26.831  1.00  0.00     0.049 A 
ATOM     70  C   UNL A   1      47.247  30.712  27.856  1.00  0.00     0.074 A 
ATOM     71  C   UNL A   1      46.167  24.647  26.218  1.00  0.00     0.029 A 
ATOM     72  N   UNL A   1      45.980  26.724  26.999  1.00  0.00    -0.354 N 
ATOM     73  N   UNL A   1      46.923  29.476  27.553  1.00  0.00    -0.248 NA
ATOM     74  C   UNL A   1      48.646  31.054  27.556  1.00  0.00     0.031 C 
ATOM     75  C   UNL A   1      47.394  25.297  26.057  1.00  0.00     0.029 A 
ATOM     76  C   UNL A   1      47.270  26.599  26.520  1.00  0.00     0.049 A 
ATOM     77  H   UNL A   1      45.602  27.540  27.400  1.00  0.00     0.167 HD
ATOM     78  C   UNL A   1      48.066  28.905  26.998  1.00  0.00     0.074 A 
ATOM     79  C   UNL A   1      49.087  29.931  27.003  1.00  0.00     0.031 C 
ATOM     80  C   UNL A   1      48.257  27.647  26.525  1.00  0.00     0.037 A 
BRANCH  67  81
ATOM     81  C   UNL A   1      43.335  23.947  27.057  1.00  0.00     0.058 A 
ATOM     82  C   UNL A   1      43.198  23.040  28.120  1.00  0.00     0.135 A 
ATOM     83  C   UNL A   1      42.895  23.545  25.787  1.00  0.00     0.135 A 
ATOM     84  F   UNL A   1      43.645  23.360  29.346  1.00  0.00    -0.206 F 
ATOM     85  C   UNL A   1      42.652  21.775  27.928  1.00  0.00     0.059 A 
ATOM     86  C   UNL A   1      42.322  22.296  25.577  1.00  0.00     0.059 A 
ATOM     87  F   UNL A   1      43.030  24.365  24.734  1.00  0.00    -0.206 F 
ATOM     88  C   UNL A   1      42.213  21.415  26.654  1.00  0.00     0.060 A 
BRANCH  88  89
ATOM     89  S   UNL A   1      41.484  19.780  26.424  1.00  0.00     0.124 S 
ATOM     90  O   UNL A   1      42.220  19.294  25.261  1.00  0.00    -0.237 OA
ATOM     91  O   UNL A   1      41.793  19.122  27.689  1.00  0.00    -0.237 OA
ATOM     92  O   UNL A   1      40.072  20.067  26.198  1.00  0.00    -0.744 OA
ENDBRANCH  88  89
ENDBRANCH  67  81
BRANCH  68  93
ATOM     93  C   UNL A   1      46.959  33.153  28.721  1.00  0.00     0.058 A 
ATOM     94  C   UNL A   1      46.929  34.160  27.744  1.00  0.00     0.135 A 
ATOM     95  C   UNL A   1      47.570  33.458  29.947  1.00  0.00     0.135 A 
ATOM     96  F   UNL A   1      46.372  33.916  26.548  1.00  0.00    -0.206 F 
ATOM     97  C   UNL A   1      47.497  35.412  27.965  1.00  0.00     0.059 A 
ATOM     98  C   UNL A   1      48.124  34.711  30.201  1.00  0.00     0.059 A 
ATOM     99  F   UNL A   1      47.626  32.535  30.920  1.00  0.00    -0.206 F 
ATOM    100  C   UNL A   1      48.091  35.678  29.199  1.00  0.00     0.060 A 
BRANCH 100 101
ATOM    101  S   UNL A   1      48.785  37.321  29.493  1.00  0.00     0.124 S 
ATOM    102  O   UNL A   1      47.929  38.157  28.658  1.00  0.00    -0.237 OA
ATOM    103  O   UNL A   1      48.614  37.472  30.935  1.00  0.00    -0.237 OA
ATOM    104  O   UNL A   1      50.168  37.185  29.045  1.00  0.00    -0.744 OA
ENDBRANCH 100 101
ENDBRANCH  68  93
BRANCH  80 105
ATOM    105  C   UNL A   1      49.597  27.321  25.927  1.00  0.00     0.058 A 
ATOM    106  C   UNL A   1      50.656  26.837  26.708  1.00  0.00     0.135 A 
ATOM    107  C   UNL A   1      49.790  27.414  24.538  1.00  0.00     0.135 A 
ATOM    108  F   UNL A   1      50.521  26.729  28.039  1.00  0.00    -0.206 F 
ATOM    109  C   UNL A   1      51.872  26.476  26.135  1.00  0.00     0.059 A 
ATOM    110  C   UNL A   1      50.986  27.031  23.942  1.00  0.00     0.059 A 
ATOM    111  F   UNL A   1      48.800  27.853  23.745  1.00  0.00    -0.206 F 
ATOM    112  C   UNL A   1      52.025  26.574  24.751  1.00  0.00     0.060 A 
BRANCH 112 113
ATOM    113  S   UNL A   1      53.593  26.066  24.016  1.00  0.00     0.124 S 
ATOM    114  O   UNL A   1      53.842  24.802  24.701  1.00  0.00    -0.237 OA
ATOM    115  O   UNL A   1      53.255  25.963  22.599  1.00  0.00    -0.237 OA
ATOM    116  O   UNL A   1      54.500  27.157  24.359  1.00  0.00    -0.744 OA
ENDBRANCH 112 113
ENDBRANCH  80 105
ENDBRANCH  54  55
ENDBRANCH  47  49
ENDBRANCH  46  47
ENDBRANCH  45  46
ENDBRANCH  44  45
ENDBRANCH  43  44
ENDBRANCH  42  43
ENDBRANCH   1  42
TORSDOF 24
ENDMDL
MODEL 2
REMARK VINA RESULT:      -9.7      5.750     14.564
REMARK SMILES C[C@H]1[C@H](C)CC[C@@]2(C(=O)OCCOCCOCCOCCOC(=O)c3ccc(-c4c5nc(c(-c6c(F)cc(S(=O)(=O)[O-])cc6F)c6ccc([nH]6)c(-c6c(F)cc(S(=O)(=O)[O-])cc6F)c6nc(c(-c7c(F)cc(S(=O)(=O)[O-])cc7F)c7ccc4[nH]7)C=C6)C=C5)cc3)CC[C@@]3(C)C(=CC[C@@H]4[C@@]5(C)CC[C@H](O)C(C)(C)[C@@H]5CC[C@]43C)[C@H]12
REMARK SMILES IDX 17 1 16 2 15 3 14 4 13 5 12 6 11 7 10 8 8 9 9 10 7 11 1 12
REMARK SMILES IDX 2 13 3 14 113 15 4 16 5 17 95 18 6 19 91 20 93 21 96 22
REMARK SMILES IDX 92 23 94 24 111 25 97 26 98 27 110 28 112 29 99 30 109 31
REMARK SMILES IDX 100 32 101 33 108 34 102 35 105 36 103 37 106 38 107 39
REMARK SMILES IDX 104 40 18 42 19 43 20 44 21 45 22 46 23 47 24 48 25 49 26 50
REMARK SMILES IDX 90 51 27 52 89 53 28 54 29 55 30 56 83 57 31 58 88 59 82 60
REMARK SMILES IDX 84 61 32 62 87 63 81 64 80 65 33 67 67 68 46 69 66 70 47 71
REMARK SMILES IDX 50 72 65 73 85 74 48 75 49 76 64 78 86 79 51 80 34 81 35 82
REMARK SMILES IDX 44 83 36 84 37 85 43 86 45 87 38 88 39 89 40 90 41 91 42 92
REMARK SMILES IDX 68 93 69 94 78 95 70 96 71 97 77 98 79 99 72 100 73 101
REMARK SMILES IDX 74 102 75 103 76 104 52 105 53 106 62 107 54 108 55 109
REMARK SMILES IDX 61 110 63 111 56 112 57 113 58 114 59 115 60 116
REMARK H PARENT 104 41 84 66 50 77
REMARK Flexibility Score: inf
ROOT
ATOM      1  C   UNL A   1      46.235  22.194  25.341  1.00  0.00     0.188 C 
ENDROOT
BRANCH   1   2
ATOM      2  O   UNL A   1      45.901  22.644  26.635  1.00  0.00    -0.377 OA
BRANCH   2   3
ATOM      3  C   UNL A   1      45.907  24.021  26.922  1.00  0.00     0.188 C 
BRANCH   3   4
ATOM      4  C   UNL A   1      46.936  24.866  26.150  1.00  0.00     0.188 C 
BRANCH   4   5
ATOM      5  O   UNL A   1      46.434  25.991  25.451  1.00  0.00    -0.376 OA
BRANCH   5   6
ATOM      6  C   UNL A   1      47.009  27.245  25.734  1.00  0.00     0.202 C 
BRANCH   6   7
ATOM      7  C   UNL A   1      48.494  27.387  26.041  1.00  0.00     0.261 C 
BRANCH   7   8
ATOM      8  O   UNL A   1      49.011  27.725  27.379  1.00  0.00    -0.463 OA
BRANCH   8   9
ATOM      9  C   UNL A   1      48.972  27.645  28.722  1.00  0.00     0.312 C 
ATOM     10  O   UNL A   1      48.036  27.361  29.458  1.00  0.00    -0.252 OA
BRANCH   9  11
ATOM     11  C   UNL A   1      50.382  27.887  29.299  1.00  0.00     0.075 C 
ATOM     12  C   UNL A   1      52.620  28.793  26.142  1.00  0.00     0.008 C 
ATOM     13  C   UNL A   1      51.637  28.033  27.031  1.00  0.00    -0.003 C 
ATOM     14  C   UNL A   1      52.113  26.545  27.264  1.00  0.00    -0.011 C 
ATOM     15  C   UNL A   1      51.176  28.845  28.354  1.00  0.00     0.036 C 
ATOM     16  C   UNL A   1      52.167  25.700  25.973  1.00  0.00     0.008 C 
ATOM     17  C   UNL A   1      51.224  25.752  28.224  1.00  0.00     0.005 C 
ATOM     18  C   UNL A   1      50.237  30.157  28.316  1.00  0.00    -0.063 C 
ATOM     19  C   UNL A   1      51.013  26.502  29.512  1.00  0.00     0.020 C 
ATOM     20  C   UNL A   1      50.294  28.516  30.708  1.00  0.00     0.020 C 
ATOM     21  C   UNL A   1      49.888  30.869  29.689  1.00  0.00    -0.006 C 
ATOM     22  C   UNL A   1      49.531  30.498  27.216  1.00  0.00    -0.027 C 
ATOM     23  C   UNL A   1      49.498  29.809  30.754  1.00  0.00     0.013 C 
ATOM     24  C   UNL A   1      51.182  31.562  30.176  1.00  0.00     0.017 C 
ATOM     25  C   UNL A   1      48.654  31.980  29.569  1.00  0.00    -0.020 C 
ATOM     26  C   UNL A   1      48.214  31.252  27.247  1.00  0.00     0.032 C 
ATOM     27  C   UNL A   1      47.562  31.329  28.652  1.00  0.00     0.006 C 
ATOM     28  C   UNL A   1      48.011  32.374  30.927  1.00  0.00     0.008 C 
ATOM     29  C   UNL A   1      49.193  33.310  28.960  1.00  0.00     0.012 C 
ATOM     30  C   UNL A   1      46.038  31.874  28.693  1.00  0.00    -0.025 C 
ATOM     31  C   UNL A   1      46.719  33.205  30.778  1.00  0.00     0.005 C 
ATOM     32  C   UNL A   1      45.829  32.912  27.572  1.00  0.00     0.012 C 
ATOM     33  C   UNL A   1      45.047  30.698  28.404  1.00  0.00     0.010 C 
ATOM     34  C   UNL A   1      45.626  32.345  30.136  1.00  0.00     0.003 C 
ATOM     35  C   UNL A   1      43.554  31.016  28.553  1.00  0.00     0.033 C 
ATOM     36  C   UNL A   1      44.130  32.854  30.294  1.00  0.00    -0.006 C 
ATOM     37  C   UNL A   1      43.190  31.676  29.883  1.00  0.00     0.120 C 
ATOM     38  C   UNL A   1      43.788  34.142  29.515  1.00  0.00     0.014 C 
ATOM     39  C   UNL A   1      43.818  33.185  31.779  1.00  0.00     0.014 C 
BRANCH  37  40
ATOM     40  O   UNL A   1      41.820  32.086  29.856  1.00  0.00    -0.393 OA
ATOM     41  H   UNL A   1      41.251  31.306  29.763  1.00  0.00     0.210 HD
ENDBRANCH  37  40
ENDBRANCH   9  11
ENDBRANCH   8   9
ENDBRANCH   7   8
ENDBRANCH   6   7
ENDBRANCH   5   6
ENDBRANCH   4   5
ENDBRANCH   3   4
ENDBRANCH   2   3
ENDBRANCH   1   2
BRANCH   1  42
ATOM     42  C   UNL A   1      45.361  21.192  24.560  1.00  0.00     0.188 C 
BRANCH  42  43
ATOM     43  O   UNL A   1      44.649  20.259  25.352  1.00  0.00    -0.376 OA
BRANCH  43  44
ATOM     44  C   UNL A   1      43.322  20.552  25.745  1.00  0.00     0.202 C 
BRANCH  44  45
ATOM     45  C   UNL A   1      42.725  21.913  25.346  1.00  0.00     0.261 C 
BRANCH  45  46
ATOM     46  O   UNL A   1      42.195  22.724  26.404  1.00  0.00    -0.460 OA
BRANCH  46  47
ATOM     47  C   UNL A   1      40.872  23.001  26.412  1.00  0.00     0.338 C 
ATOM     48  O   UNL A   1      39.965  22.231  26.146  1.00  0.00    -0.246 OA
BRANCH  47  49
ATOM     49  C   UNL A   1      40.710  24.313  27.093  1.00  0.00     0.060 A 
ATOM     50  C   UNL A   1      41.698  25.295  26.893  1.00  0.00     0.016 A 
ATOM     51  C   UNL A   1      39.516  24.642  27.747  1.00  0.00     0.016 A 
ATOM     52  C   UNL A   1      41.503  26.594  27.363  1.00  0.00     0.010 A 
ATOM     53  C   UNL A   1      39.350  25.924  28.279  1.00  0.00     0.010 A 
ATOM     54  C   UNL A   1      40.366  26.885  28.131  1.00  0.00    -0.014 A 
BRANCH  54  55
ATOM     55  C   UNL A   1      40.465  27.975  29.130  1.00  0.00     0.031 A 
ATOM     56  C   UNL A   1      41.615  27.860  30.100  1.00  0.00     0.074 A 
ATOM     57  C   UNL A   1      39.609  29.010  29.190  1.00  0.00     0.049 A 
ATOM     58  N   UNL A   1      41.938  28.622  31.108  1.00  0.00    -0.248 NA
ATOM     59  C   UNL A   1      42.531  26.720  29.897  1.00  0.00     0.031 C 
ATOM     60  C   UNL A   1      38.494  29.254  28.278  1.00  0.00     0.029 A 
ATOM     61  N   UNL A   1      39.550  30.053  30.080  1.00  0.00    -0.354 N 
ATOM     62  C   UNL A   1      43.089  28.055  31.647  1.00  0.00     0.074 A 
ATOM     63  C   UNL A   1      43.402  26.880  30.875  1.00  0.00     0.031 C 
ATOM     64  C   UNL A   1      37.847  30.368  28.670  1.00  0.00     0.029 A 
ATOM     65  C   UNL A   1      38.482  30.896  29.878  1.00  0.00     0.049 A 
ATOM     66  H   UNL A   1      40.210  30.186  30.798  1.00  0.00     0.167 HD
ATOM     67  C   UNL A   1      43.823  28.471  32.701  1.00  0.00     0.037 A 
ATOM     68  C   UNL A   1      38.066  31.953  30.606  1.00  0.00     0.037 A 
ATOM     69  C   UNL A   1      43.486  29.616  33.494  1.00  0.00     0.049 A 
ATOM     70  C   UNL A   1      38.849  32.348  31.837  1.00  0.00     0.074 A 
ATOM     71  C   UNL A   1      44.145  30.120  34.597  1.00  0.00     0.029 A 
ATOM     72  N   UNL A   1      42.380  30.421  33.274  1.00  0.00    -0.354 N 
ATOM     73  N   UNL A   1      39.945  31.815  32.327  1.00  0.00    -0.248 NA
ATOM     74  C   UNL A   1      38.339  33.487  32.615  1.00  0.00     0.031 C 
ATOM     75  C   UNL A   1      43.409  31.207  35.076  1.00  0.00     0.029 A 
ATOM     76  C   UNL A   1      42.324  31.412  34.235  1.00  0.00     0.049 A 
ATOM     77  H   UNL A   1      41.731  30.306  32.542  1.00  0.00     0.167 HD
ATOM     78  C   UNL A   1      40.271  32.573  33.449  1.00  0.00     0.074 A 
ATOM     79  C   UNL A   1      39.261  33.604  33.562  1.00  0.00     0.031 C 
ATOM     80  C   UNL A   1      41.312  32.434  34.309  1.00  0.00     0.037 A 
BRANCH  67  81
ATOM     81  C   UNL A   1      45.022  27.648  33.069  1.00  0.00     0.058 A 
ATOM     82  C   UNL A   1      44.913  26.512  33.886  1.00  0.00     0.135 A 
ATOM     83  C   UNL A   1      46.297  28.011  32.611  1.00  0.00     0.135 A 
ATOM     84  F   UNL A   1      43.721  26.149  34.388  1.00  0.00    -0.206 F 
ATOM     85  C   UNL A   1      46.032  25.768  34.245  1.00  0.00     0.059 A 
ATOM     86  C   UNL A   1      47.426  27.266  32.935  1.00  0.00     0.059 A 
ATOM     87  F   UNL A   1      46.456  29.104  31.849  1.00  0.00    -0.206 F 
ATOM     88  C   UNL A   1      47.283  26.151  33.761  1.00  0.00     0.060 A 
BRANCH  88  89
ATOM     89  S   UNL A   1      48.722  25.162  34.215  1.00  0.00     0.124 S 
ATOM     90  O   UNL A   1      49.676  26.197  34.602  1.00  0.00    -0.237 OA
ATOM     91  O   UNL A   1      48.204  24.340  35.303  1.00  0.00    -0.237 OA
ATOM     92  O   UNL A   1      49.041  24.443  32.986  1.00  0.00    -0.744 OA
ENDBRANCH  88  89
ENDBRANCH  67  81
BRANCH  68  93
ATOM     93  C   UNL A   1      36.837  32.702  30.220  1.00  0.00     0.058 A 
ATOM     94  C   UNL A   1      36.861  33.667  29.201  1.00  0.00     0.135 A 
ATOM     95  C   UNL A   1      35.616  32.489  30.881  1.00  0.00     0.135 A 
ATOM     96  F   UNL A   1      38.005  33.923  28.549  1.00  0.00    -0.206 F 
ATOM     97  C   UNL A   1      35.729  34.403  28.861  1.00  0.00     0.059 A 
ATOM     98  C   UNL A   1      34.464  33.194  30.543  1.00  0.00     0.059 A 
ATOM     99  F   UNL A   1      35.533  31.576  31.861  1.00  0.00    -0.206 F 
ATOM    100  C   UNL A   1      34.533  34.157  29.538  1.00  0.00     0.060 A 
BRANCH 100 101
ATOM    101  S   UNL A   1      33.058  35.085  29.060  1.00  0.00     0.124 S 
ATOM    102  O   UNL A   1      32.503  34.238  28.011  1.00  0.00    -0.237 OA
ATOM    103  O   UNL A   1      32.306  35.129  30.310  1.00  0.00    -0.237 OA
ATOM    104  O   UNL A   1      33.598  36.368  28.619  1.00  0.00    -0.744 OA
ENDBRANCH 100 101
ENDBRANCH  68  93
BRANCH  80 105
ATOM    105  C   UNL A   1      41.445  33.442  35.416  1.00  0.00     0.058 A 
ATOM    106  C   UNL A   1      42.060  34.686  35.212  1.00  0.00     0.135 A 
ATOM    107  C   UNL A   1      40.870  33.189  36.672  1.00  0.00     0.135 A 
ATOM    108  F   UNL A   1      42.623  34.976  34.028  1.00  0.00    -0.206 F 
ATOM    109  C   UNL A   1      42.120  35.638  36.224  1.00  0.00     0.059 A 
ATOM    110  C   UNL A   1      40.894  34.137  37.688  1.00  0.00     0.059 A 
ATOM    111  F   UNL A   1      40.253  32.021  36.911  1.00  0.00    -0.206 F 
ATOM    112  C   UNL A   1      41.532  35.355  37.458  1.00  0.00     0.060 A 
BRANCH 112 113
ATOM    113  S   UNL A   1      41.582  36.613  38.751  1.00  0.00     0.124 S 
ATOM    114  O   UNL A   1      42.770  37.372  38.375  1.00  0.00    -0.237 OA
ATOM    115  O   UNL A   1      40.307  37.300  38.569  1.00  0.00    -0.237 OA
ATOM    116  O   UNL A   1      41.697  35.833  39.980  1.00  0.00    -0.744 OA
ENDBRANCH 112 113
ENDBRANCH  80 105
ENDBRANCH  54  55
ENDBRANCH  47  49
ENDBRANCH  46  47
ENDBRANCH  45  46
ENDBRANCH  44  45
ENDBRANCH  43  44
ENDBRANCH  42  43
ENDBRANCH   1  42
TORSDOF 24
ENDMDL
MODEL 3
REMARK VINA RESULT:      -9.6      6.522     14.967
REMARK SMILES C[C@H]1[C@H](C)CC[C@@]2(C(=O)OCCOCCOCCOCCOC(=O)c3ccc(-c4c5nc(c(-c6c(F)cc(S(=O)(=O)[O-])cc6F)c6ccc([nH]6)c(-c6c(F)cc(S(=O)(=O)[O-])cc6F)c6nc(c(-c7c(F)cc(S(=O)(=O)[O-])cc7F)c7ccc4[nH]7)C=C6)C=C5)cc3)CC[C@@]3(C)C(=CC[C@@H]4[C@@]5(C)CC[C@H](O)C(C)(C)[C@@H]5CC[C@]43C)[C@H]12
REMARK SMILES IDX 17 1 16 2 15 3 14 4 13 5 12 6 11 7 10 8 8 9 9 10 7 11 1 12
REMARK SMILES IDX 2 13 3 14 113 15 4 16 5 17 95 18 6 19 91 20 93 21 96 22
REMARK SMILES IDX 92 23 94 24 111 25 97 26 98 27 110 28 112 29 99 30 109 31
REMARK SMILES IDX 100 32 101 33 108 34 102 35 105 36 103 37 106 38 107 39
REMARK SMILES IDX 104 40 18 42 19 43 20 44 21 45 22 46 23 47 24 48 25 49 26 50
REMARK SMILES IDX 90 51 27 52 89 53 28 54 29 55 30 56 83 57 31 58 88 59 82 60
REMARK SMILES IDX 84 61 32 62 87 63 81 64 80 65 33 67 67 68 46 69 66 70 47 71
REMARK SMILES IDX 50 72 65 73 85 74 48 75 49 76 64 78 86 79 51 80 34 81 35 82
REMARK SMILES IDX 44 83 36 84 37 85 43 86 45 87 38 88 39 89 40 90 41 91 42 92
REMARK SMILES IDX 68 93 69 94 78 95 70 96 71 97 77 98 79 99 72 100 73 101
REMARK SMILES IDX 74 102 75 103 76 104 52 105 53 106 62 107 54 108 55 109
REMARK SMILES IDX 61 110 63 111 56 112 57 113 58 114 59 115 60 116
REMARK H PARENT 104 41 84 66 50 77
REMARK Flexibility Score: inf
ROOT
ATOM      1  C   UNL A   1      45.969  21.565  24.871  1.00  0.00     0.188 C 
ENDROOT
BRANCH   1   2
ATOM      2  O   UNL A   1      46.295  22.658  25.700  1.00  0.00    -0.377 OA
BRANCH   2   3
ATOM      3  C   UNL A   1      46.618  23.901  25.128  1.00  0.00     0.188 C 
BRANCH   3   4
ATOM      4  C   UNL A   1      46.701  25.090  26.102  1.00  0.00     0.188 C 
BRANCH   4   5
ATOM      5  O   UNL A   1      47.635  26.106  25.782  1.00  0.00    -0.376 OA
BRANCH   5   6
ATOM      6  C   UNL A   1      48.860  26.108  26.475  1.00  0.00     0.202 C 
BRANCH   6   7
ATOM      7  C   UNL A   1      49.394  27.367  27.144  1.00  0.00     0.261 C 
BRANCH   7   8
ATOM      8  O   UNL A   1      48.528  28.358  27.805  1.00  0.00    -0.463 OA
BRANCH   8   9
ATOM      9  C   UNL A   1      47.331  28.770  28.265  1.00  0.00     0.312 C 
ATOM     10  O   UNL A   1      46.408  28.114  28.730  1.00  0.00    -0.252 OA
BRANCH   9  11
ATOM     11  C   UNL A   1      47.262  30.311  28.228  1.00  0.00     0.075 C 
ATOM     12  C   UNL A   1      43.771  31.202  29.908  1.00  0.00     0.008 C 
ATOM     13  C   UNL A   1      44.786  30.539  28.979  1.00  0.00    -0.003 C 
ATOM     14  C   UNL A   1      44.408  30.774  27.464  1.00  0.00    -0.011 C 
ATOM     15  C   UNL A   1      46.332  30.820  29.376  1.00  0.00     0.036 C 
ATOM     16  C   UNL A   1      43.064  30.138  27.051  1.00  0.00     0.008 C 
ATOM     17  C   UNL A   1      45.434  30.218  26.474  1.00  0.00     0.005 C 
ATOM     18  C   UNL A   1      47.039  30.215  30.694  1.00  0.00    -0.063 C 
ATOM     19  C   UNL A   1      46.823  30.696  26.807  1.00  0.00     0.020 C 
ATOM     20  C   UNL A   1      48.670  30.925  28.401  1.00  0.00     0.020 C 
ATOM     21  C   UNL A   1      48.553  30.597  30.974  1.00  0.00    -0.006 C 
ATOM     22  C   UNL A   1      46.489  29.204  31.400  1.00  0.00    -0.027 C 
ATOM     23  C   UNL A   1      49.382  30.479  29.667  1.00  0.00     0.013 C 
ATOM     24  C   UNL A   1      48.569  32.084  31.400  1.00  0.00     0.017 C 
ATOM     25  C   UNL A   1      49.272  29.659  32.145  1.00  0.00    -0.020 C 
ATOM     26  C   UNL A   1      47.288  28.183  32.191  1.00  0.00     0.032 C 
ATOM     27  C   UNL A   1      48.806  28.186  31.877  1.00  0.00     0.006 C 
ATOM     28  C   UNL A   1      50.824  29.710  32.146  1.00  0.00     0.008 C 
ATOM     29  C   UNL A   1      48.836  30.147  33.560  1.00  0.00     0.012 C 
ATOM     30  C   UNL A   1      49.653  26.945  32.481  1.00  0.00    -0.025 C 
ATOM     31  C   UNL A   1      51.475  28.654  33.064  1.00  0.00     0.005 C 
ATOM     32  C   UNL A   1      49.036  26.502  33.823  1.00  0.00     0.012 C 
ATOM     33  C   UNL A   1      49.554  25.718  31.515  1.00  0.00     0.010 C 
ATOM     34  C   UNL A   1      51.195  27.252  32.514  1.00  0.00     0.003 C 
ATOM     35  C   UNL A   1      50.424  24.504  31.868  1.00  0.00     0.033 C 
ATOM     36  C   UNL A   1      52.121  26.077  33.046  1.00  0.00    -0.006 C 
ATOM     37  C   UNL A   1      51.894  24.845  32.113  1.00  0.00     0.120 C 
ATOM     38  C   UNL A   1      51.920  25.702  34.530  1.00  0.00     0.014 C 
ATOM     39  C   UNL A   1      53.620  26.465  32.927  1.00  0.00     0.014 C 
BRANCH  37  40
ATOM     40  O   UNL A   1      52.580  23.688  32.599  1.00  0.00    -0.393 OA
ATOM     41  H   UNL A   1      53.146  23.330  31.898  1.00  0.00     0.210 HD
ENDBRANCH  37  40
ENDBRANCH   9  11
ENDBRANCH   8   9
ENDBRANCH   7   8
ENDBRANCH   6   7
ENDBRANCH   5   6
ENDBRANCH   4   5
ENDBRANCH   3   4
ENDBRANCH   2   3
ENDBRANCH   1   2
BRANCH   1  42
ATOM     42  C   UNL A   1      44.622  20.820  24.973  1.00  0.00     0.188 C 
BRANCH  42  43
ATOM     43  O   UNL A   1      43.882  21.060  26.156  1.00  0.00    -0.376 OA
BRANCH  43  44
ATOM     44  C   UNL A   1      42.659  21.767  26.078  1.00  0.00     0.202 C 
BRANCH  44  45
ATOM     45  C   UNL A   1      42.681  23.210  25.545  1.00  0.00     0.261 C 
BRANCH  45  46
ATOM     46  O   UNL A   1      41.999  24.201  26.326  1.00  0.00    -0.460 OA
BRANCH  46  47
ATOM     47  C   UNL A   1      42.219  25.507  26.056  1.00  0.00     0.338 C 
ATOM     48  O   UNL A   1      42.303  26.019  24.953  1.00  0.00    -0.246 OA
BRANCH  47  49
ATOM     49  C   UNL A   1      42.036  26.248  27.333  1.00  0.00     0.060 A 
ATOM     50  C   UNL A   1      40.779  26.195  27.961  1.00  0.00     0.016 A 
ATOM     51  C   UNL A   1      43.131  26.812  28.001  1.00  0.00     0.016 A 
ATOM     52  C   UNL A   1      40.609  26.721  29.242  1.00  0.00     0.010 A 
ATOM     53  C   UNL A   1      42.946  27.403  29.254  1.00  0.00     0.010 A 
ATOM     54  C   UNL A   1      41.673  27.402  29.852  1.00  0.00    -0.014 A 
BRANCH  54  55
ATOM     55  C   UNL A   1      41.344  28.469  30.826  1.00  0.00     0.031 A 
ATOM     56  C   UNL A   1      42.167  28.465  32.091  1.00  0.00     0.074 A 
ATOM     57  C   UNL A   1      40.389  29.393  30.624  1.00  0.00     0.049 A 
ATOM     58  N   UNL A   1      42.087  29.233  33.143  1.00  0.00    -0.248 NA
ATOM     59  C   UNL A   1      43.233  27.448  32.175  1.00  0.00     0.031 C 
ATOM     60  C   UNL A   1      39.566  29.527  29.423  1.00  0.00     0.029 A 
ATOM     61  N   UNL A   1      39.946  30.397  31.449  1.00  0.00    -0.354 N 
ATOM     62  C   UNL A   1      43.090  28.792  34.000  1.00  0.00     0.074 A 
ATOM     63  C   UNL A   1      43.755  27.684  33.364  1.00  0.00     0.031 C 
ATOM     64  C   UNL A   1      38.702  30.545  29.600  1.00  0.00     0.029 A 
ATOM     65  C   UNL A   1      38.889  31.112  30.936  1.00  0.00     0.049 A 
ATOM     66  H   UNL A   1      40.347  30.588  32.328  1.00  0.00     0.167 HD
ATOM     67  C   UNL A   1      43.429  29.264  35.219  1.00  0.00     0.037 A 
ATOM     68  C   UNL A   1      38.153  32.092  31.500  1.00  0.00     0.037 A 
ATOM     69  C   UNL A   1      42.739  30.338  35.868  1.00  0.00     0.049 A 
ATOM     70  C   UNL A   1      38.489  32.544  32.903  1.00  0.00     0.074 A 
ATOM     71  C   UNL A   1      42.981  30.887  37.112  1.00  0.00     0.029 A 
ATOM     72  N   UNL A   1      41.655  31.012  35.327  1.00  0.00    -0.354 N 
ATOM     73  N   UNL A   1      39.452  32.132  33.697  1.00  0.00    -0.248 NA
ATOM     74  C   UNL A   1      37.640  33.593  33.488  1.00  0.00     0.031 C 
ATOM     75  C   UNL A   1      42.011  31.866  37.344  1.00  0.00     0.029 A 
ATOM     76  C   UNL A   1      41.202  31.962  36.222  1.00  0.00     0.049 A 
ATOM     77  H   UNL A   1      41.267  30.840  34.438  1.00  0.00     0.167 HD
ATOM     78  C   UNL A   1      39.342  32.893  34.859  1.00  0.00     0.074 A 
ATOM     79  C   UNL A   1      38.224  33.792  34.662  1.00  0.00     0.031 C 
ATOM     80  C   UNL A   1      40.095  32.855  35.987  1.00  0.00     0.037 A 
BRANCH  67  81
ATOM     81  C   UNL A   1      44.559  28.580  35.928  1.00  0.00     0.058 A 
ATOM     82  C   UNL A   1      45.886  29.019  35.797  1.00  0.00     0.135 A 
ATOM     83  C   UNL A   1      44.313  27.461  36.738  1.00  0.00     0.135 A 
ATOM     84  F   UNL A   1      46.180  30.058  34.998  1.00  0.00    -0.206 F 
ATOM     85  C   UNL A   1      46.933  28.365  36.438  1.00  0.00     0.059 A 
ATOM     86  C   UNL A   1      45.340  26.807  37.409  1.00  0.00     0.059 A 
ATOM     87  F   UNL A   1      43.065  26.986  36.873  1.00  0.00    -0.206 F 
ATOM     88  C   UNL A   1      46.649  27.262  37.245  1.00  0.00     0.060 A 
BRANCH  88  89
ATOM     89  S   UNL A   1      48.014  26.438  38.089  1.00  0.00     0.124 S 
ATOM     90  O   UNL A   1      49.053  26.471  37.065  1.00  0.00    -0.237 OA
ATOM     91  O   UNL A   1      48.234  27.305  39.242  1.00  0.00    -0.237 OA
ATOM     92  O   UNL A   1      47.476  25.117  38.395  1.00  0.00    -0.744 OA
ENDBRANCH  88  89
ENDBRANCH  67  81
BRANCH  68  93
ATOM     93  C   UNL A   1      37.008  32.699  30.765  1.00  0.00     0.058 A 
ATOM     94  C   UNL A   1      37.211  33.686  29.788  1.00  0.00     0.135 A 
ATOM     95  C   UNL A   1      35.684  32.326  31.043  1.00  0.00     0.135 A 
ATOM     96  F   UNL A   1      38.456  34.093  29.496  1.00  0.00    -0.206 F 
ATOM     97  C   UNL A   1      36.146  34.292  29.126  1.00  0.00     0.059 A 
ATOM     98  C   UNL A   1      34.603  32.898  30.377  1.00  0.00     0.059 A 
ATOM     99  F   UNL A   1      35.429  31.384  31.965  1.00  0.00    -0.206 F 
ATOM    100  C   UNL A   1      34.844  33.888  29.426  1.00  0.00     0.060 A 
BRANCH 100 101
ATOM    101  S   UNL A   1      33.471  34.647  28.530  1.00  0.00     0.124 S 
ATOM    102  O   UNL A   1      34.118  35.806  27.925  1.00  0.00    -0.237 OA
ATOM    103  O   UNL A   1      33.080  33.582  27.611  1.00  0.00    -0.237 OA
ATOM    104  O   UNL A   1      32.504  34.940  29.583  1.00  0.00    -0.744 OA
ENDBRANCH 100 101
ENDBRANCH  68  93
BRANCH  80 105
ATOM    105  C   UNL A   1      39.776  33.841  37.075  1.00  0.00     0.058 A 
ATOM    106  C   UNL A   1      39.021  33.482  38.200  1.00  0.00     0.135 A 
ATOM    107  C   UNL A   1      40.311  35.140  37.027  1.00  0.00     0.135 A 
ATOM    108  F   UNL A   1      38.489  32.252  38.293  1.00  0.00    -0.206 F 
ATOM    109  C   UNL A   1      38.786  34.384  39.233  1.00  0.00     0.059 A 
ATOM    110  C   UNL A   1      40.113  36.047  38.061  1.00  0.00     0.059 A 
ATOM    111  F   UNL A   1      41.057  35.526  35.980  1.00  0.00    -0.206 F 
ATOM    112  C   UNL A   1      39.339  35.663  39.155  1.00  0.00     0.060 A 
BRANCH 112 113
ATOM    113  S   UNL A   1      39.061  36.812  40.519  1.00  0.00     0.124 S 
ATOM    114  O   UNL A   1      38.511  37.968  39.820  1.00  0.00    -0.237 OA
ATOM    115  O   UNL A   1      38.123  36.075  41.361  1.00  0.00    -0.237 OA
ATOM    116  O   UNL A   1      40.393  36.994  41.087  1.00  0.00    -0.744 OA
ENDBRANCH 112 113
ENDBRANCH  80 105
ENDBRANCH  54  55
ENDBRANCH  47  49
ENDBRANCH  46  47
ENDBRANCH  45  46
ENDBRANCH  44  45
ENDBRANCH  43  44
ENDBRANCH  42  43
ENDBRANCH   1  42
TORSDOF 24
ENDMDL
