MODEL 1
REMARK VINA RESULT:      -8.4      0.000      0.000
REMARK SMILES CC[C@@](C)([NH2+]CC(=O)N[C@@H](C)c1ccc(F)cc1)C(=O)OCCOCCOCCOCCOC(=O)c1ccc(-c2c3nc(c(-c4c(F)cc(S(=O)(=O)[O-])cc4F)c4ccc([nH]4)c(-c4c(F)cc(S(=O)(=O)[O-])cc4F)c4nc(c(-c5c(F)cc(S(=O)(=O)[O-])cc5F)c5ccc2[nH]5)C=C4)C=C3)cc1
REMARK SMILES IDX 26 1 25 2 24 3 23 4 22 5 21 6 19 7 20 8 3 9 4 10 2 11 1 12
REMARK SMILES IDX 5 13 6 16 7 17 8 18 9 19 10 21 11 22 12 23 13 24 18 25 14 26
REMARK SMILES IDX 17 27 15 28 16 29 27 30 28 31 29 32 30 33 31 34 32 35 33 36
REMARK SMILES IDX 34 37 35 38 36 39 37 40 101 41 38 42 100 43 39 44 40 45
REMARK SMILES IDX 41 46 94 47 42 48 99 49 93 50 95 51 43 52 98 53 92 54 91 55
REMARK SMILES IDX 44 57 78 58 57 59 77 60 58 61 61 62 76 63 96 64 59 65 60 66
REMARK SMILES IDX 75 68 97 69 62 70 45 71 46 72 55 73 47 74 48 75 54 76 56 77
REMARK SMILES IDX 49 78 50 79 51 80 52 81 53 82 79 83 80 84 89 85 81 86 82 87
REMARK SMILES IDX 88 88 90 89 83 90 84 91 85 92 86 93 87 94 63 95 64 96 73 97
REMARK SMILES IDX 65 98 66 99 72 100 74 101 67 102 68 103 69 104 70 105 71 106
REMARK H PARENT 5 14 5 15 9 20 95 56 61 67
REMARK Flexibility Score: inf
ROOT
ATOM      1  C   UNL A   1      31.836  28.373  22.971  1.00  0.00     0.188 C 
ENDROOT
BRANCH   1   2
ATOM      2  C   UNL A   1      30.791  27.572  22.161  1.00  0.00     0.188 C 
BRANCH   2   3
ATOM      3  O   UNL A   1      31.214  26.554  21.261  1.00  0.00    -0.376 OA
BRANCH   3   4
ATOM      4  C   UNL A   1      32.501  25.970  21.423  1.00  0.00     0.202 C 
BRANCH   4   5
ATOM      5  C   UNL A   1      32.688  24.661  22.212  1.00  0.00     0.261 C 
BRANCH   5   6
ATOM      6  O   UNL A   1      32.239  24.705  23.575  1.00  0.00    -0.459 OA
BRANCH   6   7
ATOM      7  C   UNL A   1      33.091  24.519  24.621  1.00  0.00     0.367 C 
ATOM      8  O   UNL A   1      33.884  25.371  25.003  1.00  0.00    -0.245 OA
BRANCH   7   9
ATOM      9  C   UNL A   1      32.919  23.093  25.274  1.00  0.00     0.191 C 
ATOM     10  C   UNL A   1      33.358  22.865  26.732  1.00  0.00     0.092 C 
BRANCH   9  11
ATOM     11  C   UNL A   1      31.366  22.874  25.300  1.00  0.00     0.077 C 
ATOM     12  C   UNL A   1      30.682  23.464  26.551  1.00  0.00     0.011 C 
ENDBRANCH   9  11
BRANCH   9  13
ATOM     13  N   UNL A   1      33.646  22.033  24.510  1.00  0.00    -0.325 N 
ATOM     14  H   UNL A   1      33.680  22.336  23.536  1.00  0.00     0.347 HD
ATOM     15  H   UNL A   1      33.116  21.183  24.703  1.00  0.00     0.347 HD
BRANCH  13  16
ATOM     16  C   UNL A   1      35.045  21.682  24.908  1.00  0.00     0.362 C 
BRANCH  16  17
ATOM     17  C   UNL A   1      36.195  22.285  24.073  1.00  0.00     0.275 C 
ATOM     18  O   UNL A   1      35.953  22.876  23.015  1.00  0.00    -0.268 OA
ATOM     19  N   UNL A   1      37.510  22.204  24.481  1.00  0.00    -0.345 N 
ATOM     20  H   UNL A   1      38.115  22.884  24.107  1.00  0.00     0.164 HD
BRANCH  19  21
ATOM     21  C   UNL A   1      38.126  21.248  25.393  1.00  0.00     0.109 C 
ATOM     22  C   UNL A   1      38.206  19.838  24.778  1.00  0.00     0.036 C 
BRANCH  21  23
ATOM     23  C   UNL A   1      39.399  21.676  26.109  1.00  0.00    -0.026 A 
ATOM     24  C   UNL A   1      40.396  20.734  26.436  1.00  0.00     0.009 A 
ATOM     25  C   UNL A   1      39.453  22.936  26.730  1.00  0.00     0.009 A 
ATOM     26  C   UNL A   1      41.336  20.991  27.432  1.00  0.00     0.039 A 
ATOM     27  C   UNL A   1      40.408  23.199  27.718  1.00  0.00     0.039 A 
ATOM     28  C   UNL A   1      41.317  22.214  28.081  1.00  0.00     0.123 A 
ATOM     29  F   UNL A   1      42.160  22.426  29.098  1.00  0.00    -0.207 F 
ENDBRANCH  21  23
ENDBRANCH  19  21
ENDBRANCH  16  17
ENDBRANCH  13  16
ENDBRANCH   9  13
ENDBRANCH   7   9
ENDBRANCH   6   7
ENDBRANCH   5   6
ENDBRANCH   4   5
ENDBRANCH   3   4
ENDBRANCH   2   3
ENDBRANCH   1   2
BRANCH   1  30
ATOM     30  O   UNL A   1      32.136  27.834  24.244  1.00  0.00    -0.377 OA
BRANCH  30  31
ATOM     31  C   UNL A   1      31.114  27.910  25.228  1.00  0.00     0.188 C 
BRANCH  31  32
ATOM     32  C   UNL A   1      31.518  27.805  26.713  1.00  0.00     0.188 C 
BRANCH  32  33
ATOM     33  O   UNL A   1      31.476  29.028  27.440  1.00  0.00    -0.376 OA
BRANCH  33  34
ATOM     34  C   UNL A   1      31.829  30.238  26.784  1.00  0.00     0.202 C 
BRANCH  34  35
ATOM     35  C   UNL A   1      33.279  30.394  26.293  1.00  0.00     0.261 C 
BRANCH  35  36
ATOM     36  O   UNL A   1      34.290  30.389  27.309  1.00  0.00    -0.460 OA
BRANCH  36  37
ATOM     37  C   UNL A   1      34.870  29.196  27.579  1.00  0.00     0.338 C 
ATOM     38  O   UNL A   1      34.486  28.104  27.235  1.00  0.00    -0.246 OA
BRANCH  37  39
ATOM     39  C   UNL A   1      36.178  29.460  28.216  1.00  0.00     0.060 A 
ATOM     40  C   UNL A   1      37.206  29.980  27.422  1.00  0.00     0.016 A 
ATOM     41  C   UNL A   1      36.398  29.161  29.562  1.00  0.00     0.016 A 
ATOM     42  C   UNL A   1      38.480  30.143  27.959  1.00  0.00     0.010 A 
ATOM     43  C   UNL A   1      37.682  29.305  30.093  1.00  0.00     0.010 A 
ATOM     44  C   UNL A   1      38.737  29.750  29.279  1.00  0.00    -0.014 A 
BRANCH  44  45
ATOM     45  C   UNL A   1      40.147  29.600  29.711  1.00  0.00     0.031 A 
ATOM     46  C   UNL A   1      40.636  30.451  30.855  1.00  0.00     0.074 A 
ATOM     47  C   UNL A   1      40.946  28.665  29.166  1.00  0.00     0.049 A 
ATOM     48  N   UNL A   1      41.808  30.468  31.432  1.00  0.00    -0.248 NA
ATOM     49  C   UNL A   1      39.670  31.405  31.430  1.00  0.00     0.031 C 
ATOM     50  C   UNL A   1      40.562  27.746  28.095  1.00  0.00     0.029 A 
ATOM     51  N   UNL A   1      42.244  28.323  29.453  1.00  0.00    -0.354 N 
ATOM     52  C   UNL A   1      41.719  31.423  32.439  1.00  0.00     0.074 A 
ATOM     53  C   UNL A   1      40.392  31.993  32.372  1.00  0.00     0.031 C 
ATOM     54  C   UNL A   1      41.601  26.938  27.821  1.00  0.00     0.029 A 
ATOM     55  C   UNL A   1      42.731  27.300  28.676  1.00  0.00     0.049 A 
ATOM     56  H   UNL A   1      42.775  28.770  30.151  1.00  0.00     0.167 HD
ATOM     57  C   UNL A   1      42.653  31.777  33.351  1.00  0.00     0.037 A 
ATOM     58  C   UNL A   1      43.952  26.729  28.654  1.00  0.00     0.037 A 
ATOM     59  C   UNL A   1      43.969  31.200  33.419  1.00  0.00     0.049 A 
ATOM     60  C   UNL A   1      45.004  27.205  29.626  1.00  0.00     0.074 A 
ATOM     61  C   UNL A   1      44.989  31.493  34.308  1.00  0.00     0.029 A 
ATOM     62  N   UNL A   1      44.449  30.213  32.571  1.00  0.00    -0.354 N 
ATOM     63  N   UNL A   1      44.904  28.106  30.575  1.00  0.00    -0.248 NA
ATOM     64  C   UNL A   1      46.333  26.585  29.527  1.00  0.00     0.031 C 
ATOM     65  C   UNL A   1      46.102  30.723  33.964  1.00  0.00     0.029 A 
ATOM     66  C   UNL A   1      45.757  29.904  32.900  1.00  0.00     0.049 A 
ATOM     67  H   UNL A   1      43.934  29.795  31.843  1.00  0.00     0.167 HD
ATOM     68  C   UNL A   1      46.146  28.140  31.201  1.00  0.00     0.074 A 
ATOM     69  C   UNL A   1      46.974  27.155  30.537  1.00  0.00     0.031 C 
ATOM     70  C   UNL A   1      46.567  28.917  32.231  1.00  0.00     0.037 A 
BRANCH  57  71
ATOM     71  C   UNL A   1      42.299  32.838  34.355  1.00  0.00     0.058 A 
ATOM     72  C   UNL A   1      41.566  32.511  35.507  1.00  0.00     0.135 A 
ATOM     73  C   UNL A   1      42.596  34.192  34.131  1.00  0.00     0.135 A 
ATOM     74  F   UNL A   1      41.267  31.231  35.777  1.00  0.00    -0.206 F 
ATOM     75  C   UNL A   1      41.107  33.492  36.380  1.00  0.00     0.059 A 
ATOM     76  C   UNL A   1      42.171  35.188  35.005  1.00  0.00     0.059 A 
ATOM     77  F   UNL A   1      43.321  34.555  33.059  1.00  0.00    -0.206 F 
ATOM     78  C   UNL A   1      41.407  34.828  36.115  1.00  0.00     0.060 A 
BRANCH  78  79
ATOM     79  S   UNL A   1      40.784  36.088  37.248  1.00  0.00     0.124 S 
ATOM     80  O   UNL A   1      40.304  35.280  38.363  1.00  0.00    -0.237 OA
ATOM     81  O   UNL A   1      41.983  36.882  37.507  1.00  0.00    -0.237 OA
ATOM     82  O   UNL A   1      39.751  36.764  36.469  1.00  0.00    -0.744 OA
ENDBRANCH  78  79
ENDBRANCH  57  71
BRANCH  58  83
ATOM     83  C   UNL A   1      44.257  25.642  27.682  1.00  0.00     0.058 A 
ATOM     84  C   UNL A   1      44.411  25.913  26.314  1.00  0.00     0.135 A 
ATOM     85  C   UNL A   1      44.416  24.313  28.105  1.00  0.00     0.135 A 
ATOM     86  F   UNL A   1      44.267  27.165  25.854  1.00  0.00    -0.206 F 
ATOM     87  C   UNL A   1      44.697  24.906  25.398  1.00  0.00     0.059 A 
ATOM     88  C   UNL A   1      44.731  23.292  27.212  1.00  0.00     0.059 A 
ATOM     89  F   UNL A   1      44.293  24.005  29.405  1.00  0.00    -0.206 F 
ATOM     90  C   UNL A   1      44.857  23.598  25.858  1.00  0.00     0.060 A 
BRANCH  90  91
ATOM     91  S   UNL A   1      45.244  22.310  24.653  1.00  0.00     0.124 S 
ATOM     92  O   UNL A   1      45.446  23.099  23.441  1.00  0.00    -0.237 OA
ATOM     93  O   UNL A   1      46.444  21.708  25.226  1.00  0.00    -0.237 OA
ATOM     94  O   UNL A   1      44.054  21.468  24.663  1.00  0.00    -0.744 OA
ENDBRANCH  90  91
ENDBRANCH  58  83
BRANCH  70  95
ATOM     95  C   UNL A   1      47.976  28.723  32.725  1.00  0.00     0.058 A 
ATOM     96  C   UNL A   1      48.255  27.788  33.736  1.00  0.00     0.135 A 
ATOM     97  C   UNL A   1      49.040  29.502  32.244  1.00  0.00     0.135 A 
ATOM     98  F   UNL A   1      47.274  27.023  34.242  1.00  0.00    -0.206 F 
ATOM     99  C   UNL A   1      49.536  27.637  34.256  1.00  0.00     0.059 A 
ATOM    100  C   UNL A   1      50.337  29.345  32.726  1.00  0.00     0.059 A 
ATOM    101  F   UNL A   1      48.829  30.407  31.275  1.00  0.00    -0.206 F 
ATOM    102  C   UNL A   1      50.572  28.418  33.741  1.00  0.00     0.060 A 
BRANCH 102 103
ATOM    103  S   UNL A   1      52.236  28.178  34.397  1.00  0.00     0.124 S 
ATOM    104  O   UNL A   1      52.953  27.687  33.225  1.00  0.00    -0.237 OA
ATOM    105  O   UNL A   1      52.590  29.524  34.838  1.00  0.00    -0.237 OA
ATOM    106  O   UNL A   1      52.042  27.205  35.468  1.00  0.00    -0.744 OA
ENDBRANCH 102 103
ENDBRANCH  70  95
ENDBRANCH  44  45
ENDBRANCH  37  39
ENDBRANCH  36  37
ENDBRANCH  35  36
ENDBRANCH  34  35
ENDBRANCH  33  34
ENDBRANCH  32  33
ENDBRANCH  31  32
ENDBRANCH  30  31
ENDBRANCH   1  30
TORSDOF 29
ENDMDL
MODEL 2
REMARK VINA RESULT:      -7.7      5.513     10.629
REMARK SMILES CC[C@@](C)([NH2+]CC(=O)N[C@@H](C)c1ccc(F)cc1)C(=O)OCCOCCOCCOCCOC(=O)c1ccc(-c2c3nc(c(-c4c(F)cc(S(=O)(=O)[O-])cc4F)c4ccc([nH]4)c(-c4c(F)cc(S(=O)(=O)[O-])cc4F)c4nc(c(-c5c(F)cc(S(=O)(=O)[O-])cc5F)c5ccc2[nH]5)C=C4)C=C3)cc1
REMARK SMILES IDX 26 1 25 2 24 3 23 4 22 5 21 6 19 7 20 8 3 9 4 10 2 11 1 12
REMARK SMILES IDX 5 13 6 16 7 17 8 18 9 19 10 21 11 22 12 23 13 24 18 25 14 26
REMARK SMILES IDX 17 27 15 28 16 29 27 30 28 31 29 32 30 33 31 34 32 35 33 36
REMARK SMILES IDX 34 37 35 38 36 39 37 40 101 41 38 42 100 43 39 44 40 45
REMARK SMILES IDX 41 46 94 47 42 48 99 49 93 50 95 51 43 52 98 53 92 54 91 55
REMARK SMILES IDX 44 57 78 58 57 59 77 60 58 61 61 62 76 63 96 64 59 65 60 66
REMARK SMILES IDX 75 68 97 69 62 70 45 71 46 72 55 73 47 74 48 75 54 76 56 77
REMARK SMILES IDX 49 78 50 79 51 80 52 81 53 82 79 83 80 84 89 85 81 86 82 87
REMARK SMILES IDX 88 88 90 89 83 90 84 91 85 92 86 93 87 94 63 95 64 96 73 97
REMARK SMILES IDX 65 98 66 99 72 100 74 101 67 102 68 103 69 104 70 105 71 106
REMARK H PARENT 5 14 5 15 9 20 95 56 61 67
REMARK Flexibility Score: inf
ROOT
ATOM      1  C   UNL A   1      33.007  29.291  24.776  1.00  0.00     0.188 C 
ENDROOT
BRANCH   1   2
ATOM      2  C   UNL A   1      31.467  29.318  24.654  1.00  0.00     0.188 C 
BRANCH   2   3
ATOM      3  O   UNL A   1      30.848  29.110  23.389  1.00  0.00    -0.376 OA
BRANCH   3   4
ATOM      4  C   UNL A   1      29.838  28.118  23.262  1.00  0.00     0.202 C 
BRANCH   4   5
ATOM      5  C   UNL A   1      29.860  26.843  24.124  1.00  0.00     0.261 C 
BRANCH   5   6
ATOM      6  O   UNL A   1      30.509  25.713  23.521  1.00  0.00    -0.459 OA
BRANCH   6   7
ATOM      7  C   UNL A   1      31.843  25.485  23.669  1.00  0.00     0.367 C 
ATOM      8  O   UNL A   1      32.705  26.116  23.069  1.00  0.00    -0.245 OA
BRANCH   7   9
ATOM      9  C   UNL A   1      32.132  24.332  24.708  1.00  0.00     0.191 C 
ATOM     10  C   UNL A   1      32.368  24.683  26.188  1.00  0.00     0.092 C 
BRANCH   9  11
ATOM     11  C   UNL A   1      30.807  23.492  24.717  1.00  0.00     0.077 C 
ATOM     12  C   UNL A   1      30.669  22.572  25.948  1.00  0.00     0.011 C 
ENDBRANCH   9  11
BRANCH   9  13
ATOM     13  N   UNL A   1      33.334  23.526  24.333  1.00  0.00    -0.325 N 
ATOM     14  H   UNL A   1      33.892  24.098  23.698  1.00  0.00     0.347 HD
ATOM     15  H   UNL A   1      32.942  22.667  23.945  1.00  0.00     0.347 HD
BRANCH  13  16
ATOM     16  C   UNL A   1      34.251  23.047  25.413  1.00  0.00     0.362 C 
BRANCH  16  17
ATOM     17  C   UNL A   1      34.648  21.555  25.399  1.00  0.00     0.275 C 
ATOM     18  O   UNL A   1      33.932  20.716  25.954  1.00  0.00    -0.268 OA
ATOM     19  N   UNL A   1      35.789  21.112  24.760  1.00  0.00    -0.345 N 
ATOM     20  H   UNL A   1      35.788  20.163  24.498  1.00  0.00     0.164 HD
BRANCH  19  21
ATOM     21  C   UNL A   1      36.994  21.857  24.421  1.00  0.00     0.109 C 
ATOM     22  C   UNL A   1      36.731  22.903  23.320  1.00  0.00     0.036 C 
BRANCH  21  23
ATOM     23  C   UNL A   1      37.848  22.378  25.568  1.00  0.00    -0.026 A 
ATOM     24  C   UNL A   1      37.744  23.718  25.995  1.00  0.00     0.009 A 
ATOM     25  C   UNL A   1      38.960  21.633  25.996  1.00  0.00     0.009 A 
ATOM     26  C   UNL A   1      38.768  24.328  26.717  1.00  0.00     0.039 A 
ATOM     27  C   UNL A   1      39.980  22.243  26.735  1.00  0.00     0.039 A 
ATOM     28  C   UNL A   1      39.888  23.590  27.059  1.00  0.00     0.123 A 
ATOM     29  F   UNL A   1      40.909  24.201  27.672  1.00  0.00    -0.207 F 
ENDBRANCH  21  23
ENDBRANCH  19  21
ENDBRANCH  16  17
ENDBRANCH  13  16
ENDBRANCH   9  13
ENDBRANCH   7   9
ENDBRANCH   6   7
ENDBRANCH   5   6
ENDBRANCH   4   5
ENDBRANCH   3   4
ENDBRANCH   2   3
ENDBRANCH   1   2
BRANCH   1  30
ATOM     30  O   UNL A   1      33.518  28.239  25.572  1.00  0.00    -0.377 OA
BRANCH  30  31
ATOM     31  C   UNL A   1      33.749  28.527  26.943  1.00  0.00     0.188 C 
BRANCH  31  32
ATOM     32  C   UNL A   1      34.709  29.680  27.298  1.00  0.00     0.188 C 
BRANCH  32  33
ATOM     33  O   UNL A   1      34.085  30.853  27.808  1.00  0.00    -0.376 OA
BRANCH  33  34
ATOM     34  C   UNL A   1      34.894  31.914  28.296  1.00  0.00     0.202 C 
BRANCH  34  35
ATOM     35  C   UNL A   1      36.102  31.552  29.178  1.00  0.00     0.261 C 
BRANCH  35  36
ATOM     36  O   UNL A   1      35.850  31.474  30.587  1.00  0.00    -0.460 OA
BRANCH  36  37
ATOM     37  C   UNL A   1      36.278  30.355  31.216  1.00  0.00     0.338 C 
ATOM     38  O   UNL A   1      36.370  29.245  30.749  1.00  0.00    -0.246 OA
BRANCH  37  39
ATOM     39  C   UNL A   1      36.805  30.751  32.539  1.00  0.00     0.060 A 
ATOM     40  C   UNL A   1      36.405  31.983  33.068  1.00  0.00     0.016 A 
ATOM     41  C   UNL A   1      37.710  29.940  33.227  1.00  0.00     0.016 A 
ATOM     42  C   UNL A   1      36.961  32.438  34.260  1.00  0.00     0.010 A 
ATOM     43  C   UNL A   1      38.284  30.408  34.412  1.00  0.00     0.010 A 
ATOM     44  C   UNL A   1      37.946  31.679  34.906  1.00  0.00    -0.014 A 
BRANCH  44  45
ATOM     45  C   UNL A   1      38.765  32.329  35.956  1.00  0.00     0.031 A 
ATOM     46  C   UNL A   1      39.945  33.163  35.526  1.00  0.00     0.074 A 
ATOM     47  C   UNL A   1      38.415  32.260  37.253  1.00  0.00     0.049 A 
ATOM     48  N   UNL A   1      40.779  33.855  36.255  1.00  0.00    -0.248 NA
ATOM     49  C   UNL A   1      40.215  33.229  34.078  1.00  0.00     0.031 C 
ATOM     50  C   UNL A   1      37.260  31.532  37.779  1.00  0.00     0.029 A 
ATOM     51  N   UNL A   1      38.990  32.827  38.364  1.00  0.00    -0.354 N 
ATOM     52  C   UNL A   1      41.664  34.445  35.359  1.00  0.00     0.074 A 
ATOM     53  C   UNL A   1      41.292  33.999  34.035  1.00  0.00     0.031 C 
ATOM     54  C   UNL A   1      37.207  31.704  39.112  1.00  0.00     0.029 A 
ATOM     55  C   UNL A   1      38.338  32.529  39.537  1.00  0.00     0.049 A 
ATOM     56  H   UNL A   1      39.794  33.393  38.323  1.00  0.00     0.167 HD
ATOM     57  C   UNL A   1      42.682  35.298  35.615  1.00  0.00     0.037 A 
ATOM     58  C   UNL A   1      38.627  32.879  40.806  1.00  0.00     0.037 A 
ATOM     59  C   UNL A   1      43.042  35.746  36.934  1.00  0.00     0.049 A 
ATOM     60  C   UNL A   1      39.823  33.761  41.072  1.00  0.00     0.074 A 
ATOM     61  C   UNL A   1      44.060  36.611  37.298  1.00  0.00     0.029 A 
ATOM     62  N   UNL A   1      42.399  35.369  38.104  1.00  0.00    -0.354 N 
ATOM     63  N   UNL A   1      40.647  34.314  40.214  1.00  0.00    -0.248 NA
ATOM     64  C   UNL A   1      40.124  34.070  42.477  1.00  0.00     0.031 C 
ATOM     65  C   UNL A   1      44.066  36.714  38.692  1.00  0.00     0.029 A 
ATOM     66  C   UNL A   1      43.014  35.964  39.193  1.00  0.00     0.049 A 
ATOM     67  H   UNL A   1      41.621  34.768  38.153  1.00  0.00     0.167 HD
ATOM     68  C   UNL A   1      41.547  35.056  40.973  1.00  0.00     0.074 A 
ATOM     69  C   UNL A   1      41.152  34.898  42.357  1.00  0.00     0.031 C 
ATOM     70  C   UNL A   1      42.606  35.800  40.565  1.00  0.00     0.037 A 
BRANCH  57  71
ATOM     71  C   UNL A   1      43.488  35.811  34.455  1.00  0.00     0.058 A 
ATOM     72  C   UNL A   1      44.536  35.044  33.924  1.00  0.00     0.135 A 
ATOM     73  C   UNL A   1      43.290  37.100  33.935  1.00  0.00     0.135 A 
ATOM     74  F   UNL A   1      44.760  33.800  34.375  1.00  0.00    -0.206 F 
ATOM     75  C   UNL A   1      45.385  35.550  32.944  1.00  0.00     0.059 A 
ATOM     76  C   UNL A   1      44.110  37.618  32.935  1.00  0.00     0.059 A 
ATOM     77  F   UNL A   1      42.282  37.864  34.387  1.00  0.00    -0.206 F 
ATOM     78  C   UNL A   1      45.169  36.842  32.464  1.00  0.00     0.060 A 
BRANCH  78  79
ATOM     79  S   UNL A   1      46.293  37.490  31.209  1.00  0.00     0.124 S 
ATOM     80  O   UNL A   1      47.213  36.374  31.024  1.00  0.00    -0.237 OA
ATOM     81  O   UNL A   1      45.385  37.758  30.097  1.00  0.00    -0.237 OA
ATOM     82  O   UNL A   1      46.862  38.676  31.843  1.00  0.00    -0.744 OA
ENDBRANCH  78  79
ENDBRANCH  57  71
BRANCH  58  83
ATOM     83  C   UNL A   1      37.777  32.397  41.931  1.00  0.00     0.058 A 
ATOM     84  C   UNL A   1      37.991  31.141  42.518  1.00  0.00     0.135 A 
ATOM     85  C   UNL A   1      36.744  33.192  42.452  1.00  0.00     0.135 A 
ATOM     86  F   UNL A   1      38.964  30.338  42.058  1.00  0.00    -0.206 F 
ATOM     87  C   UNL A   1      37.205  30.683  43.569  1.00  0.00     0.059 A 
ATOM     88  C   UNL A   1      35.962  32.768  43.523  1.00  0.00     0.059 A 
ATOM     89  F   UNL A   1      36.509  34.408  41.935  1.00  0.00    -0.206 F 
ATOM     90  C   UNL A   1      36.193  31.505  44.066  1.00  0.00     0.060 A 
BRANCH  90  91
ATOM     91  S   UNL A   1      35.195  30.896  45.442  1.00  0.00     0.124 S 
ATOM     92  O   UNL A   1      34.797  32.144  46.086  1.00  0.00    -0.237 OA
ATOM     93  O   UNL A   1      34.134  30.171  44.752  1.00  0.00    -0.237 OA
ATOM     94  O   UNL A   1      36.130  30.069  46.198  1.00  0.00    -0.744 OA
ENDBRANCH  90  91
ENDBRANCH  58  83
BRANCH  70  95
ATOM     95  C   UNL A   1      43.402  36.522  41.619  1.00  0.00     0.058 A 
ATOM     96  C   UNL A   1      43.069  37.835  41.990  1.00  0.00     0.135 A 
ATOM     97  C   UNL A   1      44.532  35.940  42.218  1.00  0.00     0.135 A 
ATOM     98  F   UNL A   1      42.007  38.446  41.441  1.00  0.00    -0.206 F 
ATOM     99  C   UNL A   1      43.829  38.548  42.911  1.00  0.00     0.059 A 
ATOM    100  C   UNL A   1      45.287  36.623  43.167  1.00  0.00     0.059 A 
ATOM    101  F   UNL A   1      44.891  34.686  41.902  1.00  0.00    -0.206 F 
ATOM    102  C   UNL A   1      44.935  37.931  43.498  1.00  0.00     0.060 A 
BRANCH 102 103
ATOM    103  S   UNL A   1      45.884  38.854  44.725  1.00  0.00     0.124 S 
ATOM    104  O   UNL A   1      46.525  37.782  45.478  1.00  0.00    -0.237 OA
ATOM    105  O   UNL A   1      46.770  39.658  43.887  1.00  0.00    -0.237 OA
ATOM    106  O   UNL A   1      44.863  39.607  45.447  1.00  0.00    -0.744 OA
ENDBRANCH 102 103
ENDBRANCH  70  95
ENDBRANCH  44  45
ENDBRANCH  37  39
ENDBRANCH  36  37
ENDBRANCH  35  36
ENDBRANCH  34  35
ENDBRANCH  33  34
ENDBRANCH  32  33
ENDBRANCH  31  32
ENDBRANCH  30  31
ENDBRANCH   1  30
TORSDOF 29
ENDMDL
MODEL 3
REMARK VINA RESULT:      -7.6      2.403      3.563
REMARK SMILES CC[C@@](C)([NH2+]CC(=O)N[C@@H](C)c1ccc(F)cc1)C(=O)OCCOCCOCCOCCOC(=O)c1ccc(-c2c3nc(c(-c4c(F)cc(S(=O)(=O)[O-])cc4F)c4ccc([nH]4)c(-c4c(F)cc(S(=O)(=O)[O-])cc4F)c4nc(c(-c5c(F)cc(S(=O)(=O)[O-])cc5F)c5ccc2[nH]5)C=C4)C=C3)cc1
REMARK SMILES IDX 26 1 25 2 24 3 23 4 22 5 21 6 19 7 20 8 3 9 4 10 2 11 1 12
REMARK SMILES IDX 5 13 6 16 7 17 8 18 9 19 10 21 11 22 12 23 13 24 18 25 14 26
REMARK SMILES IDX 17 27 15 28 16 29 27 30 28 31 29 32 30 33 31 34 32 35 33 36
REMARK SMILES IDX 34 37 35 38 36 39 37 40 101 41 38 42 100 43 39 44 40 45
REMARK SMILES IDX 41 46 94 47 42 48 99 49 93 50 95 51 43 52 98 53 92 54 91 55
REMARK SMILES IDX 44 57 78 58 57 59 77 60 58 61 61 62 76 63 96 64 59 65 60 66
REMARK SMILES IDX 75 68 97 69 62 70 45 71 46 72 55 73 47 74 48 75 54 76 56 77
REMARK SMILES IDX 49 78 50 79 51 80 52 81 53 82 79 83 80 84 89 85 81 86 82 87
REMARK SMILES IDX 88 88 90 89 83 90 84 91 85 92 86 93 87 94 63 95 64 96 73 97
REMARK SMILES IDX 65 98 66 99 72 100 74 101 67 102 68 103 69 104 70 105 71 106
REMARK H PARENT 5 14 5 15 9 20 95 56 61 67
REMARK Flexibility Score: inf
ROOT
ATOM      1  C   UNL A   1      32.975  29.157  24.588  1.00  0.00     0.188 C 
ENDROOT
BRANCH   1   2
ATOM      2  C   UNL A   1      31.508  29.298  24.125  1.00  0.00     0.188 C 
BRANCH   2   3
ATOM      3  O   UNL A   1      31.108  28.790  22.857  1.00  0.00    -0.376 OA
BRANCH   3   4
ATOM      4  C   UNL A   1      30.095  27.794  22.792  1.00  0.00     0.202 C 
BRANCH   4   5
ATOM      5  C   UNL A   1      30.206  26.491  23.604  1.00  0.00     0.261 C 
BRANCH   5   6
ATOM      6  O   UNL A   1      31.047  25.483  23.022  1.00  0.00    -0.459 OA
BRANCH   6   7
ATOM      7  C   UNL A   1      32.356  25.347  23.372  1.00  0.00     0.367 C 
ATOM      8  O   UNL A   1      33.253  26.040  22.906  1.00  0.00    -0.245 OA
BRANCH   7   9
ATOM      9  C   UNL A   1      32.564  24.211  24.447  1.00  0.00     0.191 C 
ATOM     10  C   UNL A   1      32.279  24.506  25.931  1.00  0.00     0.092 C 
BRANCH   9  11
ATOM     11  C   UNL A   1      31.500  23.125  24.059  1.00  0.00     0.077 C 
ATOM     12  C   UNL A   1      32.094  21.931  23.283  1.00  0.00     0.011 C 
ENDBRANCH   9  11
BRANCH   9  13
ATOM     13  N   UNL A   1      33.964  23.686  24.446  1.00  0.00    -0.325 N 
ATOM     14  H   UNL A   1      34.535  24.356  23.932  1.00  0.00     0.347 HD
ATOM     15  H   UNL A   1      33.877  22.755  24.038  1.00  0.00     0.347 HD
BRANCH  13  16
ATOM     16  C   UNL A   1      34.647  23.442  25.754  1.00  0.00     0.362 C 
BRANCH  16  17
ATOM     17  C   UNL A   1      34.913  21.975  26.155  1.00  0.00     0.275 C 
ATOM     18  O   UNL A   1      34.183  21.412  26.978  1.00  0.00    -0.268 OA
ATOM     19  N   UNL A   1      35.946  21.245  25.602  1.00  0.00    -0.345 N 
ATOM     20  H   UNL A   1      35.839  20.267  25.632  1.00  0.00     0.164 HD
BRANCH  19  21
ATOM     21  C   UNL A   1      37.173  21.726  24.980  1.00  0.00     0.109 C 
ATOM     22  C   UNL A   1      36.889  22.526  23.695  1.00  0.00     0.036 C 
BRANCH  21  23
ATOM     23  C   UNL A   1      38.216  22.368  25.883  1.00  0.00    -0.026 A 
ATOM     24  C   UNL A   1      38.171  23.748  26.171  1.00  0.00     0.009 A 
ATOM     25  C   UNL A   1      39.402  21.672  26.175  1.00  0.00     0.009 A 
ATOM     26  C   UNL A   1      39.301  24.431  26.617  1.00  0.00     0.039 A 
ATOM     27  C   UNL A   1      40.530  22.356  26.638  1.00  0.00     0.039 A 
ATOM     28  C   UNL A   1      40.477  23.732  26.822  1.00  0.00     0.123 A 
ATOM     29  F   UNL A   1      41.584  24.403  27.162  1.00  0.00    -0.207 F 
ENDBRANCH  21  23
ENDBRANCH  19  21
ENDBRANCH  16  17
ENDBRANCH  13  16
ENDBRANCH   9  13
ENDBRANCH   7   9
ENDBRANCH   6   7
ENDBRANCH   5   6
ENDBRANCH   4   5
ENDBRANCH   3   4
ENDBRANCH   2   3
ENDBRANCH   1   2
BRANCH   1  30
ATOM     30  O   UNL A   1      33.215  28.075  25.468  1.00  0.00    -0.377 OA
BRANCH  30  31
ATOM     31  C   UNL A   1      33.384  28.392  26.842  1.00  0.00     0.188 C 
BRANCH  31  32
ATOM     32  C   UNL A   1      34.464  29.423  27.228  1.00  0.00     0.188 C 
BRANCH  32  33
ATOM     33  O   UNL A   1      33.971  30.639  27.780  1.00  0.00    -0.376 OA
BRANCH  33  34
ATOM     34  C   UNL A   1      34.847  31.750  27.905  1.00  0.00     0.202 C 
BRANCH  34  35
ATOM     35  C   UNL A   1      36.325  31.469  28.231  1.00  0.00     0.261 C 
BRANCH  35  36
ATOM     36  O   UNL A   1      36.679  31.508  29.620  1.00  0.00    -0.460 OA
BRANCH  36  37
ATOM     37  C   UNL A   1      36.819  30.314  30.242  1.00  0.00     0.338 C 
ATOM     38  O   UNL A   1      35.993  29.437  30.333  1.00  0.00    -0.246 OA
BRANCH  37  39
ATOM     39  C   UNL A   1      38.236  30.172  30.639  1.00  0.00     0.060 A 
ATOM     40  C   UNL A   1      39.187  30.967  29.991  1.00  0.00     0.016 A 
ATOM     41  C   UNL A   1      38.624  29.241  31.605  1.00  0.00     0.016 A 
ATOM     42  C   UNL A   1      40.541  30.788  30.262  1.00  0.00     0.010 A 
ATOM     43  C   UNL A   1      39.984  29.046  31.859  1.00  0.00     0.010 A 
ATOM     44  C   UNL A   1      40.948  29.786  31.153  1.00  0.00    -0.014 A 
BRANCH  44  45
ATOM     45  C   UNL A   1      42.373  29.380  31.158  1.00  0.00     0.031 A 
ATOM     46  C   UNL A   1      43.298  30.037  32.150  1.00  0.00     0.074 A 
ATOM     47  C   UNL A   1      42.815  28.384  30.368  1.00  0.00     0.049 A 
ATOM     48  N   UNL A   1      44.567  29.819  32.369  1.00  0.00    -0.248 NA
ATOM     49  C   UNL A   1      42.709  31.074  33.017  1.00  0.00     0.031 C 
ATOM     50  C   UNL A   1      41.997  27.637  29.412  1.00  0.00     0.029 A 
ATOM     51  N   UNL A   1      44.061  27.820  30.258  1.00  0.00    -0.354 N 
ATOM     52  C   UNL A   1      44.926  30.681  33.399  1.00  0.00     0.074 A 
ATOM     53  C   UNL A   1      43.753  31.455  33.737  1.00  0.00     0.031 C 
ATOM     54  C   UNL A   1      42.764  26.705  28.819  1.00  0.00     0.029 A 
ATOM     55  C   UNL A   1      44.130  26.808  29.331  1.00  0.00     0.049 A 
ATOM     56  H   UNL A   1      44.833  28.113  30.794  1.00  0.00     0.167 HD
ATOM     57  C   UNL A   1      46.121  30.801  34.021  1.00  0.00     0.037 A 
ATOM     58  C   UNL A   1      45.178  26.057  28.937  1.00  0.00     0.037 A 
ATOM     59  C   UNL A   1      47.283  30.022  33.686  1.00  0.00     0.049 A 
ATOM     60  C   UNL A   1      46.523  26.274  29.588  1.00  0.00     0.074 A 
ATOM     61  C   UNL A   1      48.543  30.071  34.258  1.00  0.00     0.029 A 
ATOM     62  N   UNL A   1      47.332  29.053  32.694  1.00  0.00    -0.354 N 
ATOM     63  N   UNL A   1      46.846  27.090  30.564  1.00  0.00    -0.248 NA
ATOM     64  C   UNL A   1      47.644  25.465  29.087  1.00  0.00     0.031 C 
ATOM     65  C   UNL A   1      49.366  29.170  33.578  1.00  0.00     0.029 A 
ATOM     66  C   UNL A   1      48.605  28.515  32.622  1.00  0.00     0.049 A 
ATOM     67  H   UNL A   1      46.573  28.788  32.127  1.00  0.00     0.167 HD
ATOM     68  C   UNL A   1      48.198  26.873  30.810  1.00  0.00     0.074 A 
ATOM     69  C   UNL A   1      48.627  25.835  29.896  1.00  0.00     0.031 C 
ATOM     70  C   UNL A   1      49.015  27.478  31.709  1.00  0.00     0.037 A 
BRANCH  57  71
ATOM     71  C   UNL A   1      46.247  31.809  35.128  1.00  0.00     0.058 A 
ATOM     72  C   UNL A   1      46.735  33.098  34.864  1.00  0.00     0.135 A 
ATOM     73  C   UNL A   1      45.981  31.471  36.465  1.00  0.00     0.135 A 
ATOM     74  F   UNL A   1      46.992  33.479  33.603  1.00  0.00    -0.206 F 
ATOM     75  C   UNL A   1      46.991  34.004  35.889  1.00  0.00     0.059 A 
ATOM     76  C   UNL A   1      46.204  32.369  37.505  1.00  0.00     0.059 A 
ATOM     77  F   UNL A   1      45.484  30.260  36.769  1.00  0.00    -0.206 F 
ATOM     78  C   UNL A   1      46.731  33.626  37.207  1.00  0.00     0.060 A 
BRANCH  78  79
ATOM     79  S   UNL A   1      47.091  34.806  38.524  1.00  0.00     0.124 S 
ATOM     80  O   UNL A   1      46.657  34.075  39.709  1.00  0.00    -0.237 OA
ATOM     81  O   UNL A   1      48.533  34.989  38.383  1.00  0.00    -0.237 OA
ATOM     82  O   UNL A   1      46.282  35.968  38.170  1.00  0.00    -0.744 OA
ENDBRANCH  78  79
ENDBRANCH  57  71
BRANCH  58  83
ATOM     83  C   UNL A   1      45.009  25.028  27.873  1.00  0.00     0.058 A 
ATOM     84  C   UNL A   1      44.667  23.704  28.190  1.00  0.00     0.135 A 
ATOM     85  C   UNL A   1      45.169  25.353  26.517  1.00  0.00     0.135 A 
ATOM     86  F   UNL A   1      44.505  23.338  29.471  1.00  0.00    -0.206 F 
ATOM     87  C   UNL A   1      44.506  22.737  27.205  1.00  0.00     0.059 A 
ATOM     88  C   UNL A   1      44.983  24.409  25.511  1.00  0.00     0.059 A 
ATOM     89  F   UNL A   1      45.480  26.609  26.161  1.00  0.00    -0.206 F 
ATOM     90  C   UNL A   1      44.664  23.099  25.867  1.00  0.00     0.060 A 
BRANCH  90  91
ATOM     91  S   UNL A   1      44.432  21.830  24.604  1.00  0.00     0.124 S 
ATOM     92  O   UNL A   1      43.760  22.587  23.552  1.00  0.00    -0.237 OA
ATOM     93  O   UNL A   1      45.806  21.429  24.319  1.00  0.00    -0.237 OA
ATOM     94  O   UNL A   1      43.614  20.828  25.278  1.00  0.00    -0.744 OA
ENDBRANCH  90  91
ENDBRANCH  58  83
BRANCH  70  95
ATOM     95  C   UNL A   1      50.448  27.023  31.771  1.00  0.00     0.058 A 
ATOM     96  C   UNL A   1      51.422  27.614  30.949  1.00  0.00     0.135 A 
ATOM     97  C   UNL A   1      50.849  25.961  32.600  1.00  0.00     0.135 A 
ATOM     98  F   UNL A   1      51.093  28.624  30.128  1.00  0.00    -0.206 F 
ATOM     99  C   UNL A   1      52.738  27.166  30.939  1.00  0.00     0.059 A 
ATOM    100  C   UNL A   1      52.169  25.519  32.631  1.00  0.00     0.059 A 
ATOM    101  F   UNL A   1      49.960  25.365  33.409  1.00  0.00    -0.206 F 
ATOM    102  C   UNL A   1      53.104  26.119  31.788  1.00  0.00     0.060 A 
BRANCH 102 103
ATOM    103  S   UNL A   1      54.826  25.580  31.795  1.00  0.00     0.124 S 
ATOM    104  O   UNL A   1      54.750  24.343  32.566  1.00  0.00    -0.237 OA
ATOM    105  O   UNL A   1      55.105  25.423  30.371  1.00  0.00    -0.237 OA
ATOM    106  O   UNL A   1      55.525  26.684  32.446  1.00  0.00    -0.744 OA
ENDBRANCH 102 103
ENDBRANCH  70  95
ENDBRANCH  44  45
ENDBRANCH  37  39
ENDBRANCH  36  37
ENDBRANCH  35  36
ENDBRANCH  34  35
ENDBRANCH  33  34
ENDBRANCH  32  33
ENDBRANCH  31  32
ENDBRANCH  30  31
ENDBRANCH   1  30
TORSDOF 29
ENDMDL
