MODEL 1
REMARK VINA RESULT:      -8.4      0.000      0.000
REMARK SMILES NS(=O)(=O)c1ccc(-c2coc(=O)n2-c2ccc(C(=O)OCCOCCOCCOCCOC(=O)c3ccc(-c4c5nc(c(-c6c(F)cc(S(=O)(=O)[O-])cc6F)c6ccc([nH]6)c(-c6c(F)cc(S(=O)(=O)[O-])cc6F)c6nc(c(-c7c(F)cc(S(=O)(=O)[O-])cc7F)c7ccc4[nH]7)C=C6)C=C5)cc3)cc2)cc1
REMARK SMILES IDX 26 1 25 2 24 3 23 4 22 5 21 6 19 7 20 8 18 9 15 10 16 11
REMARK SMILES IDX 103 12 17 13 102 14 14 15 9 16 10 17 11 18 12 19 13 20 8 21
REMARK SMILES IDX 5 22 6 23 105 24 7 25 104 26 2 27 3 28 4 29 1 30 27 33 28 34
REMARK SMILES IDX 29 35 30 36 31 37 32 38 33 39 34 40 35 41 36 42 37 43 101 44
REMARK SMILES IDX 38 45 100 46 39 47 40 48 41 49 94 50 42 51 99 52 93 53 95 54
REMARK SMILES IDX 43 55 98 56 92 57 91 58 44 60 78 61 57 62 77 63 58 64 61 65
REMARK SMILES IDX 76 66 96 67 59 68 60 69 75 71 97 72 62 73 45 74 46 75 55 76
REMARK SMILES IDX 47 77 48 78 54 79 56 80 49 81 50 82 51 83 52 84 53 85 79 86
REMARK SMILES IDX 80 87 89 88 81 89 82 90 88 91 90 92 83 93 84 94 85 95 86 96
REMARK SMILES IDX 87 97 63 98 64 99 73 100 65 101 66 102 72 103 74 104 67 105
REMARK SMILES IDX 68 106 69 107 70 108 71 109
REMARK H PARENT 1 31 1 32 95 59 61 70
REMARK Flexibility Score: inf
ROOT
ATOM      1  C   UNL A   1      49.021  22.187  36.263  1.00  0.00     0.188 C 
ENDROOT
BRANCH   1   2
ATOM      2  C   UNL A   1      48.228  22.495  37.555  1.00  0.00     0.188 C 
BRANCH   2   3
ATOM      3  O   UNL A   1      47.572  21.497  38.333  1.00  0.00    -0.376 OA
BRANCH   3   4
ATOM      4  C   UNL A   1      48.287  20.424  38.918  1.00  0.00     0.202 C 
BRANCH   4   5
ATOM      5  C   UNL A   1      47.692  19.011  38.861  1.00  0.00     0.261 C 
BRANCH   5   6
ATOM      6  O   UNL A   1      47.278  18.477  40.119  1.00  0.00    -0.460 OA
BRANCH   6   7
ATOM      7  C   UNL A   1      46.019  17.982  40.150  1.00  0.00     0.338 C 
ATOM      8  O   UNL A   1      45.296  17.725  39.204  1.00  0.00    -0.246 OA
BRANCH   7   9
ATOM      9  C   UNL A   1      45.680  17.655  41.550  1.00  0.00     0.060 A 
ATOM     10  C   UNL A   1      44.969  17.208  44.202  1.00  0.00     0.053 A 
ATOM     11  C   UNL A   1      43.967  17.387  43.248  1.00  0.00     0.028 A 
ATOM     12  C   UNL A   1      46.315  17.131  43.805  1.00  0.00     0.028 A 
ATOM     13  C   UNL A   1      44.328  17.659  41.929  1.00  0.00     0.018 A 
ATOM     14  C   UNL A   1      46.673  17.334  42.475  1.00  0.00     0.018 A 
BRANCH  10  15
ATOM     15  N   UNL A   1      44.661  17.372  45.565  1.00  0.00    -0.242 N 
ATOM     16  C   UNL A   1      44.280  16.381  46.429  1.00  0.00     0.095 A 
ATOM     17  C   UNL A   1      44.152  16.960  47.616  1.00  0.00     0.228 A 
ATOM     18  O   UNL A   1      44.451  18.324  47.621  1.00  0.00    -0.415 OA
ATOM     19  C   UNL A   1      44.828  18.542  46.294  1.00  0.00     0.424 A 
ATOM     20  O   UNL A   1      45.236  19.625  45.892  1.00  0.00    -0.223 OA
BRANCH  16  21
ATOM     21  C   UNL A   1      44.271  14.952  46.106  1.00  0.00     0.002 A 
ATOM     22  C   UNL A   1      44.393  12.260  45.341  1.00  0.00     0.082 A 
ATOM     23  C   UNL A   1      45.517  12.863  45.904  1.00  0.00     0.022 A 
ATOM     24  C   UNL A   1      43.206  12.981  45.174  1.00  0.00     0.022 A 
ATOM     25  C   UNL A   1      45.447  14.199  46.294  1.00  0.00     0.012 A 
ATOM     26  C   UNL A   1      43.146  14.327  45.560  1.00  0.00     0.012 A 
BRANCH  22  27
ATOM     27  S   UNL A   1      44.490  10.570  44.831  1.00  0.00     0.238 S 
ATOM     28  O   UNL A   1      43.564  10.349  43.743  1.00  0.00    -0.207 OA
ATOM     29  O   UNL A   1      44.524   9.739  46.008  1.00  0.00    -0.207 OA
BRANCH  27  30
ATOM     30  N   UNL A   1      46.018  10.471  44.137  1.00  0.00    -0.225 NA
ATOM     31  H   UNL A   1      46.413  11.407  44.049  1.00  0.00     0.137 HD
ATOM     32  H   UNL A   1      45.945  10.044  43.214  1.00  0.00     0.137 HD
ENDBRANCH  27  30
ENDBRANCH  22  27
ENDBRANCH  16  21
ENDBRANCH  10  15
ENDBRANCH   7   9
ENDBRANCH   6   7
ENDBRANCH   5   6
ENDBRANCH   4   5
ENDBRANCH   3   4
ENDBRANCH   2   3
ENDBRANCH   1   2
BRANCH   1  33
ATOM     33  O   UNL A   1      48.928  20.848  35.799  1.00  0.00    -0.377 OA
BRANCH  33  34
ATOM     34  C   UNL A   1      48.677  20.721  34.401  1.00  0.00     0.188 C 
BRANCH  34  35
ATOM     35  C   UNL A   1      49.787  20.030  33.579  1.00  0.00     0.188 C 
BRANCH  35  36
ATOM     36  O   UNL A   1      50.995  19.829  34.313  1.00  0.00    -0.376 OA
BRANCH  36  37
ATOM     37  C   UNL A   1      52.154  20.547  33.919  1.00  0.00     0.202 C 
BRANCH  37  38
ATOM     38  C   UNL A   1      51.983  21.275  32.590  1.00  0.00     0.261 C 
BRANCH  38  39
ATOM     39  O   UNL A   1      51.369  22.548  32.721  1.00  0.00    -0.460 OA
BRANCH  39  40
ATOM     40  C   UNL A   1      52.162  23.614  32.498  1.00  0.00     0.338 C 
ATOM     41  O   UNL A   1      53.360  23.702  32.697  1.00  0.00    -0.246 OA
BRANCH  40  42
ATOM     42  C   UNL A   1      51.326  24.723  32.036  1.00  0.00     0.060 A 
ATOM     43  C   UNL A   1      49.948  24.566  32.201  1.00  0.00     0.016 A 
ATOM     44  C   UNL A   1      51.883  25.696  31.193  1.00  0.00     0.016 A 
ATOM     45  C   UNL A   1      49.120  25.202  31.310  1.00  0.00     0.010 A 
ATOM     46  C   UNL A   1      51.058  26.315  30.293  1.00  0.00     0.010 A 
ATOM     47  C   UNL A   1      49.708  25.971  30.304  1.00  0.00    -0.014 A 
BRANCH  47  48
ATOM     48  C   UNL A   1      48.881  26.338  29.179  1.00  0.00     0.031 A 
ATOM     49  C   UNL A   1      47.730  27.190  29.522  1.00  0.00     0.074 A 
ATOM     50  C   UNL A   1      49.260  26.012  27.930  1.00  0.00     0.049 A 
ATOM     51  N   UNL A   1      46.474  26.939  29.370  1.00  0.00    -0.248 NA
ATOM     52  C   UNL A   1      48.017  28.433  30.258  1.00  0.00     0.031 C 
ATOM     53  C   UNL A   1      50.551  25.450  27.509  1.00  0.00     0.029 A 
ATOM     54  N   UNL A   1      48.624  26.243  26.752  1.00  0.00    -0.354 N 
ATOM     55  C   UNL A   1      45.823  28.097  29.777  1.00  0.00     0.074 A 
ATOM     56  C   UNL A   1      46.789  28.884  30.497  1.00  0.00     0.031 C 
ATOM     57  C   UNL A   1      50.682  25.604  26.174  1.00  0.00     0.029 A 
ATOM     58  C   UNL A   1      49.454  26.171  25.642  1.00  0.00     0.049 A 
ATOM     59  H   UNL A   1      47.663  26.443  26.692  1.00  0.00     0.167 HD
ATOM     60  C   UNL A   1      44.627  28.458  29.245  1.00  0.00     0.037 A 
ATOM     61  C   UNL A   1      49.180  26.652  24.406  1.00  0.00     0.037 A 
ATOM     62  C   UNL A   1      43.954  27.335  28.642  1.00  0.00     0.049 A 
ATOM     63  C   UNL A   1      47.708  26.848  24.319  1.00  0.00     0.074 A 
ATOM     64  C   UNL A   1      43.530  26.103  29.101  1.00  0.00     0.029 A 
ATOM     65  N   UNL A   1      43.935  27.256  27.271  1.00  0.00    -0.354 N 
ATOM     66  N   UNL A   1      46.832  25.879  24.326  1.00  0.00    -0.248 NA
ATOM     67  C   UNL A   1      47.171  28.164  24.638  1.00  0.00     0.031 C 
ATOM     68  C   UNL A   1      43.693  25.213  28.001  1.00  0.00     0.029 A 
ATOM     69  C   UNL A   1      44.182  25.953  26.923  1.00  0.00     0.049 A 
ATOM     70  H   UNL A   1      43.772  28.001  26.649  1.00  0.00     0.167 HD
ATOM     71  C   UNL A   1      45.746  26.378  25.035  1.00  0.00     0.074 A 
ATOM     72  C   UNL A   1      45.965  27.818  25.096  1.00  0.00     0.031 C 
ATOM     73  C   UNL A   1      44.925  25.550  25.745  1.00  0.00     0.037 A 
BRANCH  60  74
ATOM     74  C   UNL A   1      44.268  29.892  28.937  1.00  0.00     0.058 A 
ATOM     75  C   UNL A   1      45.098  30.635  28.077  1.00  0.00     0.135 A 
ATOM     76  C   UNL A   1      43.318  30.642  29.670  1.00  0.00     0.135 A 
ATOM     77  F   UNL A   1      46.037  30.024  27.338  1.00  0.00    -0.206 F 
ATOM     78  C   UNL A   1      45.049  32.028  28.019  1.00  0.00     0.059 A 
ATOM     79  C   UNL A   1      43.210  32.022  29.579  1.00  0.00     0.059 A 
ATOM     80  F   UNL A   1      42.520  30.093  30.594  1.00  0.00    -0.206 F 
ATOM     81  C   UNL A   1      44.117  32.711  28.794  1.00  0.00     0.060 A 
BRANCH  81  82
ATOM     82  S   UNL A   1      44.152  34.508  28.854  1.00  0.00     0.124 S 
ATOM     83  O   UNL A   1      45.038  34.811  27.736  1.00  0.00    -0.237 OA
ATOM     84  O   UNL A   1      42.746  34.848  28.670  1.00  0.00    -0.237 OA
ATOM     85  O   UNL A   1      44.691  34.788  30.183  1.00  0.00    -0.744 OA
ENDBRANCH  81  82
ENDBRANCH  60  74
BRANCH  61  86
ATOM     86  C   UNL A   1      50.140  27.255  23.443  1.00  0.00     0.058 A 
ATOM     87  C   UNL A   1      49.982  27.087  22.057  1.00  0.00     0.135 A 
ATOM     88  C   UNL A   1      51.096  28.211  23.846  1.00  0.00     0.135 A 
ATOM     89  F   UNL A   1      49.070  26.225  21.582  1.00  0.00    -0.206 F 
ATOM     90  C   UNL A   1      50.707  27.842  21.128  1.00  0.00     0.059 A 
ATOM     91  C   UNL A   1      51.845  28.957  22.940  1.00  0.00     0.059 A 
ATOM     92  F   UNL A   1      51.271  28.519  25.140  1.00  0.00    -0.206 F 
ATOM     93  C   UNL A   1      51.630  28.785  21.580  1.00  0.00     0.060 A 
BRANCH  93  94
ATOM     94  S   UNL A   1      52.459  29.865  20.393  1.00  0.00     0.124 S 
ATOM     95  O   UNL A   1      53.197  30.766  21.271  1.00  0.00    -0.237 OA
ATOM     96  O   UNL A   1      53.263  28.918  19.627  1.00  0.00    -0.237 OA
ATOM     97  O   UNL A   1      51.353  30.475  19.660  1.00  0.00    -0.744 OA
ENDBRANCH  93  94
ENDBRANCH  61  86
BRANCH  73  98
ATOM     98  C   UNL A   1      44.990  24.072  25.462  1.00  0.00     0.058 A 
ATOM     99  C   UNL A   1      46.002  23.222  25.943  1.00  0.00     0.135 A 
ATOM    100  C   UNL A   1      43.903  23.469  24.811  1.00  0.00     0.135 A 
ATOM    101  F   UNL A   1      47.019  23.707  26.670  1.00  0.00    -0.206 F 
ATOM    102  C   UNL A   1      45.955  21.841  25.750  1.00  0.00     0.059 A 
ATOM    103  C   UNL A   1      43.819  22.089  24.635  1.00  0.00     0.059 A 
ATOM    104  F   UNL A   1      42.873  24.219  24.386  1.00  0.00    -0.206 F 
ATOM    105  C   UNL A   1      44.857  21.282  25.098  1.00  0.00     0.060 A 
BRANCH 105 106
ATOM    106  S   UNL A   1      44.751  19.486  24.941  1.00  0.00     0.124 S 
ATOM    107  O   UNL A   1      43.599  19.172  25.780  1.00  0.00    -0.237 OA
ATOM    108  O   UNL A   1      44.558  19.301  23.505  1.00  0.00    -0.237 OA
ATOM    109  O   UNL A   1      46.040  19.022  25.450  1.00  0.00    -0.744 OA
ENDBRANCH 105 106
ENDBRANCH  73  98
ENDBRANCH  47  48
ENDBRANCH  40  42
ENDBRANCH  39  40
ENDBRANCH  38  39
ENDBRANCH  37  38
ENDBRANCH  36  37
ENDBRANCH  35  36
ENDBRANCH  34  35
ENDBRANCH  33  34
ENDBRANCH   1  33
TORSDOF 27
ENDMDL
MODEL 2
REMARK VINA RESULT:      -8.4      8.565     15.776
REMARK SMILES NS(=O)(=O)c1ccc(-c2coc(=O)n2-c2ccc(C(=O)OCCOCCOCCOCCOC(=O)c3ccc(-c4c5nc(c(-c6c(F)cc(S(=O)(=O)[O-])cc6F)c6ccc([nH]6)c(-c6c(F)cc(S(=O)(=O)[O-])cc6F)c6nc(c(-c7c(F)cc(S(=O)(=O)[O-])cc7F)c7ccc4[nH]7)C=C6)C=C5)cc3)cc2)cc1
REMARK SMILES IDX 26 1 25 2 24 3 23 4 22 5 21 6 19 7 20 8 18 9 15 10 16 11
REMARK SMILES IDX 103 12 17 13 102 14 14 15 9 16 10 17 11 18 12 19 13 20 8 21
REMARK SMILES IDX 5 22 6 23 105 24 7 25 104 26 2 27 3 28 4 29 1 30 27 33 28 34
REMARK SMILES IDX 29 35 30 36 31 37 32 38 33 39 34 40 35 41 36 42 37 43 101 44
REMARK SMILES IDX 38 45 100 46 39 47 40 48 41 49 94 50 42 51 99 52 93 53 95 54
REMARK SMILES IDX 43 55 98 56 92 57 91 58 44 60 78 61 57 62 77 63 58 64 61 65
REMARK SMILES IDX 76 66 96 67 59 68 60 69 75 71 97 72 62 73 45 74 46 75 55 76
REMARK SMILES IDX 47 77 48 78 54 79 56 80 49 81 50 82 51 83 52 84 53 85 79 86
REMARK SMILES IDX 80 87 89 88 81 89 82 90 88 91 90 92 83 93 84 94 85 95 86 96
REMARK SMILES IDX 87 97 63 98 64 99 73 100 65 101 66 102 72 103 74 104 67 105
REMARK SMILES IDX 68 106 69 107 70 108 71 109
REMARK H PARENT 1 31 1 32 95 59 61 70
REMARK Flexibility Score: inf
ROOT
ATOM      1  C   UNL A   1      38.285  27.967  32.169  1.00  0.00     0.188 C 
ENDROOT
BRANCH   1   2
ATOM      2  C   UNL A   1      39.339  28.449  31.145  1.00  0.00     0.188 C 
BRANCH   2   3
ATOM      3  O   UNL A   1      39.575  27.804  29.896  1.00  0.00    -0.376 OA
BRANCH   3   4
ATOM      4  C   UNL A   1      40.773  27.092  29.644  1.00  0.00     0.202 C 
BRANCH   4   5
ATOM      5  C   UNL A   1      41.032  26.540  28.236  1.00  0.00     0.261 C 
BRANCH   5   6
ATOM      6  O   UNL A   1      41.516  25.198  28.191  1.00  0.00    -0.460 OA
BRANCH   6   7
ATOM      7  C   UNL A   1      40.589  24.260  27.888  1.00  0.00     0.338 C 
ATOM      8  O   UNL A   1      39.382  24.328  28.038  1.00  0.00    -0.246 OA
BRANCH   7   9
ATOM      9  C   UNL A   1      41.264  23.144  27.194  1.00  0.00     0.060 A 
ATOM     10  C   UNL A   1      42.665  21.049  26.016  1.00  0.00     0.053 A 
ATOM     11  C   UNL A   1      42.101  20.867  27.279  1.00  0.00     0.028 A 
ATOM     12  C   UNL A   1      42.421  22.232  25.298  1.00  0.00     0.028 A 
ATOM     13  C   UNL A   1      41.441  21.935  27.886  1.00  0.00     0.018 A 
ATOM     14  C   UNL A   1      41.703  23.275  25.877  1.00  0.00     0.018 A 
BRANCH  10  15
ATOM     15  N   UNL A   1      43.680  20.176  25.582  1.00  0.00    -0.242 N 
ATOM     16  C   UNL A   1      44.948  20.536  25.214  1.00  0.00     0.095 A 
ATOM     17  C   UNL A   1      45.584  19.404  24.939  1.00  0.00     0.228 A 
ATOM     18  O   UNL A   1      44.810  18.256  25.120  1.00  0.00    -0.415 OA
ATOM     19  C   UNL A   1      43.606  18.789  25.587  1.00  0.00     0.424 A 
ATOM     20  O   UNL A   1      42.664  18.090  25.934  1.00  0.00    -0.223 OA
BRANCH  16  21
ATOM     21  C   UNL A   1      45.505  21.884  25.354  1.00  0.00     0.002 A 
ATOM     22  C   UNL A   1      46.383  24.524  25.680  1.00  0.00     0.082 A 
ATOM     23  C   UNL A   1      45.977  23.796  26.797  1.00  0.00     0.022 A 
ATOM     24  C   UNL A   1      46.373  23.943  24.407  1.00  0.00     0.022 A 
ATOM     25  C   UNL A   1      45.553  22.479  26.630  1.00  0.00     0.012 A 
ATOM     26  C   UNL A   1      45.937  22.621  24.247  1.00  0.00     0.012 A 
BRANCH  22  27
ATOM     27  S   UNL A   1      46.904  26.200  25.892  1.00  0.00     0.238 S 
ATOM     28  O   UNL A   1      48.175  26.219  26.579  1.00  0.00    -0.207 OA
ATOM     29  O   UNL A   1      45.770  26.979  26.326  1.00  0.00    -0.207 OA
BRANCH  27  30
ATOM     30  N   UNL A   1      47.243  26.693  24.322  1.00  0.00    -0.225 NA
ATOM     31  H   UNL A   1      46.574  26.267  23.679  1.00  0.00     0.137 HD
ATOM     32  H   UNL A   1      48.188  26.403  24.071  1.00  0.00     0.137 HD
ENDBRANCH  27  30
ENDBRANCH  22  27
ENDBRANCH  16  21
ENDBRANCH  10  15
ENDBRANCH   7   9
ENDBRANCH   6   7
ENDBRANCH   5   6
ENDBRANCH   4   5
ENDBRANCH   3   4
ENDBRANCH   2   3
ENDBRANCH   1   2
BRANCH   1  33
ATOM     33  O   UNL A   1      37.144  28.802  32.303  1.00  0.00    -0.377 OA
BRANCH  33  34
ATOM     34  C   UNL A   1      37.440  30.179  32.529  1.00  0.00     0.188 C 
BRANCH  34  35
ATOM     35  C   UNL A   1      36.242  31.149  32.435  1.00  0.00     0.188 C 
BRANCH  35  36
ATOM     36  O   UNL A   1      35.651  31.197  31.136  1.00  0.00    -0.376 OA
BRANCH  36  37
ATOM     37  C   UNL A   1      34.870  32.330  30.789  1.00  0.00     0.202 C 
BRANCH  37  38
ATOM     38  C   UNL A   1      35.640  33.642  30.895  1.00  0.00     0.261 C 
BRANCH  38  39
ATOM     39  O   UNL A   1      35.835  34.283  29.644  1.00  0.00    -0.460 OA
BRANCH  39  40
ATOM     40  C   UNL A   1      36.364  33.524  28.665  1.00  0.00     0.338 C 
ATOM     41  O   UNL A   1      35.779  32.999  27.735  1.00  0.00    -0.246 OA
BRANCH  40  42
ATOM     42  C   UNL A   1      37.792  33.349  28.936  1.00  0.00     0.060 A 
ATOM     43  C   UNL A   1      38.221  32.038  29.155  1.00  0.00     0.016 A 
ATOM     44  C   UNL A   1      38.567  34.468  29.276  1.00  0.00     0.016 A 
ATOM     45  C   UNL A   1      39.310  31.849  29.968  1.00  0.00     0.010 A 
ATOM     46  C   UNL A   1      39.642  34.278  30.101  1.00  0.00     0.010 A 
ATOM     47  C   UNL A   1      39.924  32.978  30.515  1.00  0.00    -0.014 A 
BRANCH  47  48
ATOM     48  C   UNL A   1      40.820  32.775  31.628  1.00  0.00     0.031 A 
ATOM     49  C   UNL A   1      40.448  33.506  32.851  1.00  0.00     0.074 A 
ATOM     50  C   UNL A   1      41.817  31.875  31.536  1.00  0.00     0.049 A 
ATOM     51  N   UNL A   1      41.118  34.411  33.479  1.00  0.00    -0.248 NA
ATOM     52  C   UNL A   1      39.083  33.294  33.364  1.00  0.00     0.031 C 
ATOM     53  C   UNL A   1      42.033  30.894  30.464  1.00  0.00     0.029 A 
ATOM     54  N   UNL A   1      42.769  31.552  32.448  1.00  0.00    -0.354 N 
ATOM     55  C   UNL A   1      40.356  34.711  34.602  1.00  0.00     0.074 A 
ATOM     56  C   UNL A   1      39.046  34.163  34.371  1.00  0.00     0.031 C 
ATOM     57  C   UNL A   1      42.896  29.951  30.900  1.00  0.00     0.029 A 
ATOM     58  C   UNL A   1      43.365  30.319  32.224  1.00  0.00     0.049 A 
ATOM     59  H   UNL A   1      43.012  32.138  33.200  1.00  0.00     0.167 HD
ATOM     60  C   UNL A   1      40.935  35.129  35.756  1.00  0.00     0.037 A 
ATOM     61  C   UNL A   1      44.098  29.611  33.118  1.00  0.00     0.037 A 
ATOM     62  C   UNL A   1      42.257  35.656  35.526  1.00  0.00     0.049 A 
ATOM     63  C   UNL A   1      44.532  30.552  34.186  1.00  0.00     0.074 A 
ATOM     64  C   UNL A   1      42.769  36.672  34.743  1.00  0.00     0.029 A 
ATOM     65  N   UNL A   1      43.332  34.883  35.894  1.00  0.00    -0.354 N 
ATOM     66  N   UNL A   1      45.376  31.532  34.008  1.00  0.00    -0.248 NA
ATOM     67  C   UNL A   1      43.706  30.661  35.380  1.00  0.00     0.031 C 
ATOM     68  C   UNL A   1      44.052  36.218  34.324  1.00  0.00     0.029 A 
ATOM     69  C   UNL A   1      44.266  34.961  34.893  1.00  0.00     0.049 A 
ATOM     70  H   UNL A   1      43.416  34.366  36.727  1.00  0.00     0.167 HD
ATOM     71  C   UNL A   1      44.914  32.560  34.821  1.00  0.00     0.074 A 
ATOM     72  C   UNL A   1      43.961  31.926  35.725  1.00  0.00     0.031 C 
ATOM     73  C   UNL A   1      45.134  33.869  34.501  1.00  0.00     0.037 A 
BRANCH  60  74
ATOM     74  C   UNL A   1      40.451  34.695  37.118  1.00  0.00     0.058 A 
ATOM     75  C   UNL A   1      40.480  33.328  37.451  1.00  0.00     0.135 A 
ATOM     76  C   UNL A   1      39.699  35.521  37.988  1.00  0.00     0.135 A 
ATOM     77  F   UNL A   1      41.160  32.455  36.692  1.00  0.00    -0.206 F 
ATOM     78  C   UNL A   1      39.743  32.807  38.515  1.00  0.00     0.059 A 
ATOM     79  C   UNL A   1      39.011  35.032  39.089  1.00  0.00     0.059 A 
ATOM     80  F   UNL A   1      39.501  36.825  37.757  1.00  0.00    -0.206 F 
ATOM     81  C   UNL A   1      38.993  33.667  39.311  1.00  0.00     0.060 A 
BRANCH  81  82
ATOM     82  S   UNL A   1      37.911  32.992  40.580  1.00  0.00     0.124 S 
ATOM     83  O   UNL A   1      38.228  33.855  41.711  1.00  0.00    -0.237 OA
ATOM     84  O   UNL A   1      36.592  33.170  39.985  1.00  0.00    -0.237 OA
ATOM     85  O   UNL A   1      38.358  31.606  40.696  1.00  0.00    -0.744 OA
ENDBRANCH  81  82
ENDBRANCH  60  74
BRANCH  61  86
ATOM     86  C   UNL A   1      44.151  28.132  33.265  1.00  0.00     0.058 A 
ATOM     87  C   UNL A   1      45.336  27.419  33.018  1.00  0.00     0.135 A 
ATOM     88  C   UNL A   1      43.111  27.409  33.885  1.00  0.00     0.135 A 
ATOM     89  F   UNL A   1      46.390  28.035  32.463  1.00  0.00    -0.206 F 
ATOM     90  C   UNL A   1      45.489  26.078  33.388  1.00  0.00     0.059 A 
ATOM     91  C   UNL A   1      43.232  26.069  34.243  1.00  0.00     0.059 A 
ATOM     92  F   UNL A   1      41.966  28.007  34.249  1.00  0.00    -0.206 F 
ATOM     93  C   UNL A   1      44.434  25.414  34.013  1.00  0.00     0.060 A 
BRANCH  93  94
ATOM     94  S   UNL A   1      44.674  23.732  34.627  1.00  0.00     0.124 S 
ATOM     95  O   UNL A   1      45.105  23.030  33.424  1.00  0.00    -0.237 OA
ATOM     96  O   UNL A   1      45.693  23.924  35.655  1.00  0.00    -0.237 OA
ATOM     97  O   UNL A   1      43.353  23.361  35.127  1.00  0.00    -0.744 OA
ENDBRANCH  93  94
ENDBRANCH  61  86
BRANCH  73  98
ATOM     98  C   UNL A   1      46.182  34.179  33.464  1.00  0.00     0.058 A 
ATOM     99  C   UNL A   1      45.930  34.230  32.082  1.00  0.00     0.135 A 
ATOM    100  C   UNL A   1      47.450  34.594  33.900  1.00  0.00     0.135 A 
ATOM    101  F   UNL A   1      44.712  33.955  31.594  1.00  0.00    -0.206 F 
ATOM    102  C   UNL A   1      46.907  34.635  31.171  1.00  0.00     0.059 A 
ATOM    103  C   UNL A   1      48.429  35.033  33.012  1.00  0.00     0.059 A 
ATOM    104  F   UNL A   1      47.731  34.632  35.212  1.00  0.00    -0.206 F 
ATOM    105  C   UNL A   1      48.153  35.039  31.646  1.00  0.00     0.060 A 
BRANCH 105 106
ATOM    106  S   UNL A   1      49.380  35.660  30.473  1.00  0.00     0.124 S 
ATOM    107  O   UNL A   1      48.818  35.243  29.192  1.00  0.00    -0.237 OA
ATOM    108  O   UNL A   1      49.371  37.096  30.733  1.00  0.00    -0.237 OA
ATOM    109  O   UNL A   1      50.608  34.973  30.869  1.00  0.00    -0.744 OA
ENDBRANCH 105 106
ENDBRANCH  73  98
ENDBRANCH  47  48
ENDBRANCH  40  42
ENDBRANCH  39  40
ENDBRANCH  38  39
ENDBRANCH  37  38
ENDBRANCH  36  37
ENDBRANCH  35  36
ENDBRANCH  34  35
ENDBRANCH  33  34
ENDBRANCH   1  33
TORSDOF 27
ENDMDL
MODEL 3
REMARK VINA RESULT:      -8.3      4.403     10.262
REMARK SMILES NS(=O)(=O)c1ccc(-c2coc(=O)n2-c2ccc(C(=O)OCCOCCOCCOCCOC(=O)c3ccc(-c4c5nc(c(-c6c(F)cc(S(=O)(=O)[O-])cc6F)c6ccc([nH]6)c(-c6c(F)cc(S(=O)(=O)[O-])cc6F)c6nc(c(-c7c(F)cc(S(=O)(=O)[O-])cc7F)c7ccc4[nH]7)C=C6)C=C5)cc3)cc2)cc1
REMARK SMILES IDX 26 1 25 2 24 3 23 4 22 5 21 6 19 7 20 8 18 9 15 10 16 11
REMARK SMILES IDX 103 12 17 13 102 14 14 15 9 16 10 17 11 18 12 19 13 20 8 21
REMARK SMILES IDX 5 22 6 23 105 24 7 25 104 26 2 27 3 28 4 29 1 30 27 33 28 34
REMARK SMILES IDX 29 35 30 36 31 37 32 38 33 39 34 40 35 41 36 42 37 43 101 44
REMARK SMILES IDX 38 45 100 46 39 47 40 48 41 49 94 50 42 51 99 52 93 53 95 54
REMARK SMILES IDX 43 55 98 56 92 57 91 58 44 60 78 61 57 62 77 63 58 64 61 65
REMARK SMILES IDX 76 66 96 67 59 68 60 69 75 71 97 72 62 73 45 74 46 75 55 76
REMARK SMILES IDX 47 77 48 78 54 79 56 80 49 81 50 82 51 83 52 84 53 85 79 86
REMARK SMILES IDX 80 87 89 88 81 89 82 90 88 91 90 92 83 93 84 94 85 95 86 96
REMARK SMILES IDX 87 97 63 98 64 99 73 100 65 101 66 102 72 103 74 104 67 105
REMARK SMILES IDX 68 106 69 107 70 108 71 109
REMARK H PARENT 1 31 1 32 95 59 61 70
REMARK Flexibility Score: inf
ROOT
ATOM      1  C   UNL A   1      43.058  26.638  37.716  1.00  0.00     0.188 C 
ENDROOT
BRANCH   1   2
ATOM      2  C   UNL A   1      42.523  27.610  36.639  1.00  0.00     0.188 C 
BRANCH   2   3
ATOM      3  O   UNL A   1      41.548  27.247  35.665  1.00  0.00    -0.376 OA
BRANCH   3   4
ATOM      4  C   UNL A   1      41.885  26.463  34.535  1.00  0.00     0.202 C 
BRANCH   4   5
ATOM      5  C   UNL A   1      43.353  26.086  34.299  1.00  0.00     0.261 C 
BRANCH   5   6
ATOM      6  O   UNL A   1      43.583  24.713  33.979  1.00  0.00    -0.460 OA
BRANCH   6   7
ATOM      7  C   UNL A   1      43.111  23.823  34.881  1.00  0.00     0.338 C 
ATOM      8  O   UNL A   1      41.950  23.599  35.171  1.00  0.00    -0.246 OA
BRANCH   7   9
ATOM      9  C   UNL A   1      44.248  23.028  35.390  1.00  0.00     0.060 A 
ATOM     10  C   UNL A   1      46.500  21.666  36.292  1.00  0.00     0.053 A 
ATOM     11  C   UNL A   1      46.152  22.879  36.887  1.00  0.00     0.028 A 
ATOM     12  C   UNL A   1      45.652  21.081  35.335  1.00  0.00     0.028 A 
ATOM     13  C   UNL A   1      45.051  23.582  36.400  1.00  0.00     0.018 A 
ATOM     14  C   UNL A   1      44.513  21.751  34.896  1.00  0.00     0.018 A 
BRANCH  10  15
ATOM     15  N   UNL A   1      47.807  21.169  36.449  1.00  0.00    -0.242 N 
ATOM     16  C   UNL A   1      48.255  20.397  37.485  1.00  0.00     0.095 A 
ATOM     17  C   UNL A   1      49.519  20.106  37.204  1.00  0.00     0.228 A 
ATOM     18  O   UNL A   1      49.970  20.632  35.991  1.00  0.00    -0.415 OA
ATOM     19  C   UNL A   1      48.823  21.265  35.506  1.00  0.00     0.424 A 
ATOM     20  O   UNL A   1      48.780  21.806  34.409  1.00  0.00    -0.223 OA
BRANCH  16  21
ATOM     21  C   UNL A   1      47.403  19.835  38.535  1.00  0.00     0.002 A 
ATOM     22  C   UNL A   1      45.933  18.776  40.672  1.00  0.00     0.082 A 
ATOM     23  C   UNL A   1      46.356  20.103  40.724  1.00  0.00     0.022 A 
ATOM     24  C   UNL A   1      46.220  17.979  39.558  1.00  0.00     0.022 A 
ATOM     25  C   UNL A   1      47.076  20.628  39.653  1.00  0.00     0.012 A 
ATOM     26  C   UNL A   1      46.953  18.512  38.489  1.00  0.00     0.012 A 
BRANCH  22  27
ATOM     27  S   UNL A   1      45.035  18.107  42.040  1.00  0.00     0.238 S 
ATOM     28  O   UNL A   1      45.378  18.841  43.238  1.00  0.00    -0.207 OA
ATOM     29  O   UNL A   1      45.091  16.669  41.964  1.00  0.00    -0.207 OA
BRANCH  27  30
ATOM     30  N   UNL A   1      43.447  18.538  41.698  1.00  0.00    -0.225 NA
ATOM     31  H   UNL A   1      43.292  18.495  40.691  1.00  0.00     0.137 HD
ATOM     32  H   UNL A   1      43.272  19.486  42.030  1.00  0.00     0.137 HD
ENDBRANCH  27  30
ENDBRANCH  22  27
ENDBRANCH  16  21
ENDBRANCH  10  15
ENDBRANCH   7   9
ENDBRANCH   6   7
ENDBRANCH   5   6
ENDBRANCH   4   5
ENDBRANCH   3   4
ENDBRANCH   2   3
ENDBRANCH   1   2
BRANCH   1  33
ATOM     33  O   UNL A   1      44.472  26.570  37.823  1.00  0.00    -0.377 OA
BRANCH  33  34
ATOM     34  C   UNL A   1      44.957  26.348  39.146  1.00  0.00     0.188 C 
BRANCH  34  35
ATOM     35  C   UNL A   1      46.369  25.733  39.250  1.00  0.00     0.188 C 
BRANCH  35  36
ATOM     36  O   UNL A   1      47.229  26.098  38.170  1.00  0.00    -0.376 OA
BRANCH  36  37
ATOM     37  C   UNL A   1      47.934  27.328  38.251  1.00  0.00     0.202 C 
BRANCH  37  38
ATOM     38  C   UNL A   1      49.309  27.271  37.595  1.00  0.00     0.261 C 
BRANCH  38  39
ATOM     39  O   UNL A   1      49.332  26.503  36.402  1.00  0.00    -0.460 OA
BRANCH  39  40
ATOM     40  C   UNL A   1      49.765  27.138  35.296  1.00  0.00     0.338 C 
ATOM     41  O   UNL A   1      50.626  27.996  35.221  1.00  0.00    -0.246 OA
BRANCH  40  42
ATOM     42  C   UNL A   1      48.961  26.687  34.159  1.00  0.00     0.060 A 
ATOM     43  C   UNL A   1      49.364  27.138  32.901  1.00  0.00     0.016 A 
ATOM     44  C   UNL A   1      47.697  26.125  34.394  1.00  0.00     0.016 A 
ATOM     45  C   UNL A   1      48.401  27.281  31.933  1.00  0.00     0.010 A 
ATOM     46  C   UNL A   1      46.734  26.286  33.434  1.00  0.00     0.010 A 
ATOM     47  C   UNL A   1      47.085  26.959  32.266  1.00  0.00    -0.014 A 
BRANCH  47  48
ATOM     48  C   UNL A   1      46.041  27.437  31.392  1.00  0.00     0.031 A 
ATOM     49  C   UNL A   1      45.733  26.540  30.264  1.00  0.00     0.074 A 
ATOM     50  C   UNL A   1      45.351  28.547  31.710  1.00  0.00     0.049 A 
ATOM     51  N   UNL A   1      45.832  26.779  29.001  1.00  0.00    -0.248 NA
ATOM     52  C   UNL A   1      45.401  25.144  30.595  1.00  0.00     0.031 C 
ATOM     53  C   UNL A   1      45.398  29.293  32.975  1.00  0.00     0.029 A 
ATOM     54  N   UNL A   1      44.357  29.167  31.022  1.00  0.00    -0.354 N 
ATOM     55  C   UNL A   1      45.346  25.636  28.379  1.00  0.00     0.074 A 
ATOM     56  C   UNL A   1      45.298  24.607  29.382  1.00  0.00     0.031 C 
ATOM     57  C   UNL A   1      44.322  30.106  33.046  1.00  0.00     0.029 A 
ATOM     58  C   UNL A   1      43.581  30.015  31.799  1.00  0.00     0.049 A 
ATOM     59  H   UNL A   1      44.202  29.027  30.060  1.00  0.00     0.167 HD
ATOM     60  C   UNL A   1      44.746  25.696  27.162  1.00  0.00     0.037 A 
ATOM     61  C   UNL A   1      42.361  30.507  31.472  1.00  0.00     0.037 A 
ATOM     62  C   UNL A   1      45.103  26.899  26.453  1.00  0.00     0.049 A 
ATOM     63  C   UNL A   1      42.205  30.370  29.999  1.00  0.00     0.074 A 
ATOM     64  C   UNL A   1      46.296  27.459  26.041  1.00  0.00     0.029 A 
ATOM     65  N   UNL A   1      44.166  27.900  26.370  1.00  0.00    -0.354 N 
ATOM     66  N   UNL A   1      42.903  31.034  29.117  1.00  0.00    -0.248 NA
ATOM     67  C   UNL A   1      41.544  29.177  29.488  1.00  0.00     0.031 C 
ATOM     68  C   UNL A   1      46.110  28.868  26.146  1.00  0.00     0.029 A 
ATOM     69  C   UNL A   1      44.806  29.093  26.591  1.00  0.00     0.049 A 
ATOM     70  H   UNL A   1      43.206  27.783  26.184  1.00  0.00     0.167 HD
ATOM     71  C   UNL A   1      43.102  30.144  28.069  1.00  0.00     0.074 A 
ATOM     72  C   UNL A   1      42.147  29.067  28.302  1.00  0.00     0.031 C 
ATOM     73  C   UNL A   1      44.210  30.223  27.275  1.00  0.00     0.037 A 
BRANCH  60  74
ATOM     74  C   UNL A   1      43.544  24.857  26.801  1.00  0.00     0.058 A 
ATOM     75  C   UNL A   1      42.425  24.862  27.653  1.00  0.00     0.135 A 
ATOM     76  C   UNL A   1      43.560  23.838  25.818  1.00  0.00     0.135 A 
ATOM     77  F   UNL A   1      42.310  25.782  28.623  1.00  0.00    -0.206 F 
ATOM     78  C   UNL A   1      41.441  23.874  27.593  1.00  0.00     0.059 A 
ATOM     79  C   UNL A   1      42.560  22.884  25.700  1.00  0.00     0.059 A 
ATOM     80  F   UNL A   1      44.597  23.645  24.992  1.00  0.00    -0.206 F 
ATOM     81  C   UNL A   1      41.534  22.877  26.627  1.00  0.00     0.060 A 
BRANCH  81  82
ATOM     82  S   UNL A   1      40.366  21.509  26.643  1.00  0.00     0.124 S 
ATOM     83  O   UNL A   1      40.406  21.119  28.047  1.00  0.00    -0.237 OA
ATOM     84  O   UNL A   1      39.138  22.150  26.188  1.00  0.00    -0.237 OA
ATOM     85  O   UNL A   1      40.954  20.557  25.704  1.00  0.00    -0.744 OA
ENDBRANCH  81  82
ENDBRANCH  60  74
BRANCH  61  86
ATOM     86  C   UNL A   1      41.222  30.770  32.391  1.00  0.00     0.058 A 
ATOM     87  C   UNL A   1      40.488  29.716  32.960  1.00  0.00     0.135 A 
ATOM     88  C   UNL A   1      40.978  32.053  32.925  1.00  0.00     0.135 A 
ATOM     89  F   UNL A   1      40.681  28.457  32.539  1.00  0.00    -0.206 F 
ATOM     90  C   UNL A   1      39.588  29.918  34.012  1.00  0.00     0.059 A 
ATOM     91  C   UNL A   1      40.071  32.282  33.956  1.00  0.00     0.059 A 
ATOM     92  F   UNL A   1      41.682  33.122  32.521  1.00  0.00    -0.206 F 
ATOM     93  C   UNL A   1      39.395  31.205  34.513  1.00  0.00     0.060 A 
BRANCH  93  94
ATOM     94  S   UNL A   1      38.351  31.452  35.966  1.00  0.00     0.124 S 
ATOM     95  O   UNL A   1      38.126  30.082  36.412  1.00  0.00    -0.237 OA
ATOM     96  O   UNL A   1      39.204  32.272  36.821  1.00  0.00    -0.237 OA
ATOM     97  O   UNL A   1      37.176  32.133  35.427  1.00  0.00    -0.744 OA
ENDBRANCH  93  94
ENDBRANCH  61  86
BRANCH  73  98
ATOM     98  C   UNL A   1      45.023  31.491  27.316  1.00  0.00     0.058 A 
ATOM     99  C   UNL A   1      46.124  31.693  28.166  1.00  0.00     0.135 A 
ATOM    100  C   UNL A   1      44.773  32.475  26.346  1.00  0.00     0.135 A 
ATOM    101  F   UNL A   1      46.496  30.752  29.045  1.00  0.00    -0.206 F 
ATOM    102  C   UNL A   1      46.915  32.840  28.084  1.00  0.00     0.059 A 
ATOM    103  C   UNL A   1      45.568  33.612  26.225  1.00  0.00     0.059 A 
ATOM    104  F   UNL A   1      43.776  32.310  25.461  1.00  0.00    -0.206 F 
ATOM    105  C   UNL A   1      46.632  33.793  27.107  1.00  0.00     0.060 A 
BRANCH 105 106
ATOM    106  S   UNL A   1      47.719  35.226  26.938  1.00  0.00     0.124 S 
ATOM    107  O   UNL A   1      46.948  36.276  27.597  1.00  0.00    -0.237 OA
ATOM    108  O   UNL A   1      48.927  34.795  27.635  1.00  0.00    -0.237 OA
ATOM    109  O   UNL A   1      47.866  35.373  25.491  1.00  0.00    -0.744 OA
ENDBRANCH 105 106
ENDBRANCH  73  98
ENDBRANCH  47  48
ENDBRANCH  40  42
ENDBRANCH  39  40
ENDBRANCH  38  39
ENDBRANCH  37  38
ENDBRANCH  36  37
ENDBRANCH  35  36
ENDBRANCH  34  35
ENDBRANCH  33  34
ENDBRANCH   1  33
TORSDOF 27
ENDMDL
