MODEL 1
REMARK VINA RESULT:      -9.1      0.000      0.000
REMARK SMILES Cc1cc(C)c(NS(=O)(=O)c2cccc3cc(C)cnc23)c(C(=O)OCCOCCOCCOCCOC(=O)c2ccc(-c3c4nc(c(-c5c(F)cc(S(=O)(=O)[O-])cc5F)c5ccc([nH]5)c(-c5c(F)cc(S(=O)(=O)[O-])cc5F)c5nc(c(-c6c(F)cc(S(=O)(=O)[O-])cc6F)c6ccc3[nH]6)C=C5)C=C4)cc2)c1
REMARK SMILES IDX 31 1 30 2 29 3 28 4 27 5 26 6 25 7 23 8 24 9 22 10 1 11 2 12
REMARK SMILES IDX 3 13 106 14 4 15 5 16 6 17 7 18 8 20 9 21 10 22 11 23 12 24
REMARK SMILES IDX 21 25 13 26 15 27 20 28 14 29 16 30 19 31 17 32 18 33 32 34
REMARK SMILES IDX 33 35 34 36 35 37 36 38 37 39 38 40 39 41 40 42 41 43 105 44
REMARK SMILES IDX 42 45 104 46 43 47 44 48 45 49 98 50 46 51 103 52 97 53
REMARK SMILES IDX 99 54 47 55 102 56 96 57 95 58 48 60 82 61 61 62 81 63 62 64
REMARK SMILES IDX 65 65 80 66 100 67 63 68 64 69 79 71 101 72 66 73 49 74
REMARK SMILES IDX 50 75 59 76 51 77 52 78 58 79 60 80 53 81 54 82 55 83 56 84
REMARK SMILES IDX 57 85 83 86 84 87 93 88 85 89 86 90 92 91 94 92 87 93 88 94
REMARK SMILES IDX 89 95 90 96 91 97 67 98 68 99 77 100 69 101 70 102 76 103
REMARK SMILES IDX 78 104 71 105 72 106 73 107 74 108 75 109
REMARK H PARENT 7 19 99 59 65 70
REMARK Flexibility Score: inf
ROOT
ATOM      1  O   UNL A   1      33.444  22.510  24.926  1.00  0.00    -0.377 OA
ENDROOT
BRANCH   1   2
ATOM      2  C   UNL A   1      32.862  22.802  23.664  1.00  0.00     0.188 C 
BRANCH   2   3
ATOM      3  C   UNL A   1      33.245  24.119  22.952  1.00  0.00     0.188 C 
BRANCH   3   4
ATOM      4  O   UNL A   1      32.145  24.926  22.564  1.00  0.00    -0.376 OA
BRANCH   4   5
ATOM      5  C   UNL A   1      32.341  25.846  21.507  1.00  0.00     0.202 C 
BRANCH   5   6
ATOM      6  C   UNL A   1      32.203  27.328  21.868  1.00  0.00     0.261 C 
BRANCH   6   7
ATOM      7  O   UNL A   1      30.877  27.774  22.185  1.00  0.00    -0.460 OA
BRANCH   7   8
ATOM      8  C   UNL A   1      30.697  28.469  23.328  1.00  0.00     0.340 C 
ATOM      9  O   UNL A   1      30.216  29.585  23.426  1.00  0.00    -0.246 OA
BRANCH   8  10
ATOM     10  C   UNL A   1      31.109  27.641  24.487  1.00  0.00     0.084 A 
ATOM     11  C   UNL A   1      29.730  24.760  26.512  1.00  0.00     0.044 C 
ATOM     12  C   UNL A   1      30.701  25.703  25.871  1.00  0.00    -0.050 A 
ATOM     13  C   UNL A   1      32.068  25.683  26.161  1.00  0.00     0.009 A 
ATOM     14  C   UNL A   1      30.245  26.641  24.953  1.00  0.00     0.021 A 
ATOM     15  C   UNL A   1      32.936  26.695  25.690  1.00  0.00    -0.026 A 
ATOM     16  C   UNL A   1      34.416  26.458  25.747  1.00  0.00     0.046 C 
ATOM     17  C   UNL A   1      32.396  27.810  25.045  1.00  0.00     0.066 A 
BRANCH  17  18
ATOM     18  N   UNL A   1      32.709  29.169  25.442  1.00  0.00    -0.278 N 
ATOM     19  H   UNL A   1      33.468  29.558  24.949  1.00  0.00     0.180 HD
BRANCH  18  20
ATOM     20  S   UNL A   1      32.044  30.200  26.562  1.00  0.00     0.264 S 
ATOM     21  O   UNL A   1      31.236  31.146  25.813  1.00  0.00    -0.201 OA
ATOM     22  O   UNL A   1      31.399  29.346  27.543  1.00  0.00    -0.201 OA
BRANCH  20  23
ATOM     23  C   UNL A   1      33.232  31.155  27.466  1.00  0.00     0.114 A 
ATOM     24  C   UNL A   1      32.871  32.511  27.648  1.00  0.00     0.024 A 
ATOM     25  C   UNL A   1      34.524  30.699  27.706  1.00  0.00     0.091 A 
ATOM     26  C   UNL A   1      33.834  33.461  27.945  1.00  0.00     0.002 A 
ATOM     27  C   UNL A   1      35.507  31.704  27.889  1.00  0.00     0.002 A 
ATOM     28  N   UNL A   1      34.871  29.394  27.689  1.00  0.00    -0.255 NA
ATOM     29  C   UNL A   1      35.161  33.062  28.018  1.00  0.00     0.010 A 
ATOM     30  C   UNL A   1      36.855  31.335  27.839  1.00  0.00     0.015 A 
ATOM     31  C   UNL A   1      36.186  29.070  27.680  1.00  0.00     0.115 A 
ATOM     32  C   UNL A   1      37.210  30.000  27.668  1.00  0.00    -0.032 A 
ATOM     33  C   UNL A   1      38.630  29.614  27.400  1.00  0.00     0.046 C 
ENDBRANCH  20  23
ENDBRANCH  18  20
ENDBRANCH  17  18
ENDBRANCH   8  10
ENDBRANCH   7   8
ENDBRANCH   6   7
ENDBRANCH   5   6
ENDBRANCH   4   5
ENDBRANCH   3   4
ENDBRANCH   2   3
ENDBRANCH   1   2
BRANCH   1  34
ATOM     34  C   UNL A   1      34.589  21.664  24.998  1.00  0.00     0.188 C 
BRANCH  34  35
ATOM     35  C   UNL A   1      36.014  22.210  24.729  1.00  0.00     0.188 C 
BRANCH  35  36
ATOM     36  O   UNL A   1      36.777  22.474  25.894  1.00  0.00    -0.376 OA
BRANCH  36  37
ATOM     37  C   UNL A   1      37.424  23.728  25.993  1.00  0.00     0.202 C 
BRANCH  37  38
ATOM     38  C   UNL A   1      38.844  23.715  26.570  1.00  0.00     0.261 C 
BRANCH  38  39
ATOM     39  O   UNL A   1      39.109  24.667  27.611  1.00  0.00    -0.460 OA
BRANCH  39  40
ATOM     40  C   UNL A   1      40.181  25.478  27.453  1.00  0.00     0.338 C 
ATOM     41  O   UNL A   1      40.953  25.504  26.517  1.00  0.00    -0.246 OA
BRANCH  40  42
ATOM     42  C   UNL A   1      40.129  26.479  28.541  1.00  0.00     0.060 A 
ATOM     43  C   UNL A   1      41.161  27.419  28.661  1.00  0.00     0.016 A 
ATOM     44  C   UNL A   1      39.043  26.499  29.417  1.00  0.00     0.016 A 
ATOM     45  C   UNL A   1      41.122  28.369  29.683  1.00  0.00     0.010 A 
ATOM     46  C   UNL A   1      39.018  27.431  30.455  1.00  0.00     0.010 A 
ATOM     47  C   UNL A   1      40.073  28.347  30.611  1.00  0.00    -0.014 A 
BRANCH  47  48
ATOM     48  C   UNL A   1      40.185  29.124  31.867  1.00  0.00     0.031 A 
ATOM     49  C   UNL A   1      39.211  30.248  32.087  1.00  0.00     0.074 A 
ATOM     50  C   UNL A   1      41.122  28.844  32.789  1.00  0.00     0.049 A 
ATOM     51  N   UNL A   1      39.145  31.113  33.064  1.00  0.00    -0.248 NA
ATOM     52  C   UNL A   1      38.172  30.421  31.058  1.00  0.00     0.031 C 
ATOM     53  C   UNL A   1      42.096  27.756  32.702  1.00  0.00     0.029 A 
ATOM     54  N   UNL A   1      41.413  29.466  33.977  1.00  0.00    -0.354 N 
ATOM     55  C   UNL A   1      38.064  31.935  32.765  1.00  0.00     0.074 A 
ATOM     56  C   UNL A   1      37.527  31.489  31.499  1.00  0.00     0.031 C 
ATOM     57  C   UNL A   1      42.892  27.800  33.786  1.00  0.00     0.029 A 
ATOM     58  C   UNL A   1      42.505  28.936  34.623  1.00  0.00     0.049 A 
ATOM     59  H   UNL A   1      40.890  30.219  34.332  1.00  0.00     0.167 HD
ATOM     60  C   UNL A   1      37.560  32.963  33.487  1.00  0.00     0.037 A 
ATOM     61  C   UNL A   1      43.132  29.341  35.746  1.00  0.00     0.037 A 
ATOM     62  C   UNL A   1      38.110  33.408  34.739  1.00  0.00     0.049 A 
ATOM     63  C   UNL A   1      42.600  30.535  36.498  1.00  0.00     0.074 A 
ATOM     64  C   UNL A   1      37.671  34.435  35.556  1.00  0.00     0.029 A 
ATOM     65  N   UNL A   1      39.229  32.861  35.353  1.00  0.00    -0.354 N 
ATOM     66  N   UNL A   1      41.565  31.293  36.219  1.00  0.00    -0.248 NA
ATOM     67  C   UNL A   1      43.318  30.928  37.719  1.00  0.00     0.031 C 
ATOM     68  C   UNL A   1      38.557  34.545  36.633  1.00  0.00     0.029 A 
ATOM     69  C   UNL A   1      39.511  33.545  36.523  1.00  0.00     0.049 A 
ATOM     70  H   UNL A   1      39.746  32.098  35.006  1.00  0.00     0.167 HD
ATOM     71  C   UNL A   1      41.491  32.232  37.244  1.00  0.00     0.074 A 
ATOM     72  C   UNL A   1      42.580  31.941  38.153  1.00  0.00     0.031 C 
ATOM     73  C   UNL A   1      40.599  33.240  37.420  1.00  0.00     0.037 A 
BRANCH  60  74
ATOM     74  C   UNL A   1      36.377  33.694  32.914  1.00  0.00     0.058 A 
ATOM     75  C   UNL A   1      36.517  34.645  31.891  1.00  0.00     0.135 A 
ATOM     76  C   UNL A   1      35.082  33.435  33.393  1.00  0.00     0.135 A 
ATOM     77  F   UNL A   1      37.733  34.948  31.409  1.00  0.00    -0.206 F 
ATOM     78  C   UNL A   1      35.421  35.339  31.388  1.00  0.00     0.059 A 
ATOM     79  C   UNL A   1      33.969  34.095  32.883  1.00  0.00     0.059 A 
ATOM     80  F   UNL A   1      34.890  32.539  34.373  1.00  0.00    -0.206 F 
ATOM     81  C   UNL A   1      34.151  35.058  31.892  1.00  0.00     0.060 A 
BRANCH  81  82
ATOM     82  S   UNL A   1      32.740  35.975  31.238  1.00  0.00     0.124 S 
ATOM     83  O   UNL A   1      32.238  35.052  30.224  1.00  0.00    -0.237 OA
ATOM     84  O   UNL A   1      31.899  36.137  32.420  1.00  0.00    -0.237 OA
ATOM     85  O   UNL A   1      33.340  37.203  30.726  1.00  0.00    -0.744 OA
ENDBRANCH  81  82
ENDBRANCH  60  74
BRANCH  61  86
ATOM     86  C   UNL A   1      44.343  28.616  36.219  1.00  0.00     0.058 A 
ATOM     87  C   UNL A   1      44.239  27.470  37.019  1.00  0.00     0.135 A 
ATOM     88  C   UNL A   1      45.631  29.050  35.867  1.00  0.00     0.135 A 
ATOM     89  F   UNL A   1      43.031  27.022  37.395  1.00  0.00    -0.206 F 
ATOM     90  C   UNL A   1      45.365  26.780  37.457  1.00  0.00     0.059 A 
ATOM     91  C   UNL A   1      46.771  28.364  36.270  1.00  0.00     0.059 A 
ATOM     92  F   UNL A   1      45.787  30.140  35.099  1.00  0.00    -0.206 F 
ATOM     93  C   UNL A   1      46.629  27.232  37.070  1.00  0.00     0.060 A 
BRANCH  93  94
ATOM     94  S   UNL A   1      48.081  26.289  37.585  1.00  0.00     0.124 S 
ATOM     95  O   UNL A   1      48.490  25.668  36.331  1.00  0.00    -0.237 OA
ATOM     96  O   UNL A   1      48.959  27.337  38.096  1.00  0.00    -0.237 OA
ATOM     97  O   UNL A   1      47.548  25.380  38.597  1.00  0.00    -0.744 OA
ENDBRANCH  93  94
ENDBRANCH  61  86
BRANCH  73  98
ATOM     98  C   UNL A   1      40.734  34.085  38.660  1.00  0.00     0.058 A 
ATOM     99  C   UNL A   1      41.493  35.265  38.675  1.00  0.00     0.135 A 
ATOM    100  C   UNL A   1      40.040  33.738  39.832  1.00  0.00     0.135 A 
ATOM    101  F   UNL A   1      42.179  35.642  37.584  1.00  0.00    -0.206 F 
ATOM    102  C   UNL A   1      41.579  36.059  39.815  1.00  0.00     0.059 A 
ATOM    103  C   UNL A   1      40.087  34.533  40.972  1.00  0.00     0.059 A 
ATOM    104  F   UNL A   1      39.289  32.626  39.869  1.00  0.00    -0.206 F 
ATOM    105  C   UNL A   1      40.869  35.686  40.958  1.00  0.00     0.060 A 
BRANCH 105 106
ATOM    106  S   UNL A   1      40.961  36.744  42.418  1.00  0.00     0.124 S 
ATOM    107  O   UNL A   1      41.108  35.760  43.486  1.00  0.00    -0.237 OA
ATOM    108  O   UNL A   1      42.140  37.558  42.140  1.00  0.00    -0.237 OA
ATOM    109  O   UNL A   1      39.690  37.463  42.399  1.00  0.00    -0.744 OA
ENDBRANCH 105 106
ENDBRANCH  73  98
ENDBRANCH  47  48
ENDBRANCH  40  42
ENDBRANCH  39  40
ENDBRANCH  38  39
ENDBRANCH  37  38
ENDBRANCH  36  37
ENDBRANCH  35  36
ENDBRANCH  34  35
ENDBRANCH   1  34
TORSDOF 26
ENDMDL
MODEL 2
REMARK VINA RESULT:      -8.9      4.093      7.985
REMARK SMILES Cc1cc(C)c(NS(=O)(=O)c2cccc3cc(C)cnc23)c(C(=O)OCCOCCOCCOCCOC(=O)c2ccc(-c3c4nc(c(-c5c(F)cc(S(=O)(=O)[O-])cc5F)c5ccc([nH]5)c(-c5c(F)cc(S(=O)(=O)[O-])cc5F)c5nc(c(-c6c(F)cc(S(=O)(=O)[O-])cc6F)c6ccc3[nH]6)C=C5)C=C4)cc2)c1
REMARK SMILES IDX 31 1 30 2 29 3 28 4 27 5 26 6 25 7 23 8 24 9 22 10 1 11 2 12
REMARK SMILES IDX 3 13 106 14 4 15 5 16 6 17 7 18 8 20 9 21 10 22 11 23 12 24
REMARK SMILES IDX 21 25 13 26 15 27 20 28 14 29 16 30 19 31 17 32 18 33 32 34
REMARK SMILES IDX 33 35 34 36 35 37 36 38 37 39 38 40 39 41 40 42 41 43 105 44
REMARK SMILES IDX 42 45 104 46 43 47 44 48 45 49 98 50 46 51 103 52 97 53
REMARK SMILES IDX 99 54 47 55 102 56 96 57 95 58 48 60 82 61 61 62 81 63 62 64
REMARK SMILES IDX 65 65 80 66 100 67 63 68 64 69 79 71 101 72 66 73 49 74
REMARK SMILES IDX 50 75 59 76 51 77 52 78 58 79 60 80 53 81 54 82 55 83 56 84
REMARK SMILES IDX 57 85 83 86 84 87 93 88 85 89 86 90 92 91 94 92 87 93 88 94
REMARK SMILES IDX 89 95 90 96 91 97 67 98 68 99 77 100 69 101 70 102 76 103
REMARK SMILES IDX 78 104 71 105 72 106 73 107 74 108 75 109
REMARK H PARENT 7 19 99 59 65 70
REMARK Flexibility Score: inf
ROOT
ATOM      1  O   UNL A   1      42.845  19.198  25.001  1.00  0.00    -0.377 OA
ENDROOT
BRANCH   1   2
ATOM      2  C   UNL A   1      44.203  18.828  25.191  1.00  0.00     0.188 C 
BRANCH   2   3
ATOM      3  C   UNL A   1      45.311  19.718  24.587  1.00  0.00     0.188 C 
BRANCH   3   4
ATOM      4  O   UNL A   1      45.977  20.553  25.520  1.00  0.00    -0.376 OA
BRANCH   4   5
ATOM      5  C   UNL A   1      45.678  21.936  25.501  1.00  0.00     0.202 C 
BRANCH   5   6
ATOM      6  C   UNL A   1      44.528  22.391  26.403  1.00  0.00     0.261 C 
BRANCH   6   7
ATOM      7  O   UNL A   1      44.881  23.290  27.463  1.00  0.00    -0.460 OA
BRANCH   7   8
ATOM      8  C   UNL A   1      44.011  23.442  28.484  1.00  0.00     0.340 C 
ATOM      9  O   UNL A   1      42.957  22.848  28.629  1.00  0.00    -0.246 OA
BRANCH   8  10
ATOM     10  C   UNL A   1      44.559  24.405  29.469  1.00  0.00     0.084 A 
ATOM     11  C   UNL A   1      45.205  24.551  33.193  1.00  0.00     0.044 C 
ATOM     12  C   UNL A   1      45.321  24.821  31.724  1.00  0.00    -0.050 A 
ATOM     13  C   UNL A   1      46.134  25.835  31.210  1.00  0.00     0.009 A 
ATOM     14  C   UNL A   1      44.600  24.047  30.824  1.00  0.00     0.021 A 
ATOM     15  C   UNL A   1      46.088  26.194  29.844  1.00  0.00    -0.026 A 
ATOM     16  C   UNL A   1      47.191  27.043  29.285  1.00  0.00     0.046 C 
ATOM     17  C   UNL A   1      45.113  25.625  29.022  1.00  0.00     0.066 A 
BRANCH  17  18
ATOM     18  N   UNL A   1      44.230  26.421  28.192  1.00  0.00    -0.278 N 
ATOM     19  H   UNL A   1      43.499  26.850  28.693  1.00  0.00     0.180 HD
BRANCH  18  20
ATOM     20  S   UNL A   1      44.206  26.756  26.565  1.00  0.00     0.264 S 
ATOM     21  O   UNL A   1      43.442  25.689  25.942  1.00  0.00    -0.201 OA
ATOM     22  O   UNL A   1      43.725  28.121  26.455  1.00  0.00    -0.201 OA
BRANCH  20  23
ATOM     23  C   UNL A   1      45.803  26.749  25.797  1.00  0.00     0.114 A 
ATOM     24  C   UNL A   1      46.158  25.512  25.208  1.00  0.00     0.024 A 
ATOM     25  C   UNL A   1      46.738  27.755  26.018  1.00  0.00     0.091 A 
ATOM     26  C   UNL A   1      47.485  25.212  24.951  1.00  0.00     0.002 A 
ATOM     27  C   UNL A   1      48.095  27.378  25.859  1.00  0.00     0.002 A 
ATOM     28  N   UNL A   1      46.414  28.997  26.436  1.00  0.00    -0.255 NA
ATOM     29  C   UNL A   1      48.458  26.129  25.322  1.00  0.00     0.010 A 
ATOM     30  C   UNL A   1      49.086  28.238  26.344  1.00  0.00     0.015 A 
ATOM     31  C   UNL A   1      47.402  29.818  26.863  1.00  0.00     0.115 A 
ATOM     32  C   UNL A   1      48.737  29.457  26.917  1.00  0.00    -0.032 A 
ATOM     33  C   UNL A   1      49.756  30.289  27.628  1.00  0.00     0.046 C 
ENDBRANCH  20  23
ENDBRANCH  18  20
ENDBRANCH  17  18
ENDBRANCH   8  10
ENDBRANCH   7   8
ENDBRANCH   6   7
ENDBRANCH   5   6
ENDBRANCH   4   5
ENDBRANCH   3   4
ENDBRANCH   2   3
ENDBRANCH   1   2
BRANCH   1  34
ATOM     34  C   UNL A   1      41.907  19.018  26.059  1.00  0.00     0.188 C 
BRANCH  34  35
ATOM     35  C   UNL A   1      41.965  19.881  27.343  1.00  0.00     0.188 C 
BRANCH  35  36
ATOM     36  O   UNL A   1      40.754  20.539  27.671  1.00  0.00    -0.376 OA
BRANCH  36  37
ATOM     37  C   UNL A   1      40.070  21.224  26.640  1.00  0.00     0.202 C 
BRANCH  37  38
ATOM     38  C   UNL A   1      40.808  22.411  26.010  1.00  0.00     0.261 C 
BRANCH  38  39
ATOM     39  O   UNL A   1      40.719  23.655  26.721  1.00  0.00    -0.460 OA
BRANCH  39  40
ATOM     40  C   UNL A   1      39.591  24.385  26.556  1.00  0.00     0.338 C 
ATOM     41  O   UNL A   1      38.618  24.098  25.890  1.00  0.00    -0.246 OA
BRANCH  40  42
ATOM     42  C   UNL A   1      39.669  25.518  27.504  1.00  0.00     0.060 A 
ATOM     43  C   UNL A   1      40.435  26.644  27.172  1.00  0.00     0.016 A 
ATOM     44  C   UNL A   1      38.957  25.472  28.704  1.00  0.00     0.016 A 
ATOM     45  C   UNL A   1      40.513  27.719  28.059  1.00  0.00     0.010 A 
ATOM     46  C   UNL A   1      39.058  26.535  29.602  1.00  0.00     0.010 A 
ATOM     47  C   UNL A   1      39.862  27.647  29.296  1.00  0.00    -0.014 A 
BRANCH  47  48
ATOM     48  C   UNL A   1      40.196  28.620  30.361  1.00  0.00     0.031 A 
ATOM     49  C   UNL A   1      39.296  29.813  30.531  1.00  0.00     0.074 A 
ATOM     50  C   UNL A   1      41.266  28.455  31.158  1.00  0.00     0.049 A 
ATOM     51  N   UNL A   1      39.410  30.834  31.338  1.00  0.00    -0.248 NA
ATOM     52  C   UNL A   1      38.105  29.859  29.665  1.00  0.00     0.031 C 
ATOM     53  C   UNL A   1      42.189  27.322  31.112  1.00  0.00     0.029 A 
ATOM     54  N   UNL A   1      41.762  29.256  32.156  1.00  0.00    -0.354 N 
ATOM     55  C   UNL A   1      38.313  31.646  31.074  1.00  0.00     0.074 A 
ATOM     56  C   UNL A   1      37.565  31.017  30.008  1.00  0.00     0.031 C 
ATOM     57  C   UNL A   1      43.153  27.510  32.030  1.00  0.00     0.029 A 
ATOM     58  C   UNL A   1      42.934  28.790  32.704  1.00  0.00     0.049 A 
ATOM     59  H   UNL A   1      41.321  30.084  32.451  1.00  0.00     0.167 HD
ATOM     60  C   UNL A   1      37.957  32.806  31.673  1.00  0.00     0.037 A 
ATOM     61  C   UNL A   1      43.745  29.349  33.625  1.00  0.00     0.037 A 
ATOM     62  C   UNL A   1      38.715  33.431  32.724  1.00  0.00     0.049 A 
ATOM     63  C   UNL A   1      43.371  30.679  34.228  1.00  0.00     0.074 A 
ATOM     64  C   UNL A   1      38.439  34.602  33.405  1.00  0.00     0.029 A 
ATOM     65  N   UNL A   1      39.908  32.941  33.239  1.00  0.00    -0.354 N 
ATOM     66  N   UNL A   1      42.320  31.429  33.988  1.00  0.00    -0.248 NA
ATOM     67  C   UNL A   1      44.288  31.238  35.232  1.00  0.00     0.031 C 
ATOM     68  C   UNL A   1      39.491  34.850  34.292  1.00  0.00     0.029 A 
ATOM     69  C   UNL A   1      40.393  33.800  34.210  1.00  0.00     0.049 A 
ATOM     70  H   UNL A   1      40.343  32.105  32.955  1.00  0.00     0.167 HD
ATOM     71  C   UNL A   1      42.436  32.532  34.829  1.00  0.00     0.074 A 
ATOM     72  C   UNL A   1      43.654  32.346  35.591  1.00  0.00     0.031 C 
ATOM     73  C   UNL A   1      41.607  33.598  34.964  1.00  0.00     0.037 A 
BRANCH  60  74
ATOM     74  C   UNL A   1      36.711  33.486  31.175  1.00  0.00     0.058 A 
ATOM     75  C   UNL A   1      35.542  33.554  31.950  1.00  0.00     0.135 A 
ATOM     76  C   UNL A   1      36.688  34.082  29.903  1.00  0.00     0.135 A 
ATOM     77  F   UNL A   1      35.501  32.983  33.164  1.00  0.00    -0.206 F 
ATOM     78  C   UNL A   1      34.385  34.157  31.469  1.00  0.00     0.059 A 
ATOM     79  C   UNL A   1      35.550  34.717  29.415  1.00  0.00     0.059 A 
ATOM     80  F   UNL A   1      37.775  34.043  29.117  1.00  0.00    -0.206 F 
ATOM     81  C   UNL A   1      34.398  34.735  30.199  1.00  0.00     0.060 A 
BRANCH  81  82
ATOM     82  S   UNL A   1      32.885  35.503  29.584  1.00  0.00     0.124 S 
ATOM     83  O   UNL A   1      31.985  35.322  30.719  1.00  0.00    -0.237 OA
ATOM     84  O   UNL A   1      33.314  36.875  29.329  1.00  0.00    -0.237 OA
ATOM     85  O   UNL A   1      32.563  34.719  28.396  1.00  0.00    -0.744 OA
ENDBRANCH  81  82
ENDBRANCH  60  74
BRANCH  61  86
ATOM     86  C   UNL A   1      45.002  28.656  34.020  1.00  0.00     0.058 A 
ATOM     87  C   UNL A   1      45.044  27.804  35.133  1.00  0.00     0.135 A 
ATOM     88  C   UNL A   1      46.185  28.823  33.282  1.00  0.00     0.135 A 
ATOM     89  F   UNL A   1      43.944  27.622  35.880  1.00  0.00    -0.206 F 
ATOM     90  C   UNL A   1      46.212  27.145  35.503  1.00  0.00     0.059 A 
ATOM     91  C   UNL A   1      47.358  28.155  33.617  1.00  0.00     0.059 A 
ATOM     92  F   UNL A   1      46.198  29.625  32.205  1.00  0.00    -0.206 F 
ATOM     93  C   UNL A   1      47.363  27.321  34.733  1.00  0.00     0.060 A 
BRANCH  93  94
ATOM     94  S   UNL A   1      48.854  26.405  35.181  1.00  0.00     0.124 S 
ATOM     95  O   UNL A   1      48.578  26.052  36.568  1.00  0.00    -0.237 OA
ATOM     96  O   UNL A   1      48.834  25.304  34.224  1.00  0.00    -0.237 OA
ATOM     97  O   UNL A   1      49.921  27.382  34.979  1.00  0.00    -0.744 OA
ENDBRANCH  93  94
ENDBRANCH  61  86
BRANCH  73  98
ATOM     98  C   UNL A   1      41.963  34.634  35.997  1.00  0.00     0.058 A 
ATOM     99  C   UNL A   1      42.674  35.798  35.668  1.00  0.00     0.135 A 
ATOM    100  C   UNL A   1      41.528  34.487  37.326  1.00  0.00     0.135 A 
ATOM    101  F   UNL A   1      43.116  35.989  34.415  1.00  0.00    -0.206 F 
ATOM    102  C   UNL A   1      42.963  36.769  36.623  1.00  0.00     0.059 A 
ATOM    103  C   UNL A   1      41.778  35.458  38.290  1.00  0.00     0.059 A 
ATOM    104  F   UNL A   1      40.833  33.399  37.693  1.00  0.00    -0.206 F 
ATOM    105  C   UNL A   1      42.508  36.591  37.932  1.00  0.00     0.060 A 
BRANCH 105 106
ATOM    106  S   UNL A   1      42.859  37.874  39.152  1.00  0.00     0.124 S 
ATOM    107  O   UNL A   1      43.680  38.800  38.379  1.00  0.00    -0.237 OA
ATOM    108  O   UNL A   1      41.523  38.348  39.499  1.00  0.00    -0.237 OA
ATOM    109  O   UNL A   1      43.557  37.153  40.213  1.00  0.00    -0.744 OA
ENDBRANCH 105 106
ENDBRANCH  73  98
ENDBRANCH  47  48
ENDBRANCH  40  42
ENDBRANCH  39  40
ENDBRANCH  38  39
ENDBRANCH  37  38
ENDBRANCH  36  37
ENDBRANCH  35  36
ENDBRANCH  34  35
ENDBRANCH   1  34
TORSDOF 26
ENDMDL
MODEL 3
REMARK VINA RESULT:      -8.8      4.367      8.336
REMARK SMILES Cc1cc(C)c(NS(=O)(=O)c2cccc3cc(C)cnc23)c(C(=O)OCCOCCOCCOCCOC(=O)c2ccc(-c3c4nc(c(-c5c(F)cc(S(=O)(=O)[O-])cc5F)c5ccc([nH]5)c(-c5c(F)cc(S(=O)(=O)[O-])cc5F)c5nc(c(-c6c(F)cc(S(=O)(=O)[O-])cc6F)c6ccc3[nH]6)C=C5)C=C4)cc2)c1
REMARK SMILES IDX 31 1 30 2 29 3 28 4 27 5 26 6 25 7 23 8 24 9 22 10 1 11 2 12
REMARK SMILES IDX 3 13 106 14 4 15 5 16 6 17 7 18 8 20 9 21 10 22 11 23 12 24
REMARK SMILES IDX 21 25 13 26 15 27 20 28 14 29 16 30 19 31 17 32 18 33 32 34
REMARK SMILES IDX 33 35 34 36 35 37 36 38 37 39 38 40 39 41 40 42 41 43 105 44
REMARK SMILES IDX 42 45 104 46 43 47 44 48 45 49 98 50 46 51 103 52 97 53
REMARK SMILES IDX 99 54 47 55 102 56 96 57 95 58 48 60 82 61 61 62 81 63 62 64
REMARK SMILES IDX 65 65 80 66 100 67 63 68 64 69 79 71 101 72 66 73 49 74
REMARK SMILES IDX 50 75 59 76 51 77 52 78 58 79 60 80 53 81 54 82 55 83 56 84
REMARK SMILES IDX 57 85 83 86 84 87 93 88 85 89 86 90 92 91 94 92 87 93 88 94
REMARK SMILES IDX 89 95 90 96 91 97 67 98 68 99 77 100 69 101 70 102 76 103
REMARK SMILES IDX 78 104 71 105 72 106 73 107 74 108 75 109
REMARK H PARENT 7 19 99 59 65 70
REMARK Flexibility Score: inf
ROOT
ATOM      1  O   UNL A   1      42.957  19.252  25.025  1.00  0.00    -0.377 OA
ENDROOT
BRANCH   1   2
ATOM      2  C   UNL A   1      44.302  19.010  25.412  1.00  0.00     0.188 C 
BRANCH   2   3
ATOM      3  C   UNL A   1      45.439  19.397  24.441  1.00  0.00     0.188 C 
BRANCH   3   4
ATOM      4  O   UNL A   1      46.090  20.620  24.745  1.00  0.00    -0.376 OA
BRANCH   4   5
ATOM      5  C   UNL A   1      45.577  21.805  24.167  1.00  0.00     0.202 C 
BRANCH   5   6
ATOM      6  C   UNL A   1      45.270  22.951  25.134  1.00  0.00     0.261 C 
BRANCH   6   7
ATOM      7  O   UNL A   1      46.190  24.050  25.114  1.00  0.00    -0.460 OA
BRANCH   7   8
ATOM      8  C   UNL A   1      46.728  24.450  26.286  1.00  0.00     0.340 C 
ATOM      9  O   UNL A   1      46.375  24.100  27.399  1.00  0.00    -0.246 OA
BRANCH   8  10
ATOM     10  C   UNL A   1      47.884  25.342  26.028  1.00  0.00     0.084 A 
ATOM     11  C   UNL A   1      51.252  26.092  27.576  1.00  0.00     0.044 C 
ATOM     12  C   UNL A   1      50.160  25.954  26.561  1.00  0.00    -0.050 A 
ATOM     13  C   UNL A   1      50.280  26.449  25.259  1.00  0.00     0.009 A 
ATOM     14  C   UNL A   1      48.976  25.315  26.907  1.00  0.00     0.021 A 
ATOM     15  C   UNL A   1      49.176  26.474  24.376  1.00  0.00    -0.026 A 
ATOM     16  C   UNL A   1      49.428  26.703  22.916  1.00  0.00     0.046 C 
ATOM     17  C   UNL A   1      47.910  26.132  24.858  1.00  0.00     0.066 A 
BRANCH  17  18
ATOM     18  N   UNL A   1      46.751  26.984  24.678  1.00  0.00    -0.278 N 
ATOM     19  H   UNL A   1      46.193  26.733  23.906  1.00  0.00     0.180 HD
BRANCH  18  20
ATOM     20  S   UNL A   1      46.175  28.300  25.514  1.00  0.00     0.264 S 
ATOM     21  O   UNL A   1      46.529  29.467  24.726  1.00  0.00    -0.201 OA
ATOM     22  O   UNL A   1      44.773  28.019  25.764  1.00  0.00    -0.201 OA
BRANCH  20  23
ATOM     23  C   UNL A   1      46.910  28.525  27.110  1.00  0.00     0.114 A 
ATOM     24  C   UNL A   1      48.198  29.110  27.079  1.00  0.00     0.024 A 
ATOM     25  C   UNL A   1      46.408  27.911  28.253  1.00  0.00     0.091 A 
ATOM     26  C   UNL A   1      49.059  28.971  28.156  1.00  0.00     0.002 A 
ATOM     27  C   UNL A   1      47.347  27.678  29.289  1.00  0.00     0.002 A 
ATOM     28  N   UNL A   1      45.135  27.476  28.369  1.00  0.00    -0.255 NA
ATOM     29  C   UNL A   1      48.647  28.213  29.242  1.00  0.00     0.010 A 
ATOM     30  C   UNL A   1      46.990  26.813  30.329  1.00  0.00     0.015 A 
ATOM     31  C   UNL A   1      44.814  26.671  29.409  1.00  0.00     0.115 A 
ATOM     32  C   UNL A   1      45.721  26.244  30.363  1.00  0.00    -0.032 A 
ATOM     33  C   UNL A   1      45.394  25.161  31.340  1.00  0.00     0.046 C 
ENDBRANCH  20  23
ENDBRANCH  18  20
ENDBRANCH  17  18
ENDBRANCH   8  10
ENDBRANCH   7   8
ENDBRANCH   6   7
ENDBRANCH   5   6
ENDBRANCH   4   5
ENDBRANCH   3   4
ENDBRANCH   2   3
ENDBRANCH   1   2
BRANCH   1  34
ATOM     34  C   UNL A   1      41.905  19.075  25.971  1.00  0.00     0.188 C 
BRANCH  34  35
ATOM     35  C   UNL A   1      41.994  19.673  27.397  1.00  0.00     0.188 C 
BRANCH  35  36
ATOM     36  O   UNL A   1      41.036  20.678  27.679  1.00  0.00    -0.376 OA
BRANCH  36  37
ATOM     37  C   UNL A   1      40.824  21.685  26.708  1.00  0.00     0.202 C 
BRANCH  37  38
ATOM     38  C   UNL A   1      41.892  22.780  26.623  1.00  0.00     0.261 C 
BRANCH  38  39
ATOM     39  O   UNL A   1      41.636  23.969  27.385  1.00  0.00    -0.460 OA
BRANCH  39  40
ATOM     40  C   UNL A   1      40.694  24.819  26.912  1.00  0.00     0.338 C 
ATOM     41  O   UNL A   1      39.989  24.668  25.936  1.00  0.00    -0.246 OA
BRANCH  40  42
ATOM     42  C   UNL A   1      40.531  25.887  27.923  1.00  0.00     0.060 A 
ATOM     43  C   UNL A   1      41.472  26.924  27.988  1.00  0.00     0.016 A 
ATOM     44  C   UNL A   1      39.429  25.872  28.780  1.00  0.00     0.016 A 
ATOM     45  C   UNL A   1      41.327  27.937  28.936  1.00  0.00     0.010 A 
ATOM     46  C   UNL A   1      39.300  26.871  29.745  1.00  0.00     0.010 A 
ATOM     47  C   UNL A   1      40.265  27.888  29.848  1.00  0.00    -0.014 A 
BRANCH  47  48
ATOM     48  C   UNL A   1      40.282  28.760  31.045  1.00  0.00     0.031 A 
ATOM     49  C   UNL A   1      39.315  29.912  31.088  1.00  0.00     0.074 A 
ATOM     50  C   UNL A   1      41.127  28.541  32.066  1.00  0.00     0.049 A 
ATOM     51  N   UNL A   1      39.181  30.853  31.985  1.00  0.00    -0.248 NA
ATOM     52  C   UNL A   1      38.376  30.016  29.958  1.00  0.00     0.031 C 
ATOM     53  C   UNL A   1      42.081  27.437  32.153  1.00  0.00     0.029 A 
ATOM     54  N   UNL A   1      41.324  29.252  33.224  1.00  0.00    -0.354 N 
ATOM     55  C   UNL A   1      38.148  31.663  31.526  1.00  0.00     0.074 A 
ATOM     56  C   UNL A   1      37.716  31.125  30.255  1.00  0.00     0.031 C 
ATOM     57  C   UNL A   1      42.778  27.555  33.298  1.00  0.00     0.029 A 
ATOM     58  C   UNL A   1      42.342  28.759  34.005  1.00  0.00     0.049 A 
ATOM     59  H   UNL A   1      40.787  30.038  33.471  1.00  0.00     0.167 HD
ATOM     60  C   UNL A   1      37.604  32.752  32.117  1.00  0.00     0.037 A 
ATOM     61  C   UNL A   1      42.875  29.244  35.145  1.00  0.00     0.037 A 
ATOM     62  C   UNL A   1      38.049  33.288  33.375  1.00  0.00     0.049 A 
ATOM     63  C   UNL A   1      42.304  30.501  35.751  1.00  0.00     0.074 A 
ATOM     64  C   UNL A   1      37.561  34.382  34.067  1.00  0.00     0.029 A 
ATOM     65  N   UNL A   1      39.097  32.775  34.128  1.00  0.00    -0.354 N 
ATOM     66  N   UNL A   1      41.313  31.248  35.322  1.00  0.00    -0.248 NA
ATOM     67  C   UNL A   1      42.918  30.980  36.998  1.00  0.00     0.031 C 
ATOM     68  C   UNL A   1      38.349  34.565  35.208  1.00  0.00     0.029 A 
ATOM     69  C   UNL A   1      39.288  33.546  35.262  1.00  0.00     0.049 A 
ATOM     70  H   UNL A   1      39.627  31.980  33.890  1.00  0.00     0.167 HD
ATOM     71  C   UNL A   1      41.168  32.267  36.260  1.00  0.00     0.074 A 
ATOM     72  C   UNL A   1      42.166  32.034  37.283  1.00  0.00     0.031 C 
ATOM     73  C   UNL A   1      40.286  33.298  36.275  1.00  0.00     0.037 A 
BRANCH  60  74
ATOM     74  C   UNL A   1      36.492  33.451  31.384  1.00  0.00     0.058 A 
ATOM     75  C   UNL A   1      35.166  33.422  31.845  1.00  0.00     0.135 A 
ATOM     76  C   UNL A   1      36.757  34.164  30.203  1.00  0.00     0.135 A 
ATOM     77  F   UNL A   1      34.851  32.737  32.957  1.00  0.00    -0.206 F 
ATOM     78  C   UNL A   1      34.138  34.044  31.145  1.00  0.00     0.059 A 
ATOM     79  C   UNL A   1      35.750  34.820  29.503  1.00  0.00     0.059 A 
ATOM     80  F   UNL A   1      38.005  34.222  29.714  1.00  0.00    -0.206 F 
ATOM     81  C   UNL A   1      34.440  34.740  29.973  1.00  0.00     0.060 A 
BRANCH  81  82
ATOM     82  S   UNL A   1      33.094  35.532  29.069  1.00  0.00     0.124 S 
ATOM     83  O   UNL A   1      33.809  36.568  28.330  1.00  0.00    -0.237 OA
ATOM     84  O   UNL A   1      32.566  34.432  28.268  1.00  0.00    -0.237 OA
ATOM     85  O   UNL A   1      32.211  36.014  30.127  1.00  0.00    -0.744 OA
ENDBRANCH  81  82
ENDBRANCH  60  74
BRANCH  61  86
ATOM     86  C   UNL A   1      44.024  28.542  35.781  1.00  0.00     0.058 A 
ATOM     87  C   UNL A   1      43.823  27.513  36.711  1.00  0.00     0.135 A 
ATOM     88  C   UNL A   1      45.348  28.880  35.458  1.00  0.00     0.135 A 
ATOM     89  F   UNL A   1      42.577  27.162  37.065  1.00  0.00    -0.206 F 
ATOM     90  C   UNL A   1      44.891  26.845  37.302  1.00  0.00     0.059 A 
ATOM     91  C   UNL A   1      46.432  28.210  36.015  1.00  0.00     0.059 A 
ATOM     92  F   UNL A   1      45.596  29.856  34.569  1.00  0.00    -0.206 F 
ATOM     93  C   UNL A   1      46.194  27.196  36.941  1.00  0.00     0.060 A 
BRANCH  93  94
ATOM     94  S   UNL A   1      47.571  26.275  37.661  1.00  0.00     0.124 S 
ATOM     95  O   UNL A   1      46.907  25.537  38.729  1.00  0.00    -0.237 OA
ATOM     96  O   UNL A   1      48.032  25.482  36.526  1.00  0.00    -0.237 OA
ATOM     97  O   UNL A   1      48.487  27.326  38.094  1.00  0.00    -0.744 OA
ENDBRANCH  93  94
ENDBRANCH  61  86
BRANCH  73  98
ATOM     98  C   UNL A   1      40.328  34.237  37.452  1.00  0.00     0.058 A 
ATOM     99  C   UNL A   1      41.139  35.382  37.460  1.00  0.00     0.135 A 
ATOM    100  C   UNL A   1      39.493  34.018  38.563  1.00  0.00     0.135 A 
ATOM    101  F   UNL A   1      41.957  35.638  36.428  1.00  0.00    -0.206 F 
ATOM    102  C   UNL A   1      41.140  36.264  38.537  1.00  0.00     0.059 A 
ATOM    103  C   UNL A   1      39.456  34.902  39.635  1.00  0.00     0.059 A 
ATOM    104  F   UNL A   1      38.688  32.945  38.601  1.00  0.00    -0.206 F 
ATOM    105  C   UNL A   1      40.292  36.017  39.619  1.00  0.00     0.060 A 
BRANCH 105 106
ATOM    106  S   UNL A   1      40.278  37.188  40.993  1.00  0.00     0.124 S 
ATOM    107  O   UNL A   1      40.479  36.303  42.136  1.00  0.00    -0.237 OA
ATOM    108  O   UNL A   1      41.398  38.065  40.666  1.00  0.00    -0.237 OA
ATOM    109  O   UNL A   1      38.958  37.805  40.902  1.00  0.00    -0.744 OA
ENDBRANCH 105 106
ENDBRANCH  73  98
ENDBRANCH  47  48
ENDBRANCH  40  42
ENDBRANCH  39  40
ENDBRANCH  38  39
ENDBRANCH  37  38
ENDBRANCH  36  37
ENDBRANCH  35  36
ENDBRANCH  34  35
ENDBRANCH   1  34
TORSDOF 26
ENDMDL
