MODEL 1
REMARK VINA RESULT:      -9.4      0.000      0.000
REMARK SMILES O=C(OCCOCCOCCOCCOC(=O)[C@H]1CC[C@@H]2CCCC[C@H]2N1C(=O)N1CCSCC1)c1ccc(-c2c3nc(c(-c4c(F)cc(S(=O)(=O)[O-])cc4F)c4ccc([nH]4)c(-c4c(F)cc(S(=O)(=O)[O-])cc4F)c4nc(c(-c5c(F)cc(S(=O)(=O)[O-])cc5F)c5ccc2[nH]5)C=C4)C=C3)cc1
REMARK SMILES IDX 8 1 7 2 6 3 5 4 4 5 3 6 2 7 1 8 36 9 37 10 101 11 38 12
REMARK SMILES IDX 100 13 39 14 40 15 41 16 94 17 42 18 99 19 93 20 95 21 43 22
REMARK SMILES IDX 98 23 92 24 91 25 44 27 78 28 57 29 77 30 58 31 61 32 76 33
REMARK SMILES IDX 96 34 59 35 60 36 75 38 97 39 62 40 45 41 46 42 55 43 47 44
REMARK SMILES IDX 48 45 54 46 56 47 49 48 50 49 51 50 52 51 53 52 79 53 80 54
REMARK SMILES IDX 89 55 81 56 82 57 88 58 90 59 83 60 84 61 85 62 86 63 87 64
REMARK SMILES IDX 63 65 64 66 73 67 65 68 66 69 72 70 74 71 67 72 68 73 69 74
REMARK SMILES IDX 70 75 71 76 9 77 10 78 11 79 12 80 13 81 14 82 15 83 16 84
REMARK SMILES IDX 17 85 18 86 19 87 27 88 20 89 26 90 21 91 25 92 22 93 24 94
REMARK SMILES IDX 23 95 28 96 29 97 30 98 31 99 35 100 32 101 34 102 33 103
REMARK H PARENT 95 26 61 37
REMARK Flexibility Score: inf
ROOT
ATOM      1  C   UNL A   1      41.337  21.901  25.921  1.00  0.00     0.188 C 
ENDROOT
BRANCH   1   2
ATOM      2  C   UNL A   1      42.358  20.766  25.938  1.00  0.00     0.188 C 
BRANCH   2   3
ATOM      3  O   UNL A   1      43.672  21.235  26.254  1.00  0.00    -0.376 OA
BRANCH   3   4
ATOM      4  C   UNL A   1      44.206  22.234  25.380  1.00  0.00     0.202 C 
BRANCH   4   5
ATOM      5  C   UNL A   1      44.605  23.528  26.085  1.00  0.00     0.261 C 
BRANCH   5   6
ATOM      6  O   UNL A   1      43.468  24.321  26.448  1.00  0.00    -0.460 OA
BRANCH   6   7
ATOM      7  C   UNL A   1      43.281  25.646  26.231  1.00  0.00     0.338 C 
ATOM      8  O   UNL A   1      43.579  26.088  25.120  1.00  0.00    -0.246 OA
BRANCH   7   9
ATOM      9  C   UNL A   1      42.716  26.612  27.234  1.00  0.00     0.060 A 
ATOM     10  C   UNL A   1      42.989  27.981  27.324  1.00  0.00     0.016 A 
ATOM     11  C   UNL A   1      41.797  26.071  28.151  1.00  0.00     0.016 A 
ATOM     12  C   UNL A   1      42.447  28.771  28.330  1.00  0.00     0.010 A 
ATOM     13  C   UNL A   1      41.242  26.854  29.165  1.00  0.00     0.010 A 
ATOM     14  C   UNL A   1      41.613  28.195  29.281  1.00  0.00    -0.014 A 
BRANCH  14  15
ATOM     15  C   UNL A   1      41.384  28.943  30.526  1.00  0.00     0.031 A 
ATOM     16  C   UNL A   1      40.209  29.876  30.548  1.00  0.00     0.074 A 
ATOM     17  C   UNL A   1      42.112  28.683  31.624  1.00  0.00     0.049 A 
ATOM     18  N   UNL A   1      39.823  30.707  31.474  1.00  0.00    -0.248 NA
ATOM     19  C   UNL A   1      39.340  29.859  29.355  1.00  0.00     0.031 C 
ATOM     20  C   UNL A   1      43.166  27.670  31.716  1.00  0.00     0.029 A 
ATOM     21  N   UNL A   1      42.058  29.228  32.876  1.00  0.00    -0.354 N 
ATOM     22  C   UNL A   1      38.694  31.337  30.961  1.00  0.00     0.074 A 
ATOM     23  C   UNL A   1      38.455  30.796  29.644  1.00  0.00     0.031 C 
ATOM     24  C   UNL A   1      43.655  27.664  32.967  1.00  0.00     0.029 A 
ATOM     25  C   UNL A   1      42.997  28.716  33.736  1.00  0.00     0.049 A 
ATOM     26  H   UNL A   1      41.409  29.922  33.136  1.00  0.00     0.167 HD
ATOM     27  C   UNL A   1      37.937  32.293  31.544  1.00  0.00     0.037 A 
ATOM     28  C   UNL A   1      43.306  29.097  34.991  1.00  0.00     0.037 A 
ATOM     29  C   UNL A   1      38.217  32.801  32.858  1.00  0.00     0.049 A 
ATOM     30  C   UNL A   1      42.522  30.238  35.585  1.00  0.00     0.074 A 
ATOM     31  C   UNL A   1      37.588  33.815  33.551  1.00  0.00     0.029 A 
ATOM     32  N   UNL A   1      39.230  32.317  33.680  1.00  0.00    -0.354 N 
ATOM     33  N   UNL A   1      41.512  30.901  35.064  1.00  0.00    -0.248 NA
ATOM     34  C   UNL A   1      42.923  30.699  36.917  1.00  0.00     0.031 C 
ATOM     35  C   UNL A   1      38.251  33.977  34.772  1.00  0.00     0.029 A 
ATOM     36  C   UNL A   1      39.258  33.024  34.866  1.00  0.00     0.049 A 
ATOM     37  H   UNL A   1      39.838  31.578  33.449  1.00  0.00     0.167 HD
ATOM     38  C   UNL A   1      41.145  31.846  36.013  1.00  0.00     0.074 A 
ATOM     39  C   UNL A   1      42.036  31.658  37.144  1.00  0.00     0.031 C 
ATOM     40  C   UNL A   1      40.168  32.787  35.963  1.00  0.00     0.037 A 
BRANCH  27  41
ATOM     41  C   UNL A   1      36.828  32.886  30.719  1.00  0.00     0.058 A 
ATOM     42  C   UNL A   1      37.033  33.973  29.853  1.00  0.00     0.135 A 
ATOM     43  C   UNL A   1      35.516  32.406  30.862  1.00  0.00     0.135 A 
ATOM     44  F   UNL A   1      38.260  34.499  29.705  1.00  0.00    -0.206 F 
ATOM     45  C   UNL A   1      35.972  34.589  29.193  1.00  0.00     0.059 A 
ATOM     46  C   UNL A   1      34.444  32.988  30.191  1.00  0.00     0.059 A 
ATOM     47  F   UNL A   1      35.258  31.380  31.687  1.00  0.00    -0.206 F 
ATOM     48  C   UNL A   1      34.680  34.095  29.376  1.00  0.00     0.060 A 
BRANCH  48  49
ATOM     49  S   UNL A   1      33.306  34.931  28.554  1.00  0.00     0.124 S 
ATOM     50  O   UNL A   1      34.014  35.847  27.664  1.00  0.00    -0.237 OA
ATOM     51  O   UNL A   1      32.613  33.825  27.902  1.00  0.00    -0.237 OA
ATOM     52  O   UNL A   1      32.582  35.559  29.654  1.00  0.00    -0.744 OA
ENDBRANCH  48  49
ENDBRANCH  27  41
BRANCH  28  53
ATOM     53  C   UNL A   1      44.422  28.436  35.723  1.00  0.00     0.058 A 
ATOM     54  C   UNL A   1      44.195  27.348  36.579  1.00  0.00     0.135 A 
ATOM     55  C   UNL A   1      45.751  28.863  35.557  1.00  0.00     0.135 A 
ATOM     56  F   UNL A   1      42.946  26.905  36.781  1.00  0.00    -0.206 F 
ATOM     57  C   UNL A   1      45.240  26.710  37.243  1.00  0.00     0.059 A 
ATOM     58  C   UNL A   1      46.814  28.225  36.189  1.00  0.00     0.059 A 
ATOM     59  F   UNL A   1      46.031  29.895  34.745  1.00  0.00    -0.206 F 
ATOM     60  C   UNL A   1      46.548  27.154  37.038  1.00  0.00     0.060 A 
BRANCH  60  61
ATOM     61  S   UNL A   1      47.903  26.289  37.863  1.00  0.00     0.124 S 
ATOM     62  O   UNL A   1      48.364  27.298  38.810  1.00  0.00    -0.237 OA
ATOM     63  O   UNL A   1      47.224  25.133  38.440  1.00  0.00    -0.237 OA
ATOM     64  O   UNL A   1      48.822  25.984  36.770  1.00  0.00    -0.744 OA
ENDBRANCH  60  61
ENDBRANCH  28  53
BRANCH  40  65
ATOM     65  C   UNL A   1      39.995  33.651  37.177  1.00  0.00     0.058 A 
ATOM     66  C   UNL A   1      40.766  34.805  37.376  1.00  0.00     0.135 A 
ATOM     67  C   UNL A   1      38.990  33.355  38.112  1.00  0.00     0.135 A 
ATOM     68  F   UNL A   1      41.742  35.123  36.510  1.00  0.00    -0.206 F 
ATOM     69  C   UNL A   1      40.560  35.629  38.474  1.00  0.00     0.059 A 
ATOM     70  C   UNL A   1      38.746  34.182  39.200  1.00  0.00     0.059 A 
ATOM     71  F   UNL A   1      38.218  32.268  37.954  1.00  0.00    -0.206 F 
ATOM     72  C   UNL A   1      39.543  35.312  39.378  1.00  0.00     0.060 A 
BRANCH  72  73
ATOM     73  S   UNL A   1      39.253  36.417  40.773  1.00  0.00     0.124 S 
ATOM     74  O   UNL A   1      38.816  37.634  40.096  1.00  0.00    -0.237 OA
ATOM     75  O   UNL A   1      38.225  35.706  41.527  1.00  0.00    -0.237 OA
ATOM     76  O   UNL A   1      40.557  36.493  41.423  1.00  0.00    -0.744 OA
ENDBRANCH  72  73
ENDBRANCH  40  65
ENDBRANCH  14  15
ENDBRANCH   7   9
ENDBRANCH   6   7
ENDBRANCH   5   6
ENDBRANCH   4   5
ENDBRANCH   3   4
ENDBRANCH   2   3
ENDBRANCH   1   2
BRANCH   1  77
ATOM     77  O   UNL A   1      40.222  21.716  26.788  1.00  0.00    -0.377 OA
BRANCH  77  78
ATOM     78  C   UNL A   1      38.943  21.874  26.190  1.00  0.00     0.188 C 
BRANCH  78  79
ATOM     79  C   UNL A   1      38.474  23.296  25.812  1.00  0.00     0.188 C 
BRANCH  79  80
ATOM     80  O   UNL A   1      37.113  23.374  25.418  1.00  0.00    -0.376 OA
BRANCH  80  81
ATOM     81  C   UNL A   1      36.113  23.485  26.423  1.00  0.00     0.202 C 
BRANCH  81  82
ATOM     82  C   UNL A   1      34.738  22.857  26.135  1.00  0.00     0.261 C 
BRANCH  82  83
ATOM     83  O   UNL A   1      33.736  23.290  27.070  1.00  0.00    -0.462 OA
BRANCH  83  84
ATOM     84  C   UNL A   1      32.450  23.554  26.709  1.00  0.00     0.329 C 
ATOM     85  O   UNL A   1      31.506  23.645  27.480  1.00  0.00    -0.250 OA
BRANCH  84  86
ATOM     86  C   UNL A   1      32.412  23.747  25.172  1.00  0.00     0.197 C 
ATOM     87  C   UNL A   1      31.926  22.536  24.385  1.00  0.00     0.038 C 
ATOM     88  N   UNL A   1      32.051  25.026  24.495  1.00  0.00    -0.308 N 
ATOM     89  C   UNL A   1      32.592  22.572  23.000  1.00  0.00     0.008 C 
ATOM     90  C   UNL A   1      32.652  25.147  23.125  1.00  0.00     0.091 C 
ATOM     91  C   UNL A   1      32.292  23.894  22.270  1.00  0.00     0.012 C 
ATOM     92  C   UNL A   1      32.351  26.423  22.305  1.00  0.00     0.025 C 
ATOM     93  C   UNL A   1      33.025  23.919  20.917  1.00  0.00     0.006 C 
ATOM     94  C   UNL A   1      33.018  26.428  20.928  1.00  0.00     0.002 C 
ATOM     95  C   UNL A   1      32.686  25.177  20.128  1.00  0.00     0.000 C 
BRANCH  88  96
ATOM     96  C   UNL A   1      31.207  26.007  25.003  1.00  0.00     0.321 C 
ATOM     97  O   UNL A   1      29.981  25.910  25.019  1.00  0.00    -0.248 OA
ATOM     98  N   UNL A   1      31.788  27.147  25.542  1.00  0.00    -0.323 N 
ATOM     99  C   UNL A   1      31.395  27.368  26.934  1.00  0.00     0.132 C 
ATOM    100  C   UNL A   1      31.643  28.375  24.751  1.00  0.00     0.132 C 
ATOM    101  C   UNL A   1      32.266  28.385  27.660  1.00  0.00     0.091 C 
ATOM    102  C   UNL A   1      32.486  29.569  25.206  1.00  0.00     0.091 C 
ATOM    103  S   UNL A   1      32.131  30.040  26.922  1.00  0.00    -0.158 SA
ENDBRANCH  88  96
ENDBRANCH  84  86
ENDBRANCH  83  84
ENDBRANCH  82  83
ENDBRANCH  81  82
ENDBRANCH  80  81
ENDBRANCH  79  80
ENDBRANCH  78  79
ENDBRANCH  77  78
ENDBRANCH   1  77
TORSDOF 24
ENDMDL
MODEL 2
REMARK VINA RESULT:      -9.1      1.437      2.524
REMARK SMILES O=C(OCCOCCOCCOCCOC(=O)[C@H]1CC[C@@H]2CCCC[C@H]2N1C(=O)N1CCSCC1)c1ccc(-c2c3nc(c(-c4c(F)cc(S(=O)(=O)[O-])cc4F)c4ccc([nH]4)c(-c4c(F)cc(S(=O)(=O)[O-])cc4F)c4nc(c(-c5c(F)cc(S(=O)(=O)[O-])cc5F)c5ccc2[nH]5)C=C4)C=C3)cc1
REMARK SMILES IDX 8 1 7 2 6 3 5 4 4 5 3 6 2 7 1 8 36 9 37 10 101 11 38 12
REMARK SMILES IDX 100 13 39 14 40 15 41 16 94 17 42 18 99 19 93 20 95 21 43 22
REMARK SMILES IDX 98 23 92 24 91 25 44 27 78 28 57 29 77 30 58 31 61 32 76 33
REMARK SMILES IDX 96 34 59 35 60 36 75 38 97 39 62 40 45 41 46 42 55 43 47 44
REMARK SMILES IDX 48 45 54 46 56 47 49 48 50 49 51 50 52 51 53 52 79 53 80 54
REMARK SMILES IDX 89 55 81 56 82 57 88 58 90 59 83 60 84 61 85 62 86 63 87 64
REMARK SMILES IDX 63 65 64 66 73 67 65 68 66 69 72 70 74 71 67 72 68 73 69 74
REMARK SMILES IDX 70 75 71 76 9 77 10 78 11 79 12 80 13 81 14 82 15 83 16 84
REMARK SMILES IDX 17 85 18 86 19 87 27 88 20 89 26 90 21 91 25 92 22 93 24 94
REMARK SMILES IDX 23 95 28 96 29 97 30 98 31 99 35 100 32 101 34 102 33 103
REMARK H PARENT 95 26 61 37
REMARK Flexibility Score: inf
ROOT
ATOM      1  C   UNL A   1      42.770  22.120  25.977  1.00  0.00     0.188 C 
ENDROOT
BRANCH   1   2
ATOM      2  C   UNL A   1      43.983  21.469  25.314  1.00  0.00     0.188 C 
BRANCH   2   3
ATOM      3  O   UNL A   1      45.212  21.910  25.899  1.00  0.00    -0.376 OA
BRANCH   3   4
ATOM      4  C   UNL A   1      45.641  23.224  25.534  1.00  0.00     0.202 C 
BRANCH   4   5
ATOM      5  C   UNL A   1      45.551  24.245  26.666  1.00  0.00     0.261 C 
BRANCH   5   6
ATOM      6  O   UNL A   1      44.398  25.087  26.546  1.00  0.00    -0.460 OA
BRANCH   6   7
ATOM      7  C   UNL A   1      44.358  26.443  26.560  1.00  0.00     0.338 C 
ATOM      8  O   UNL A   1      44.935  27.037  25.648  1.00  0.00    -0.246 OA
BRANCH   7   9
ATOM      9  C   UNL A   1      43.646  27.273  27.590  1.00  0.00     0.060 A 
ATOM     10  C   UNL A   1      43.626  28.669  27.672  1.00  0.00     0.016 A 
ATOM     11  C   UNL A   1      42.904  26.556  28.545  1.00  0.00     0.016 A 
ATOM     12  C   UNL A   1      42.973  29.332  28.703  1.00  0.00     0.010 A 
ATOM     13  C   UNL A   1      42.241  27.209  29.586  1.00  0.00     0.010 A 
ATOM     14  C   UNL A   1      42.323  28.599  29.689  1.00  0.00    -0.014 A 
BRANCH  14  15
ATOM     15  C   UNL A   1      41.995  29.290  30.945  1.00  0.00     0.031 A 
ATOM     16  C   UNL A   1      40.726  30.090  30.965  1.00  0.00     0.074 A 
ATOM     17  C   UNL A   1      42.730  29.084  32.050  1.00  0.00     0.049 A 
ATOM     18  N   UNL A   1      40.238  30.853  31.901  1.00  0.00    -0.248 NA
ATOM     19  C   UNL A   1      39.883  30.006  29.757  1.00  0.00     0.031 C 
ATOM     20  C   UNL A   1      43.886  28.189  32.139  1.00  0.00     0.029 A 
ATOM     21  N   UNL A   1      42.598  29.592  33.312  1.00  0.00    -0.354 N 
ATOM     22  C   UNL A   1      39.056  31.369  31.381  1.00  0.00     0.074 A 
ATOM     23  C   UNL A   1      38.897  30.836  30.050  1.00  0.00     0.031 C 
ATOM     24  C   UNL A   1      44.353  28.207  33.399  1.00  0.00     0.029 A 
ATOM     25  C   UNL A   1      43.574  29.165  34.178  1.00  0.00     0.049 A 
ATOM     26  H   UNL A   1      41.874  30.205  33.574  1.00  0.00     0.167 HD
ATOM     27  C   UNL A   1      38.191  32.225  31.971  1.00  0.00     0.037 A 
ATOM     28  C   UNL A   1      43.820  29.548  35.445  1.00  0.00     0.037 A 
ATOM     29  C   UNL A   1      38.394  32.730  33.300  1.00  0.00     0.049 A 
ATOM     30  C   UNL A   1      42.908  30.584  36.049  1.00  0.00     0.074 A 
ATOM     31  C   UNL A   1      37.648  33.654  34.003  1.00  0.00     0.029 A 
ATOM     32  N   UNL A   1      39.440  32.339  34.129  1.00  0.00    -0.354 N 
ATOM     33  N   UNL A   1      41.841  31.146  35.525  1.00  0.00    -0.248 NA
ATOM     34  C   UNL A   1      43.236  31.055  37.398  1.00  0.00     0.031 C 
ATOM     35  C   UNL A   1      38.271  33.858  35.239  1.00  0.00     0.029 A 
ATOM     36  C   UNL A   1      39.374  33.018  35.331  1.00  0.00     0.049 A 
ATOM     37  H   UNL A   1      40.128  31.676  33.894  1.00  0.00     0.167 HD
ATOM     38  C   UNL A   1      41.359  32.024  36.486  1.00  0.00     0.074 A 
ATOM     39  C   UNL A   1      42.248  31.908  37.629  1.00  0.00     0.031 C 
ATOM     40  C   UNL A   1      40.287  32.855  36.438  1.00  0.00     0.037 A 
BRANCH  27  41
ATOM     41  C   UNL A   1      37.037  32.713  31.139  1.00  0.00     0.058 A 
ATOM     42  C   UNL A   1      35.815  32.023  31.068  1.00  0.00     0.135 A 
ATOM     43  C   UNL A   1      37.188  33.853  30.332  1.00  0.00     0.135 A 
ATOM     44  F   UNL A   1      35.626  30.905  31.788  1.00  0.00    -0.206 F 
ATOM     45  C   UNL A   1      34.804  32.420  30.196  1.00  0.00     0.059 A 
ATOM     46  C   UNL A   1      36.181  34.284  29.474  1.00  0.00     0.059 A 
ATOM     47  F   UNL A   1      38.340  34.543  30.347  1.00  0.00    -0.206 F 
ATOM     48  C   UNL A   1      35.000  33.546  29.397  1.00  0.00     0.060 A 
BRANCH  48  49
ATOM     49  S   UNL A   1      33.702  34.024  28.235  1.00  0.00     0.124 S 
ATOM     50  O   UNL A   1      32.805  34.787  29.099  1.00  0.00    -0.237 OA
ATOM     51  O   UNL A   1      34.439  34.802  27.245  1.00  0.00    -0.237 OA
ATOM     52  O   UNL A   1      33.180  32.746  27.763  1.00  0.00    -0.744 OA
ENDBRANCH  48  49
ENDBRANCH  27  41
BRANCH  28  53
ATOM     53  C   UNL A   1      44.989  28.994  36.183  1.00  0.00     0.058 A 
ATOM     54  C   UNL A   1      46.241  29.626  36.153  1.00  0.00     0.135 A 
ATOM     55  C   UNL A   1      44.869  27.831  36.963  1.00  0.00     0.135 A 
ATOM     56  F   UNL A   1      46.415  30.734  35.418  1.00  0.00    -0.206 F 
ATOM     57  C   UNL A   1      47.330  29.126  36.866  1.00  0.00     0.059 A 
ATOM     58  C   UNL A   1      45.935  27.327  37.703  1.00  0.00     0.059 A 
ATOM     59  F   UNL A   1      43.694  27.187  37.036  1.00  0.00    -0.206 F 
ATOM     60  C   UNL A   1      47.165  27.978  37.642  1.00  0.00     0.060 A 
BRANCH  60  61
ATOM     61  S   UNL A   1      48.566  27.365  38.603  1.00  0.00     0.124 S 
ATOM     62  O   UNL A   1      48.005  27.320  39.949  1.00  0.00    -0.237 OA
ATOM     63  O   UNL A   1      48.828  26.073  37.977  1.00  0.00    -0.237 OA
ATOM     64  O   UNL A   1      49.595  28.378  38.382  1.00  0.00    -0.744 OA
ENDBRANCH  60  61
ENDBRANCH  28  53
BRANCH  40  65
ATOM     65  C   UNL A   1      40.003  33.668  37.667  1.00  0.00     0.058 A 
ATOM     66  C   UNL A   1      40.603  34.917  37.880  1.00  0.00     0.135 A 
ATOM     67  C   UNL A   1      39.057  33.218  38.603  1.00  0.00     0.135 A 
ATOM     68  F   UNL A   1      41.516  35.384  37.013  1.00  0.00    -0.206 F 
ATOM     69  C   UNL A   1      40.290  35.687  38.991  1.00  0.00     0.059 A 
ATOM     70  C   UNL A   1      38.707  33.986  39.706  1.00  0.00     0.059 A 
ATOM     71  F   UNL A   1      38.447  32.034  38.433  1.00  0.00    -0.206 F 
ATOM     72  C   UNL A   1      39.337  35.215  39.897  1.00  0.00     0.060 A 
BRANCH  72  73
ATOM     73  S   UNL A   1      38.903  36.247  41.311  1.00  0.00     0.124 S 
ATOM     74  O   UNL A   1      40.059  36.052  42.180  1.00  0.00    -0.237 OA
ATOM     75  O   UNL A   1      38.779  37.569  40.705  1.00  0.00    -0.237 OA
ATOM     76  O   UNL A   1      37.653  35.663  41.786  1.00  0.00    -0.744 OA
ENDBRANCH  72  73
ENDBRANCH  40  65
ENDBRANCH  14  15
ENDBRANCH   7   9
ENDBRANCH   6   7
ENDBRANCH   5   6
ENDBRANCH   4   5
ENDBRANCH   3   4
ENDBRANCH   2   3
ENDBRANCH   1   2
BRANCH   1  77
ATOM     77  O   UNL A   1      42.040  21.268  26.856  1.00  0.00    -0.377 OA
BRANCH  77  78
ATOM     78  C   UNL A   1      40.751  20.877  26.404  1.00  0.00     0.188 C 
BRANCH  78  79
ATOM     79  C   UNL A   1      39.647  21.951  26.301  1.00  0.00     0.188 C 
BRANCH  79  80
ATOM     80  O   UNL A   1      38.691  21.706  25.281  1.00  0.00    -0.376 OA
BRANCH  80  81
ATOM     81  C   UNL A   1      37.315  21.635  25.631  1.00  0.00     0.202 C 
BRANCH  81  82
ATOM     82  C   UNL A   1      36.420  22.830  25.259  1.00  0.00     0.261 C 
BRANCH  82  83
ATOM     83  O   UNL A   1      35.641  23.294  26.375  1.00  0.00    -0.462 OA
BRANCH  83  84
ATOM     84  C   UNL A   1      34.287  23.435  26.326  1.00  0.00     0.329 C 
ATOM     85  O   UNL A   1      33.660  24.379  26.782  1.00  0.00    -0.250 OA
BRANCH  84  86
ATOM     86  C   UNL A   1      33.704  22.215  25.568  1.00  0.00     0.197 C 
ATOM     87  C   UNL A   1      33.359  21.018  26.447  1.00  0.00     0.038 C 
ATOM     88  N   UNL A   1      32.795  22.314  24.391  1.00  0.00    -0.308 N 
ATOM     89  C   UNL A   1      33.506  19.747  25.596  1.00  0.00     0.008 C 
ATOM     90  C   UNL A   1      32.862  21.106  23.501  1.00  0.00     0.091 C 
ATOM     91  C   UNL A   1      32.622  19.812  24.338  1.00  0.00     0.012 C 
ATOM     92  C   UNL A   1      31.961  21.072  22.245  1.00  0.00     0.025 C 
ATOM     93  C   UNL A   1      32.841  18.553  23.481  1.00  0.00     0.006 C 
ATOM     94  C   UNL A   1      32.119  19.792  21.422  1.00  0.00     0.002 C 
ATOM     95  C   UNL A   1      31.921  18.542  22.267  1.00  0.00     0.000 C 
BRANCH  88  96
ATOM     96  C   UNL A   1      31.914  23.357  24.127  1.00  0.00     0.321 C 
ATOM     97  O   UNL A   1      30.705  23.300  24.342  1.00  0.00    -0.248 OA
ATOM     98  N   UNL A   1      32.441  24.535  23.613  1.00  0.00    -0.323 N 
ATOM     99  C   UNL A   1      32.136  25.694  24.452  1.00  0.00     0.132 C 
ATOM    100  C   UNL A   1      32.138  24.811  22.203  1.00  0.00     0.132 C 
ATOM    101  C   UNL A   1      32.974  26.923  24.125  1.00  0.00     0.091 C 
ATOM    102  C   UNL A   1      32.915  25.965  21.564  1.00  0.00     0.091 C 
ATOM    103  S   UNL A   1      32.652  27.531  22.442  1.00  0.00    -0.158 SA
ENDBRANCH  88  96
ENDBRANCH  84  86
ENDBRANCH  83  84
ENDBRANCH  82  83
ENDBRANCH  81  82
ENDBRANCH  80  81
ENDBRANCH  79  80
ENDBRANCH  78  79
ENDBRANCH  77  78
ENDBRANCH   1  77
TORSDOF 24
ENDMDL
MODEL 3
REMARK VINA RESULT:      -8.7      7.654     13.354
REMARK SMILES O=C(OCCOCCOCCOCCOC(=O)[C@H]1CC[C@@H]2CCCC[C@H]2N1C(=O)N1CCSCC1)c1ccc(-c2c3nc(c(-c4c(F)cc(S(=O)(=O)[O-])cc4F)c4ccc([nH]4)c(-c4c(F)cc(S(=O)(=O)[O-])cc4F)c4nc(c(-c5c(F)cc(S(=O)(=O)[O-])cc5F)c5ccc2[nH]5)C=C4)C=C3)cc1
REMARK SMILES IDX 8 1 7 2 6 3 5 4 4 5 3 6 2 7 1 8 36 9 37 10 101 11 38 12
REMARK SMILES IDX 100 13 39 14 40 15 41 16 94 17 42 18 99 19 93 20 95 21 43 22
REMARK SMILES IDX 98 23 92 24 91 25 44 27 78 28 57 29 77 30 58 31 61 32 76 33
REMARK SMILES IDX 96 34 59 35 60 36 75 38 97 39 62 40 45 41 46 42 55 43 47 44
REMARK SMILES IDX 48 45 54 46 56 47 49 48 50 49 51 50 52 51 53 52 79 53 80 54
REMARK SMILES IDX 89 55 81 56 82 57 88 58 90 59 83 60 84 61 85 62 86 63 87 64
REMARK SMILES IDX 63 65 64 66 73 67 65 68 66 69 72 70 74 71 67 72 68 73 69 74
REMARK SMILES IDX 70 75 71 76 9 77 10 78 11 79 12 80 13 81 14 82 15 83 16 84
REMARK SMILES IDX 17 85 18 86 19 87 27 88 20 89 26 90 21 91 25 92 22 93 24 94
REMARK SMILES IDX 23 95 28 96 29 97 30 98 31 99 35 100 32 101 34 102 33 103
REMARK H PARENT 95 26 61 37
REMARK Flexibility Score: inf
ROOT
ATOM      1  C   UNL A   1      32.739  35.697  31.179  1.00  0.00     0.188 C 
ENDROOT
BRANCH   1   2
ATOM      2  C   UNL A   1      34.041  35.193  31.799  1.00  0.00     0.188 C 
BRANCH   2   3
ATOM      3  O   UNL A   1      33.883  33.904  32.398  1.00  0.00    -0.376 OA
BRANCH   3   4
ATOM      4  C   UNL A   1      34.881  32.935  32.069  1.00  0.00     0.202 C 
BRANCH   4   5
ATOM      5  C   UNL A   1      36.309  33.387  32.368  1.00  0.00     0.261 C 
BRANCH   5   6
ATOM      6  O   UNL A   1      37.239  32.297  32.345  1.00  0.00    -0.460 OA
BRANCH   6   7
ATOM      7  C   UNL A   1      38.438  32.219  32.974  1.00  0.00     0.338 C 
ATOM      8  O   UNL A   1      38.430  31.999  34.186  1.00  0.00    -0.246 OA
BRANCH   7   9
ATOM      9  C   UNL A   1      39.774  32.359  32.301  1.00  0.00     0.060 A 
ATOM     10  C   UNL A   1      41.030  32.313  32.916  1.00  0.00     0.016 A 
ATOM     11  C   UNL A   1      39.740  32.523  30.905  1.00  0.00     0.016 A 
ATOM     12  C   UNL A   1      42.203  32.508  32.198  1.00  0.00     0.010 A 
ATOM     13  C   UNL A   1      40.911  32.717  30.171  1.00  0.00     0.010 A 
ATOM     14  C   UNL A   1      42.140  32.761  30.833  1.00  0.00    -0.014 A 
BRANCH  14  15
ATOM     15  C   UNL A   1      43.329  33.343  30.194  1.00  0.00     0.031 A 
ATOM     16  C   UNL A   1      44.238  32.396  29.467  1.00  0.00     0.074 A 
ATOM     17  C   UNL A   1      43.499  34.674  30.149  1.00  0.00     0.049 A 
ATOM     18  N   UNL A   1      45.383  32.621  28.886  1.00  0.00    -0.248 NA
ATOM     19  C   UNL A   1      43.782  30.995  29.374  1.00  0.00     0.031 C 
ATOM     20  C   UNL A   1      42.566  35.661  30.698  1.00  0.00     0.029 A 
ATOM     21  N   UNL A   1      44.498  35.425  29.596  1.00  0.00    -0.354 N 
ATOM     22  C   UNL A   1      45.800  31.388  28.397  1.00  0.00     0.074 A 
ATOM     23  C   UNL A   1      44.790  30.417  28.745  1.00  0.00     0.031 C 
ATOM     24  C   UNL A   1      43.039  36.893  30.445  1.00  0.00     0.029 A 
ATOM     25  C   UNL A   1      44.334  36.775  29.782  1.00  0.00     0.049 A 
ATOM     26  H   UNL A   1      45.262  35.035  29.112  1.00  0.00     0.167 HD
ATOM     27  C   UNL A   1      46.937  31.100  27.725  1.00  0.00     0.037 A 
ATOM     28  C   UNL A   1      45.170  37.788  29.482  1.00  0.00     0.037 A 
ATOM     29  C   UNL A   1      47.914  32.103  27.402  1.00  0.00     0.049 A 
ATOM     30  C   UNL A   1      46.482  37.437  28.830  1.00  0.00     0.074 A 
ATOM     31  C   UNL A   1      49.143  31.955  26.792  1.00  0.00     0.029 A 
ATOM     32  N   UNL A   1      47.758  33.458  27.675  1.00  0.00    -0.354 N 
ATOM     33  N   UNL A   1      46.922  36.257  28.449  1.00  0.00    -0.248 NA
ATOM     34  C   UNL A   1      47.419  38.537  28.584  1.00  0.00     0.031 C 
ATOM     35  C   UNL A   1      49.751  33.214  26.740  1.00  0.00     0.029 A 
ATOM     36  C   UNL A   1      48.876  34.158  27.265  1.00  0.00     0.049 A 
ATOM     37  H   UNL A   1      46.966  33.860  28.099  1.00  0.00     0.167 HD
ATOM     38  C   UNL A   1      48.180  36.476  27.902  1.00  0.00     0.074 A 
ATOM     39  C   UNL A   1      48.422  37.904  27.992  1.00  0.00     0.031 C 
ATOM     40  C   UNL A   1      49.060  35.586  27.376  1.00  0.00     0.037 A 
BRANCH  27  41
ATOM     41  C   UNL A   1      47.195  29.655  27.403  1.00  0.00     0.058 A 
ATOM     42  C   UNL A   1      47.899  28.804  28.272  1.00  0.00     0.135 A 
ATOM     43  C   UNL A   1      46.800  29.132  26.161  1.00  0.00     0.135 A 
ATOM     44  F   UNL A   1      48.335  29.259  29.458  1.00  0.00    -0.206 F 
ATOM     45  C   UNL A   1      48.238  27.504  27.904  1.00  0.00     0.059 A 
ATOM     46  C   UNL A   1      47.103  27.827  25.783  1.00  0.00     0.059 A 
ATOM     47  F   UNL A   1      46.138  29.903  25.283  1.00  0.00    -0.206 F 
ATOM     48  C   UNL A   1      47.844  27.028  26.653  1.00  0.00     0.060 A 
BRANCH  48  49
ATOM     49  S   UNL A   1      48.330  25.358  26.167  1.00  0.00     0.124 S 
ATOM     50  O   UNL A   1      47.557  25.175  24.941  1.00  0.00    -0.237 OA
ATOM     51  O   UNL A   1      49.773  25.492  25.990  1.00  0.00    -0.237 OA
ATOM     52  O   UNL A   1      47.913  24.538  27.299  1.00  0.00    -0.744 OA
ENDBRANCH  48  49
ENDBRANCH  27  41
BRANCH  28  53
ATOM     53  C   UNL A   1      44.812  39.188  29.839  1.00  0.00     0.058 A 
ATOM     54  C   UNL A   1      45.145  39.735  31.087  1.00  0.00     0.135 A 
ATOM     55  C   UNL A   1      44.151  40.024  28.922  1.00  0.00     0.135 A 
ATOM     56  F   UNL A   1      45.768  38.979  32.003  1.00  0.00    -0.206 F 
ATOM     57  C   UNL A   1      44.837  41.054  31.414  1.00  0.00     0.059 A 
ATOM     58  C   UNL A   1      43.855  41.352  29.216  1.00  0.00     0.059 A 
ATOM     59  F   UNL A   1      43.812  39.559  27.710  1.00  0.00    -0.206 F 
ATOM     60  C   UNL A   1      44.195  41.856  30.469  1.00  0.00     0.060 A 
BRANCH  60  61
ATOM     61  S   UNL A   1      43.845  43.580  30.881  1.00  0.00     0.124 S 
ATOM     62  O   UNL A   1      44.390  44.277  29.722  1.00  0.00    -0.237 OA
ATOM     63  O   UNL A   1      42.390  43.578  30.999  1.00  0.00    -0.237 OA
ATOM     64  O   UNL A   1      44.566  43.780  32.135  1.00  0.00    -0.744 OA
ENDBRANCH  60  61
ENDBRANCH  28  53
BRANCH  40  65
ATOM     65  C   UNL A   1      50.341  36.143  26.828  1.00  0.00     0.058 A 
ATOM     66  C   UNL A   1      50.463  36.525  25.485  1.00  0.00     0.135 A 
ATOM     67  C   UNL A   1      51.431  36.366  27.683  1.00  0.00     0.135 A 
ATOM     68  F   UNL A   1      49.446  36.326  24.630  1.00  0.00    -0.206 F 
ATOM     69  C   UNL A   1      51.633  37.093  25.000  1.00  0.00     0.059 A 
ATOM     70  C   UNL A   1      52.601  36.960  27.227  1.00  0.00     0.059 A 
ATOM     71  F   UNL A   1      51.354  36.029  28.981  1.00  0.00    -0.206 F 
ATOM     72  C   UNL A   1      52.696  37.311  25.882  1.00  0.00     0.060 A 
BRANCH  72  73
ATOM     73  S   UNL A   1      54.192  38.095  25.251  1.00  0.00     0.124 S 
ATOM     74  O   UNL A   1      54.499  37.255  24.098  1.00  0.00    -0.237 OA
ATOM     75  O   UNL A   1      53.734  39.447  24.949  1.00  0.00    -0.237 OA
ATOM     76  O   UNL A   1      55.126  37.992  26.369  1.00  0.00    -0.744 OA
ENDBRANCH  72  73
ENDBRANCH  40  65
ENDBRANCH  14  15
ENDBRANCH   7   9
ENDBRANCH   6   7
ENDBRANCH   5   6
ENDBRANCH   4   5
ENDBRANCH   3   4
ENDBRANCH   2   3
ENDBRANCH   1   2
BRANCH   1  77
ATOM     77  O   UNL A   1      32.822  36.021  29.794  1.00  0.00    -0.377 OA
BRANCH  77  78
ATOM     78  C   UNL A   1      33.124  34.938  28.925  1.00  0.00     0.188 C 
BRANCH  78  79
ATOM     79  C   UNL A   1      34.462  34.958  28.155  1.00  0.00     0.188 C 
BRANCH  79  80
ATOM     80  O   UNL A   1      35.492  34.191  28.759  1.00  0.00    -0.376 OA
BRANCH  80  81
ATOM     81  C   UNL A   1      35.561  32.797  28.483  1.00  0.00     0.202 C 
BRANCH  81  82
ATOM     82  C   UNL A   1      36.952  32.141  28.465  1.00  0.00     0.261 C 
BRANCH  82  83
ATOM     83  O   UNL A   1      37.036  31.020  29.361  1.00  0.00    -0.462 OA
BRANCH  83  84
ATOM     84  C   UNL A   1      37.525  29.806  28.987  1.00  0.00     0.329 C 
ATOM     85  O   UNL A   1      37.280  29.241  27.931  1.00  0.00    -0.250 OA
BRANCH  84  86
ATOM     86  C   UNL A   1      38.462  29.297  30.112  1.00  0.00     0.197 C 
ATOM     87  C   UNL A   1      37.778  28.459  31.186  1.00  0.00     0.038 C 
ATOM     88  N   UNL A   1      39.876  28.876  29.902  1.00  0.00    -0.308 N 
ATOM     89  C   UNL A   1      38.555  28.646  32.500  1.00  0.00     0.008 C 
ATOM     90  C   UNL A   1      40.715  29.015  31.139  1.00  0.00     0.091 C 
ATOM     91  C   UNL A   1      40.038  28.269  32.330  1.00  0.00     0.012 C 
ATOM     92  C   UNL A   1      42.203  28.603  31.064  1.00  0.00     0.025 C 
ATOM     93  C   UNL A   1      40.795  28.528  33.644  1.00  0.00     0.006 C 
ATOM     94  C   UNL A   1      42.950  28.789  32.386  1.00  0.00     0.002 C 
ATOM     95  C   UNL A   1      42.249  28.088  33.541  1.00  0.00     0.000 C 
BRANCH  88  96
ATOM     96  C   UNL A   1      40.403  28.348  28.728  1.00  0.00     0.321 C 
ATOM     97  O   UNL A   1      40.879  29.034  27.825  1.00  0.00    -0.248 OA
ATOM     98  N   UNL A   1      40.410  26.966  28.585  1.00  0.00    -0.323 N 
ATOM     99  C   UNL A   1      41.754  26.436  28.356  1.00  0.00     0.132 C 
ATOM    100  C   UNL A   1      39.455  26.418  27.614  1.00  0.00     0.132 C 
ATOM    101  C   UNL A   1      41.857  24.928  28.543  1.00  0.00     0.091 C 
ATOM    102  C   UNL A   1      39.279  24.898  27.632  1.00  0.00     0.091 C 
ATOM    103  S   UNL A   1      40.843  24.028  27.333  1.00  0.00    -0.158 SA
ENDBRANCH  88  96
ENDBRANCH  84  86
ENDBRANCH  83  84
ENDBRANCH  82  83
ENDBRANCH  81  82
ENDBRANCH  80  81
ENDBRANCH  79  80
ENDBRANCH  78  79
ENDBRANCH  77  78
ENDBRANCH   1  77
TORSDOF 24
ENDMDL
