MODEL 1
REMARK VINA RESULT:      -6.5      0.000      0.000
REMARK SMILES Cc1ccc(S(=O)(=O)n2cc(C(=O)C(=O)NCC(=O)N[C@@H](Cc3c[nH]c4ccccc34)C(=O)OCCOCCOCCOCCOC(=O)c3ccc(-c4c5nc(c(-c6c(F)cc(S(=O)(=O)[O-])cc6F)c6ccc([nH]6)c(-c6c(F)cc(S(=O)(=O)[O-])cc6F)c6nc(c(-c7c(F)cc(S(=O)(=O)[O-])cc7F)c7ccc4[nH]7)C=C6)C=C5)cc3)c3ccccc32)cc1
REMARK SMILES IDX 38 1 37 2 36 3 35 4 34 5 32 6 33 7 21 8 20 9 18 10 19 11
REMARK SMILES IDX 17 13 16 14 14 15 15 16 12 18 13 19 11 20 9 21 10 22 120 23
REMARK SMILES IDX 115 24 119 25 116 26 118 27 117 28 6 29 7 30 8 31 5 32 1 33
REMARK SMILES IDX 2 34 3 35 122 36 4 37 121 38 22 39 23 40 24 41 31 42 25 43
REMARK SMILES IDX 26 44 30 45 27 47 29 48 28 49 39 50 40 51 41 52 42 53 43 54
REMARK SMILES IDX 44 55 45 56 46 57 47 58 48 59 49 60 50 61 114 62 51 63
REMARK SMILES IDX 113 64 52 65 53 66 54 67 107 68 55 69 112 70 106 71 108 72
REMARK SMILES IDX 56 73 111 74 105 75 104 76 57 78 91 79 70 80 90 81 71 82
REMARK SMILES IDX 74 83 89 84 109 85 72 86 73 87 88 89 110 90 75 91 58 92
REMARK SMILES IDX 59 93 68 94 60 95 61 96 67 97 69 98 62 99 63 100 64 101
REMARK SMILES IDX 65 102 66 103 92 104 93 105 102 106 94 107 95 108 101 109
REMARK SMILES IDX 103 110 96 111 97 112 98 113 99 114 100 115 76 116 77 117
REMARK SMILES IDX 86 118 78 119 79 120 85 121 87 122 80 123 81 124 82 125
REMARK SMILES IDX 83 126 84 127
REMARK H PARENT 20 12 16 17 25 46 108 77 74 88
REMARK Flexibility Score: inf
ROOT
ATOM      1  C   UNL A   1      44.410  27.453  31.433  1.00  0.00     0.188 C 
ENDROOT
BRANCH   1   2
ATOM      2  O   UNL A   1      43.698  28.417  32.183  1.00  0.00    -0.376 OA
BRANCH   2   3
ATOM      3  C   UNL A   1      42.402  28.091  32.622  1.00  0.00     0.202 C 
BRANCH   3   4
ATOM      4  C   UNL A   1      42.102  28.490  34.045  1.00  0.00     0.261 C 
BRANCH   4   5
ATOM      5  O   UNL A   1      43.148  28.009  34.906  1.00  0.00    -0.462 OA
BRANCH   5   6
ATOM      6  C   UNL A   1      43.022  28.308  36.201  1.00  0.00     0.329 C 
ATOM      7  O   UNL A   1      42.111  28.990  36.687  1.00  0.00    -0.250 OA
BRANCH   6   8
ATOM      8  C   UNL A   1      44.146  27.779  37.065  1.00  0.00     0.196 C 
BRANCH   8   9
ATOM      9  N   UNL A   1      44.810  28.723  37.956  1.00  0.00    -0.341 N 
ATOM     10  C   UNL A   1      45.736  29.684  37.655  1.00  0.00     0.240 C 
ATOM     11  O   UNL A   1      46.185  30.344  38.597  1.00  0.00    -0.273 OA
ATOM     12  H   UNL A   1      44.556  28.661  38.905  1.00  0.00     0.164 HD
BRANCH  10  13
ATOM     13  C   UNL A   1      46.107  30.088  36.191  1.00  0.00     0.216 C 
BRANCH  13  14
ATOM     14  N   UNL A   1      46.105  29.046  35.167  1.00  0.00    -0.340 N 
ATOM     15  C   UNL A   1      47.038  28.073  34.816  1.00  0.00     0.292 C 
ATOM     16  O   UNL A   1      46.855  27.428  33.786  1.00  0.00    -0.265 OA
ATOM     17  H   UNL A   1      45.287  29.028  34.620  1.00  0.00     0.164 HD
BRANCH  15  18
ATOM     18  C   UNL A   1      48.247  27.763  35.707  1.00  0.00     0.252 C 
ATOM     19  O   UNL A   1      48.870  28.757  36.090  1.00  0.00    -0.283 OA
BRANCH  18  20
ATOM     20  C   UNL A   1      48.703  26.390  36.028  1.00  0.00     0.054 A 
ATOM     21  N   UNL A   1      49.838  24.419  36.163  1.00  0.00    -0.240 N 
ATOM     22  C   UNL A   1      49.542  25.502  35.330  1.00  0.00     0.117 A 
ATOM     23  C   UNL A   1      49.264  24.699  37.418  1.00  0.00     0.065 A 
ATOM     24  C   UNL A   1      48.317  25.696  37.222  1.00  0.00     0.012 A 
ATOM     25  C   UNL A   1      49.341  24.007  38.644  1.00  0.00     0.028 A 
ATOM     26  C   UNL A   1      47.329  25.872  38.223  1.00  0.00     0.011 A 
ATOM     27  C   UNL A   1      48.341  24.160  39.594  1.00  0.00     0.002 A 
ATOM     28  C   UNL A   1      47.323  25.067  39.374  1.00  0.00     0.001 A 
BRANCH  21  29
ATOM     29  S   UNL A   1      49.662  22.733  35.774  1.00  0.00     0.268 S 
ATOM     30  O   UNL A   1      50.860  22.172  36.385  1.00  0.00    -0.201 OA
ATOM     31  O   UNL A   1      49.487  22.813  34.335  1.00  0.00    -0.201 OA
BRANCH  29  32
ATOM     32  C   UNL A   1      48.401  21.556  36.111  1.00  0.00     0.088 A 
ATOM     33  C   UNL A   1      44.887  19.237  35.125  1.00  0.00     0.044 C 
ATOM     34  C   UNL A   1      46.137  19.936  35.579  1.00  0.00    -0.051 A 
ATOM     35  C   UNL A   1      47.193  19.952  34.685  1.00  0.00     0.005 A 
ATOM     36  C   UNL A   1      46.246  20.691  36.770  1.00  0.00     0.005 A 
ATOM     37  C   UNL A   1      48.310  20.708  34.976  1.00  0.00     0.022 A 
ATOM     38  C   UNL A   1      47.370  21.532  37.038  1.00  0.00     0.022 A 
ENDBRANCH  29  32
ENDBRANCH  21  29
ENDBRANCH  18  20
ENDBRANCH  15  18
ENDBRANCH  13  14
ENDBRANCH  10  13
ENDBRANCH   8   9
BRANCH   8  39
ATOM     39  C   UNL A   1      43.777  26.417  37.657  1.00  0.00     0.074 C 
BRANCH  39  40
ATOM     40  C   UNL A   1      43.208  25.360  36.774  1.00  0.00    -0.020 A 
ATOM     41  C   UNL A   1      41.888  25.011  36.615  1.00  0.00     0.087 A 
ATOM     42  C   UNL A   1      43.945  24.586  35.820  1.00  0.00     0.003 A 
ATOM     43  N   UNL A   1      41.794  24.072  35.623  1.00  0.00    -0.361 N 
ATOM     44  C   UNL A   1      43.041  23.778  35.131  1.00  0.00     0.046 A 
ATOM     45  C   UNL A   1      45.307  24.520  35.465  1.00  0.00     0.010 A 
ATOM     46  H   UNL A   1      40.954  23.667  35.308  1.00  0.00     0.166 HD
ATOM     47  C   UNL A   1      43.432  22.885  34.128  1.00  0.00     0.026 A 
ATOM     48  C   UNL A   1      45.717  23.643  34.459  1.00  0.00     0.001 A 
ATOM     49  C   UNL A   1      44.793  22.832  33.807  1.00  0.00     0.002 A 
ENDBRANCH  39  40
ENDBRANCH   8  39
ENDBRANCH   6   8
ENDBRANCH   5   6
ENDBRANCH   4   5
ENDBRANCH   3   4
ENDBRANCH   2   3
ENDBRANCH   1   2
BRANCH   1  50
ATOM     50  C   UNL A   1      44.101  27.279  29.949  1.00  0.00     0.188 C 
BRANCH  50  51
ATOM     51  O   UNL A   1      43.710  28.409  29.207  1.00  0.00    -0.377 OA
BRANCH  51  52
ATOM     52  C   UNL A   1      43.331  28.272  27.863  1.00  0.00     0.188 C 
BRANCH  52  53
ATOM     53  C   UNL A   1      42.628  29.487  27.250  1.00  0.00     0.188 C 
BRANCH  53  54
ATOM     54  O   UNL A   1      43.371  30.324  26.389  1.00  0.00    -0.376 OA
BRANCH  54  55
ATOM     55  C   UNL A   1      44.778  30.333  26.629  1.00  0.00     0.202 C 
BRANCH  55  56
ATOM     56  C   UNL A   1      45.474  31.525  27.365  1.00  0.00     0.261 C 
BRANCH  56  57
ATOM     57  O   UNL A   1      44.711  32.735  27.637  1.00  0.00    -0.460 OA
BRANCH  57  58
ATOM     58  C   UNL A   1      44.509  33.138  28.934  1.00  0.00     0.338 C 
ATOM     59  O   UNL A   1      45.327  33.607  29.713  1.00  0.00    -0.246 OA
BRANCH  58  60
ATOM     60  C   UNL A   1      43.033  33.273  29.134  1.00  0.00     0.060 A 
ATOM     61  C   UNL A   1      42.355  34.486  29.027  1.00  0.00     0.016 A 
ATOM     62  C   UNL A   1      42.438  32.230  29.826  1.00  0.00     0.016 A 
ATOM     63  C   UNL A   1      41.322  34.770  29.926  1.00  0.00     0.010 A 
ATOM     64  C   UNL A   1      41.541  32.555  30.825  1.00  0.00     0.010 A 
ATOM     65  C   UNL A   1      41.112  33.877  30.978  1.00  0.00    -0.014 A 
BRANCH  65  66
ATOM     66  C   UNL A   1      40.881  34.330  32.378  1.00  0.00     0.031 A 
ATOM     67  C   UNL A   1      41.992  35.017  33.114  1.00  0.00     0.074 A 
ATOM     68  C   UNL A   1      39.574  34.358  32.762  1.00  0.00     0.049 A 
ATOM     69  N   UNL A   1      41.938  35.538  34.291  1.00  0.00    -0.248 NA
ATOM     70  C   UNL A   1      43.308  35.222  32.501  1.00  0.00     0.031 C 
ATOM     71  C   UNL A   1      38.914  34.961  33.915  1.00  0.00     0.029 A 
ATOM     72  N   UNL A   1      38.499  33.731  32.122  1.00  0.00    -0.354 N 
ATOM     73  C   UNL A   1      43.116  36.253  34.531  1.00  0.00     0.074 A 
ATOM     74  C   UNL A   1      43.920  36.038  33.362  1.00  0.00     0.031 C 
ATOM     75  C   UNL A   1      37.620  34.607  33.968  1.00  0.00     0.029 A 
ATOM     76  C   UNL A   1      37.487  33.511  33.063  1.00  0.00     0.049 A 
ATOM     77  H   UNL A   1      38.460  33.486  31.170  1.00  0.00     0.167 HD
ATOM     78  C   UNL A   1      43.287  36.953  35.697  1.00  0.00     0.037 A 
ATOM     79  C   UNL A   1      37.406  32.248  33.571  1.00  0.00     0.037 A 
ATOM     80  C   UNL A   1      42.297  36.464  36.680  1.00  0.00     0.049 A 
ATOM     81  C   UNL A   1      38.201  32.064  34.943  1.00  0.00     0.074 A 
ATOM     82  C   UNL A   1      41.311  37.010  37.475  1.00  0.00     0.029 A 
ATOM     83  N   UNL A   1      42.101  35.071  36.777  1.00  0.00    -0.354 N 
ATOM     84  N   UNL A   1      39.105  32.927  35.419  1.00  0.00    -0.248 NA
ATOM     85  C   UNL A   1      37.987  31.019  35.948  1.00  0.00     0.031 C 
ATOM     86  C   UNL A   1      40.366  35.955  37.756  1.00  0.00     0.029 A 
ATOM     87  C   UNL A   1      40.826  34.743  37.226  1.00  0.00     0.049 A 
ATOM     88  H   UNL A   1      42.790  34.405  36.550  1.00  0.00     0.167 HD
ATOM     89  C   UNL A   1      39.570  32.612  36.682  1.00  0.00     0.074 A 
ATOM     90  C   UNL A   1      38.807  31.394  36.958  1.00  0.00     0.031 C 
ATOM     91  C   UNL A   1      40.482  33.317  37.467  1.00  0.00     0.037 A 
BRANCH  78  92
ATOM     92  C   UNL A   1      44.308  38.109  35.907  1.00  0.00     0.058 A 
ATOM     93  C   UNL A   1      45.227  38.130  36.987  1.00  0.00     0.135 A 
ATOM     94  C   UNL A   1      44.338  39.308  35.143  1.00  0.00     0.135 A 
ATOM     95  F   UNL A   1      45.280  37.106  37.853  1.00  0.00    -0.206 F 
ATOM     96  C   UNL A   1      46.099  39.217  37.264  1.00  0.00     0.059 A 
ATOM     97  C   UNL A   1      45.210  40.389  35.382  1.00  0.00     0.059 A 
ATOM     98  F   UNL A   1      43.429  39.558  34.193  1.00  0.00    -0.206 F 
ATOM     99  C   UNL A   1      46.078  40.352  36.459  1.00  0.00     0.060 A 
BRANCH  99 100
ATOM    100  S   UNL A   1      47.141  41.791  36.775  1.00  0.00     0.124 S 
ATOM    101  O   UNL A   1      48.134  41.723  35.708  1.00  0.00    -0.237 OA
ATOM    102  O   UNL A   1      46.223  42.925  36.701  1.00  0.00    -0.237 OA
ATOM    103  O   UNL A   1      47.661  41.513  38.112  1.00  0.00    -0.744 OA
ENDBRANCH  99 100
ENDBRANCH  78  92
BRANCH  79 104
ATOM    104  C   UNL A   1      36.646  31.485  32.473  1.00  0.00     0.058 A 
ATOM    105  C   UNL A   1      35.319  31.974  32.258  1.00  0.00     0.135 A 
ATOM    106  C   UNL A   1      37.301  31.117  31.270  1.00  0.00     0.135 A 
ATOM    107  F   UNL A   1      34.584  32.332  33.323  1.00  0.00    -0.206 F 
ATOM    108  C   UNL A   1      34.808  32.326  30.989  1.00  0.00     0.059 A 
ATOM    109  C   UNL A   1      36.786  31.428  29.981  1.00  0.00     0.059 A 
ATOM    110  F   UNL A   1      38.526  30.572  31.322  1.00  0.00    -0.206 F 
ATOM    111  C   UNL A   1      35.566  32.089  29.852  1.00  0.00     0.060 A 
BRANCH 111 112
ATOM    112  S   UNL A   1      35.017  32.743  28.238  1.00  0.00     0.124 S 
ATOM    113  O   UNL A   1      34.126  33.825  28.639  1.00  0.00    -0.237 OA
ATOM    114  O   UNL A   1      36.265  33.160  27.604  1.00  0.00    -0.237 OA
ATOM    115  O   UNL A   1      34.365  31.591  27.624  1.00  0.00    -0.744 OA
ENDBRANCH 111 112
ENDBRANCH  79 104
BRANCH  91 116
ATOM    116  C   UNL A   1      41.275  32.704  38.645  1.00  0.00     0.058 A 
ATOM    117  C   UNL A   1      42.547  32.129  38.504  1.00  0.00     0.135 A 
ATOM    118  C   UNL A   1      40.878  32.923  40.001  1.00  0.00     0.135 A 
ATOM    119  F   UNL A   1      43.106  31.953  37.300  1.00  0.00    -0.206 F 
ATOM    120  C   UNL A   1      43.334  31.762  39.600  1.00  0.00     0.059 A 
ATOM    121  C   UNL A   1      41.686  32.656  41.101  1.00  0.00     0.059 A 
ATOM    122  F   UNL A   1      39.683  33.436  40.325  1.00  0.00    -0.206 F 
ATOM    123  C   UNL A   1      42.905  32.045  40.892  1.00  0.00     0.060 A 
BRANCH 123 124
ATOM    124  S   UNL A   1      43.963  31.644  42.292  1.00  0.00     0.124 S 
ATOM    125  O   UNL A   1      44.743  32.871  42.417  1.00  0.00    -0.237 OA
ATOM    126  O   UNL A   1      42.994  31.397  43.356  1.00  0.00    -0.237 OA
ATOM    127  O   UNL A   1      44.697  30.469  41.836  1.00  0.00    -0.744 OA
ENDBRANCH 123 124
ENDBRANCH  91 116
ENDBRANCH  65  66
ENDBRANCH  58  60
ENDBRANCH  57  58
ENDBRANCH  56  57
ENDBRANCH  55  56
ENDBRANCH  54  55
ENDBRANCH  53  54
ENDBRANCH  52  53
ENDBRANCH  51  52
ENDBRANCH  50  51
ENDBRANCH   1  50
TORSDOF 32
ENDMDL
MODEL 2
REMARK VINA RESULT:      -6.5      4.257     10.576
REMARK SMILES Cc1ccc(S(=O)(=O)n2cc(C(=O)C(=O)NCC(=O)N[C@@H](Cc3c[nH]c4ccccc34)C(=O)OCCOCCOCCOCCOC(=O)c3ccc(-c4c5nc(c(-c6c(F)cc(S(=O)(=O)[O-])cc6F)c6ccc([nH]6)c(-c6c(F)cc(S(=O)(=O)[O-])cc6F)c6nc(c(-c7c(F)cc(S(=O)(=O)[O-])cc7F)c7ccc4[nH]7)C=C6)C=C5)cc3)c3ccccc32)cc1
REMARK SMILES IDX 38 1 37 2 36 3 35 4 34 5 32 6 33 7 21 8 20 9 18 10 19 11
REMARK SMILES IDX 17 13 16 14 14 15 15 16 12 18 13 19 11 20 9 21 10 22 120 23
REMARK SMILES IDX 115 24 119 25 116 26 118 27 117 28 6 29 7 30 8 31 5 32 1 33
REMARK SMILES IDX 2 34 3 35 122 36 4 37 121 38 22 39 23 40 24 41 31 42 25 43
REMARK SMILES IDX 26 44 30 45 27 47 29 48 28 49 39 50 40 51 41 52 42 53 43 54
REMARK SMILES IDX 44 55 45 56 46 57 47 58 48 59 49 60 50 61 114 62 51 63
REMARK SMILES IDX 113 64 52 65 53 66 54 67 107 68 55 69 112 70 106 71 108 72
REMARK SMILES IDX 56 73 111 74 105 75 104 76 57 78 91 79 70 80 90 81 71 82
REMARK SMILES IDX 74 83 89 84 109 85 72 86 73 87 88 89 110 90 75 91 58 92
REMARK SMILES IDX 59 93 68 94 60 95 61 96 67 97 69 98 62 99 63 100 64 101
REMARK SMILES IDX 65 102 66 103 92 104 93 105 102 106 94 107 95 108 101 109
REMARK SMILES IDX 103 110 96 111 97 112 98 113 99 114 100 115 76 116 77 117
REMARK SMILES IDX 86 118 78 119 79 120 85 121 87 122 80 123 81 124 82 125
REMARK SMILES IDX 83 126 84 127
REMARK H PARENT 20 12 16 17 25 46 108 77 74 88
REMARK Flexibility Score: inf
ROOT
ATOM      1  C   UNL A   1      42.704  42.375  32.125  1.00  0.00     0.188 C 
ENDROOT
BRANCH   1   2
ATOM      2  O   UNL A   1      42.430  41.217  32.888  1.00  0.00    -0.376 OA
BRANCH   2   3
ATOM      3  C   UNL A   1      43.439  40.730  33.739  1.00  0.00     0.202 C 
BRANCH   3   4
ATOM      4  C   UNL A   1      43.648  39.238  33.674  1.00  0.00     0.261 C 
BRANCH   4   5
ATOM      5  O   UNL A   1      43.738  38.710  35.009  1.00  0.00    -0.462 OA
BRANCH   5   6
ATOM      6  C   UNL A   1      43.791  37.380  35.108  1.00  0.00     0.329 C 
ATOM      7  O   UNL A   1      44.812  36.696  34.962  1.00  0.00    -0.250 OA
BRANCH   6   8
ATOM      8  C   UNL A   1      42.449  36.730  35.368  1.00  0.00     0.196 C 
BRANCH   8   9
ATOM      9  N   UNL A   1      41.873  35.926  34.296  1.00  0.00    -0.341 N 
ATOM     10  C   UNL A   1      42.328  34.752  33.762  1.00  0.00     0.240 C 
ATOM     11  O   UNL A   1      41.681  34.274  32.826  1.00  0.00    -0.273 OA
ATOM     12  H   UNL A   1      41.042  36.276  33.903  1.00  0.00     0.164 HD
BRANCH  10  13
ATOM     13  C   UNL A   1      43.498  33.924  34.386  1.00  0.00     0.216 C 
BRANCH  13  14
ATOM     14  N   UNL A   1      43.165  32.882  35.355  1.00  0.00    -0.340 N 
ATOM     15  C   UNL A   1      43.919  31.865  35.937  1.00  0.00     0.292 C 
ATOM     16  O   UNL A   1      43.337  31.007  36.597  1.00  0.00    -0.265 OA
ATOM     17  H   UNL A   1      42.228  32.903  35.654  1.00  0.00     0.164 HD
BRANCH  15  18
ATOM     18  C   UNL A   1      45.447  31.827  35.810  1.00  0.00     0.252 C 
ATOM     19  O   UNL A   1      46.038  32.690  36.465  1.00  0.00    -0.283 OA
BRANCH  18  20
ATOM     20  C   UNL A   1      46.176  30.897  34.916  1.00  0.00     0.054 A 
ATOM     21  N   UNL A   1      47.155  29.081  33.951  1.00  0.00    -0.240 N 
ATOM     22  C   UNL A   1      46.813  29.669  35.172  1.00  0.00     0.117 A 
ATOM     23  C   UNL A   1      46.627  29.903  32.937  1.00  0.00     0.065 A 
ATOM     24  C   UNL A   1      46.351  31.136  33.513  1.00  0.00     0.012 A 
ATOM     25  C   UNL A   1      46.586  29.733  31.539  1.00  0.00     0.028 A 
ATOM     26  C   UNL A   1      46.199  32.248  32.647  1.00  0.00     0.011 A 
ATOM     27  C   UNL A   1      46.479  30.839  30.706  1.00  0.00     0.002 A 
ATOM     28  C   UNL A   1      46.315  32.095  31.256  1.00  0.00     0.001 A 
BRANCH  21  29
ATOM     29  S   UNL A   1      48.722  28.478  33.494  1.00  0.00     0.268 S 
ATOM     30  O   UNL A   1      48.374  27.187  32.916  1.00  0.00    -0.201 OA
ATOM     31  O   UNL A   1      49.429  28.601  34.755  1.00  0.00    -0.201 OA
BRANCH  29  32
ATOM     32  C   UNL A   1      49.982  29.108  32.442  1.00  0.00     0.088 A 
ATOM     33  C   UNL A   1      53.501  28.756  29.954  1.00  0.00     0.044 C 
ATOM     34  C   UNL A   1      52.249  29.012  30.744  1.00  0.00    -0.051 A 
ATOM     35  C   UNL A   1      51.198  28.139  30.532  1.00  0.00     0.005 A 
ATOM     36  C   UNL A   1      52.135  29.974  31.775  1.00  0.00     0.005 A 
ATOM     37  C   UNL A   1      50.079  28.224  31.335  1.00  0.00     0.022 A 
ATOM     38  C   UNL A   1      51.009  30.015  32.655  1.00  0.00     0.022 A 
ENDBRANCH  29  32
ENDBRANCH  21  29
ENDBRANCH  18  20
ENDBRANCH  15  18
ENDBRANCH  13  14
ENDBRANCH  10  13
ENDBRANCH   8   9
BRANCH   8  39
ATOM     39  C   UNL A   1      42.400  36.137  36.776  1.00  0.00     0.074 C 
BRANCH  39  40
ATOM     40  C   UNL A   1      41.095  36.035  37.488  1.00  0.00    -0.020 A 
ATOM     41  C   UNL A   1      40.128  35.067  37.349  1.00  0.00     0.087 A 
ATOM     42  C   UNL A   1      40.662  36.881  38.560  1.00  0.00     0.003 A 
ATOM     43  N   UNL A   1      39.143  35.287  38.274  1.00  0.00    -0.361 N 
ATOM     44  C   UNL A   1      39.435  36.403  39.017  1.00  0.00     0.046 A 
ATOM     45  C   UNL A   1      41.225  38.003  39.201  1.00  0.00     0.010 A 
ATOM     46  H   UNL A   1      38.342  34.726  38.389  1.00  0.00     0.166 HD
ATOM     47  C   UNL A   1      38.724  37.009  40.059  1.00  0.00     0.026 A 
ATOM     48  C   UNL A   1      40.538  38.616  40.251  1.00  0.00     0.001 A 
ATOM     49  C   UNL A   1      39.301  38.130  40.666  1.00  0.00     0.002 A 
ENDBRANCH  39  40
ENDBRANCH   8  39
ENDBRANCH   6   8
ENDBRANCH   5   6
ENDBRANCH   4   5
ENDBRANCH   3   4
ENDBRANCH   2   3
ENDBRANCH   1   2
BRANCH   1  50
ATOM     50  C   UNL A   1      42.883  42.252  30.615  1.00  0.00     0.188 C 
BRANCH  50  51
ATOM     51  O   UNL A   1      43.899  41.412  30.123  1.00  0.00    -0.377 OA
BRANCH  51  52
ATOM     52  C   UNL A   1      43.573  40.297  29.338  1.00  0.00     0.188 C 
BRANCH  52  53
ATOM     53  C   UNL A   1      44.246  40.240  27.963  1.00  0.00     0.188 C 
BRANCH  53  54
ATOM     54  O   UNL A   1      43.576  39.565  26.919  1.00  0.00    -0.376 OA
BRANCH  54  55
ATOM     55  C   UNL A   1      42.633  38.582  27.349  1.00  0.00     0.202 C 
BRANCH  55  56
ATOM     56  C   UNL A   1      42.725  37.096  26.869  1.00  0.00     0.261 C 
BRANCH  56  57
ATOM     57  O   UNL A   1      43.577  36.166  27.595  1.00  0.00    -0.460 OA
BRANCH  57  58
ATOM     58  C   UNL A   1      44.936  36.187  27.397  1.00  0.00     0.338 C 
ATOM     59  O   UNL A   1      45.752  36.976  27.853  1.00  0.00    -0.246 OA
BRANCH  58  60
ATOM     60  C   UNL A   1      45.325  34.855  26.837  1.00  0.00     0.060 A 
ATOM     61  C   UNL A   1      44.607  34.208  25.835  1.00  0.00     0.016 A 
ATOM     62  C   UNL A   1      46.184  34.113  27.634  1.00  0.00     0.016 A 
ATOM     63  C   UNL A   1      44.440  32.820  25.903  1.00  0.00     0.010 A 
ATOM     64  C   UNL A   1      45.893  32.775  27.813  1.00  0.00     0.010 A 
ATOM     65  C   UNL A   1      44.889  32.168  27.052  1.00  0.00    -0.014 A 
BRANCH  65  66
ATOM     66  C   UNL A   1      44.082  31.127  27.748  1.00  0.00     0.031 A 
ATOM     67  C   UNL A   1      43.075  31.552  28.775  1.00  0.00     0.074 A 
ATOM     68  C   UNL A   1      44.110  29.897  27.164  1.00  0.00     0.049 A 
ATOM     69  N   UNL A   1      42.246  30.796  29.409  1.00  0.00    -0.248 NA
ATOM     70  C   UNL A   1      42.893  32.961  29.135  1.00  0.00     0.031 C 
ATOM     71  C   UNL A   1      43.287  28.709  27.364  1.00  0.00     0.029 A 
ATOM     72  N   UNL A   1      45.027  29.443  26.209  1.00  0.00    -0.354 N 
ATOM     73  C   UNL A   1      41.350  31.596  30.123  1.00  0.00     0.074 A 
ATOM     74  C   UNL A   1      41.791  32.941  29.888  1.00  0.00     0.031 C 
ATOM     75  C   UNL A   1      43.771  27.665  26.672  1.00  0.00     0.029 A 
ATOM     76  C   UNL A   1      45.091  28.047  26.282  1.00  0.00     0.049 A 
ATOM     77  H   UNL A   1      45.541  30.010  25.590  1.00  0.00     0.167 HD
ATOM     78  C   UNL A   1      40.325  31.034  30.840  1.00  0.00     0.037 A 
ATOM     79  C   UNL A   1      46.152  27.530  26.965  1.00  0.00     0.037 A 
ATOM     80  C   UNL A   1      40.629  29.602  31.037  1.00  0.00     0.049 A 
ATOM     81  C   UNL A   1      45.827  27.217  28.496  1.00  0.00     0.074 A 
ATOM     82  C   UNL A   1      40.006  28.395  30.793  1.00  0.00     0.029 A 
ATOM     83  N   UNL A   1      41.948  29.253  31.397  1.00  0.00    -0.354 N 
ATOM     84  N   UNL A   1      44.755  27.672  29.155  1.00  0.00    -0.248 NA
ATOM     85  C   UNL A   1      46.554  26.298  29.377  1.00  0.00     0.031 C 
ATOM     86  C   UNL A   1      41.045  27.398  30.696  1.00  0.00     0.029 A 
ATOM     87  C   UNL A   1      42.290  27.969  30.986  1.00  0.00     0.049 A 
ATOM     88  H   UNL A   1      42.558  29.853  31.885  1.00  0.00     0.167 HD
ATOM     89  C   UNL A   1      44.629  27.168  30.435  1.00  0.00     0.074 A 
ATOM     90  C   UNL A   1      45.801  26.294  30.503  1.00  0.00     0.031 C 
ATOM     91  C   UNL A   1      43.616  27.413  31.363  1.00  0.00     0.037 A 
BRANCH  78  92
ATOM     92  C   UNL A   1      39.038  31.780  31.299  1.00  0.00     0.058 A 
ATOM     93  C   UNL A   1      38.851  32.233  32.630  1.00  0.00     0.135 A 
ATOM     94  C   UNL A   1      37.879  31.960  30.495  1.00  0.00     0.135 A 
ATOM     95  F   UNL A   1      39.822  32.075  33.544  1.00  0.00    -0.206 F 
ATOM     96  C   UNL A   1      37.649  32.823  33.105  1.00  0.00     0.059 A 
ATOM     97  C   UNL A   1      36.685  32.565  30.935  1.00  0.00     0.059 A 
ATOM     98  F   UNL A   1      37.790  31.440  29.265  1.00  0.00    -0.206 F 
ATOM     99  C   UNL A   1      36.563  32.978  32.250  1.00  0.00     0.060 A 
BRANCH  99 100
ATOM    100  S   UNL A   1      34.985  33.694  32.798  1.00  0.00     0.124 S 
ATOM    101  O   UNL A   1      35.248  35.129  32.814  1.00  0.00    -0.237 OA
ATOM    102  O   UNL A   1      34.030  33.246  31.787  1.00  0.00    -0.237 OA
ATOM    103  O   UNL A   1      34.805  33.090  34.117  1.00  0.00    -0.744 OA
ENDBRANCH  99 100
ENDBRANCH  78  92
BRANCH  79 104
ATOM    104  C   UNL A   1      47.291  27.598  25.934  1.00  0.00     0.058 A 
ATOM    105  C   UNL A   1      48.362  28.459  26.329  1.00  0.00     0.135 A 
ATOM    106  C   UNL A   1      47.739  26.421  25.281  1.00  0.00     0.135 A 
ATOM    107  F   UNL A   1      48.066  29.620  26.935  1.00  0.00    -0.206 F 
ATOM    108  C   UNL A   1      49.720  28.070  26.336  1.00  0.00     0.059 A 
ATOM    109  C   UNL A   1      49.106  26.030  25.243  1.00  0.00     0.059 A 
ATOM    110  F   UNL A   1      46.842  25.553  24.788  1.00  0.00    -0.206 F 
ATOM    111  C   UNL A   1      50.084  26.832  25.828  1.00  0.00     0.060 A 
BRANCH 111 112
ATOM    112  S   UNL A   1      51.794  26.228  26.037  1.00  0.00     0.124 S 
ATOM    113  O   UNL A   1      52.206  26.906  27.260  1.00  0.00    -0.237 OA
ATOM    114  O   UNL A   1      51.627  24.782  26.148  1.00  0.00    -0.237 OA
ATOM    115  O   UNL A   1      52.453  26.684  24.818  1.00  0.00    -0.744 OA
ENDBRANCH 111 112
ENDBRANCH  79 104
BRANCH  91 116
ATOM    116  C   UNL A   1      43.755  27.181  32.886  1.00  0.00     0.058 A 
ATOM    117  C   UNL A   1      43.610  28.201  33.839  1.00  0.00     0.135 A 
ATOM    118  C   UNL A   1      43.775  25.862  33.437  1.00  0.00     0.135 A 
ATOM    119  F   UNL A   1      43.472  29.483  33.477  1.00  0.00    -0.206 F 
ATOM    120  C   UNL A   1      43.539  27.945  35.212  1.00  0.00     0.059 A 
ATOM    121  C   UNL A   1      43.606  25.582  34.789  1.00  0.00     0.059 A 
ATOM    122  F   UNL A   1      43.936  24.770  32.678  1.00  0.00    -0.206 F 
ATOM    123  C   UNL A   1      43.519  26.635  35.676  1.00  0.00     0.060 A 
BRANCH 123 124
ATOM    124  S   UNL A   1      43.343  26.315  37.438  1.00  0.00     0.124 S 
ATOM    125  O   UNL A   1      41.891  26.316  37.583  1.00  0.00    -0.237 OA
ATOM    126  O   UNL A   1      43.995  25.017  37.588  1.00  0.00    -0.237 OA
ATOM    127  O   UNL A   1      44.043  27.435  38.058  1.00  0.00    -0.744 OA
ENDBRANCH 123 124
ENDBRANCH  91 116
ENDBRANCH  65  66
ENDBRANCH  58  60
ENDBRANCH  57  58
ENDBRANCH  56  57
ENDBRANCH  55  56
ENDBRANCH  54  55
ENDBRANCH  53  54
ENDBRANCH  52  53
ENDBRANCH  51  52
ENDBRANCH  50  51
ENDBRANCH   1  50
TORSDOF 32
ENDMDL
MODEL 3
REMARK VINA RESULT:      -6.4      4.008      8.580
REMARK SMILES Cc1ccc(S(=O)(=O)n2cc(C(=O)C(=O)NCC(=O)N[C@@H](Cc3c[nH]c4ccccc34)C(=O)OCCOCCOCCOCCOC(=O)c3ccc(-c4c5nc(c(-c6c(F)cc(S(=O)(=O)[O-])cc6F)c6ccc([nH]6)c(-c6c(F)cc(S(=O)(=O)[O-])cc6F)c6nc(c(-c7c(F)cc(S(=O)(=O)[O-])cc7F)c7ccc4[nH]7)C=C6)C=C5)cc3)c3ccccc32)cc1
REMARK SMILES IDX 38 1 37 2 36 3 35 4 34 5 32 6 33 7 21 8 20 9 18 10 19 11
REMARK SMILES IDX 17 13 16 14 14 15 15 16 12 18 13 19 11 20 9 21 10 22 120 23
REMARK SMILES IDX 115 24 119 25 116 26 118 27 117 28 6 29 7 30 8 31 5 32 1 33
REMARK SMILES IDX 2 34 3 35 122 36 4 37 121 38 22 39 23 40 24 41 31 42 25 43
REMARK SMILES IDX 26 44 30 45 27 47 29 48 28 49 39 50 40 51 41 52 42 53 43 54
REMARK SMILES IDX 44 55 45 56 46 57 47 58 48 59 49 60 50 61 114 62 51 63
REMARK SMILES IDX 113 64 52 65 53 66 54 67 107 68 55 69 112 70 106 71 108 72
REMARK SMILES IDX 56 73 111 74 105 75 104 76 57 78 91 79 70 80 90 81 71 82
REMARK SMILES IDX 74 83 89 84 109 85 72 86 73 87 88 89 110 90 75 91 58 92
REMARK SMILES IDX 59 93 68 94 60 95 61 96 67 97 69 98 62 99 63 100 64 101
REMARK SMILES IDX 65 102 66 103 92 104 93 105 102 106 94 107 95 108 101 109
REMARK SMILES IDX 103 110 96 111 97 112 98 113 99 114 100 115 76 116 77 117
REMARK SMILES IDX 86 118 78 119 79 120 85 121 87 122 80 123 81 124 82 125
REMARK SMILES IDX 83 126 84 127
REMARK H PARENT 20 12 16 17 25 46 108 77 74 88
REMARK Flexibility Score: inf
ROOT
ATOM      1  C   UNL A   1      45.790  26.942  26.982  1.00  0.00     0.188 C 
ENDROOT
BRANCH   1   2
ATOM      2  O   UNL A   1      45.597  28.343  27.007  1.00  0.00    -0.376 OA
BRANCH   2   3
ATOM      3  C   UNL A   1      44.950  28.904  28.124  1.00  0.00     0.202 C 
BRANCH   3   4
ATOM      4  C   UNL A   1      45.549  30.199  28.611  1.00  0.00     0.261 C 
BRANCH   4   5
ATOM      5  O   UNL A   1      45.890  31.021  27.481  1.00  0.00    -0.462 OA
BRANCH   5   6
ATOM      6  C   UNL A   1      46.962  31.802  27.630  1.00  0.00     0.329 C 
ATOM      7  O   UNL A   1      47.934  31.545  28.352  1.00  0.00    -0.250 OA
BRANCH   6   8
ATOM      8  C   UNL A   1      46.883  33.105  26.864  1.00  0.00     0.196 C 
BRANCH   8   9
ATOM      9  N   UNL A   1      45.848  33.223  25.844  1.00  0.00    -0.341 N 
ATOM     10  C   UNL A   1      44.511  33.463  25.999  1.00  0.00     0.240 C 
ATOM     11  O   UNL A   1      43.822  33.483  24.975  1.00  0.00    -0.273 OA
ATOM     12  H   UNL A   1      46.154  33.116  24.915  1.00  0.00     0.164 HD
BRANCH  10  13
ATOM     13  C   UNL A   1      43.867  33.877  27.362  1.00  0.00     0.216 C 
BRANCH  13  14
ATOM     14  N   UNL A   1      43.257  32.832  28.182  1.00  0.00    -0.340 N 
ATOM     15  C   UNL A   1      43.044  32.719  29.554  1.00  0.00     0.292 C 
ATOM     16  O   UNL A   1      42.663  31.640  30.002  1.00  0.00    -0.265 OA
ATOM     17  H   UNL A   1      42.934  32.060  27.665  1.00  0.00     0.164 HD
BRANCH  15  18
ATOM     18  C   UNL A   1      43.228  33.916  30.495  1.00  0.00     0.252 C 
ATOM     19  O   UNL A   1      42.542  34.902  30.211  1.00  0.00    -0.283 OA
BRANCH  18  20
ATOM     20  C   UNL A   1      44.204  33.944  31.610  1.00  0.00     0.054 A 
ATOM     21  N   UNL A   1      46.057  33.760  32.922  1.00  0.00    -0.240 N 
ATOM     22  C   UNL A   1      45.374  33.197  31.840  1.00  0.00     0.117 A 
ATOM     23  C   UNL A   1      45.356  34.925  33.289  1.00  0.00     0.065 A 
ATOM     24  C   UNL A   1      44.087  34.832  32.730  1.00  0.00     0.012 A 
ATOM     25  C   UNL A   1      45.655  35.922  34.238  1.00  0.00     0.028 A 
ATOM     26  C   UNL A   1      43.068  35.655  33.269  1.00  0.00     0.011 A 
ATOM     27  C   UNL A   1      44.637  36.690  34.786  1.00  0.00     0.002 A 
ATOM     28  C   UNL A   1      43.344  36.539  34.325  1.00  0.00     0.001 A 
BRANCH  21  29
ATOM     29  S   UNL A   1      46.630  32.922  34.335  1.00  0.00     0.268 S 
ATOM     30  O   UNL A   1      45.462  32.994  35.203  1.00  0.00    -0.201 OA
ATOM     31  O   UNL A   1      47.847  33.665  34.605  1.00  0.00    -0.201 OA
BRANCH  29  32
ATOM     32  C   UNL A   1      47.268  31.303  34.585  1.00  0.00     0.088 A 
ATOM     33  C   UNL A   1      47.069  27.228  36.016  1.00  0.00     0.044 C 
ATOM     34  C   UNL A   1      47.252  28.596  35.422  1.00  0.00    -0.051 A 
ATOM     35  C   UNL A   1      46.200  29.086  34.669  1.00  0.00     0.005 A 
ATOM     36  C   UNL A   1      48.341  29.453  35.705  1.00  0.00     0.005 A 
ATOM     37  C   UNL A   1      46.240  30.392  34.227  1.00  0.00     0.022 A 
ATOM     38  C   UNL A   1      48.349  30.827  35.312  1.00  0.00     0.022 A 
ENDBRANCH  29  32
ENDBRANCH  21  29
ENDBRANCH  18  20
ENDBRANCH  15  18
ENDBRANCH  13  14
ENDBRANCH  10  13
ENDBRANCH   8   9
BRANCH   8  39
ATOM     39  C   UNL A   1      47.060  34.296  27.807  1.00  0.00     0.074 C 
BRANCH  39  40
ATOM     40  C   UNL A   1      46.838  35.679  27.296  1.00  0.00    -0.020 A 
ATOM     41  C   UNL A   1      46.928  36.126  25.999  1.00  0.00     0.087 A 
ATOM     42  C   UNL A   1      46.358  36.785  28.069  1.00  0.00     0.003 A 
ATOM     43  N   UNL A   1      46.531  37.436  25.953  1.00  0.00    -0.361 N 
ATOM     44  C   UNL A   1      46.195  37.872  27.210  1.00  0.00     0.046 A 
ATOM     45  C   UNL A   1      46.023  36.950  29.428  1.00  0.00     0.010 A 
ATOM     46  H   UNL A   1      46.493  37.986  25.137  1.00  0.00     0.166 HD
ATOM     47  C   UNL A   1      45.746  39.124  27.646  1.00  0.00     0.026 A 
ATOM     48  C   UNL A   1      45.562  38.188  29.881  1.00  0.00     0.001 A 
ATOM     49  C   UNL A   1      45.435  39.260  29.002  1.00  0.00     0.002 A 
ENDBRANCH  39  40
ENDBRANCH   8  39
ENDBRANCH   6   8
ENDBRANCH   5   6
ENDBRANCH   4   5
ENDBRANCH   3   4
ENDBRANCH   2   3
ENDBRANCH   1   2
BRANCH   1  50
ATOM     50  C   UNL A   1      46.118  26.254  25.661  1.00  0.00     0.188 C 
BRANCH  50  51
ATOM     51  O   UNL A   1      45.166  25.383  25.101  1.00  0.00    -0.377 OA
BRANCH  51  52
ATOM     52  C   UNL A   1      44.069  24.954  25.864  1.00  0.00     0.188 C 
BRANCH  52  53
ATOM     53  C   UNL A   1      42.698  25.419  25.365  1.00  0.00     0.188 C 
BRANCH  53  54
ATOM     54  O   UNL A   1      42.536  26.782  25.032  1.00  0.00    -0.376 OA
BRANCH  54  55
ATOM     55  C   UNL A   1      42.093  27.613  26.107  1.00  0.00     0.202 C 
BRANCH  55  56
ATOM     56  C   UNL A   1      40.573  27.883  26.357  1.00  0.00     0.261 C 
BRANCH  56  57
ATOM     57  O   UNL A   1      39.994  27.542  27.649  1.00  0.00    -0.460 OA
BRANCH  57  58
ATOM     58  C   UNL A   1      39.620  28.541  28.514  1.00  0.00     0.338 C 
ATOM     59  O   UNL A   1      38.938  29.528  28.276  1.00  0.00    -0.246 OA
BRANCH  58  60
ATOM     60  C   UNL A   1      39.858  28.040  29.903  1.00  0.00     0.060 A 
ATOM     61  C   UNL A   1      38.870  28.006  30.884  1.00  0.00     0.016 A 
ATOM     62  C   UNL A   1      41.189  27.997  30.290  1.00  0.00     0.016 A 
ATOM     63  C   UNL A   1      39.204  28.337  32.201  1.00  0.00     0.010 A 
ATOM     64  C   UNL A   1      41.507  28.488  31.541  1.00  0.00     0.010 A 
ATOM     65  C   UNL A   1      40.491  28.820  32.442  1.00  0.00    -0.014 A 
BRANCH  65  66
ATOM     66  C   UNL A   1      40.753  29.999  33.314  1.00  0.00     0.031 A 
ATOM     67  C   UNL A   1      41.558  29.815  34.566  1.00  0.00     0.074 A 
ATOM     68  C   UNL A   1      40.499  31.206  32.736  1.00  0.00     0.049 A 
ATOM     69  N   UNL A   1      41.941  30.733  35.384  1.00  0.00    -0.248 NA
ATOM     70  C   UNL A   1      42.062  28.498  34.968  1.00  0.00     0.031 C 
ATOM     71  C   UNL A   1      40.853  32.565  33.131  1.00  0.00     0.029 A 
ATOM     72  N   UNL A   1      39.751  31.439  31.576  1.00  0.00    -0.354 N 
ATOM     73  C   UNL A   1      42.834  30.180  36.307  1.00  0.00     0.074 A 
ATOM     74  C   UNL A   1      42.889  28.786  35.976  1.00  0.00     0.031 C 
ATOM     75  C   UNL A   1      40.262  33.468  32.333  1.00  0.00     0.029 A 
ATOM     76  C   UNL A   1      39.255  32.747  31.622  1.00  0.00     0.049 A 
ATOM     77  H   UNL A   1      39.598  30.793  30.851  1.00  0.00     0.167 HD
ATOM     78  C   UNL A   1      43.436  30.964  37.258  1.00  0.00     0.037 A 
ATOM     79  C   UNL A   1      37.954  32.882  32.011  1.00  0.00     0.037 A 
ATOM     80  C   UNL A   1      42.678  32.228  37.363  1.00  0.00     0.049 A 
ATOM     81  C   UNL A   1      37.788  33.167  33.574  1.00  0.00     0.074 A 
ATOM     82  C   UNL A   1      42.950  33.578  37.278  1.00  0.00     0.029 A 
ATOM     83  N   UNL A   1      41.269  32.150  37.375  1.00  0.00    -0.354 N 
ATOM     84  N   UNL A   1      38.752  32.999  34.485  1.00  0.00    -0.248 NA
ATOM     85  C   UNL A   1      36.626  33.769  34.235  1.00  0.00     0.031 C 
ATOM     86  C   UNL A   1      41.716  34.234  36.915  1.00  0.00     0.029 A 
ATOM     87  C   UNL A   1      40.668  33.305  36.884  1.00  0.00     0.049 A 
ATOM     88  H   UNL A   1      40.768  31.365  37.695  1.00  0.00     0.167 HD
ATOM     89  C   UNL A   1      38.405  33.425  35.752  1.00  0.00     0.074 A 
ATOM     90  C   UNL A   1      37.046  33.912  35.515  1.00  0.00     0.031 C 
ATOM     91  C   UNL A   1      39.187  33.421  36.908  1.00  0.00     0.037 A 
BRANCH  78  92
ATOM     92  C   UNL A   1      44.735  30.596  38.033  1.00  0.00     0.058 A 
ATOM     93  C   UNL A   1      45.108  29.255  38.306  1.00  0.00     0.135 A 
ATOM     94  C   UNL A   1      45.596  31.538  38.660  1.00  0.00     0.135 A 
ATOM     95  F   UNL A   1      44.362  28.237  37.849  1.00  0.00    -0.206 F 
ATOM     96  C   UNL A   1      46.230  28.890  39.097  1.00  0.00     0.059 A 
ATOM     97  C   UNL A   1      46.728  31.203  39.428  1.00  0.00     0.059 A 
ATOM     98  F   UNL A   1      45.314  32.847  38.672  1.00  0.00    -0.206 F 
ATOM     99  C   UNL A   1      47.033  29.874  39.665  1.00  0.00     0.060 A 
BRANCH  99 100
ATOM    100  S   UNL A   1      48.463  29.480  40.714  1.00  0.00     0.124 S 
ATOM    101  O   UNL A   1      48.548  30.622  41.618  1.00  0.00    -0.237 OA
ATOM    102  O   UNL A   1      48.095  28.213  41.342  1.00  0.00    -0.237 OA
ATOM    103  O   UNL A   1      49.552  29.386  39.743  1.00  0.00    -0.744 OA
ENDBRANCH  99 100
ENDBRANCH  78  92
BRANCH  79 104
ATOM    104  C   UNL A   1      37.176  32.558  30.725  1.00  0.00     0.058 A 
ATOM    105  C   UNL A   1      35.822  32.165  30.966  1.00  0.00     0.135 A 
ATOM    106  C   UNL A   1      37.318  33.377  29.575  1.00  0.00     0.135 A 
ATOM    107  F   UNL A   1      35.560  31.365  32.014  1.00  0.00    -0.206 F 
ATOM    108  C   UNL A   1      34.709  32.743  30.318  1.00  0.00     0.059 A 
ATOM    109  C   UNL A   1      36.209  33.939  28.885  1.00  0.00     0.059 A 
ATOM    110  F   UNL A   1      38.541  33.762  29.183  1.00  0.00    -0.206 F 
ATOM    111  C   UNL A   1      34.908  33.666  29.301  1.00  0.00     0.060 A 
BRANCH 111 112
ATOM    112  S   UNL A   1      33.488  34.585  28.615  1.00  0.00     0.124 S 
ATOM    113  O   UNL A   1      34.084  35.879  28.309  1.00  0.00    -0.237 OA
ATOM    114  O   UNL A   1      33.100  33.784  27.456  1.00  0.00    -0.237 OA
ATOM    115  O   UNL A   1      32.533  34.581  29.717  1.00  0.00    -0.744 OA
ENDBRANCH 111 112
ENDBRANCH  79 104
BRANCH  91 116
ATOM    116  C   UNL A   1      38.617  33.493  38.345  1.00  0.00     0.058 A 
ATOM    117  C   UNL A   1      37.931  32.434  38.957  1.00  0.00     0.135 A 
ATOM    118  C   UNL A   1      38.988  34.547  39.238  1.00  0.00     0.135 A 
ATOM    119  F   UNL A   1      37.604  31.327  38.280  1.00  0.00    -0.206 F 
ATOM    120  C   UNL A   1      37.600  32.436  40.316  1.00  0.00     0.059 A 
ATOM    121  C   UNL A   1      38.755  34.521  40.609  1.00  0.00     0.059 A 
ATOM    122  F   UNL A   1      39.623  35.650  38.822  1.00  0.00    -0.206 F 
ATOM    123  C   UNL A   1      38.030  33.473  41.137  1.00  0.00     0.060 A 
BRANCH 123 124
ATOM    124  S   UNL A   1      37.670  33.425  42.899  1.00  0.00     0.124 S 
ATOM    125  O   UNL A   1      36.593  34.405  42.995  1.00  0.00    -0.237 OA
ATOM    126  O   UNL A   1      37.279  32.032  43.102  1.00  0.00    -0.237 OA
ATOM    127  O   UNL A   1      38.935  33.810  43.515  1.00  0.00    -0.744 OA
ENDBRANCH 123 124
ENDBRANCH  91 116
ENDBRANCH  65  66
ENDBRANCH  58  60
ENDBRANCH  57  58
ENDBRANCH  56  57
ENDBRANCH  55  56
ENDBRANCH  54  55
ENDBRANCH  53  54
ENDBRANCH  52  53
ENDBRANCH  51  52
ENDBRANCH  50  51
ENDBRANCH   1  50
TORSDOF 32
ENDMDL
