MODEL 1
REMARK VINA RESULT:      -8.2      0.000      0.000
REMARK SMILES CC1(C)Oc2ccc(NC(=O)[C@H]3CC=CC[C@@H]3C(=O)OCCOCCOCCOCCOC(=O)c3ccc(-c4c5nc(c(-c6c(F)cc(S(=O)(=O)[O-])cc6F)c6ccc([nH]6)c(-c6c(F)cc(S(=O)(=O)[O-])cc6F)c6nc(c(-c7c(F)cc(S(=O)(=O)[O-])cc7F)c7ccc4[nH]7)C=C6)C=C5)cc3)cc2NC1=O
REMARK SMILES IDX 27 1 26 2 25 3 24 4 23 5 22 6 21 7 20 8 18 9 19 10 17 11
REMARK SMILES IDX 12 12 13 13 14 14 16 15 15 16 10 17 9 18 11 20 8 21 1 22
REMARK SMILES IDX 2 23 3 24 4 25 104 26 5 27 103 28 105 29 6 30 102 31 7 33
REMARK SMILES IDX 101 34 28 35 29 36 30 37 31 38 32 39 33 40 34 41 35 42 36 43
REMARK SMILES IDX 100 44 37 45 99 46 38 47 39 48 40 49 93 50 41 51 98 52 92 53
REMARK SMILES IDX 94 54 42 55 97 56 91 57 90 58 43 60 77 61 56 62 76 63 57 64
REMARK SMILES IDX 60 65 75 66 95 67 58 68 59 69 74 71 96 72 61 73 44 74 45 75
REMARK SMILES IDX 54 76 46 77 47 78 53 79 55 80 48 81 49 82 50 83 51 84 52 85
REMARK SMILES IDX 78 86 79 87 88 88 80 89 81 90 87 91 89 92 82 93 83 94 84 95
REMARK SMILES IDX 85 96 86 97 62 98 63 99 72 100 64 101 65 102 71 103 73 104
REMARK SMILES IDX 66 105 67 106 68 107 69 108 70 109
REMARK H PARENT 9 19 103 32 94 59 60 70
REMARK Flexibility Score: inf
ROOT
ATOM      1  C   UNL A   1      33.253  25.670  25.460  1.00  0.00     0.188 C 
ENDROOT
BRANCH   1   2
ATOM      2  O   UNL A   1      34.669  25.567  25.432  1.00  0.00    -0.377 OA
BRANCH   2   3
ATOM      3  C   UNL A   1      35.117  24.222  25.511  1.00  0.00     0.188 C 
BRANCH   3   4
ATOM      4  C   UNL A   1      36.210  23.894  24.479  1.00  0.00     0.188 C 
BRANCH   4   5
ATOM      5  O   UNL A   1      37.331  23.262  25.089  1.00  0.00    -0.376 OA
BRANCH   5   6
ATOM      6  C   UNL A   1      37.564  23.490  26.472  1.00  0.00     0.202 C 
BRANCH   6   7
ATOM      7  C   UNL A   1      38.579  24.584  26.842  1.00  0.00     0.261 C 
BRANCH   7   8
ATOM      8  O   UNL A   1      39.963  24.291  26.567  1.00  0.00    -0.463 OA
BRANCH   8   9
ATOM      9  C   UNL A   1      40.891  24.575  27.516  1.00  0.00     0.310 C 
ATOM     10  O   UNL A   1      41.310  23.761  28.327  1.00  0.00    -0.252 OA
BRANCH   9  11
ATOM     11  C   UNL A   1      41.448  25.989  27.303  1.00  0.00     0.116 C 
ATOM     12  C   UNL A   1      41.558  26.316  25.797  1.00  0.00     0.097 C 
ATOM     13  C   UNL A   1      42.568  25.336  25.131  1.00  0.00     0.041 C 
ATOM     14  C   UNL A   1      43.738  24.958  26.007  1.00  0.00    -0.030 C 
ATOM     15  C   UNL A   1      42.800  26.101  28.014  1.00  0.00     0.043 C 
ATOM     16  C   UNL A   1      43.859  25.327  27.292  1.00  0.00    -0.030 C 
BRANCH  12  17
ATOM     17  C   UNL A   1      41.997  27.765  25.531  1.00  0.00     0.228 C 
ATOM     18  N   UNL A   1      41.703  28.844  26.307  1.00  0.00    -0.326 N 
ATOM     19  H   UNL A   1      42.213  29.635  26.017  1.00  0.00     0.169 HD
ATOM     20  O   UNL A   1      42.714  28.038  24.558  1.00  0.00    -0.274 OA
BRANCH  18  21
ATOM     21  C   UNL A   1      40.882  29.147  27.401  1.00  0.00     0.043 A 
ATOM     22  C   UNL A   1      38.613  29.694  33.332  1.00  0.00     0.067 C 
ATOM     23  C   UNL A   1      39.511  29.344  32.139  1.00  0.00     0.182 C 
ATOM     24  C   UNL A   1      39.932  27.863  32.281  1.00  0.00     0.067 C 
ATOM     25  O   UNL A   1      38.723  29.542  30.946  1.00  0.00    -0.476 OA
ATOM     26  C   UNL A   1      40.800  30.196  32.138  1.00  0.00     0.268 C 
ATOM     27  C   UNL A   1      39.456  29.530  29.788  1.00  0.00     0.144 A 
ATOM     28  N   UNL A   1      41.470  30.176  30.932  1.00  0.00    -0.319 N 
ATOM     29  O   UNL A   1      41.275  30.758  33.120  1.00  0.00    -0.270 OA
ATOM     30  C   UNL A   1      38.781  29.311  28.592  1.00  0.00     0.051 A 
ATOM     31  C   UNL A   1      40.830  29.744  29.766  1.00  0.00     0.086 A 
ATOM     32  H   UNL A   1      42.409  30.469  30.893  1.00  0.00     0.170 HD
ATOM     33  C   UNL A   1      39.492  29.107  27.398  1.00  0.00     0.030 A 
ATOM     34  C   UNL A   1      41.541  29.557  28.579  1.00  0.00     0.056 A 
ENDBRANCH  18  21
ENDBRANCH  12  17
ENDBRANCH   9  11
ENDBRANCH   8   9
ENDBRANCH   7   8
ENDBRANCH   6   7
ENDBRANCH   5   6
ENDBRANCH   4   5
ENDBRANCH   3   4
ENDBRANCH   2   3
ENDBRANCH   1   2
BRANCH   1  35
ATOM     35  C   UNL A   1      32.712  27.052  25.879  1.00  0.00     0.188 C 
BRANCH  35  36
ATOM     36  O   UNL A   1      33.555  28.166  26.127  1.00  0.00    -0.376 OA
BRANCH  36  37
ATOM     37  C   UNL A   1      33.131  29.496  25.897  1.00  0.00     0.202 C 
BRANCH  37  38
ATOM     38  C   UNL A   1      32.989  30.541  27.009  1.00  0.00     0.261 C 
BRANCH  38  39
ATOM     39  O   UNL A   1      34.157  31.261  27.380  1.00  0.00    -0.460 OA
BRANCH  39  40
ATOM     40  C   UNL A   1      33.952  32.448  27.991  1.00  0.00     0.338 C 
ATOM     41  O   UNL A   1      32.989  33.186  27.882  1.00  0.00    -0.246 OA
BRANCH  40  42
ATOM     42  C   UNL A   1      35.027  32.588  28.992  1.00  0.00     0.060 A 
ATOM     43  C   UNL A   1      35.524  31.468  29.664  1.00  0.00     0.016 A 
ATOM     44  C   UNL A   1      35.455  33.878  29.334  1.00  0.00     0.016 A 
ATOM     45  C   UNL A   1      36.471  31.638  30.671  1.00  0.00     0.010 A 
ATOM     46  C   UNL A   1      36.375  34.049  30.363  1.00  0.00     0.010 A 
ATOM     47  C   UNL A   1      36.911  32.929  31.013  1.00  0.00    -0.014 A 
BRANCH  47  48
ATOM     48  C   UNL A   1      38.115  33.099  31.851  1.00  0.00     0.031 A 
ATOM     49  C   UNL A   1      38.062  33.095  33.344  1.00  0.00     0.074 A 
ATOM     50  C   UNL A   1      39.271  33.311  31.194  1.00  0.00     0.049 A 
ATOM     51  N   UNL A   1      39.047  33.228  34.194  1.00  0.00    -0.248 NA
ATOM     52  C   UNL A   1      36.741  32.930  33.968  1.00  0.00     0.031 C 
ATOM     53  C   UNL A   1      39.403  33.360  29.735  1.00  0.00     0.029 A 
ATOM     54  N   UNL A   1      40.540  33.531  31.653  1.00  0.00    -0.354 N 
ATOM     55  C   UNL A   1      38.478  33.139  35.457  1.00  0.00     0.074 A 
ATOM     56  C   UNL A   1      37.048  32.985  35.260  1.00  0.00     0.031 C 
ATOM     57  C   UNL A   1      40.686  33.583  29.418  1.00  0.00     0.029 A 
ATOM     58  C   UNL A   1      41.457  33.719  30.649  1.00  0.00     0.049 A 
ATOM     59  H   UNL A   1      40.773  33.553  32.609  1.00  0.00     0.167 HD
ATOM     60  C   UNL A   1      39.102  33.171  36.659  1.00  0.00     0.037 A 
ATOM     61  C   UNL A   1      42.775  33.974  30.710  1.00  0.00     0.037 A 
ATOM     62  C   UNL A   1      40.524  33.357  36.823  1.00  0.00     0.049 A 
ATOM     63  C   UNL A   1      43.429  34.050  32.057  1.00  0.00     0.074 A 
ATOM     64  C   UNL A   1      41.260  33.380  37.995  1.00  0.00     0.029 A 
ATOM     65  N   UNL A   1      41.425  33.568  35.787  1.00  0.00    -0.354 N 
ATOM     66  N   UNL A   1      42.888  33.902  33.242  1.00  0.00    -0.248 NA
ATOM     67  C   UNL A   1      44.871  34.319  32.076  1.00  0.00     0.031 C 
ATOM     68  C   UNL A   1      42.593  33.653  37.673  1.00  0.00     0.029 A 
ATOM     69  C   UNL A   1      42.703  33.747  36.295  1.00  0.00     0.049 A 
ATOM     70  H   UNL A   1      41.191  33.587  34.831  1.00  0.00     0.167 HD
ATOM     71  C   UNL A   1      43.928  34.040  34.153  1.00  0.00     0.074 A 
ATOM     72  C   UNL A   1      45.132  34.266  33.376  1.00  0.00     0.031 C 
ATOM     73  C   UNL A   1      43.889  33.984  35.506  1.00  0.00     0.037 A 
BRANCH  60  74
ATOM     74  C   UNL A   1      38.262  32.995  37.897  1.00  0.00     0.058 A 
ATOM     75  C   UNL A   1      37.658  31.765  38.201  1.00  0.00     0.135 A 
ATOM     76  C   UNL A   1      38.123  34.037  38.828  1.00  0.00     0.135 A 
ATOM     77  F   UNL A   1      37.750  30.736  37.342  1.00  0.00    -0.206 F 
ATOM     78  C   UNL A   1      36.933  31.578  39.373  1.00  0.00     0.059 A 
ATOM     79  C   UNL A   1      37.421  33.866  40.021  1.00  0.00     0.059 A 
ATOM     80  F   UNL A   1      38.681  35.234  38.592  1.00  0.00    -0.206 F 
ATOM     81  C   UNL A   1      36.822  32.634  40.278  1.00  0.00     0.060 A 
BRANCH  81  82
ATOM     82  S   UNL A   1      35.880  32.368  41.795  1.00  0.00     0.124 S 
ATOM     83  O   UNL A   1      35.526  33.736  42.161  1.00  0.00    -0.237 OA
ATOM     84  O   UNL A   1      34.777  31.531  41.333  1.00  0.00    -0.237 OA
ATOM     85  O   UNL A   1      36.836  31.710  42.681  1.00  0.00    -0.744 OA
ENDBRANCH  81  82
ENDBRANCH  60  74
BRANCH  61  86
ATOM     86  C   UNL A   1      43.546  34.125  29.452  1.00  0.00     0.058 A 
ATOM     87  C   UNL A   1      43.869  35.398  28.962  1.00  0.00     0.135 A 
ATOM     88  C   UNL A   1      44.032  33.008  28.754  1.00  0.00     0.135 A 
ATOM     89  F   UNL A   1      43.430  36.494  29.599  1.00  0.00    -0.206 F 
ATOM     90  C   UNL A   1      44.640  35.560  27.816  1.00  0.00     0.059 A 
ATOM     91  C   UNL A   1      44.827  33.145  27.621  1.00  0.00     0.059 A 
ATOM     92  F   UNL A   1      43.771  31.770  29.202  1.00  0.00    -0.206 F 
ATOM     93  C   UNL A   1      45.119  34.427  27.157  1.00  0.00     0.060 A 
BRANCH  93  94
ATOM     94  S   UNL A   1      46.166  34.656  25.704  1.00  0.00     0.124 S 
ATOM     95  O   UNL A   1      46.482  36.077  25.792  1.00  0.00    -0.237 OA
ATOM     96  O   UNL A   1      47.269  33.738  25.976  1.00  0.00    -0.237 OA
ATOM     97  O   UNL A   1      45.296  34.269  24.598  1.00  0.00    -0.744 OA
ENDBRANCH  93  94
ENDBRANCH  61  86
BRANCH  73  98
ATOM     98  C   UNL A   1      45.192  34.162  36.236  1.00  0.00     0.058 A 
ATOM     99  C   UNL A   1      45.606  35.419  36.705  1.00  0.00     0.135 A 
ATOM    100  C   UNL A   1      46.015  33.057  36.507  1.00  0.00     0.135 A 
ATOM    101  F   UNL A   1      44.861  36.509  36.463  1.00  0.00    -0.206 F 
ATOM    102  C   UNL A   1      46.801  35.578  37.398  1.00  0.00     0.059 A 
ATOM    103  C   UNL A   1      47.199  33.188  37.225  1.00  0.00     0.059 A 
ATOM    104  F   UNL A   1      45.663  31.831  36.087  1.00  0.00    -0.206 F 
ATOM    105  C   UNL A   1      47.589  34.455  37.657  1.00  0.00     0.060 A 
BRANCH 105 106
ATOM    106  S   UNL A   1      49.119  34.674  38.589  1.00  0.00     0.124 S 
ATOM    107  O   UNL A   1      49.166  36.125  38.740  1.00  0.00    -0.237 OA
ATOM    108  O   UNL A   1      48.851  33.918  39.808  1.00  0.00    -0.237 OA
ATOM    109  O   UNL A   1      50.137  34.102  37.713  1.00  0.00    -0.744 OA
ENDBRANCH 105 106
ENDBRANCH  73  98
ENDBRANCH  47  48
ENDBRANCH  40  42
ENDBRANCH  39  40
ENDBRANCH  38  39
ENDBRANCH  37  38
ENDBRANCH  36  37
ENDBRANCH  35  36
ENDBRANCH   1  35
TORSDOF 25
ENDMDL
MODEL 2
REMARK VINA RESULT:      -7.9      4.902     12.207
REMARK SMILES CC1(C)Oc2ccc(NC(=O)[C@H]3CC=CC[C@@H]3C(=O)OCCOCCOCCOCCOC(=O)c3ccc(-c4c5nc(c(-c6c(F)cc(S(=O)(=O)[O-])cc6F)c6ccc([nH]6)c(-c6c(F)cc(S(=O)(=O)[O-])cc6F)c6nc(c(-c7c(F)cc(S(=O)(=O)[O-])cc7F)c7ccc4[nH]7)C=C6)C=C5)cc3)cc2NC1=O
REMARK SMILES IDX 27 1 26 2 25 3 24 4 23 5 22 6 21 7 20 8 18 9 19 10 17 11
REMARK SMILES IDX 12 12 13 13 14 14 16 15 15 16 10 17 9 18 11 20 8 21 1 22
REMARK SMILES IDX 2 23 3 24 4 25 104 26 5 27 103 28 105 29 6 30 102 31 7 33
REMARK SMILES IDX 101 34 28 35 29 36 30 37 31 38 32 39 33 40 34 41 35 42 36 43
REMARK SMILES IDX 100 44 37 45 99 46 38 47 39 48 40 49 93 50 41 51 98 52 92 53
REMARK SMILES IDX 94 54 42 55 97 56 91 57 90 58 43 60 77 61 56 62 76 63 57 64
REMARK SMILES IDX 60 65 75 66 95 67 58 68 59 69 74 71 96 72 61 73 44 74 45 75
REMARK SMILES IDX 54 76 46 77 47 78 53 79 55 80 48 81 49 82 50 83 51 84 52 85
REMARK SMILES IDX 78 86 79 87 88 88 80 89 81 90 87 91 89 92 82 93 83 94 84 95
REMARK SMILES IDX 85 96 86 97 62 98 63 99 72 100 64 101 65 102 71 103 73 104
REMARK SMILES IDX 66 105 67 106 68 107 69 108 70 109
REMARK H PARENT 9 19 103 32 94 59 60 70
REMARK Flexibility Score: inf
ROOT
ATOM      1  C   UNL A   1      32.879  35.590  29.667  1.00  0.00     0.188 C 
ENDROOT
BRANCH   1   2
ATOM      2  O   UNL A   1      33.126  34.985  30.927  1.00  0.00    -0.377 OA
BRANCH   2   3
ATOM      3  C   UNL A   1      33.875  35.824  31.794  1.00  0.00     0.188 C 
BRANCH   3   4
ATOM      4  C   UNL A   1      35.156  35.151  32.318  1.00  0.00     0.188 C 
BRANCH   4   5
ATOM      5  O   UNL A   1      35.344  35.397  33.708  1.00  0.00    -0.376 OA
BRANCH   5   6
ATOM      6  C   UNL A   1      35.359  34.286  34.593  1.00  0.00     0.202 C 
BRANCH   6   7
ATOM      7  C   UNL A   1      36.251  33.094  34.209  1.00  0.00     0.261 C 
BRANCH   7   8
ATOM      8  O   UNL A   1      37.510  32.988  34.903  1.00  0.00    -0.463 OA
BRANCH   8   9
ATOM      9  C   UNL A   1      38.652  32.917  34.174  1.00  0.00     0.310 C 
ATOM     10  O   UNL A   1      38.697  33.045  32.959  1.00  0.00    -0.252 OA
BRANCH   9  11
ATOM     11  C   UNL A   1      39.869  32.835  35.107  1.00  0.00     0.116 C 
ATOM     12  C   UNL A   1      39.596  33.579  36.434  1.00  0.00     0.097 C 
ATOM     13  C   UNL A   1      39.366  35.090  36.137  1.00  0.00     0.041 C 
ATOM     14  C   UNL A   1      40.209  35.639  35.011  1.00  0.00    -0.030 C 
ATOM     15  C   UNL A   1      41.093  33.396  34.376  1.00  0.00     0.043 C 
ATOM     16  C   UNL A   1      41.009  34.885  34.240  1.00  0.00    -0.030 C 
BRANCH  12  17
ATOM     17  C   UNL A   1      40.739  33.423  37.450  1.00  0.00     0.228 C 
ATOM     18  N   UNL A   1      40.906  34.157  38.584  1.00  0.00    -0.326 N 
ATOM     19  H   UNL A   1      41.621  33.779  39.145  1.00  0.00     0.169 HD
ATOM     20  O   UNL A   1      41.599  32.543  37.301  1.00  0.00    -0.274 OA
BRANCH  18  21
ATOM     21  C   UNL A   1      40.349  35.297  39.177  1.00  0.00     0.043 A 
ATOM     22  C   UNL A   1      39.665  40.768  42.377  1.00  0.00     0.067 C 
ATOM     23  C   UNL A   1      40.280  39.514  41.743  1.00  0.00     0.182 C 
ATOM     24  C   UNL A   1      41.171  38.833  42.809  1.00  0.00     0.067 C 
ATOM     25  O   UNL A   1      39.187  38.653  41.363  1.00  0.00    -0.476 OA
ATOM     26  C   UNL A   1      41.185  39.878  40.544  1.00  0.00     0.268 C 
ATOM     27  C   UNL A   1      39.554  37.617  40.545  1.00  0.00     0.144 A 
ATOM     28  N   UNL A   1      41.486  38.800  39.737  1.00  0.00    -0.319 N 
ATOM     29  O   UNL A   1      41.698  40.976  40.355  1.00  0.00    -0.270 OA
ATOM     30  C   UNL A   1      38.694  36.527  40.446  1.00  0.00     0.051 A 
ATOM     31  C   UNL A   1      40.733  37.622  39.807  1.00  0.00     0.086 A 
ATOM     32  H   UNL A   1      42.239  38.860  39.105  1.00  0.00     0.170 HD
ATOM     33  C   UNL A   1      39.094  35.361  39.773  1.00  0.00     0.030 A 
ATOM     34  C   UNL A   1      41.128  36.471  39.123  1.00  0.00     0.056 A 
ENDBRANCH  18  21
ENDBRANCH  12  17
ENDBRANCH   9  11
ENDBRANCH   8   9
ENDBRANCH   7   8
ENDBRANCH   6   7
ENDBRANCH   5   6
ENDBRANCH   4   5
ENDBRANCH   3   4
ENDBRANCH   2   3
ENDBRANCH   1   2
BRANCH   1  35
ATOM     35  C   UNL A   1      33.439  34.817  28.456  1.00  0.00     0.188 C 
BRANCH  35  36
ATOM     36  O   UNL A   1      34.315  33.708  28.589  1.00  0.00    -0.376 OA
BRANCH  36  37
ATOM     37  C   UNL A   1      35.693  33.867  28.865  1.00  0.00     0.202 C 
BRANCH  37  38
ATOM     38  C   UNL A   1      36.507  32.872  29.700  1.00  0.00     0.261 C 
BRANCH  38  39
ATOM     39  O   UNL A   1      35.963  31.570  29.875  1.00  0.00    -0.460 OA
BRANCH  39  40
ATOM     40  C   UNL A   1      36.484  30.841  30.885  1.00  0.00     0.338 C 
ATOM     41  O   UNL A   1      35.933  30.495  31.916  1.00  0.00    -0.246 OA
BRANCH  40  42
ATOM     42  C   UNL A   1      37.793  30.353  30.411  1.00  0.00     0.060 A 
ATOM     43  C   UNL A   1      38.047  30.214  29.043  1.00  0.00     0.016 A 
ATOM     44  C   UNL A   1      38.729  29.925  31.361  1.00  0.00     0.016 A 
ATOM     45  C   UNL A   1      39.256  29.663  28.624  1.00  0.00     0.010 A 
ATOM     46  C   UNL A   1      39.921  29.343  30.942  1.00  0.00     0.010 A 
ATOM     47  C   UNL A   1      40.203  29.240  29.573  1.00  0.00    -0.014 A 
BRANCH  47  48
ATOM     48  C   UNL A   1      41.586  28.941  29.150  1.00  0.00     0.031 A 
ATOM     49  C   UNL A   1      42.666  29.974  29.143  1.00  0.00     0.074 A 
ATOM     50  C   UNL A   1      41.817  27.687  28.716  1.00  0.00     0.049 A 
ATOM     51  N   UNL A   1      43.921  29.837  28.801  1.00  0.00    -0.248 NA
ATOM     52  C   UNL A   1      42.297  31.333  29.564  1.00  0.00     0.031 C 
ATOM     53  C   UNL A   1      40.807  26.626  28.663  1.00  0.00     0.029 A 
ATOM     54  N   UNL A   1      42.951  27.095  28.237  1.00  0.00    -0.354 N 
ATOM     55  C   UNL A   1      44.505  31.082  28.985  1.00  0.00     0.074 A 
ATOM     56  C   UNL A   1      43.452  31.976  29.429  1.00  0.00     0.031 C 
ATOM     57  C   UNL A   1      41.372  25.506  28.189  1.00  0.00     0.029 A 
ATOM     58  C   UNL A   1      42.771  25.781  27.882  1.00  0.00     0.049 A 
ATOM     59  H   UNL A   1      43.813  27.563  28.155  1.00  0.00     0.167 HD
ATOM     60  C   UNL A   1      45.803  31.430  28.810  1.00  0.00     0.037 A 
ATOM     61  C   UNL A   1      43.636  24.892  27.364  1.00  0.00     0.037 A 
ATOM     62  C   UNL A   1      46.823  30.524  28.337  1.00  0.00     0.049 A 
ATOM     63  C   UNL A   1      45.055  25.321  27.137  1.00  0.00     0.074 A 
ATOM     64  C   UNL A   1      48.173  30.769  28.149  1.00  0.00     0.029 A 
ATOM     65  N   UNL A   1      46.605  29.204  27.962  1.00  0.00    -0.354 N 
ATOM     66  N   UNL A   1      45.609  26.485  27.375  1.00  0.00    -0.248 NA
ATOM     67  C   UNL A   1      45.967  24.316  26.581  1.00  0.00     0.031 C 
ATOM     68  C   UNL A   1      48.759  29.616  27.616  1.00  0.00     0.029 A 
ATOM     69  C   UNL A   1      47.789  28.632  27.520  1.00  0.00     0.049 A 
ATOM     70  H   UNL A   1      45.737  28.742  28.006  1.00  0.00     0.167 HD
ATOM     71  C   UNL A   1      46.944  26.350  27.015  1.00  0.00     0.074 A 
ATOM     72  C   UNL A   1      47.114  24.983  26.561  1.00  0.00     0.031 C 
ATOM     73  C   UNL A   1      47.937  27.271  27.059  1.00  0.00     0.037 A 
BRANCH  60  74
ATOM     74  C   UNL A   1      46.207  32.844  29.135  1.00  0.00     0.058 A 
ATOM     75  C   UNL A   1      46.709  33.188  30.401  1.00  0.00     0.135 A 
ATOM     76  C   UNL A   1      46.167  33.849  28.155  1.00  0.00     0.135 A 
ATOM     77  F   UNL A   1      46.760  32.270  31.380  1.00  0.00    -0.206 F 
ATOM     78  C   UNL A   1      47.140  34.478  30.688  1.00  0.00     0.059 A 
ATOM     79  C   UNL A   1      46.617  35.143  28.413  1.00  0.00     0.059 A 
ATOM     80  F   UNL A   1      45.700  33.578  26.927  1.00  0.00    -0.206 F 
ATOM     81  C   UNL A   1      47.093  35.449  29.686  1.00  0.00     0.060 A 
BRANCH  81  82
ATOM     82  S   UNL A   1      47.663  37.117  30.081  1.00  0.00     0.124 S 
ATOM     83  O   UNL A   1      48.251  36.917  31.402  1.00  0.00    -0.237 OA
ATOM     84  O   UNL A   1      48.609  37.384  29.001  1.00  0.00    -0.237 OA
ATOM     85  O   UNL A   1      46.440  37.913  30.053  1.00  0.00    -0.744 OA
ENDBRANCH  81  82
ENDBRANCH  60  74
BRANCH  61  86
ATOM     86  C   UNL A   1      43.177  23.512  27.077  1.00  0.00     0.058 A 
ATOM     87  C   UNL A   1      42.969  23.088  25.756  1.00  0.00     0.135 A 
ATOM     88  C   UNL A   1      43.003  22.571  28.105  1.00  0.00     0.135 A 
ATOM     89  F   UNL A   1      43.129  23.952  24.742  1.00  0.00    -0.206 F 
ATOM     90  C   UNL A   1      42.594  21.782  25.464  1.00  0.00     0.059 A 
ATOM     91  C   UNL A   1      42.654  21.252  27.835  1.00  0.00     0.059 A 
ATOM     92  F   UNL A   1      43.217  22.924  29.382  1.00  0.00    -0.206 F 
ATOM     93  C   UNL A   1      42.446  20.870  26.511  1.00  0.00     0.060 A 
BRANCH  93  94
ATOM     94  S   UNL A   1      42.016  19.164  26.109  1.00  0.00     0.124 S 
ATOM     95  O   UNL A   1      40.593  19.283  25.812  1.00  0.00    -0.237 OA
ATOM     96  O   UNL A   1      42.886  18.891  24.969  1.00  0.00    -0.237 OA
ATOM     97  O   UNL A   1      42.347  18.436  27.330  1.00  0.00    -0.744 OA
ENDBRANCH  93  94
ENDBRANCH  61  86
BRANCH  73  98
ATOM     98  C   UNL A   1      49.302  26.828  26.610  1.00  0.00     0.058 A 
ATOM     99  C   UNL A   1      50.252  26.338  27.520  1.00  0.00     0.135 A 
ATOM    100  C   UNL A   1      49.648  26.852  25.250  1.00  0.00     0.135 A 
ATOM    101  F   UNL A   1      49.974  26.303  28.833  1.00  0.00    -0.206 F 
ATOM    102  C   UNL A   1      51.505  25.908  27.100  1.00  0.00     0.059 A 
ATOM    103  C   UNL A   1      50.885  26.399  24.803  1.00  0.00     0.059 A 
ATOM    104  F   UNL A   1      48.774  27.305  24.337  1.00  0.00    -0.206 F 
ATOM    105  C   UNL A   1      51.812  25.938  25.738  1.00  0.00     0.060 A 
BRANCH 105 106
ATOM    106  S   UNL A   1      53.430  25.343  25.207  1.00  0.00     0.124 S 
ATOM    107  O   UNL A   1      54.314  25.996  26.168  1.00  0.00    -0.237 OA
ATOM    108  O   UNL A   1      53.293  23.898  25.352  1.00  0.00    -0.237 OA
ATOM    109  O   UNL A   1      53.536  25.823  23.832  1.00  0.00    -0.744 OA
ENDBRANCH 105 106
ENDBRANCH  73  98
ENDBRANCH  47  48
ENDBRANCH  40  42
ENDBRANCH  39  40
ENDBRANCH  38  39
ENDBRANCH  37  38
ENDBRANCH  36  37
ENDBRANCH  35  36
ENDBRANCH   1  35
TORSDOF 25
ENDMDL
MODEL 3
REMARK VINA RESULT:      -7.7      4.846     11.526
REMARK SMILES CC1(C)Oc2ccc(NC(=O)[C@H]3CC=CC[C@@H]3C(=O)OCCOCCOCCOCCOC(=O)c3ccc(-c4c5nc(c(-c6c(F)cc(S(=O)(=O)[O-])cc6F)c6ccc([nH]6)c(-c6c(F)cc(S(=O)(=O)[O-])cc6F)c6nc(c(-c7c(F)cc(S(=O)(=O)[O-])cc7F)c7ccc4[nH]7)C=C6)C=C5)cc3)cc2NC1=O
REMARK SMILES IDX 27 1 26 2 25 3 24 4 23 5 22 6 21 7 20 8 18 9 19 10 17 11
REMARK SMILES IDX 12 12 13 13 14 14 16 15 15 16 10 17 9 18 11 20 8 21 1 22
REMARK SMILES IDX 2 23 3 24 4 25 104 26 5 27 103 28 105 29 6 30 102 31 7 33
REMARK SMILES IDX 101 34 28 35 29 36 30 37 31 38 32 39 33 40 34 41 35 42 36 43
REMARK SMILES IDX 100 44 37 45 99 46 38 47 39 48 40 49 93 50 41 51 98 52 92 53
REMARK SMILES IDX 94 54 42 55 97 56 91 57 90 58 43 60 77 61 56 62 76 63 57 64
REMARK SMILES IDX 60 65 75 66 95 67 58 68 59 69 74 71 96 72 61 73 44 74 45 75
REMARK SMILES IDX 54 76 46 77 47 78 53 79 55 80 48 81 49 82 50 83 51 84 52 85
REMARK SMILES IDX 78 86 79 87 88 88 80 89 81 90 87 91 89 92 82 93 83 94 84 95
REMARK SMILES IDX 85 96 86 97 62 98 63 99 72 100 64 101 65 102 71 103 73 104
REMARK SMILES IDX 66 105 67 106 68 107 69 108 70 109
REMARK H PARENT 9 19 103 32 94 59 60 70
REMARK Flexibility Score: inf
ROOT
ATOM      1  C   UNL A   1      32.944  35.185  29.662  1.00  0.00     0.188 C 
ENDROOT
BRANCH   1   2
ATOM      2  O   UNL A   1      33.251  34.460  30.844  1.00  0.00    -0.377 OA
BRANCH   2   3
ATOM      3  C   UNL A   1      34.030  35.216  31.759  1.00  0.00     0.188 C 
BRANCH   3   4
ATOM      4  C   UNL A   1      35.458  34.670  31.923  1.00  0.00     0.188 C 
BRANCH   4   5
ATOM      5  O   UNL A   1      35.760  34.399  33.288  1.00  0.00    -0.376 OA
BRANCH   5   6
ATOM      6  C   UNL A   1      36.360  33.152  33.611  1.00  0.00     0.202 C 
BRANCH   6   7
ATOM      7  C   UNL A   1      37.657  32.784  32.873  1.00  0.00     0.261 C 
BRANCH   7   8
ATOM      8  O   UNL A   1      38.885  32.988  33.598  1.00  0.00    -0.463 OA
BRANCH   8   9
ATOM      9  C   UNL A   1      39.763  33.920  33.146  1.00  0.00     0.310 C 
ATOM     10  O   UNL A   1      39.506  34.730  32.266  1.00  0.00    -0.252 OA
BRANCH   9  11
ATOM     11  C   UNL A   1      41.029  33.917  34.012  1.00  0.00     0.116 C 
ATOM     12  C   UNL A   1      40.857  32.989  35.236  1.00  0.00     0.097 C 
ATOM     13  C   UNL A   1      39.706  33.532  36.134  1.00  0.00     0.041 C 
ATOM     14  C   UNL A   1      39.618  35.038  36.189  1.00  0.00    -0.030 C 
ATOM     15  C   UNL A   1      41.351  35.356  34.426  1.00  0.00     0.043 C 
ATOM     16  C   UNL A   1      40.377  35.859  35.446  1.00  0.00    -0.030 C 
BRANCH  12  17
ATOM     17  C   UNL A   1      42.141  32.856  36.070  1.00  0.00     0.228 C 
ATOM     18  N   UNL A   1      42.981  31.786  36.080  1.00  0.00    -0.326 N 
ATOM     19  H   UNL A   1      43.807  31.991  36.576  1.00  0.00     0.169 HD
ATOM     20  O   UNL A   1      42.521  33.788  36.794  1.00  0.00    -0.274 OA
BRANCH  18  21
ATOM     21  C   UNL A   1      43.004  30.476  35.584  1.00  0.00     0.043 A 
ATOM     22  C   UNL A   1      42.809  24.116  35.201  1.00  0.00     0.067 C 
ATOM     23  C   UNL A   1      42.798  25.547  35.754  1.00  0.00     0.182 C 
ATOM     24  C   UNL A   1      43.747  25.589  36.976  1.00  0.00     0.067 C 
ATOM     25  O   UNL A   1      43.278  26.409  34.702  1.00  0.00    -0.476 OA
ATOM     26  C   UNL A   1      41.389  25.948  36.246  1.00  0.00     0.268 C 
ATOM     27  C   UNL A   1      43.077  27.744  34.943  1.00  0.00     0.144 A 
ATOM     28  N   UNL A   1      41.239  27.307  36.431  1.00  0.00    -0.319 N 
ATOM     29  O   UNL A   1      40.501  25.161  36.560  1.00  0.00    -0.270 OA
ATOM     30  C   UNL A   1      43.834  28.658  34.218  1.00  0.00     0.051 A 
ATOM     31  C   UNL A   1      42.145  28.210  35.864  1.00  0.00     0.086 A 
ATOM     32  H   UNL A   1      40.486  27.644  36.968  1.00  0.00     0.170 HD
ATOM     33  C   UNL A   1      43.808  30.024  34.544  1.00  0.00     0.030 A 
ATOM     34  C   UNL A   1      42.104  29.569  36.182  1.00  0.00     0.056 A 
ENDBRANCH  18  21
ENDBRANCH  12  17
ENDBRANCH   9  11
ENDBRANCH   8   9
ENDBRANCH   7   8
ENDBRANCH   6   7
ENDBRANCH   5   6
ENDBRANCH   4   5
ENDBRANCH   3   4
ENDBRANCH   2   3
ENDBRANCH   1   2
BRANCH   1  35
ATOM     35  C   UNL A   1      33.422  34.525  28.354  1.00  0.00     0.188 C 
BRANCH  35  36
ATOM     36  O   UNL A   1      34.252  33.374  28.331  1.00  0.00    -0.376 OA
BRANCH  36  37
ATOM     37  C   UNL A   1      35.663  33.464  28.380  1.00  0.00     0.202 C 
BRANCH  37  38
ATOM     38  C   UNL A   1      36.551  32.420  29.066  1.00  0.00     0.261 C 
BRANCH  38  39
ATOM     39  O   UNL A   1      35.971  31.153  29.346  1.00  0.00    -0.460 OA
BRANCH  39  40
ATOM     40  C   UNL A   1      36.496  30.480  30.393  1.00  0.00     0.338 C 
ATOM     41  O   UNL A   1      35.937  30.160  31.428  1.00  0.00    -0.246 OA
BRANCH  40  42
ATOM     42  C   UNL A   1      37.825  30.010  29.959  1.00  0.00     0.060 A 
ATOM     43  C   UNL A   1      38.100  29.808  28.604  1.00  0.00     0.016 A 
ATOM     44  C   UNL A   1      38.762  29.663  30.941  1.00  0.00     0.016 A 
ATOM     45  C   UNL A   1      39.331  29.275  28.227  1.00  0.00     0.010 A 
ATOM     46  C   UNL A   1      39.977  29.099  30.566  1.00  0.00     0.010 A 
ATOM     47  C   UNL A   1      40.279  28.933  29.207  1.00  0.00    -0.014 A 
BRANCH  47  48
ATOM     48  C   UNL A   1      41.676  28.657  28.816  1.00  0.00     0.031 A 
ATOM     49  C   UNL A   1      42.729  29.717  28.792  1.00  0.00     0.074 A 
ATOM     50  C   UNL A   1      41.946  27.397  28.426  1.00  0.00     0.049 A 
ATOM     51  N   UNL A   1      43.993  29.602  28.474  1.00  0.00    -0.248 NA
ATOM     52  C   UNL A   1      42.319  31.079  29.164  1.00  0.00     0.031 C 
ATOM     53  C   UNL A   1      40.964  26.308  28.390  1.00  0.00     0.029 A 
ATOM     54  N   UNL A   1      43.103  26.819  27.983  1.00  0.00    -0.354 N 
ATOM     55  C   UNL A   1      44.542  30.867  28.628  1.00  0.00     0.074 A 
ATOM     56  C   UNL A   1      43.459  31.747  29.027  1.00  0.00     0.031 C 
ATOM     57  C   UNL A   1      41.565  25.190  27.961  1.00  0.00     0.029 A 
ATOM     58  C   UNL A   1      42.962  25.491  27.667  1.00  0.00     0.049 A 
ATOM     59  H   UNL A   1      43.953  27.307  27.899  1.00  0.00     0.167 HD
ATOM     60  C   UNL A   1      45.833  31.243  28.462  1.00  0.00     0.037 A 
ATOM     61  C   UNL A   1      43.858  24.609  27.191  1.00  0.00     0.037 A 
ATOM     62  C   UNL A   1      46.883  30.350  28.034  1.00  0.00     0.049 A 
ATOM     63  C   UNL A   1      45.269  25.067  26.973  1.00  0.00     0.074 A 
ATOM     64  C   UNL A   1      48.229  30.623  27.860  1.00  0.00     0.029 A 
ATOM     65  N   UNL A   1      46.706  29.013  27.698  1.00  0.00    -0.354 N 
ATOM     66  N   UNL A   1      45.789  26.253  27.182  1.00  0.00    -0.248 NA
ATOM     67  C   UNL A   1      46.215  24.070  26.463  1.00  0.00     0.031 C 
ATOM     68  C   UNL A   1      48.853  29.471  27.372  1.00  0.00     0.029 A 
ATOM     69  C   UNL A   1      47.910  28.458  27.293  1.00  0.00     0.049 A 
ATOM     70  H   UNL A   1      45.849  28.530  27.743  1.00  0.00     0.167 HD
ATOM     71  C   UNL A   1      47.133  26.141  26.848  1.00  0.00     0.074 A 
ATOM     72  C   UNL A   1      47.345  24.765  26.440  1.00  0.00     0.031 C 
ATOM     73  C   UNL A   1      48.101  27.089  26.878  1.00  0.00     0.037 A 
BRANCH  60  74
ATOM     74  C   UNL A   1      46.195  32.677  28.749  1.00  0.00     0.058 A 
ATOM     75  C   UNL A   1      46.192  33.648  27.734  1.00  0.00     0.135 A 
ATOM     76  C   UNL A   1      46.469  33.104  30.058  1.00  0.00     0.135 A 
ATOM     77  F   UNL A   1      45.946  33.295  26.462  1.00  0.00    -0.206 F 
ATOM     78  C   UNL A   1      46.464  34.985  28.003  1.00  0.00     0.059 A 
ATOM     79  C   UNL A   1      46.721  34.443  30.355  1.00  0.00     0.059 A 
ATOM     80  F   UNL A   1      46.483  32.221  31.069  1.00  0.00    -0.206 F 
ATOM     81  C   UNL A   1      46.726  35.373  29.318  1.00  0.00     0.060 A 
BRANCH  81  82
ATOM     82  S   UNL A   1      47.072  37.115  29.645  1.00  0.00     0.124 S 
ATOM     83  O   UNL A   1      47.631  37.544  28.366  1.00  0.00    -0.237 OA
ATOM     84  O   UNL A   1      45.748  37.640  29.964  1.00  0.00    -0.237 OA
ATOM     85  O   UNL A   1      48.014  37.074  30.759  1.00  0.00    -0.744 OA
ENDBRANCH  81  82
ENDBRANCH  60  74
BRANCH  61  86
ATOM     86  C   UNL A   1      43.439  23.209  26.941  1.00  0.00     0.058 A 
ATOM     87  C   UNL A   1      43.196  22.759  25.635  1.00  0.00     0.135 A 
ATOM     88  C   UNL A   1      43.339  22.278  27.987  1.00  0.00     0.135 A 
ATOM     89  F   UNL A   1      43.284  23.612  24.604  1.00  0.00    -0.206 F 
ATOM     90  C   UNL A   1      42.858  21.435  25.376  1.00  0.00     0.059 A 
ATOM     91  C   UNL A   1      43.029  20.943  27.749  1.00  0.00     0.059 A 
ATOM     92  F   UNL A   1      43.590  22.657  29.250  1.00  0.00    -0.206 F 
ATOM     93  C   UNL A   1      42.784  20.534  26.440  1.00  0.00     0.060 A 
BRANCH  93  94
ATOM     94  S   UNL A   1      42.401  18.808  26.078  1.00  0.00     0.124 S 
ATOM     95  O   UNL A   1      42.622  18.180  27.376  1.00  0.00    -0.237 OA
ATOM     96  O   UNL A   1      41.012  18.891  25.636  1.00  0.00    -0.237 OA
ATOM     97  O   UNL A   1      43.363  18.460  25.037  1.00  0.00    -0.744 OA
ENDBRANCH  93  94
ENDBRANCH  61  86
BRANCH  73  98
ATOM     98  C   UNL A   1      49.484  26.667  26.464  1.00  0.00     0.058 A 
ATOM     99  C   UNL A   1      49.981  26.938  25.180  1.00  0.00     0.135 A 
ATOM    100  C   UNL A   1      50.336  26.025  27.376  1.00  0.00     0.135 A 
ATOM    101  F   UNL A   1      49.202  27.541  24.267  1.00  0.00    -0.206 F 
ATOM    102  C   UNL A   1      51.268  26.567  24.807  1.00  0.00     0.059 A 
ATOM    103  C   UNL A   1      51.638  25.672  27.034  1.00  0.00     0.059 A 
ATOM    104  F   UNL A   1      49.913  25.748  28.620  1.00  0.00    -0.206 F 
ATOM    105  C   UNL A   1      52.091  25.937  25.742  1.00  0.00     0.060 A 
BRANCH 105 106
ATOM    106  S   UNL A   1      53.770  25.494  25.252  1.00  0.00     0.124 S 
ATOM    107  O   UNL A   1      54.006  24.300  26.058  1.00  0.00    -0.237 OA
ATOM    108  O   UNL A   1      53.626  25.272  23.817  1.00  0.00    -0.237 OA
ATOM    109  O   UNL A   1      54.555  26.667  25.624  1.00  0.00    -0.744 OA
ENDBRANCH 105 106
ENDBRANCH  73  98
ENDBRANCH  47  48
ENDBRANCH  40  42
ENDBRANCH  39  40
ENDBRANCH  38  39
ENDBRANCH  37  38
ENDBRANCH  36  37
ENDBRANCH  35  36
ENDBRANCH   1  35
TORSDOF 25
ENDMDL
