MODEL 1
REMARK VINA RESULT:      -8.8      0.000      0.000
REMARK SMILES CC(C)CCc1cc2c(cc1Cl)C=C(C(=O)OCCOCCOCCOCCOC(=O)c1ccc(-c3c4nc(c(-c5c(F)cc(S(=O)(=O)[O-])cc5F)c5ccc([nH]5)c(-c5c(F)cc(S(=O)(=O)[O-])cc5F)c5nc(c(-c6c(F)cc(S(=O)(=O)[O-])cc6F)c6ccc3[nH]6)C=C5)C=C4)cc1)[C@@H](C(F)(F)F)O2
REMARK SMILES IDX 23 1 22 2 21 3 20 4 19 5 18 6 17 7 15 8 16 9 14 10 6 11 7 12
REMARK SMILES IDX 11 13 8 14 10 15 12 16 9 17 103 18 13 19 98 20 5 21 4 22
REMARK SMILES IDX 2 23 1 24 3 25 99 26 100 27 101 28 102 29 24 30 25 31 26 32
REMARK SMILES IDX 27 33 28 34 29 35 30 36 31 37 32 38 33 39 97 40 34 41 96 42
REMARK SMILES IDX 35 43 36 44 37 45 90 46 38 47 95 48 89 49 91 50 39 51 94 52
REMARK SMILES IDX 88 53 87 54 40 56 74 57 53 58 73 59 54 60 57 61 72 62 92 63
REMARK SMILES IDX 55 64 56 65 71 67 93 68 58 69 41 70 42 71 51 72 43 73 44 74
REMARK SMILES IDX 50 75 52 76 45 77 46 78 47 79 48 80 49 81 75 82 76 83 85 84
REMARK SMILES IDX 77 85 78 86 84 87 86 88 79 89 80 90 81 91 82 92 83 93 59 94
REMARK SMILES IDX 60 95 69 96 61 97 62 98 68 99 70 100 63 101 64 102 65 103
REMARK SMILES IDX 66 104 67 105
REMARK H PARENT 91 55 57 66
REMARK Flexibility Score: inf
ROOT
ATOM      1  O   UNL A   1      33.498  24.475  25.249  1.00  0.00    -0.377 OA
ENDROOT
BRANCH   1   2
ATOM      2  C   UNL A   1      32.688  24.105  26.349  1.00  0.00     0.188 C 
BRANCH   2   3
ATOM      3  C   UNL A   1      31.369  24.891  26.452  1.00  0.00     0.188 C 
BRANCH   3   4
ATOM      4  O   UNL A   1      30.560  24.809  25.282  1.00  0.00    -0.376 OA
BRANCH   4   5
ATOM      5  C   UNL A   1      29.733  25.929  24.988  1.00  0.00     0.202 C 
BRANCH   5   6
ATOM      6  C   UNL A   1      29.897  26.552  23.592  1.00  0.00     0.261 C 
BRANCH   6   7
ATOM      7  O   UNL A   1      29.660  27.968  23.537  1.00  0.00    -0.460 OA
BRANCH   7   8
ATOM      8  C   UNL A   1      30.689  28.738  23.137  1.00  0.00     0.338 C 
ATOM      9  O   UNL A   1      30.730  29.450  22.148  1.00  0.00    -0.246 OA
BRANCH   8  10
ATOM     10  C   UNL A   1      31.708  28.742  24.207  1.00  0.00     0.087 C 
ATOM     11  C   UNL A   1      34.841  30.171  27.880  1.00  0.00    -0.026 A 
ATOM     12  C   UNL A   1      34.704  29.011  27.076  1.00  0.00     0.052 A 
ATOM     13  C   UNL A   1      33.822  31.134  27.792  1.00  0.00     0.045 A 
ATOM     14  C   UNL A   1      33.639  28.849  26.184  1.00  0.00     0.128 A 
ATOM     15  C   UNL A   1      32.729  30.942  26.936  1.00  0.00     0.032 A 
ATOM     16  Cl  UNL A   1      33.824  32.651  28.614  1.00  0.00    -0.084 Cl
ATOM     17  C   UNL A   1      32.662  29.829  26.099  1.00  0.00     0.019 A 
ATOM     18  O   UNL A   1      33.642  27.718  25.418  1.00  0.00    -0.475 OA
ATOM     19  C   UNL A   1      31.634  29.752  25.082  1.00  0.00     0.027 C 
ATOM     20  C   UNL A   1      32.726  27.633  24.284  1.00  0.00     0.316 C 
BRANCH  11  21
ATOM     21  C   UNL A   1      36.159  30.292  28.626  1.00  0.00     0.037 C 
BRANCH  21  22
ATOM     22  C   UNL A   1      37.512  30.300  27.904  1.00  0.00     0.008 C 
BRANCH  22  23
ATOM     23  C   UNL A   1      38.279  28.966  27.938  1.00  0.00    -0.017 C 
ATOM     24  C   UNL A   1      39.706  29.126  27.414  1.00  0.00     0.007 C 
ATOM     25  C   UNL A   1      38.310  28.421  29.369  1.00  0.00     0.007 C 
ENDBRANCH  22  23
ENDBRANCH  21  22
ENDBRANCH  11  21
BRANCH  20  26
ATOM     26  C   UNL A   1      33.549  27.525  22.993  1.00  0.00     0.430 C 
ATOM     27  F   UNL A   1      34.036  28.730  22.618  1.00  0.00    -0.167 F 
ATOM     28  F   UNL A   1      34.606  26.694  23.139  1.00  0.00    -0.167 F 
ATOM     29  F   UNL A   1      32.800  27.052  21.968  1.00  0.00    -0.167 F 
ENDBRANCH  20  26
ENDBRANCH   8  10
ENDBRANCH   7   8
ENDBRANCH   6   7
ENDBRANCH   5   6
ENDBRANCH   4   5
ENDBRANCH   3   4
ENDBRANCH   2   3
ENDBRANCH   1   2
BRANCH   1  30
ATOM     30  C   UNL A   1      34.915  24.363  25.378  1.00  0.00     0.188 C 
BRANCH  30  31
ATOM     31  C   UNL A   1      35.762  23.435  24.475  1.00  0.00     0.188 C 
BRANCH  31  32
ATOM     32  O   UNL A   1      36.422  22.377  25.165  1.00  0.00    -0.376 OA
BRANCH  32  33
ATOM     33  C   UNL A   1      37.726  22.657  25.657  1.00  0.00     0.202 C 
BRANCH  33  34
ATOM     34  C   UNL A   1      38.663  21.444  25.643  1.00  0.00     0.261 C 
BRANCH  34  35
ATOM     35  O   UNL A   1      39.542  21.343  26.774  1.00  0.00    -0.460 OA
BRANCH  35  36
ATOM     36  C   UNL A   1      40.804  20.914  26.550  1.00  0.00     0.338 C 
ATOM     37  O   UNL A   1      41.143  19.865  26.033  1.00  0.00    -0.246 OA
BRANCH  36  38
ATOM     38  C   UNL A   1      41.713  22.040  26.856  1.00  0.00     0.060 A 
ATOM     39  C   UNL A   1      41.918  23.055  25.920  1.00  0.00     0.016 A 
ATOM     40  C   UNL A   1      42.394  22.051  28.081  1.00  0.00     0.016 A 
ATOM     41  C   UNL A   1      42.776  24.110  26.229  1.00  0.00     0.010 A 
ATOM     42  C   UNL A   1      43.258  23.106  28.385  1.00  0.00     0.010 A 
ATOM     43  C   UNL A   1      43.429  24.158  27.472  1.00  0.00    -0.014 A 
BRANCH  43  44
ATOM     44  C   UNL A   1      44.095  25.413  27.894  1.00  0.00     0.031 A 
ATOM     45  C   UNL A   1      43.392  26.472  28.682  1.00  0.00     0.074 A 
ATOM     46  C   UNL A   1      45.387  25.567  27.545  1.00  0.00     0.049 A 
ATOM     47  N   UNL A   1      43.890  27.562  29.208  1.00  0.00    -0.248 NA
ATOM     48  C   UNL A   1      41.950  26.297  28.906  1.00  0.00     0.031 C 
ATOM     49  C   UNL A   1      46.157  24.607  26.749  1.00  0.00     0.029 A 
ATOM     50  N   UNL A   1      46.283  26.567  27.819  1.00  0.00    -0.354 N 
ATOM     51  C   UNL A   1      42.834  28.194  29.851  1.00  0.00     0.074 A 
ATOM     52  C   UNL A   1      41.655  27.386  29.607  1.00  0.00     0.031 C 
ATOM     53  C   UNL A   1      47.416  25.050  26.625  1.00  0.00     0.029 A 
ATOM     54  C   UNL A   1      47.538  26.330  27.314  1.00  0.00     0.049 A 
ATOM     55  H   UNL A   1      46.048  27.377  28.327  1.00  0.00     0.167 HD
ATOM     56  C   UNL A   1      42.860  29.331  30.588  1.00  0.00     0.037 A 
ATOM     57  C   UNL A   1      48.669  27.054  27.406  1.00  0.00     0.037 A 
ATOM     58  C   UNL A   1      44.040  30.134  30.803  1.00  0.00     0.049 A 
ATOM     59  C   UNL A   1      48.661  28.327  28.200  1.00  0.00     0.074 A 
ATOM     60  C   UNL A   1      44.171  31.285  31.563  1.00  0.00     0.029 A 
ATOM     61  N   UNL A   1      45.287  29.883  30.248  1.00  0.00    -0.354 N 
ATOM     62  N   UNL A   1      47.672  28.872  28.866  1.00  0.00    -0.248 NA
ATOM     63  C   UNL A   1      49.920  29.080  28.264  1.00  0.00     0.031 C 
ATOM     64  C   UNL A   1      45.482  31.754  31.430  1.00  0.00     0.029 A 
ATOM     65  C   UNL A   1      46.184  30.870  30.628  1.00  0.00     0.049 A 
ATOM     66  H   UNL A   1      45.504  29.117  29.669  1.00  0.00     0.167 HD
ATOM     67  C   UNL A   1      48.195  30.019  29.451  1.00  0.00     0.074 A 
ATOM     68  C   UNL A   1      49.590  30.086  29.064  1.00  0.00     0.031 C 
ATOM     69  C   UNL A   1      47.573  30.929  30.239  1.00  0.00     0.037 A 
BRANCH  56  70
ATOM     70  C   UNL A   1      41.579  29.780  31.239  1.00  0.00     0.058 A 
ATOM     71  C   UNL A   1      40.775  30.771  30.657  1.00  0.00     0.135 A 
ATOM     72  C   UNL A   1      41.106  29.155  32.405  1.00  0.00     0.135 A 
ATOM     73  F   UNL A   1      41.182  31.406  29.546  1.00  0.00    -0.206 F 
ATOM     74  C   UNL A   1      39.553  31.138  31.213  1.00  0.00     0.059 A 
ATOM     75  C   UNL A   1      39.875  29.488  32.967  1.00  0.00     0.059 A 
ATOM     76  F   UNL A   1      41.832  28.195  33.000  1.00  0.00    -0.206 F 
ATOM     77  C   UNL A   1      39.110  30.488  32.367  1.00  0.00     0.060 A 
BRANCH  77  78
ATOM     78  S   UNL A   1      37.515  30.966  33.065  1.00  0.00     0.124 S 
ATOM     79  O   UNL A   1      37.288  32.255  32.418  1.00  0.00    -0.237 OA
ATOM     80  O   UNL A   1      36.646  29.877  32.628  1.00  0.00    -0.237 OA
ATOM     81  O   UNL A   1      37.773  31.022  34.500  1.00  0.00    -0.744 OA
ENDBRANCH  77  78
ENDBRANCH  56  70
BRANCH  57  82
ATOM     82  C   UNL A   1      49.909  26.546  26.768  1.00  0.00     0.058 A 
ATOM     83  C   UNL A   1      50.220  26.877  25.442  1.00  0.00     0.135 A 
ATOM     84  C   UNL A   1      50.837  25.778  27.489  1.00  0.00     0.135 A 
ATOM     85  F   UNL A   1      49.364  27.611  24.715  1.00  0.00    -0.206 F 
ATOM     86  C   UNL A   1      51.407  26.461  24.849  1.00  0.00     0.059 A 
ATOM     87  C   UNL A   1      52.040  25.369  26.925  1.00  0.00     0.059 A 
ATOM     88  F   UNL A   1      50.592  25.455  28.769  1.00  0.00    -0.206 F 
ATOM     89  C   UNL A   1      52.314  25.712  25.602  1.00  0.00     0.060 A 
BRANCH  89  90
ATOM     90  S   UNL A   1      53.880  25.236  24.840  1.00  0.00     0.124 S 
ATOM     91  O   UNL A   1      54.845  25.803  25.776  1.00  0.00    -0.237 OA
ATOM     92  O   UNL A   1      53.781  23.780  24.827  1.00  0.00    -0.237 OA
ATOM     93  O   UNL A   1      53.823  25.873  23.529  1.00  0.00    -0.744 OA
ENDBRANCH  89  90
ENDBRANCH  57  82
BRANCH  69  94
ATOM     94  C   UNL A   1      48.393  32.077  30.758  1.00  0.00     0.058 A 
ATOM     95  C   UNL A   1      49.110  31.982  31.960  1.00  0.00     0.135 A 
ATOM     96  C   UNL A   1      48.531  33.254  30.003  1.00  0.00     0.135 A 
ATOM     97  F   UNL A   1      49.004  30.884  32.724  1.00  0.00    -0.206 F 
ATOM     98  C   UNL A   1      49.934  33.014  32.397  1.00  0.00     0.059 A 
ATOM     99  C   UNL A   1      49.367  34.289  30.409  1.00  0.00     0.059 A 
ATOM    100  F   UNL A   1      47.868  33.393  28.843  1.00  0.00    -0.206 F 
ATOM    101  C   UNL A   1      50.064  34.159  31.609  1.00  0.00     0.060 A 
BRANCH 101 102
ATOM    102  S   UNL A   1      51.190  35.461  32.158  1.00  0.00     0.124 S 
ATOM    103  O   UNL A   1      50.708  36.609  31.396  1.00  0.00    -0.237 OA
ATOM    104  O   UNL A   1      50.937  35.503  33.595  1.00  0.00    -0.237 OA
ATOM    105  O   UNL A   1      52.505  34.958  31.773  1.00  0.00    -0.744 OA
ENDBRANCH 101 102
ENDBRANCH  69  94
ENDBRANCH  43  44
ENDBRANCH  36  38
ENDBRANCH  35  36
ENDBRANCH  34  35
ENDBRANCH  33  34
ENDBRANCH  32  33
ENDBRANCH  31  32
ENDBRANCH  30  31
ENDBRANCH   1  30
TORSDOF 27
ENDMDL
MODEL 2
REMARK VINA RESULT:      -8.6      4.735     10.314
REMARK SMILES CC(C)CCc1cc2c(cc1Cl)C=C(C(=O)OCCOCCOCCOCCOC(=O)c1ccc(-c3c4nc(c(-c5c(F)cc(S(=O)(=O)[O-])cc5F)c5ccc([nH]5)c(-c5c(F)cc(S(=O)(=O)[O-])cc5F)c5nc(c(-c6c(F)cc(S(=O)(=O)[O-])cc6F)c6ccc3[nH]6)C=C5)C=C4)cc1)[C@@H](C(F)(F)F)O2
REMARK SMILES IDX 23 1 22 2 21 3 20 4 19 5 18 6 17 7 15 8 16 9 14 10 6 11 7 12
REMARK SMILES IDX 11 13 8 14 10 15 12 16 9 17 103 18 13 19 98 20 5 21 4 22
REMARK SMILES IDX 2 23 1 24 3 25 99 26 100 27 101 28 102 29 24 30 25 31 26 32
REMARK SMILES IDX 27 33 28 34 29 35 30 36 31 37 32 38 33 39 97 40 34 41 96 42
REMARK SMILES IDX 35 43 36 44 37 45 90 46 38 47 95 48 89 49 91 50 39 51 94 52
REMARK SMILES IDX 88 53 87 54 40 56 74 57 53 58 73 59 54 60 57 61 72 62 92 63
REMARK SMILES IDX 55 64 56 65 71 67 93 68 58 69 41 70 42 71 51 72 43 73 44 74
REMARK SMILES IDX 50 75 52 76 45 77 46 78 47 79 48 80 49 81 75 82 76 83 85 84
REMARK SMILES IDX 77 85 78 86 84 87 86 88 79 89 80 90 81 91 82 92 83 93 59 94
REMARK SMILES IDX 60 95 69 96 61 97 62 98 68 99 70 100 63 101 64 102 65 103
REMARK SMILES IDX 66 104 67 105
REMARK H PARENT 91 55 57 66
REMARK Flexibility Score: inf
ROOT
ATOM      1  O   UNL A   1      40.111  27.065  27.811  1.00  0.00    -0.377 OA
ENDROOT
BRANCH   1   2
ATOM      2  C   UNL A   1      40.180  25.662  27.984  1.00  0.00     0.188 C 
BRANCH   2   3
ATOM      3  C   UNL A   1      39.094  24.880  27.224  1.00  0.00     0.188 C 
BRANCH   3   4
ATOM      4  O   UNL A   1      39.594  23.754  26.508  1.00  0.00    -0.376 OA
BRANCH   4   5
ATOM      5  C   UNL A   1      38.642  22.789  26.074  1.00  0.00     0.202 C 
BRANCH   5   6
ATOM      6  C   UNL A   1      37.163  23.128  26.323  1.00  0.00     0.261 C 
BRANCH   6   7
ATOM      7  O   UNL A   1      36.361  23.216  25.134  1.00  0.00    -0.460 OA
BRANCH   7   8
ATOM      8  C   UNL A   1      35.028  23.130  25.296  1.00  0.00     0.338 C 
ATOM      9  O   UNL A   1      34.417  22.257  25.889  1.00  0.00    -0.246 OA
BRANCH   8  10
ATOM     10  C   UNL A   1      34.420  24.383  24.807  1.00  0.00     0.087 C 
ATOM     11  C   UNL A   1      31.880  28.721  24.517  1.00  0.00    -0.026 A 
ATOM     12  C   UNL A   1      32.435  27.821  23.572  1.00  0.00     0.052 A 
ATOM     13  C   UNL A   1      32.186  28.498  25.870  1.00  0.00     0.045 A 
ATOM     14  C   UNL A   1      33.203  26.719  23.961  1.00  0.00     0.128 A 
ATOM     15  C   UNL A   1      33.000  27.423  26.250  1.00  0.00     0.032 A 
ATOM     16  Cl  UNL A   1      31.556  29.415  27.188  1.00  0.00    -0.084 Cl
ATOM     17  C   UNL A   1      33.466  26.509  25.306  1.00  0.00     0.019 A 
ATOM     18  O   UNL A   1      33.636  25.887  22.968  1.00  0.00    -0.475 OA
ATOM     19  C   UNL A   1      34.132  25.298  25.741  1.00  0.00     0.027 C 
ATOM     20  C   UNL A   1      34.189  24.586  23.331  1.00  0.00     0.316 C 
BRANCH  11  21
ATOM     21  C   UNL A   1      30.895  29.730  23.952  1.00  0.00     0.037 C 
BRANCH  21  22
ATOM     22  C   UNL A   1      29.936  29.386  22.805  1.00  0.00     0.008 C 
BRANCH  22  23
ATOM     23  C   UNL A   1      28.636  30.209  22.769  1.00  0.00    -0.017 C 
ATOM     24  C   UNL A   1      27.409  29.330  23.011  1.00  0.00     0.007 C 
ATOM     25  C   UNL A   1      28.695  31.320  23.822  1.00  0.00     0.007 C 
ENDBRANCH  22  23
ENDBRANCH  21  22
ENDBRANCH  11  21
BRANCH  20  26
ATOM     26  C   UNL A   1      33.295  23.487  22.739  1.00  0.00     0.430 C 
ATOM     27  F   UNL A   1      32.259  23.201  23.561  1.00  0.00    -0.167 F 
ATOM     28  F   UNL A   1      32.769  23.855  21.548  1.00  0.00    -0.167 F 
ATOM     29  F   UNL A   1      33.986  22.340  22.541  1.00  0.00    -0.167 F 
ENDBRANCH  20  26
ENDBRANCH   8  10
ENDBRANCH   7   8
ENDBRANCH   6   7
ENDBRANCH   5   6
ENDBRANCH   4   5
ENDBRANCH   3   4
ENDBRANCH   2   3
ENDBRANCH   1   2
BRANCH   1  30
ATOM     30  C   UNL A   1      40.505  27.617  26.555  1.00  0.00     0.188 C 
BRANCH  30  31
ATOM     31  C   UNL A   1      41.986  27.716  26.117  1.00  0.00     0.188 C 
BRANCH  31  32
ATOM     32  O   UNL A   1      42.334  26.885  25.011  1.00  0.00    -0.376 OA
BRANCH  32  33
ATOM     33  C   UNL A   1      42.529  25.506  25.291  1.00  0.00     0.202 C 
BRANCH  33  34
ATOM     34  C   UNL A   1      44.004  25.091  25.343  1.00  0.00     0.261 C 
BRANCH  34  35
ATOM     35  O   UNL A   1      44.906  26.113  25.792  1.00  0.00    -0.460 OA
BRANCH  35  36
ATOM     36  C   UNL A   1      45.511  25.933  26.989  1.00  0.00     0.338 C 
ATOM     37  O   UNL A   1      46.542  25.323  27.206  1.00  0.00    -0.246 OA
BRANCH  36  38
ATOM     38  C   UNL A   1      44.809  26.789  27.970  1.00  0.00     0.060 A 
ATOM     39  C   UNL A   1      43.866  26.237  28.839  1.00  0.00     0.016 A 
ATOM     40  C   UNL A   1      45.076  28.164  27.988  1.00  0.00     0.016 A 
ATOM     41  C   UNL A   1      43.217  27.058  29.760  1.00  0.00     0.010 A 
ATOM     42  C   UNL A   1      44.419  28.986  28.907  1.00  0.00     0.010 A 
ATOM     43  C   UNL A   1      43.508  28.432  29.819  1.00  0.00    -0.014 A 
BRANCH  43  44
ATOM     44  C   UNL A   1      43.036  29.224  30.980  1.00  0.00     0.031 A 
ATOM     45  C   UNL A   1      43.826  29.349  32.244  1.00  0.00     0.074 A 
ATOM     46  C   UNL A   1      41.851  29.850  30.851  1.00  0.00     0.049 A 
ATOM     47  N   UNL A   1      43.579  30.099  33.288  1.00  0.00    -0.248 NA
ATOM     48  C   UNL A   1      45.040  28.529  32.362  1.00  0.00     0.031 C 
ATOM     49  C   UNL A   1      40.987  29.767  29.670  1.00  0.00     0.029 A 
ATOM     50  N   UNL A   1      41.174  30.684  31.702  1.00  0.00    -0.354 N 
ATOM     51  C   UNL A   1      44.618  29.867  34.179  1.00  0.00     0.074 A 
ATOM     52  C   UNL A   1      45.474  28.867  33.571  1.00  0.00     0.031 C 
ATOM     53  C   UNL A   1      39.910  30.543  29.859  1.00  0.00     0.029 A 
ATOM     54  C   UNL A   1      39.998  31.162  31.177  1.00  0.00     0.049 A 
ATOM     55  H   UNL A   1      41.499  30.916  32.601  1.00  0.00     0.167 HD
ATOM     56  C   UNL A   1      44.838  30.453  35.382  1.00  0.00     0.037 A 
ATOM     57  C   UNL A   1      39.093  32.015  31.692  1.00  0.00     0.037 A 
ATOM     58  C   UNL A   1      43.963  31.431  35.982  1.00  0.00     0.049 A 
ATOM     59  C   UNL A   1      39.344  32.622  33.041  1.00  0.00     0.074 A 
ATOM     60  C   UNL A   1      44.120  32.105  37.182  1.00  0.00     0.029 A 
ATOM     61  N   UNL A   1      42.762  31.867  35.439  1.00  0.00    -0.354 N 
ATOM     62  N   UNL A   1      40.370  32.451  33.839  1.00  0.00    -0.248 NA
ATOM     63  C   UNL A   1      38.324  33.544  33.557  1.00  0.00     0.031 C 
ATOM     64  C   UNL A   1      42.995  32.910  37.386  1.00  0.00     0.029 A 
ATOM     65  C   UNL A   1      42.158  32.779  36.291  1.00  0.00     0.049 A 
ATOM     66  H   UNL A   1      42.393  31.572  34.575  1.00  0.00     0.167 HD
ATOM     67  C   UNL A   1      40.133  33.263  34.942  1.00  0.00     0.074 A 
ATOM     68  C   UNL A   1      38.868  33.929  34.705  1.00  0.00     0.031 C 
ATOM     69  C   UNL A   1      40.898  33.439  36.047  1.00  0.00     0.037 A 
BRANCH  56  70
ATOM     70  C   UNL A   1      46.083  30.070  36.137  1.00  0.00     0.058 A 
ATOM     71  C   UNL A   1      46.073  29.029  37.077  1.00  0.00     0.135 A 
ATOM     72  C   UNL A   1      47.314  30.686  35.855  1.00  0.00     0.135 A 
ATOM     73  F   UNL A   1      44.923  28.410  37.389  1.00  0.00    -0.206 F 
ATOM     74  C   UNL A   1      47.235  28.620  37.723  1.00  0.00     0.059 A 
ATOM     75  C   UNL A   1      48.495  30.278  36.472  1.00  0.00     0.059 A 
ATOM     76  F   UNL A   1      47.382  31.683  34.960  1.00  0.00    -0.206 F 
ATOM     77  C   UNL A   1      48.443  29.249  37.412  1.00  0.00     0.060 A 
BRANCH  77  78
ATOM     78  S   UNL A   1      49.943  28.693  38.249  1.00  0.00     0.124 S 
ATOM     79  O   UNL A   1      49.814  29.350  39.545  1.00  0.00    -0.237 OA
ATOM     80  O   UNL A   1      49.776  27.242  38.254  1.00  0.00    -0.237 OA
ATOM     81  O   UNL A   1      51.016  29.195  37.396  1.00  0.00    -0.744 OA
ENDBRANCH  77  78
ENDBRANCH  56  70
BRANCH  57  82
ATOM     82  C   UNL A   1      37.899  32.379  30.889  1.00  0.00     0.058 A 
ATOM     83  C   UNL A   1      37.981  33.352  29.884  1.00  0.00     0.135 A 
ATOM     84  C   UNL A   1      36.674  31.717  31.066  1.00  0.00     0.135 A 
ATOM     85  F   UNL A   1      39.132  34.009  29.678  1.00  0.00    -0.206 F 
ATOM     86  C   UNL A   1      36.888  33.661  29.082  1.00  0.00     0.059 A 
ATOM     87  C   UNL A   1      35.574  31.992  30.262  1.00  0.00     0.059 A 
ATOM     88  F   UNL A   1      36.554  30.762  32.002  1.00  0.00    -0.206 F 
ATOM     89  C   UNL A   1      35.690  32.970  29.275  1.00  0.00     0.060 A 
BRANCH  89  90
ATOM     90  S   UNL A   1      34.299  33.334  28.182  1.00  0.00     0.124 S 
ATOM     91  O   UNL A   1      34.124  32.058  27.495  1.00  0.00    -0.237 OA
ATOM     92  O   UNL A   1      33.253  33.697  29.132  1.00  0.00    -0.237 OA
ATOM     93  O   UNL A   1      34.797  34.431  27.359  1.00  0.00    -0.744 OA
ENDBRANCH  89  90
ENDBRANCH  57  82
BRANCH  69  94
ATOM     94  C   UNL A   1      40.405  34.406  37.088  1.00  0.00     0.058 A 
ATOM     95  C   UNL A   1      39.625  33.980  38.173  1.00  0.00     0.135 A 
ATOM     96  C   UNL A   1      40.788  35.757  37.044  1.00  0.00     0.135 A 
ATOM     97  F   UNL A   1      39.223  32.702  38.256  1.00  0.00    -0.206 F 
ATOM     98  C   UNL A   1      39.239  34.860  39.178  1.00  0.00     0.059 A 
ATOM     99  C   UNL A   1      40.433  36.649  38.051  1.00  0.00     0.059 A 
ATOM    100  F   UNL A   1      41.538  36.214  36.028  1.00  0.00    -0.206 F 
ATOM    101  C   UNL A   1      39.657  36.191  39.114  1.00  0.00     0.060 A 
BRANCH 101 102
ATOM    102  S   UNL A   1      39.205  37.304  40.462  1.00  0.00     0.124 S 
ATOM    103  O   UNL A   1      40.500  37.872  40.824  1.00  0.00    -0.237 OA
ATOM    104  O   UNL A   1      38.274  38.219  39.809  1.00  0.00    -0.237 OA
ATOM    105  O   UNL A   1      38.609  36.415  41.453  1.00  0.00    -0.744 OA
ENDBRANCH 101 102
ENDBRANCH  69  94
ENDBRANCH  43  44
ENDBRANCH  36  38
ENDBRANCH  35  36
ENDBRANCH  34  35
ENDBRANCH  33  34
ENDBRANCH  32  33
ENDBRANCH  31  32
ENDBRANCH  30  31
ENDBRANCH   1  30
TORSDOF 27
ENDMDL
MODEL 3
REMARK VINA RESULT:      -8.5      5.893     12.110
REMARK SMILES CC(C)CCc1cc2c(cc1Cl)C=C(C(=O)OCCOCCOCCOCCOC(=O)c1ccc(-c3c4nc(c(-c5c(F)cc(S(=O)(=O)[O-])cc5F)c5ccc([nH]5)c(-c5c(F)cc(S(=O)(=O)[O-])cc5F)c5nc(c(-c6c(F)cc(S(=O)(=O)[O-])cc6F)c6ccc3[nH]6)C=C5)C=C4)cc1)[C@@H](C(F)(F)F)O2
REMARK SMILES IDX 23 1 22 2 21 3 20 4 19 5 18 6 17 7 15 8 16 9 14 10 6 11 7 12
REMARK SMILES IDX 11 13 8 14 10 15 12 16 9 17 103 18 13 19 98 20 5 21 4 22
REMARK SMILES IDX 2 23 1 24 3 25 99 26 100 27 101 28 102 29 24 30 25 31 26 32
REMARK SMILES IDX 27 33 28 34 29 35 30 36 31 37 32 38 33 39 97 40 34 41 96 42
REMARK SMILES IDX 35 43 36 44 37 45 90 46 38 47 95 48 89 49 91 50 39 51 94 52
REMARK SMILES IDX 88 53 87 54 40 56 74 57 53 58 73 59 54 60 57 61 72 62 92 63
REMARK SMILES IDX 55 64 56 65 71 67 93 68 58 69 41 70 42 71 51 72 43 73 44 74
REMARK SMILES IDX 50 75 52 76 45 77 46 78 47 79 48 80 49 81 75 82 76 83 85 84
REMARK SMILES IDX 77 85 78 86 84 87 86 88 79 89 80 90 81 91 82 92 83 93 59 94
REMARK SMILES IDX 60 95 69 96 61 97 62 98 68 99 70 100 63 101 64 102 65 103
REMARK SMILES IDX 66 104 67 105
REMARK H PARENT 91 55 57 66
REMARK Flexibility Score: inf
ROOT
ATOM      1  O   UNL A   1      43.138  18.924  25.576  1.00  0.00    -0.377 OA
ENDROOT
BRANCH   1   2
ATOM      2  C   UNL A   1      44.184  18.818  24.629  1.00  0.00     0.188 C 
BRANCH   2   3
ATOM      3  C   UNL A   1      45.376  19.752  24.900  1.00  0.00     0.188 C 
BRANCH   3   4
ATOM      4  O   UNL A   1      45.272  21.017  24.252  1.00  0.00    -0.376 OA
BRANCH   4   5
ATOM      5  C   UNL A   1      46.068  22.077  24.772  1.00  0.00     0.202 C 
BRANCH   5   6
ATOM      6  C   UNL A   1      45.768  23.484  24.233  1.00  0.00     0.261 C 
BRANCH   6   7
ATOM      7  O   UNL A   1      45.433  24.452  25.240  1.00  0.00    -0.460 OA
BRANCH   7   8
ATOM      8  C   UNL A   1      46.410  25.298  25.615  1.00  0.00     0.338 C 
ATOM      9  O   UNL A   1      47.487  25.462  25.069  1.00  0.00    -0.246 OA
BRANCH   8  10
ATOM     10  C   UNL A   1      45.889  26.157  26.698  1.00  0.00     0.087 C 
ATOM     11  C   UNL A   1      44.273  30.111  29.365  1.00  0.00    -0.026 A 
ATOM     12  C   UNL A   1      44.658  28.782  29.677  1.00  0.00     0.052 A 
ATOM     13  C   UNL A   1      44.152  30.439  28.004  1.00  0.00     0.045 A 
ATOM     14  C   UNL A   1      44.967  27.847  28.685  1.00  0.00     0.128 A 
ATOM     15  C   UNL A   1      44.411  29.482  27.013  1.00  0.00     0.032 A 
ATOM     16  Cl  UNL A   1      43.778  32.009  27.397  1.00  0.00    -0.084 Cl
ATOM     17  C   UNL A   1      44.865  28.207  27.349  1.00  0.00     0.019 A 
ATOM     18  O   UNL A   1      45.383  26.616  29.104  1.00  0.00    -0.475 OA
ATOM     19  C   UNL A   1      45.319  27.306  26.311  1.00  0.00     0.027 C 
ATOM     20  C   UNL A   1      45.985  25.707  28.133  1.00  0.00     0.316 C 
BRANCH  11  21
ATOM     21  C   UNL A   1      44.187  31.058  30.550  1.00  0.00     0.037 C 
BRANCH  21  22
ATOM     22  C   UNL A   1      43.034  32.055  30.718  1.00  0.00     0.008 C 
BRANCH  22  23
ATOM     23  C   UNL A   1      43.342  33.266  31.617  1.00  0.00    -0.017 C 
ATOM     24  C   UNL A   1      42.448  33.286  32.857  1.00  0.00     0.007 C 
ATOM     25  C   UNL A   1      44.814  33.239  32.039  1.00  0.00     0.007 C 
ENDBRANCH  22  23
ENDBRANCH  21  22
ENDBRANCH  11  21
BRANCH  20  26
ATOM     26  C   UNL A   1      47.438  25.434  28.548  1.00  0.00     0.430 C 
ATOM     27  F   UNL A   1      47.551  25.320  29.891  1.00  0.00    -0.167 F 
ATOM     28  F   UNL A   1      47.907  24.286  28.008  1.00  0.00    -0.167 F 
ATOM     29  F   UNL A   1      48.261  26.434  28.153  1.00  0.00    -0.167 F 
ENDBRANCH  20  26
ENDBRANCH   8  10
ENDBRANCH   7   8
ENDBRANCH   6   7
ENDBRANCH   5   6
ENDBRANCH   4   5
ENDBRANCH   3   4
ENDBRANCH   2   3
ENDBRANCH   1   2
BRANCH   1  30
ATOM     30  C   UNL A   1      42.539  20.202  25.790  1.00  0.00     0.188 C 
BRANCH  30  31
ATOM     31  C   UNL A   1      41.607  20.494  26.990  1.00  0.00     0.188 C 
BRANCH  31  32
ATOM     32  O   UNL A   1      42.031  21.572  27.822  1.00  0.00    -0.376 OA
BRANCH  32  33
ATOM     33  C   UNL A   1      43.016  22.441  27.280  1.00  0.00     0.202 C 
BRANCH  33  34
ATOM     34  C   UNL A   1      42.839  23.906  27.694  1.00  0.00     0.261 C 
BRANCH  34  35
ATOM     35  O   UNL A   1      42.285  24.759  26.681  1.00  0.00    -0.460 OA
BRANCH  35  36
ATOM     36  C   UNL A   1      40.951  24.978  26.707  1.00  0.00     0.338 C 
ATOM     37  O   UNL A   1      40.091  24.346  26.120  1.00  0.00    -0.246 OA
BRANCH  36  38
ATOM     38  C   UNL A   1      40.692  25.999  27.745  1.00  0.00     0.060 A 
ATOM     39  C   UNL A   1      39.687  25.800  28.694  1.00  0.00     0.016 A 
ATOM     40  C   UNL A   1      41.442  27.182  27.738  1.00  0.00     0.016 A 
ATOM     41  C   UNL A   1      39.461  26.773  29.668  1.00  0.00     0.010 A 
ATOM     42  C   UNL A   1      41.207  28.159  28.710  1.00  0.00     0.010 A 
ATOM     43  C   UNL A   1      40.236  27.944  29.700  1.00  0.00    -0.014 A 
BRANCH  43  44
ATOM     44  C   UNL A   1      40.183  28.817  30.896  1.00  0.00     0.031 A 
ATOM     45  C   UNL A   1      41.100  28.639  32.065  1.00  0.00     0.074 A 
ATOM     46  C   UNL A   1      39.267  29.805  30.892  1.00  0.00     0.049 A 
ATOM     47  N   UNL A   1      41.231  29.401  33.121  1.00  0.00    -0.248 NA
ATOM     48  C   UNL A   1      41.976  27.460  32.058  1.00  0.00     0.031 C 
ATOM     49  C   UNL A   1      38.304  30.045  29.814  1.00  0.00     0.029 A 
ATOM     50  N   UNL A   1      39.002  30.794  31.803  1.00  0.00    -0.354 N 
ATOM     51  C   UNL A   1      42.222  28.813  33.896  1.00  0.00     0.074 A 
ATOM     52  C   UNL A   1      42.625  27.602  33.208  1.00  0.00     0.031 C 
ATOM     53  C   UNL A   1      37.574  31.129  30.112  1.00  0.00     0.029 A 
ATOM     54  C   UNL A   1      38.004  31.649  31.406  1.00  0.00     0.049 A 
ATOM     55  H   UNL A   1      39.481  30.881  32.659  1.00  0.00     0.167 HD
ATOM     56  C   UNL A   1      42.753  29.260  35.060  1.00  0.00     0.037 A 
ATOM     57  C   UNL A   1      37.496  32.741  32.008  1.00  0.00     0.037 A 
ATOM     58  C   UNL A   1      42.323  30.458  35.742  1.00  0.00     0.049 A 
ATOM     59  C   UNL A   1      38.079  33.194  33.314  1.00  0.00     0.074 A 
ATOM     60  C   UNL A   1      42.824  31.010  36.910  1.00  0.00     0.029 A 
ATOM     61  N   UNL A   1      41.286  31.283  35.330  1.00  0.00    -0.354 N 
ATOM     62  N   UNL A   1      39.068  32.671  33.996  1.00  0.00    -0.248 NA
ATOM     63  C   UNL A   1      37.486  34.389  33.929  1.00  0.00     0.031 C 
ATOM     64  C   UNL A   1      42.060  32.137  37.228  1.00  0.00     0.029 A 
ATOM     65  C   UNL A   1      41.115  32.321  36.232  1.00  0.00     0.049 A 
ATOM     66  H   UNL A   1      40.749  31.150  34.515  1.00  0.00     0.167 HD
ATOM     67  C   UNL A   1      39.235  33.486  35.109  1.00  0.00     0.074 A 
ATOM     68  C   UNL A   1      38.247  34.541  35.005  1.00  0.00     0.031 C 
ATOM     69  C   UNL A   1      40.129  33.369  36.122  1.00  0.00     0.037 A 
BRANCH  56  70
ATOM     70  C   UNL A   1      43.872  28.466  35.678  1.00  0.00     0.058 A 
ATOM     71  C   UNL A   1      45.215  28.767  35.405  1.00  0.00     0.135 A 
ATOM     72  C   UNL A   1      43.606  27.457  36.618  1.00  0.00     0.135 A 
ATOM     73  F   UNL A   1      45.526  29.718  34.510  1.00  0.00    -0.206 F 
ATOM     74  C   UNL A   1      46.255  28.087  36.030  1.00  0.00     0.059 A 
ATOM     75  C   UNL A   1      44.631  26.778  37.274  1.00  0.00     0.059 A 
ATOM     76  F   UNL A   1      42.339  27.133  36.922  1.00  0.00    -0.206 F 
ATOM     77  C   UNL A   1      45.954  27.096  36.966  1.00  0.00     0.060 A 
BRANCH  77  78
ATOM     78  S   UNL A   1      47.318  26.236  37.778  1.00  0.00     0.124 S 
ATOM     79  O   UNL A   1      48.475  26.898  37.184  1.00  0.00    -0.237 OA
ATOM     80  O   UNL A   1      47.074  26.528  39.187  1.00  0.00    -0.237 OA
ATOM     81  O   UNL A   1      47.124  24.843  37.386  1.00  0.00    -0.744 OA
ENDBRANCH  77  78
ENDBRANCH  56  70
BRANCH  57  82
ATOM     82  C   UNL A   1      36.413  33.502  31.337  1.00  0.00     0.058 A 
ATOM     83  C   UNL A   1      36.663  34.216  30.157  1.00  0.00     0.135 A 
ATOM     84  C   UNL A   1      35.097  33.477  31.824  1.00  0.00     0.135 A 
ATOM     85  F   UNL A   1      37.905  34.266  29.653  1.00  0.00    -0.206 F 
ATOM     86  C   UNL A   1      35.647  34.883  29.483  1.00  0.00     0.059 A 
ATOM     87  C   UNL A   1      34.060  34.118  31.156  1.00  0.00     0.059 A 
ATOM     88  F   UNL A   1      34.805  32.788  32.939  1.00  0.00    -0.206 F 
ATOM     89  C   UNL A   1      34.346  34.822  29.987  1.00  0.00     0.060 A 
BRANCH  89  90
ATOM     90  S   UNL A   1      33.025  35.638  29.066  1.00  0.00     0.124 S 
ATOM     91  O   UNL A   1      32.526  34.544  28.239  1.00  0.00    -0.237 OA
ATOM     92  O   UNL A   1      32.139  36.086  30.135  1.00  0.00    -0.237 OA
ATOM     93  O   UNL A   1      33.721  36.702  28.350  1.00  0.00    -0.744 OA
ENDBRANCH  89  90
ENDBRANCH  57  82
BRANCH  69  94
ATOM     94  C   UNL A   1      40.101  34.416  37.200  1.00  0.00     0.058 A 
ATOM     95  C   UNL A   1      39.282  34.283  38.330  1.00  0.00     0.135 A 
ATOM     96  C   UNL A   1      40.965  35.522  37.141  1.00  0.00     0.135 A 
ATOM     97  F   UNL A   1      38.430  33.251  38.431  1.00  0.00    -0.206 F 
ATOM     98  C   UNL A   1      39.318  35.212  39.366  1.00  0.00     0.059 A 
ATOM     99  C   UNL A   1      41.035  36.450  38.175  1.00  0.00     0.059 A 
ATOM    100  F   UNL A   1      41.772  35.693  36.081  1.00  0.00    -0.206 F 
ATOM    101  C   UNL A   1      40.206  36.286  39.284  1.00  0.00     0.060 A 
BRANCH 101 102
ATOM    102  S   UNL A   1      40.289  37.445  40.667  1.00  0.00     0.124 S 
ATOM    103  O   UNL A   1      38.904  37.457  41.126  1.00  0.00    -0.237 OA
ATOM    104  O   UNL A   1      41.245  36.794  41.558  1.00  0.00    -0.237 OA
ATOM    105  O   UNL A   1      40.757  38.681  40.049  1.00  0.00    -0.744 OA
ENDBRANCH 101 102
ENDBRANCH  69  94
ENDBRANCH  43  44
ENDBRANCH  36  38
ENDBRANCH  35  36
ENDBRANCH  34  35
ENDBRANCH  33  34
ENDBRANCH  32  33
ENDBRANCH  31  32
ENDBRANCH  30  31
ENDBRANCH   1  30
TORSDOF 27
ENDMDL
