MODEL 1
REMARK VINA RESULT:      -9.7      0.000      0.000
REMARK SMILES Cc1c(NC(=O)c2ccccc2NC(=O)[C@@H]2CCCO2)cccc1C(=O)OCCOCCOCCOCCOC(=O)c1ccc(-c2c3nc(c(-c4c(F)cc(S(=O)(=O)[O-])cc4F)c4ccc([nH]4)c(-c4c(F)cc(S(=O)(=O)[O-])cc4F)c4nc(c(-c5c(F)cc(S(=O)(=O)[O-])cc5F)c5ccc2[nH]5)C=C4)C=C3)cc1
REMARK SMILES IDX 32 1 31 2 30 3 29 4 28 5 27 6 25 7 26 8 24 9 1 10 2 11 3 12
REMARK SMILES IDX 21 13 23 14 22 15 4 16 5 17 6 19 7 20 8 21 12 22 9 23 11 24
REMARK SMILES IDX 10 25 13 26 14 27 15 29 16 30 17 31 20 32 18 33 19 34 33 35
REMARK SMILES IDX 34 36 35 37 36 38 37 39 38 40 39 41 40 42 41 43 42 44 43 45
REMARK SMILES IDX 107 46 44 47 106 48 45 49 46 50 47 51 100 52 48 53 105 54
REMARK SMILES IDX 99 55 101 56 49 57 104 58 98 59 97 60 50 62 84 63 63 64
REMARK SMILES IDX 83 65 64 66 67 67 82 68 102 69 65 70 66 71 81 73 103 74
REMARK SMILES IDX 68 75 51 76 52 77 61 78 53 79 54 80 60 81 62 82 55 83 56 84
REMARK SMILES IDX 57 85 58 86 59 87 85 88 86 89 95 90 87 91 88 92 94 93 96 94
REMARK SMILES IDX 89 95 90 96 91 97 92 98 93 99 69 100 70 101 79 102 71 103
REMARK SMILES IDX 72 104 78 105 80 106 73 107 74 108 75 109 76 110 77 111
REMARK H PARENT 4 18 13 28 101 61 67 72
REMARK Flexibility Score: inf
ROOT
ATOM      1  C   UNL A   1      41.384  23.539  27.399  1.00  0.00     0.188 C 
ENDROOT
BRANCH   1   2
ATOM      2  C   UNL A   1      40.602  22.664  26.403  1.00  0.00     0.188 C 
BRANCH   2   3
ATOM      3  O   UNL A   1      39.316  22.162  26.713  1.00  0.00    -0.376 OA
BRANCH   3   4
ATOM      4  C   UNL A   1      38.675  21.462  25.658  1.00  0.00     0.202 C 
BRANCH   4   5
ATOM      5  C   UNL A   1      37.546  22.161  24.948  1.00  0.00     0.261 C 
BRANCH   5   6
ATOM      6  O   UNL A   1      36.523  21.224  24.665  1.00  0.00    -0.460 OA
BRANCH   6   7
ATOM      7  C   UNL A   1      35.420  21.425  25.394  1.00  0.00     0.338 C 
ATOM      8  O   UNL A   1      35.346  21.581  26.591  1.00  0.00    -0.246 OA
BRANCH   7   9
ATOM      9  C   UNL A   1      34.290  21.728  24.494  1.00  0.00     0.065 A 
ATOM     10  C   UNL A   1      34.691  24.241  24.058  1.00  0.00     0.047 C 
ATOM     11  C   UNL A   1      34.052  22.908  23.759  1.00  0.00    -0.013 A 
ATOM     12  C   UNL A   1      33.068  22.846  22.752  1.00  0.00     0.045 A 
ATOM     13  C   UNL A   1      32.325  21.669  22.569  1.00  0.00     0.026 A 
ATOM     14  C   UNL A   1      33.412  20.635  24.409  1.00  0.00     0.016 A 
ATOM     15  C   UNL A   1      32.424  20.605  23.452  1.00  0.00     0.003 A 
BRANCH  12  16
ATOM     16  N   UNL A   1      32.841  23.991  21.950  1.00  0.00    -0.322 N 
ATOM     17  C   UNL A   1      32.006  25.067  22.163  1.00  0.00     0.257 C 
ATOM     18  H   UNL A   1      33.358  24.023  21.113  1.00  0.00     0.170 HD
ATOM     19  O   UNL A   1      31.759  25.862  21.260  1.00  0.00    -0.269 OA
BRANCH  17  20
ATOM     20  C   UNL A   1      31.428  25.301  23.510  1.00  0.00     0.063 A 
ATOM     21  C   UNL A   1      30.760  24.207  24.082  1.00  0.00     0.016 A 
ATOM     22  C   UNL A   1      31.607  26.505  24.230  1.00  0.00     0.054 A 
ATOM     23  C   UNL A   1      30.372  24.252  25.414  1.00  0.00     0.001 A 
ATOM     24  C   UNL A   1      31.323  26.470  25.595  1.00  0.00     0.027 A 
ATOM     25  C   UNL A   1      30.704  25.361  26.182  1.00  0.00     0.002 A 
BRANCH  22  26
ATOM     26  N   UNL A   1      32.007  27.660  23.523  1.00  0.00    -0.323 N 
ATOM     27  C   UNL A   1      31.384  28.783  23.068  1.00  0.00     0.253 C 
ATOM     28  H   UNL A   1      32.968  27.653  23.306  1.00  0.00     0.170 HD
ATOM     29  O   UNL A   1      31.981  29.424  22.197  1.00  0.00    -0.272 OA
BRANCH  27  30
ATOM     30  C   UNL A   1      29.992  29.203  23.530  1.00  0.00     0.207 C 
ATOM     31  C   UNL A   1      29.120  29.357  22.292  1.00  0.00     0.044 C 
ATOM     32  O   UNL A   1      29.935  30.468  24.213  1.00  0.00    -0.368 OA
ATOM     33  C   UNL A   1      28.116  30.388  22.718  1.00  0.00     0.032 C 
ATOM     34  C   UNL A   1      28.961  31.300  23.575  1.00  0.00     0.161 C 
ENDBRANCH  27  30
ENDBRANCH  22  26
ENDBRANCH  17  20
ENDBRANCH  12  16
ENDBRANCH   7   9
ENDBRANCH   6   7
ENDBRANCH   5   6
ENDBRANCH   4   5
ENDBRANCH   3   4
ENDBRANCH   2   3
ENDBRANCH   1   2
BRANCH   1  35
ATOM     35  O   UNL A   1      40.974  24.865  27.656  1.00  0.00    -0.377 OA
BRANCH  35  36
ATOM     36  C   UNL A   1      40.677  25.702  26.537  1.00  0.00     0.188 C 
BRANCH  36  37
ATOM     37  C   UNL A   1      41.418  27.002  26.319  1.00  0.00     0.188 C 
BRANCH  37  38
ATOM     38  O   UNL A   1      42.771  26.643  26.040  1.00  0.00    -0.376 OA
BRANCH  38  39
ATOM     39  C   UNL A   1      43.561  27.669  25.482  1.00  0.00     0.202 C 
BRANCH  39  40
ATOM     40  C   UNL A   1      44.553  28.257  26.487  1.00  0.00     0.261 C 
BRANCH  40  41
ATOM     41  O   UNL A   1      44.601  29.708  26.406  1.00  0.00    -0.460 OA
BRANCH  41  42
ATOM     42  C   UNL A   1      45.769  30.328  26.045  1.00  0.00     0.338 C 
ATOM     43  O   UNL A   1      46.555  29.838  25.250  1.00  0.00    -0.246 OA
BRANCH  42  44
ATOM     44  C   UNL A   1      45.832  31.759  26.466  1.00  0.00     0.060 A 
ATOM     45  C   UNL A   1      46.893  32.300  27.210  1.00  0.00     0.016 A 
ATOM     46  C   UNL A   1      44.791  32.594  26.118  1.00  0.00     0.016 A 
ATOM     47  C   UNL A   1      46.805  33.591  27.786  1.00  0.00     0.010 A 
ATOM     48  C   UNL A   1      44.698  33.841  26.709  1.00  0.00     0.010 A 
ATOM     49  C   UNL A   1      45.656  34.352  27.602  1.00  0.00    -0.014 A 
BRANCH  49  50
ATOM     50  C   UNL A   1      45.266  35.594  28.332  1.00  0.00     0.031 A 
ATOM     51  C   UNL A   1      45.628  36.929  27.711  1.00  0.00     0.074 A 
ATOM     52  C   UNL A   1      44.269  35.527  29.262  1.00  0.00     0.049 A 
ATOM     53  N   UNL A   1      45.125  38.070  28.033  1.00  0.00    -0.248 NA
ATOM     54  C   UNL A   1      46.546  37.073  26.577  1.00  0.00     0.031 C 
ATOM     55  C   UNL A   1      43.299  36.573  29.599  1.00  0.00     0.029 A 
ATOM     56  N   UNL A   1      43.827  34.485  30.066  1.00  0.00    -0.354 N 
ATOM     57  C   UNL A   1      45.337  38.981  27.008  1.00  0.00     0.074 A 
ATOM     58  C   UNL A   1      46.292  38.322  26.155  1.00  0.00     0.031 C 
ATOM     59  C   UNL A   1      42.437  36.172  30.543  1.00  0.00     0.029 A 
ATOM     60  C   UNL A   1      42.984  34.959  31.079  1.00  0.00     0.049 A 
ATOM     61  H   UNL A   1      44.073  33.539  29.939  1.00  0.00     0.167 HD
ATOM     62  C   UNL A   1      44.576  40.126  26.967  1.00  0.00     0.037 A 
ATOM     63  C   UNL A   1      43.403  34.873  32.375  1.00  0.00     0.037 A 
ATOM     64  C   UNL A   1      43.790  40.265  28.218  1.00  0.00     0.049 A 
ATOM     65  C   UNL A   1      43.775  36.291  32.834  1.00  0.00     0.074 A 
ATOM     66  C   UNL A   1      42.452  40.449  28.522  1.00  0.00     0.029 A 
ATOM     67  N   UNL A   1      44.414  40.017  29.446  1.00  0.00    -0.354 N 
ATOM     68  N   UNL A   1      44.307  37.206  32.041  1.00  0.00    -0.248 NA
ATOM     69  C   UNL A   1      43.208  36.887  34.049  1.00  0.00     0.031 C 
ATOM     70  C   UNL A   1      42.261  40.096  29.897  1.00  0.00     0.029 A 
ATOM     71  C   UNL A   1      43.500  39.796  30.460  1.00  0.00     0.049 A 
ATOM     72  H   UNL A   1      45.391  40.001  29.574  1.00  0.00     0.167 HD
ATOM     73  C   UNL A   1      43.976  38.458  32.509  1.00  0.00     0.074 A 
ATOM     74  C   UNL A   1      43.343  38.202  33.799  1.00  0.00     0.031 C 
ATOM     75  C   UNL A   1      43.961  39.656  31.837  1.00  0.00     0.037 A 
BRANCH  62  76
ATOM     76  C   UNL A   1      44.381  41.082  25.765  1.00  0.00     0.058 A 
ATOM     77  C   UNL A   1      43.105  41.219  25.156  1.00  0.00     0.135 A 
ATOM     78  C   UNL A   1      45.393  41.819  25.104  1.00  0.00     0.135 A 
ATOM     79  F   UNL A   1      42.027  40.606  25.665  1.00  0.00    -0.206 F 
ATOM     80  C   UNL A   1      42.859  41.991  24.008  1.00  0.00     0.059 A 
ATOM     81  C   UNL A   1      45.160  42.642  23.978  1.00  0.00     0.059 A 
ATOM     82  F   UNL A   1      46.673  41.760  25.492  1.00  0.00    -0.206 F 
ATOM     83  C   UNL A   1      43.889  42.712  23.425  1.00  0.00     0.060 A 
BRANCH  83  84
ATOM     84  S   UNL A   1      43.530  43.759  21.991  1.00  0.00     0.124 S 
ATOM     85  O   UNL A   1      42.079  43.899  22.063  1.00  0.00    -0.237 OA
ATOM     86  O   UNL A   1      44.296  44.967  22.283  1.00  0.00    -0.237 OA
ATOM     87  O   UNL A   1      44.022  42.976  20.861  1.00  0.00    -0.744 OA
ENDBRANCH  83  84
ENDBRANCH  62  76
BRANCH  63  88
ATOM     88  C   UNL A   1      43.898  33.471  32.634  1.00  0.00     0.058 A 
ATOM     89  C   UNL A   1      45.243  33.431  33.092  1.00  0.00     0.135 A 
ATOM     90  C   UNL A   1      43.046  32.479  33.159  1.00  0.00     0.135 A 
ATOM     91  F   UNL A   1      46.129  34.326  32.620  1.00  0.00    -0.206 F 
ATOM     92  C   UNL A   1      45.645  32.652  34.182  1.00  0.00     0.059 A 
ATOM     93  C   UNL A   1      43.438  31.675  34.251  1.00  0.00     0.059 A 
ATOM     94  F   UNL A   1      41.759  32.430  32.779  1.00  0.00    -0.206 F 
ATOM     95  C   UNL A   1      44.715  31.824  34.799  1.00  0.00     0.060 A 
BRANCH  95  96
ATOM     96  S   UNL A   1      45.135  31.140  36.433  1.00  0.00     0.124 S 
ATOM     97  O   UNL A   1      46.086  30.091  36.092  1.00  0.00    -0.237 OA
ATOM     98  O   UNL A   1      45.687  32.304  37.124  1.00  0.00    -0.237 OA
ATOM     99  O   UNL A   1      43.851  30.681  36.944  1.00  0.00    -0.744 OA
ENDBRANCH  95  96
ENDBRANCH  63  88
BRANCH  75 100
ATOM    100  C   UNL A   1      44.520  40.895  32.501  1.00  0.00     0.058 A 
ATOM    101  C   UNL A   1      43.691  41.889  33.045  1.00  0.00     0.135 A 
ATOM    102  C   UNL A   1      45.903  41.013  32.803  1.00  0.00     0.135 A 
ATOM    103  F   UNL A   1      42.357  41.848  32.918  1.00  0.00    -0.206 F 
ATOM    104  C   UNL A   1      44.197  42.953  33.777  1.00  0.00     0.059 A 
ATOM    105  C   UNL A   1      46.419  42.034  33.588  1.00  0.00     0.059 A 
ATOM    106  F   UNL A   1      46.811  40.127  32.370  1.00  0.00    -0.206 F 
ATOM    107  C   UNL A   1      45.561  43.019  34.040  1.00  0.00     0.060 A 
BRANCH 107 108
ATOM    108  S   UNL A   1      46.191  44.413  34.973  1.00  0.00     0.124 S 
ATOM    109  O   UNL A   1      47.560  44.489  34.470  1.00  0.00    -0.237 OA
ATOM    110  O   UNL A   1      45.303  45.496  34.558  1.00  0.00    -0.237 OA
ATOM    111  O   UNL A   1      46.048  43.989  36.361  1.00  0.00    -0.744 OA
ENDBRANCH 107 108
ENDBRANCH  75 100
ENDBRANCH  49  50
ENDBRANCH  42  44
ENDBRANCH  41  42
ENDBRANCH  40  41
ENDBRANCH  39  40
ENDBRANCH  38  39
ENDBRANCH  37  38
ENDBRANCH  36  37
ENDBRANCH  35  36
ENDBRANCH   1  35
TORSDOF 27
ENDMDL
MODEL 2
REMARK VINA RESULT:      -9.0      5.859     11.401
REMARK SMILES Cc1c(NC(=O)c2ccccc2NC(=O)[C@@H]2CCCO2)cccc1C(=O)OCCOCCOCCOCCOC(=O)c1ccc(-c2c3nc(c(-c4c(F)cc(S(=O)(=O)[O-])cc4F)c4ccc([nH]4)c(-c4c(F)cc(S(=O)(=O)[O-])cc4F)c4nc(c(-c5c(F)cc(S(=O)(=O)[O-])cc5F)c5ccc2[nH]5)C=C4)C=C3)cc1
REMARK SMILES IDX 32 1 31 2 30 3 29 4 28 5 27 6 25 7 26 8 24 9 1 10 2 11 3 12
REMARK SMILES IDX 21 13 23 14 22 15 4 16 5 17 6 19 7 20 8 21 12 22 9 23 11 24
REMARK SMILES IDX 10 25 13 26 14 27 15 29 16 30 17 31 20 32 18 33 19 34 33 35
REMARK SMILES IDX 34 36 35 37 36 38 37 39 38 40 39 41 40 42 41 43 42 44 43 45
REMARK SMILES IDX 107 46 44 47 106 48 45 49 46 50 47 51 100 52 48 53 105 54
REMARK SMILES IDX 99 55 101 56 49 57 104 58 98 59 97 60 50 62 84 63 63 64
REMARK SMILES IDX 83 65 64 66 67 67 82 68 102 69 65 70 66 71 81 73 103 74
REMARK SMILES IDX 68 75 51 76 52 77 61 78 53 79 54 80 60 81 62 82 55 83 56 84
REMARK SMILES IDX 57 85 58 86 59 87 85 88 86 89 95 90 87 91 88 92 94 93 96 94
REMARK SMILES IDX 89 95 90 96 91 97 92 98 93 99 69 100 70 101 79 102 71 103
REMARK SMILES IDX 72 104 78 105 80 106 73 107 74 108 75 109 76 110 77 111
REMARK H PARENT 4 18 13 28 101 61 67 72
REMARK Flexibility Score: inf
ROOT
ATOM      1  C   UNL A   1      33.696  37.258  32.137  1.00  0.00     0.188 C 
ENDROOT
BRANCH   1   2
ATOM      2  C   UNL A   1      32.406  36.535  31.707  1.00  0.00     0.188 C 
BRANCH   2   3
ATOM      3  O   UNL A   1      32.118  36.288  30.344  1.00  0.00    -0.376 OA
BRANCH   3   4
ATOM      4  C   UNL A   1      33.254  36.164  29.503  1.00  0.00     0.202 C 
BRANCH   4   5
ATOM      5  C   UNL A   1      33.306  34.975  28.580  1.00  0.00     0.261 C 
BRANCH   5   6
ATOM      6  O   UNL A   1      34.610  34.423  28.605  1.00  0.00    -0.460 OA
BRANCH   6   7
ATOM      7  C   UNL A   1      34.738  33.439  29.501  1.00  0.00     0.338 C 
ATOM      8  O   UNL A   1      34.030  33.214  30.456  1.00  0.00    -0.246 OA
BRANCH   7   9
ATOM      9  C   UNL A   1      35.718  32.453  29.003  1.00  0.00     0.065 A 
ATOM     10  C   UNL A   1      37.924  33.736  29.394  1.00  0.00     0.047 C 
ATOM     11  C   UNL A   1      37.123  32.491  29.108  1.00  0.00    -0.013 A 
ATOM     12  C   UNL A   1      37.818  31.300  28.816  1.00  0.00     0.045 A 
ATOM     13  C   UNL A   1      37.115  30.170  28.369  1.00  0.00     0.026 A 
ATOM     14  C   UNL A   1      35.068  31.372  28.384  1.00  0.00     0.016 A 
ATOM     15  C   UNL A   1      35.765  30.232  28.060  1.00  0.00     0.003 A 
BRANCH  12  16
ATOM     16  N   UNL A   1      39.226  31.277  28.968  1.00  0.00    -0.322 N 
ATOM     17  C   UNL A   1      39.993  30.844  30.029  1.00  0.00     0.257 C 
ATOM     18  H   UNL A   1      39.734  31.623  28.199  1.00  0.00     0.170 HD
ATOM     19  O   UNL A   1      41.191  31.104  30.088  1.00  0.00    -0.269 OA
BRANCH  17  20
ATOM     20  C   UNL A   1      39.379  30.014  31.096  1.00  0.00     0.063 A 
ATOM     21  C   UNL A   1      38.623  30.713  32.049  1.00  0.00     0.016 A 
ATOM     22  C   UNL A   1      39.458  28.602  31.118  1.00  0.00     0.054 A 
ATOM     23  C   UNL A   1      37.838  30.016  32.957  1.00  0.00     0.001 A 
ATOM     24  C   UNL A   1      38.563  27.936  31.955  1.00  0.00     0.027 A 
ATOM     25  C   UNL A   1      37.767  28.631  32.872  1.00  0.00     0.002 A 
BRANCH  22  26
ATOM     26  N   UNL A   1      40.455  27.970  30.344  1.00  0.00    -0.323 N 
ATOM     27  C   UNL A   1      41.810  27.854  30.416  1.00  0.00     0.253 C 
ATOM     28  H   UNL A   1      40.081  27.498  29.564  1.00  0.00     0.170 HD
ATOM     29  O   UNL A   1      42.385  27.508  29.378  1.00  0.00    -0.272 OA
BRANCH  27  30
ATOM     30  C   UNL A   1      42.607  28.205  31.668  1.00  0.00     0.207 C 
ATOM     31  C   UNL A   1      43.769  27.228  31.769  1.00  0.00     0.044 C 
ATOM     32  O   UNL A   1      41.880  28.083  32.904  1.00  0.00    -0.368 OA
ATOM     33  C   UNL A   1      44.020  27.159  33.246  1.00  0.00     0.032 C 
ATOM     34  C   UNL A   1      42.617  27.242  33.798  1.00  0.00     0.161 C 
ENDBRANCH  27  30
ENDBRANCH  22  26
ENDBRANCH  17  20
ENDBRANCH  12  16
ENDBRANCH   7   9
ENDBRANCH   6   7
ENDBRANCH   5   6
ENDBRANCH   4   5
ENDBRANCH   3   4
ENDBRANCH   2   3
ENDBRANCH   1   2
BRANCH   1  35
ATOM     35  O   UNL A   1      34.450  36.780  33.230  1.00  0.00    -0.377 OA
BRANCH  35  36
ATOM     36  C   UNL A   1      34.245  35.428  33.642  1.00  0.00     0.188 C 
BRANCH  36  37
ATOM     37  C   UNL A   1      35.325  34.385  33.458  1.00  0.00     0.188 C 
BRANCH  37  38
ATOM     38  O   UNL A   1      35.539  33.806  34.744  1.00  0.00    -0.376 OA
BRANCH  38  39
ATOM     39  C   UNL A   1      36.865  33.409  35.012  1.00  0.00     0.202 C 
BRANCH  39  40
ATOM     40  C   UNL A   1      37.890  34.215  34.213  1.00  0.00     0.261 C 
BRANCH  40  41
ATOM     41  O   UNL A   1      39.205  33.595  34.250  1.00  0.00    -0.460 OA
BRANCH  41  42
ATOM     42  C   UNL A   1      40.235  34.230  34.893  1.00  0.00     0.338 C 
ATOM     43  O   UNL A   1      40.215  34.467  36.091  1.00  0.00    -0.246 OA
BRANCH  42  44
ATOM     44  C   UNL A   1      41.479  34.317  34.073  1.00  0.00     0.060 A 
ATOM     45  C   UNL A   1      42.599  35.079  34.447  1.00  0.00     0.016 A 
ATOM     46  C   UNL A   1      41.533  33.627  32.881  1.00  0.00     0.016 A 
ATOM     47  C   UNL A   1      43.659  35.324  33.539  1.00  0.00     0.010 A 
ATOM     48  C   UNL A   1      42.554  33.896  31.989  1.00  0.00     0.010 A 
ATOM     49  C   UNL A   1      43.606  34.790  32.257  1.00  0.00    -0.014 A 
BRANCH  49  50
ATOM     50  C   UNL A   1      44.468  35.146  31.091  1.00  0.00     0.031 A 
ATOM     51  C   UNL A   1      45.469  34.116  30.606  1.00  0.00     0.074 A 
ATOM     52  C   UNL A   1      44.068  36.151  30.257  1.00  0.00     0.049 A 
ATOM     53  N   UNL A   1      46.066  34.127  29.464  1.00  0.00    -0.248 NA
ATOM     54  C   UNL A   1      45.812  32.904  31.354  1.00  0.00     0.031 C 
ATOM     55  C   UNL A   1      44.307  36.252  28.815  1.00  0.00     0.029 A 
ATOM     56  N   UNL A   1      43.282  37.273  30.477  1.00  0.00    -0.354 N 
ATOM     57  C   UNL A   1      46.548  32.858  29.175  1.00  0.00     0.074 A 
ATOM     58  C   UNL A   1      46.423  32.152  30.424  1.00  0.00     0.031 C 
ATOM     59  C   UNL A   1      43.758  37.357  28.293  1.00  0.00     0.029 A 
ATOM     60  C   UNL A   1      43.392  38.176  29.412  1.00  0.00     0.049 A 
ATOM     61  H   UNL A   1      42.721  37.414  31.275  1.00  0.00     0.167 HD
ATOM     62  C   UNL A   1      46.878  32.552  27.876  1.00  0.00     0.037 A 
ATOM     63  C   UNL A   1      43.981  39.387  29.637  1.00  0.00     0.037 A 
ATOM     64  C   UNL A   1      46.855  33.775  27.037  1.00  0.00     0.049 A 
ATOM     65  C   UNL A   1      45.368  39.354  28.979  1.00  0.00     0.074 A 
ATOM     66  C   UNL A   1      46.233  34.146  25.856  1.00  0.00     0.029 A 
ATOM     67  N   UNL A   1      47.435  34.951  27.530  1.00  0.00    -0.354 N 
ATOM     68  N   UNL A   1      46.123  38.271  28.908  1.00  0.00    -0.248 NA
ATOM     69  C   UNL A   1      45.800  40.383  28.027  1.00  0.00     0.031 C 
ATOM     70  C   UNL A   1      46.270  35.575  25.770  1.00  0.00     0.029 A 
ATOM     71  C   UNL A   1      47.002  36.072  26.846  1.00  0.00     0.049 A 
ATOM     72  H   UNL A   1      48.077  34.975  28.276  1.00  0.00     0.167 HD
ATOM     73  C   UNL A   1      46.953  38.369  27.812  1.00  0.00     0.074 A 
ATOM     74  C   UNL A   1      46.754  39.734  27.334  1.00  0.00     0.031 C 
ATOM     75  C   UNL A   1      47.602  37.371  27.128  1.00  0.00     0.037 A 
BRANCH  62  76
ATOM     76  C   UNL A   1      47.083  31.143  27.267  1.00  0.00     0.058 A 
ATOM     77  C   UNL A   1      48.324  30.469  27.418  1.00  0.00     0.135 A 
ATOM     78  C   UNL A   1      46.162  30.435  26.458  1.00  0.00     0.135 A 
ATOM     79  F   UNL A   1      49.305  30.987  28.170  1.00  0.00    -0.206 F 
ATOM     80  C   UNL A   1      48.626  29.233  26.822  1.00  0.00     0.059 A 
ATOM     81  C   UNL A   1      46.426  29.167  25.890  1.00  0.00     0.059 A 
ATOM     82  F   UNL A   1      44.964  30.944  26.147  1.00  0.00    -0.206 F 
ATOM     83  C   UNL A   1      47.669  28.577  26.065  1.00  0.00     0.060 A 
BRANCH  83  84
ATOM     84  S   UNL A   1      48.058  26.950  25.371  1.00  0.00     0.124 S 
ATOM     85  O   UNL A   1      47.446  27.020  24.047  1.00  0.00    -0.237 OA
ATOM     86  O   UNL A   1      49.517  26.938  25.392  1.00  0.00    -0.237 OA
ATOM     87  O   UNL A   1      47.421  26.018  26.299  1.00  0.00    -0.744 OA
ENDBRANCH  83  84
ENDBRANCH  62  76
BRANCH  63  88
ATOM     88  C   UNL A   1      43.363  40.006  30.867  1.00  0.00     0.058 A 
ATOM     89  C   UNL A   1      44.293  40.182  31.927  1.00  0.00     0.135 A 
ATOM     90  C   UNL A   1      42.359  40.990  30.768  1.00  0.00     0.135 A 
ATOM     91  F   UNL A   1      45.267  39.273  32.111  1.00  0.00    -0.206 F 
ATOM     92  C   UNL A   1      44.390  41.372  32.656  1.00  0.00     0.059 A 
ATOM     93  C   UNL A   1      42.433  42.192  31.502  1.00  0.00     0.059 A 
ATOM     94  F   UNL A   1      41.430  40.905  29.803  1.00  0.00    -0.206 F 
ATOM     95  C   UNL A   1      43.493  42.401  32.389  1.00  0.00     0.060 A 
BRANCH  95  96
ATOM     96  S   UNL A   1      43.878  44.056  33.041  1.00  0.00     0.124 S 
ATOM     97  O   UNL A   1      45.302  44.173  32.763  1.00  0.00    -0.237 OA
ATOM     98  O   UNL A   1      42.998  44.914  32.249  1.00  0.00    -0.237 OA
ATOM     99  O   UNL A   1      43.520  43.952  34.448  1.00  0.00    -0.744 OA
ENDBRANCH  95  96
ENDBRANCH  63  88
BRANCH  75 100
ATOM    100  C   UNL A   1      49.041  37.568  26.702  1.00  0.00     0.058 A 
ATOM    101  C   UNL A   1      50.035  37.988  27.601  1.00  0.00     0.135 A 
ATOM    102  C   UNL A   1      49.503  37.131  25.432  1.00  0.00     0.135 A 
ATOM    103  F   UNL A   1      49.749  38.336  28.864  1.00  0.00    -0.206 F 
ATOM    104  C   UNL A   1      51.376  38.033  27.250  1.00  0.00     0.059 A 
ATOM    105  C   UNL A   1      50.846  37.107  25.087  1.00  0.00     0.059 A 
ATOM    106  F   UNL A   1      48.673  36.683  24.481  1.00  0.00    -0.206 F 
ATOM    107  C   UNL A   1      51.771  37.595  25.991  1.00  0.00     0.060 A 
BRANCH 107 108
ATOM    108  S   UNL A   1      53.507  37.679  25.556  1.00  0.00     0.124 S 
ATOM    109  O   UNL A   1      54.132  37.512  26.865  1.00  0.00    -0.237 OA
ATOM    110  O   UNL A   1      53.656  36.555  24.636  1.00  0.00    -0.237 OA
ATOM    111  O   UNL A   1      53.645  38.999  24.952  1.00  0.00    -0.744 OA
ENDBRANCH 107 108
ENDBRANCH  75 100
ENDBRANCH  49  50
ENDBRANCH  42  44
ENDBRANCH  41  42
ENDBRANCH  40  41
ENDBRANCH  39  40
ENDBRANCH  38  39
ENDBRANCH  37  38
ENDBRANCH  36  37
ENDBRANCH  35  36
ENDBRANCH   1  35
TORSDOF 27
ENDMDL
MODEL 3
REMARK VINA RESULT:      -8.9      7.519     14.240
REMARK SMILES Cc1c(NC(=O)c2ccccc2NC(=O)[C@@H]2CCCO2)cccc1C(=O)OCCOCCOCCOCCOC(=O)c1ccc(-c2c3nc(c(-c4c(F)cc(S(=O)(=O)[O-])cc4F)c4ccc([nH]4)c(-c4c(F)cc(S(=O)(=O)[O-])cc4F)c4nc(c(-c5c(F)cc(S(=O)(=O)[O-])cc5F)c5ccc2[nH]5)C=C4)C=C3)cc1
REMARK SMILES IDX 32 1 31 2 30 3 29 4 28 5 27 6 25 7 26 8 24 9 1 10 2 11 3 12
REMARK SMILES IDX 21 13 23 14 22 15 4 16 5 17 6 19 7 20 8 21 12 22 9 23 11 24
REMARK SMILES IDX 10 25 13 26 14 27 15 29 16 30 17 31 20 32 18 33 19 34 33 35
REMARK SMILES IDX 34 36 35 37 36 38 37 39 38 40 39 41 40 42 41 43 42 44 43 45
REMARK SMILES IDX 107 46 44 47 106 48 45 49 46 50 47 51 100 52 48 53 105 54
REMARK SMILES IDX 99 55 101 56 49 57 104 58 98 59 97 60 50 62 84 63 63 64
REMARK SMILES IDX 83 65 64 66 67 67 82 68 102 69 65 70 66 71 81 73 103 74
REMARK SMILES IDX 68 75 51 76 52 77 61 78 53 79 54 80 60 81 62 82 55 83 56 84
REMARK SMILES IDX 57 85 58 86 59 87 85 88 86 89 95 90 87 91 88 92 94 93 96 94
REMARK SMILES IDX 89 95 90 96 91 97 92 98 93 99 69 100 70 101 79 102 71 103
REMARK SMILES IDX 72 104 78 105 80 106 73 107 74 108 75 109 76 110 77 111
REMARK H PARENT 4 18 13 28 101 61 67 72
REMARK Flexibility Score: inf
ROOT
ATOM      1  C   UNL A   1      41.761  25.845  28.061  1.00  0.00     0.188 C 
ENDROOT
BRANCH   1   2
ATOM      2  C   UNL A   1      42.308  27.256  28.346  1.00  0.00     0.188 C 
BRANCH   2   3
ATOM      3  O   UNL A   1      43.555  27.682  27.832  1.00  0.00    -0.376 OA
BRANCH   3   4
ATOM      4  C   UNL A   1      43.496  28.807  26.970  1.00  0.00     0.202 C 
BRANCH   4   5
ATOM      5  C   UNL A   1      44.001  30.120  27.509  1.00  0.00     0.261 C 
BRANCH   5   6
ATOM      6  O   UNL A   1      44.158  31.032  26.438  1.00  0.00    -0.460 OA
BRANCH   6   7
ATOM      7  C   UNL A   1      45.441  31.305  26.174  1.00  0.00     0.338 C 
ATOM      8  O   UNL A   1      46.234  30.611  25.579  1.00  0.00    -0.246 OA
BRANCH   7   9
ATOM      9  C   UNL A   1      45.704  32.729  26.457  1.00  0.00     0.065 A 
ATOM     10  C   UNL A   1      43.932  33.849  24.949  1.00  0.00     0.047 C 
ATOM     11  C   UNL A   1      44.943  33.851  26.068  1.00  0.00    -0.013 A 
ATOM     12  C   UNL A   1      45.237  35.074  26.703  1.00  0.00     0.045 A 
ATOM     13  C   UNL A   1      46.297  35.150  27.621  1.00  0.00     0.026 A 
ATOM     14  C   UNL A   1      46.865  32.878  27.234  1.00  0.00     0.016 A 
ATOM     15  C   UNL A   1      47.168  34.089  27.812  1.00  0.00     0.003 A 
BRANCH  12  16
ATOM     16  N   UNL A   1      44.456  36.212  26.387  1.00  0.00    -0.322 N 
ATOM     17  C   UNL A   1      43.433  36.806  27.095  1.00  0.00     0.257 C 
ATOM     18  H   UNL A   1      44.678  36.645  25.531  1.00  0.00     0.170 HD
ATOM     19  O   UNL A   1      42.711  37.650  26.570  1.00  0.00    -0.269 OA
BRANCH  17  20
ATOM     20  C   UNL A   1      43.221  36.459  28.522  1.00  0.00     0.063 A 
ATOM     21  C   UNL A   1      42.385  35.357  28.760  1.00  0.00     0.016 A 
ATOM     22  C   UNL A   1      43.882  37.118  29.584  1.00  0.00     0.054 A 
ATOM     23  C   UNL A   1      42.292  34.822  30.038  1.00  0.00     0.001 A 
ATOM     24  C   UNL A   1      43.869  36.480  30.824  1.00  0.00     0.027 A 
ATOM     25  C   UNL A   1      43.077  35.350  31.055  1.00  0.00     0.002 A 
BRANCH  22  26
ATOM     26  N   UNL A   1      44.459  38.383  29.338  1.00  0.00    -0.323 N 
ATOM     27  C   UNL A   1      44.093  39.676  29.563  1.00  0.00     0.253 C 
ATOM     28  H   UNL A   1      45.338  38.315  28.898  1.00  0.00     0.170 HD
ATOM     29  O   UNL A   1      44.696  40.535  28.911  1.00  0.00    -0.272 OA
BRANCH  27  30
ATOM     30  C   UNL A   1      42.952  40.064  30.498  1.00  0.00     0.207 C 
ATOM     31  C   UNL A   1      42.683  41.550  30.310  1.00  0.00     0.044 C 
ATOM     32  O   UNL A   1      43.229  39.887  31.899  1.00  0.00    -0.368 OA
ATOM     33  C   UNL A   1      42.144  41.963  31.647  1.00  0.00     0.032 C 
ATOM     34  C   UNL A   1      42.973  41.118  32.584  1.00  0.00     0.161 C 
ENDBRANCH  27  30
ENDBRANCH  22  26
ENDBRANCH  17  20
ENDBRANCH  12  16
ENDBRANCH   7   9
ENDBRANCH   6   7
ENDBRANCH   5   6
ENDBRANCH   4   5
ENDBRANCH   3   4
ENDBRANCH   2   3
ENDBRANCH   1   2
BRANCH   1  35
ATOM     35  O   UNL A   1      42.623  24.728  28.087  1.00  0.00    -0.377 OA
BRANCH  35  36
ATOM     36  C   UNL A   1      42.398  23.687  27.135  1.00  0.00     0.188 C 
BRANCH  36  37
ATOM     37  C   UNL A   1      43.183  23.629  25.844  1.00  0.00     0.188 C 
BRANCH  37  38
ATOM     38  O   UNL A   1      43.961  22.435  25.908  1.00  0.00    -0.376 OA
BRANCH  38  39
ATOM     39  C   UNL A   1      45.282  22.603  26.371  1.00  0.00     0.202 C 
BRANCH  39  40
ATOM     40  C   UNL A   1      46.013  23.742  25.657  1.00  0.00     0.261 C 
BRANCH  40  41
ATOM     41  O   UNL A   1      46.276  24.854  26.555  1.00  0.00    -0.460 OA
BRANCH  41  42
ATOM     42  C   UNL A   1      47.239  24.731  27.523  1.00  0.00     0.338 C 
ATOM     43  O   UNL A   1      48.370  24.340  27.279  1.00  0.00    -0.246 OA
BRANCH  42  44
ATOM     44  C   UNL A   1      46.875  25.399  28.808  1.00  0.00     0.060 A 
ATOM     45  C   UNL A   1      47.780  26.162  29.565  1.00  0.00     0.016 A 
ATOM     46  C   UNL A   1      45.591  25.252  29.286  1.00  0.00     0.016 A 
ATOM     47  C   UNL A   1      47.467  26.579  30.882  1.00  0.00     0.010 A 
ATOM     48  C   UNL A   1      45.304  25.635  30.583  1.00  0.00     0.010 A 
ATOM     49  C   UNL A   1      46.238  26.246  31.438  1.00  0.00    -0.014 A 
BRANCH  49  50
ATOM     50  C   UNL A   1      45.833  26.354  32.871  1.00  0.00     0.031 A 
ATOM     51  C   UNL A   1      45.147  27.628  33.322  1.00  0.00     0.074 A 
ATOM     52  C   UNL A   1      45.694  25.211  33.605  1.00  0.00     0.049 A 
ATOM     53  N   UNL A   1      44.476  27.776  34.413  1.00  0.00    -0.248 NA
ATOM     54  C   UNL A   1      45.081  28.846  32.509  1.00  0.00     0.031 C 
ATOM     55  C   UNL A   1      44.748  24.970  34.698  1.00  0.00     0.029 A 
ATOM     56  N   UNL A   1      46.299  23.967  33.496  1.00  0.00    -0.354 N 
ATOM     57  C   UNL A   1      43.643  28.881  34.303  1.00  0.00     0.074 A 
ATOM     58  C   UNL A   1      44.116  29.551  33.120  1.00  0.00     0.031 C 
ATOM     59  C   UNL A   1      44.859  23.730  35.192  1.00  0.00     0.029 A 
ATOM     60  C   UNL A   1      46.077  23.202  34.648  1.00  0.00     0.049 A 
ATOM     61  H   UNL A   1      46.815  23.664  32.714  1.00  0.00     0.167 HD
ATOM     62  C   UNL A   1      42.586  29.005  35.174  1.00  0.00     0.037 A 
ATOM     63  C   UNL A   1      47.140  22.890  35.445  1.00  0.00     0.037 A 
ATOM     64  C   UNL A   1      42.685  27.989  36.251  1.00  0.00     0.049 A 
ATOM     65  C   UNL A   1      47.035  23.751  36.713  1.00  0.00     0.074 A 
ATOM     66  C   UNL A   1      41.843  27.017  36.765  1.00  0.00     0.029 A 
ATOM     67  N   UNL A   1      43.924  27.759  36.859  1.00  0.00    -0.354 N 
ATOM     68  N   UNL A   1      46.555  24.983  36.728  1.00  0.00    -0.248 NA
ATOM     69  C   UNL A   1      47.066  23.163  38.055  1.00  0.00     0.031 C 
ATOM     70  C   UNL A   1      42.644  26.091  37.508  1.00  0.00     0.029 A 
ATOM     71  C   UNL A   1      43.958  26.553  37.534  1.00  0.00     0.049 A 
ATOM     72  H   UNL A   1      44.684  28.385  36.813  1.00  0.00     0.167 HD
ATOM     73  C   UNL A   1      46.039  25.253  37.975  1.00  0.00     0.074 A 
ATOM     74  C   UNL A   1      46.440  24.105  38.783  1.00  0.00     0.031 C 
ATOM     75  C   UNL A   1      45.121  26.206  38.344  1.00  0.00     0.037 A 
BRANCH  62  76
ATOM     76  C   UNL A   1      41.349  29.924  35.024  1.00  0.00     0.058 A 
ATOM     77  C   UNL A   1      41.084  30.934  35.987  1.00  0.00     0.135 A 
ATOM     78  C   UNL A   1      40.343  29.825  34.033  1.00  0.00     0.135 A 
ATOM     79  F   UNL A   1      41.944  31.180  36.985  1.00  0.00    -0.206 F 
ATOM     80  C   UNL A   1      39.939  31.749  35.979  1.00  0.00     0.059 A 
ATOM     81  C   UNL A   1      39.208  30.666  33.976  1.00  0.00     0.059 A 
ATOM     82  F   UNL A   1      40.385  28.885  33.081  1.00  0.00    -0.206 F 
ATOM     83  C   UNL A   1      39.005  31.620  34.963  1.00  0.00     0.060 A 
BRANCH  83  84
ATOM     84  S   UNL A   1      37.577  32.734  34.933  1.00  0.00     0.124 S 
ATOM     85  O   UNL A   1      38.201  34.038  34.735  1.00  0.00    -0.237 OA
ATOM     86  O   UNL A   1      36.804  32.226  33.804  1.00  0.00    -0.237 OA
ATOM     87  O   UNL A   1      36.958  32.535  36.242  1.00  0.00    -0.744 OA
ENDBRANCH  83  84
ENDBRANCH  62  76
BRANCH  63  88
ATOM     88  C   UNL A   1      48.248  22.338  34.582  1.00  0.00     0.058 A 
ATOM     89  C   UNL A   1      49.475  23.039  34.736  1.00  0.00     0.135 A 
ATOM     90  C   UNL A   1      48.363  20.956  34.331  1.00  0.00     0.135 A 
ATOM     91  F   UNL A   1      49.457  24.366  34.951  1.00  0.00    -0.206 F 
ATOM     92  C   UNL A   1      50.701  22.385  34.904  1.00  0.00     0.059 A 
ATOM     93  C   UNL A   1      49.593  20.281  34.483  1.00  0.00     0.059 A 
ATOM     94  F   UNL A   1      47.260  20.211  34.162  1.00  0.00    -0.206 F 
ATOM     95  C   UNL A   1      50.739  20.997  34.842  1.00  0.00     0.060 A 
BRANCH  95  96
ATOM     96  S   UNL A   1      52.233  20.158  35.455  1.00  0.00     0.124 S 
ATOM     97  O   UNL A   1      53.284  21.101  35.098  1.00  0.00    -0.237 OA
ATOM     98  O   UNL A   1      51.951  20.024  36.883  1.00  0.00    -0.237 OA
ATOM     99  O   UNL A   1      52.239  18.903  34.716  1.00  0.00    -0.744 OA
ENDBRANCH  95  96
ENDBRANCH  63  88
BRANCH  75 100
ATOM    100  C   UNL A   1      45.342  27.010  39.607  1.00  0.00     0.058 A 
ATOM    101  C   UNL A   1      45.988  28.256  39.595  1.00  0.00     0.135 A 
ATOM    102  C   UNL A   1      44.716  26.652  40.831  1.00  0.00     0.135 A 
ATOM    103  F   UNL A   1      46.538  28.760  38.480  1.00  0.00    -0.206 F 
ATOM    104  C   UNL A   1      46.066  29.058  40.724  1.00  0.00     0.059 A 
ATOM    105  C   UNL A   1      44.728  27.470  41.950  1.00  0.00     0.059 A 
ATOM    106  F   UNL A   1      44.044  25.502  40.985  1.00  0.00    -0.206 F 
ATOM    107  C   UNL A   1      45.437  28.655  41.897  1.00  0.00     0.060 A 
BRANCH 107 108
ATOM    108  S   UNL A   1      45.568  29.701  43.346  1.00  0.00     0.124 S 
ATOM    109  O   UNL A   1      44.572  29.090  44.222  1.00  0.00    -0.237 OA
ATOM    110  O   UNL A   1      46.960  29.515  43.743  1.00  0.00    -0.237 OA
ATOM    111  O   UNL A   1      45.237  31.029  42.840  1.00  0.00    -0.744 OA
ENDBRANCH 107 108
ENDBRANCH  75 100
ENDBRANCH  49  50
ENDBRANCH  42  44
ENDBRANCH  41  42
ENDBRANCH  40  41
ENDBRANCH  39  40
ENDBRANCH  38  39
ENDBRANCH  37  38
ENDBRANCH  36  37
ENDBRANCH  35  36
ENDBRANCH   1  35
TORSDOF 27
ENDMDL
