MODEL 1
REMARK VINA RESULT:      -9.2      0.000      0.000
REMARK SMILES O=C(CNC(=O)[C@@H](CC1=c2ccccc2=NC1)N1C(=O)N=C2C=CC=C[C@H]2C1=O)OCCOCCOCCOCCOC(=O)c1ccc(-c2c3nc(c(-c4c(F)cc(S(=O)(=O)[O-])cc4F)c4ccc([nH]4)c(-c4c(F)cc(S(=O)(=O)[O-])cc4F)c4nc(c(-c5c(F)cc(S(=O)(=O)[O-])cc5F)c5ccc2[nH]5)C=C4)C=C3)cc1
REMARK SMILES IDX 35 1 34 2 33 3 32 4 31 5 30 6 2 7 1 8 3 9 4 10 5 11 6 13
REMARK SMILES IDX 7 14 8 15 9 16 10 17 17 18 11 19 15 20 16 21 12 22 14 23
REMARK SMILES IDX 13 24 18 25 19 26 28 27 21 28 20 29 27 30 29 31 22 32 26 33
REMARK SMILES IDX 23 34 25 35 24 36 36 37 37 38 38 39 39 40 40 41 41 42 42 43
REMARK SMILES IDX 43 44 44 45 45 46 46 47 110 48 47 49 109 50 48 51 49 52
REMARK SMILES IDX 50 53 103 54 51 55 108 56 102 57 104 58 52 59 107 60 101 61
REMARK SMILES IDX 100 62 53 64 87 65 66 66 86 67 67 68 70 69 85 70 105 71
REMARK SMILES IDX 68 72 69 73 84 75 106 76 71 77 54 78 55 79 64 80 56 81 57 82
REMARK SMILES IDX 63 83 65 84 58 85 59 86 60 87 61 88 62 89 88 90 89 91 98 92
REMARK SMILES IDX 90 93 91 94 97 95 99 96 92 97 93 98 94 99 95 100 96 101
REMARK SMILES IDX 72 102 73 103 82 104 74 105 75 106 81 107 83 108 76 109
REMARK SMILES IDX 77 110 78 111 79 112 80 113
REMARK H PARENT 4 12 104 63 70 74
REMARK Flexibility Score: inf
ROOT
ATOM      1  C   UNL A   1      32.058  36.269  32.127  1.00  0.00     0.188 C 
ENDROOT
BRANCH   1   2
ATOM      2  C   UNL A   1      32.697  36.119  29.966  1.00  0.00     0.188 C 
BRANCH   2   3
ATOM      3  O   UNL A   1      32.869  34.576  29.268  1.00  0.00    -0.376 OA
BRANCH   3   4
ATOM      4  C   UNL A   1      33.544  34.142  28.032  1.00  0.00     0.202 C 
BRANCH   4   5
ATOM      5  C   UNL A   1      33.322  32.674  27.711  1.00  0.00     0.261 C 
BRANCH   5   6
ATOM      6  O   UNL A   1      34.059  31.720  28.494  1.00  0.00    -0.462 OA
BRANCH   6   7
ATOM      7  C   UNL A   1      35.139  31.010  28.099  1.00  0.00     0.325 C 
ATOM      8  O   UNL A   1      36.260  31.485  28.292  1.00  0.00    -0.250 OA
BRANCH   7   9
ATOM      9  C   UNL A   1      34.993  29.557  27.533  1.00  0.00     0.238 C 
BRANCH   9  10
ATOM     10  N   UNL A   1      33.814  28.730  27.863  1.00  0.00    -0.343 N 
ATOM     11  C   UNL A   1      32.773  28.162  27.177  1.00  0.00     0.244 C 
ATOM     12  H   UNL A   1      33.764  28.537  28.827  1.00  0.00     0.164 HD
ATOM     13  O   UNL A   1      31.780  27.969  27.901  1.00  0.00    -0.273 OA
BRANCH  11  14
ATOM     14  C   UNL A   1      32.683  27.659  25.633  1.00  0.00     0.188 C 
BRANCH  14  15
ATOM     15  C   UNL A   1      33.478  26.302  25.174  1.00  0.00     0.069 C 
BRANCH  15  16
ATOM     16  C   UNL A   1      33.083  24.796  25.421  1.00  0.00    -0.037 C 
ATOM     17  C   UNL A   1      32.883  24.006  24.095  1.00  0.00     0.001 A 
ATOM     18  C   UNL A   1      32.096  23.797  26.991  1.00  0.00     0.174 C 
ATOM     19  C   UNL A   1      33.486  24.033  22.800  1.00  0.00     0.010 A 
ATOM     20  C   UNL A   1      31.742  22.497  24.412  1.00  0.00     0.065 A 
ATOM     21  N   UNL A   1      31.261  22.313  25.871  1.00  0.00    -0.280 NA
ATOM     22  C   UNL A   1      33.330  22.986  21.972  1.00  0.00     0.001 A 
ATOM     23  C   UNL A   1      31.705  21.559  23.278  1.00  0.00     0.028 A 
ATOM     24  C   UNL A   1      32.498  21.809  22.218  1.00  0.00     0.002 A 
ENDBRANCH  15  16
ENDBRANCH  14  15
BRANCH  14  25
ATOM     25  N   UNL A   1      31.404  28.238  25.094  1.00  0.00    -0.249 N 
ATOM     26  C   UNL A   1      31.686  29.470  24.550  1.00  0.00     0.351 C 
ATOM     27  C   UNL A   1      30.416  27.680  24.286  1.00  0.00     0.244 C 
ATOM     28  N   UNL A   1      30.731  30.418  24.720  1.00  0.00    -0.197 NA
ATOM     29  O   UNL A   1      32.637  29.675  23.803  1.00  0.00    -0.246 OA
ATOM     30  C   UNL A   1      29.235  28.710  23.878  1.00  0.00     0.151 C 
ATOM     31  O   UNL A   1      30.430  26.527  23.861  1.00  0.00    -0.273 OA
ATOM     32  C   UNL A   1      29.819  30.126  23.858  1.00  0.00     0.062 C 
ATOM     33  C   UNL A   1      28.307  28.544  22.682  1.00  0.00    -0.007 C 
ATOM     34  C   UNL A   1      29.679  31.052  22.720  1.00  0.00     0.025 C 
ATOM     35  C   UNL A   1      28.130  29.485  21.732  1.00  0.00    -0.003 C 
ATOM     36  C   UNL A   1      28.923  30.683  21.689  1.00  0.00     0.002 C 
ENDBRANCH  14  25
ENDBRANCH  11  14
ENDBRANCH   9  10
ENDBRANCH   7   9
ENDBRANCH   6   7
ENDBRANCH   5   6
ENDBRANCH   4   5
ENDBRANCH   3   4
ENDBRANCH   2   3
ENDBRANCH   1   2
BRANCH   1  37
ATOM     37  O   UNL A   1      32.858  36.795  33.340  1.00  0.00    -0.377 OA
BRANCH  37  38
ATOM     38  C   UNL A   1      34.176  36.438  33.657  1.00  0.00     0.188 C 
BRANCH  38  39
ATOM     39  C   UNL A   1      34.900  35.468  32.723  1.00  0.00     0.188 C 
BRANCH  39  40
ATOM     40  O   UNL A   1      34.397  34.161  32.479  1.00  0.00    -0.376 OA
BRANCH  40  41
ATOM     41  C   UNL A   1      35.079  33.338  31.528  1.00  0.00     0.202 C 
BRANCH  41  42
ATOM     42  C   UNL A   1      35.359  31.908  31.957  1.00  0.00     0.261 C 
BRANCH  42  43
ATOM     43  O   UNL A   1      36.124  31.930  33.162  1.00  0.00    -0.460 OA
BRANCH  43  44
ATOM     44  C   UNL A   1      37.257  31.194  33.125  1.00  0.00     0.338 C 
ATOM     45  O   UNL A   1      37.338  30.002  32.884  1.00  0.00    -0.246 OA
BRANCH  44  46
ATOM     46  C   UNL A   1      38.408  32.137  33.141  1.00  0.00     0.060 A 
ATOM     47  C   UNL A   1      38.219  33.507  32.937  1.00  0.00     0.016 A 
ATOM     48  C   UNL A   1      39.710  31.614  33.267  1.00  0.00     0.016 A 
ATOM     49  C   UNL A   1      39.313  34.359  32.961  1.00  0.00     0.010 A 
ATOM     50  C   UNL A   1      40.811  32.463  33.276  1.00  0.00     0.010 A 
ATOM     51  C   UNL A   1      40.595  33.841  33.215  1.00  0.00    -0.014 A 
BRANCH  51  52
ATOM     52  C   UNL A   1      41.587  34.757  33.802  1.00  0.00     0.031 A 
ATOM     53  C   UNL A   1      42.600  35.465  32.983  1.00  0.00     0.074 A 
ATOM     54  C   UNL A   1      41.474  34.952  35.131  1.00  0.00     0.049 A 
ATOM     55  N   UNL A   1      43.386  36.440  33.345  1.00  0.00    -0.248 NA
ATOM     56  C   UNL A   1      42.768  35.025  31.591  1.00  0.00     0.031 C 
ATOM     57  C   UNL A   1      40.525  34.241  35.997  1.00  0.00     0.029 A 
ATOM     58  N   UNL A   1      42.102  35.821  35.975  1.00  0.00    -0.354 N 
ATOM     59  C   UNL A   1      44.125  36.763  32.220  1.00  0.00     0.074 A 
ATOM     60  C   UNL A   1      43.739  35.830  31.178  1.00  0.00     0.031 C 
ATOM     61  C   UNL A   1      40.570  34.764  37.226  1.00  0.00     0.029 A 
ATOM     62  C   UNL A   1      41.589  35.803  37.251  1.00  0.00     0.049 A 
ATOM     63  H   UNL A   1      42.848  36.402  35.699  1.00  0.00     0.167 HD
ATOM     64  C   UNL A   1      45.020  37.768  32.083  1.00  0.00     0.037 A 
ATOM     65  C   UNL A   1      41.896  36.556  38.322  1.00  0.00     0.037 A 
ATOM     66  C   UNL A   1      45.388  38.653  33.160  1.00  0.00     0.049 A 
ATOM     67  C   UNL A   1      42.928  37.628  38.149  1.00  0.00     0.074 A 
ATOM     68  C   UNL A   1      46.269  39.718  33.132  1.00  0.00     0.029 A 
ATOM     69  N   UNL A   1      44.911  38.564  34.464  1.00  0.00    -0.354 N 
ATOM     70  N   UNL A   1      43.558  37.989  37.056  1.00  0.00    -0.248 NA
ATOM     71  C   UNL A   1      43.295  38.395  39.343  1.00  0.00     0.031 C 
ATOM     72  C   UNL A   1      46.382  40.223  34.430  1.00  0.00     0.029 A 
ATOM     73  C   UNL A   1      45.513  39.527  35.256  1.00  0.00     0.049 A 
ATOM     74  H   UNL A   1      44.243  37.912  34.777  1.00  0.00     0.167 HD
ATOM     75  C   UNL A   1      44.392  39.033  37.426  1.00  0.00     0.074 A 
ATOM     76  C   UNL A   1      44.165  39.261  38.841  1.00  0.00     0.031 C 
ATOM     77  C   UNL A   1      45.270  39.733  36.666  1.00  0.00     0.037 A 
BRANCH  64  78
ATOM     78  C   UNL A   1      45.664  37.955  30.738  1.00  0.00     0.058 A 
ATOM     79  C   UNL A   1      46.837  37.268  30.382  1.00  0.00     0.135 A 
ATOM     80  C   UNL A   1      45.082  38.796  29.776  1.00  0.00     0.135 A 
ATOM     81  F   UNL A   1      47.443  36.459  31.266  1.00  0.00    -0.206 F 
ATOM     82  C   UNL A   1      47.427  37.434  29.135  1.00  0.00     0.059 A 
ATOM     83  C   UNL A   1      45.635  38.949  28.509  1.00  0.00     0.059 A 
ATOM     84  F   UNL A   1      43.961  39.476  30.061  1.00  0.00    -0.206 F 
ATOM     85  C   UNL A   1      46.817  38.277  28.204  1.00  0.00     0.060 A 
BRANCH  85  86
ATOM     86  S   UNL A   1      47.610  38.492  26.598  1.00  0.00     0.124 S 
ATOM     87  O   UNL A   1      47.853  37.106  26.207  1.00  0.00    -0.237 OA
ATOM     88  O   UNL A   1      46.580  39.193  25.839  1.00  0.00    -0.237 OA
ATOM     89  O   UNL A   1      48.803  39.273  26.907  1.00  0.00    -0.744 OA
ENDBRANCH  85  86
ENDBRANCH  64  78
BRANCH  65  90
ATOM     90  C   UNL A   1      41.190  36.322  39.608  1.00  0.00     0.058 A 
ATOM     91  C   UNL A   1      40.041  37.049  39.948  1.00  0.00     0.135 A 
ATOM     92  C   UNL A   1      41.609  35.311  40.490  1.00  0.00     0.135 A 
ATOM     93  F   UNL A   1      39.597  38.021  39.137  1.00  0.00    -0.206 F 
ATOM     94  C   UNL A   1      39.338  36.790  41.120  1.00  0.00     0.059 A 
ATOM     95  C   UNL A   1      40.904  35.011  41.649  1.00  0.00     0.059 A 
ATOM     96  F   UNL A   1      42.688  34.567  40.198  1.00  0.00    -0.206 F 
ATOM     97  C   UNL A   1      39.772  35.761  41.960  1.00  0.00     0.060 A 
BRANCH  97  98
ATOM     98  S   UNL A   1      38.819  35.404  43.450  1.00  0.00     0.124 S 
ATOM     99  O   UNL A   1      39.527  34.246  43.983  1.00  0.00    -0.237 OA
ATOM    100  O   UNL A   1      38.964  36.644  44.205  1.00  0.00    -0.237 OA
ATOM    101  O   UNL A   1      37.477  35.142  42.939  1.00  0.00    -0.744 OA
ENDBRANCH  97  98
ENDBRANCH  65  90
BRANCH  77 102
ATOM    102  C   UNL A   1      46.062  40.818  37.342  1.00  0.00     0.058 A 
ATOM    103  C   UNL A   1      47.338  40.568  37.870  1.00  0.00     0.135 A 
ATOM    104  C   UNL A   1      45.591  42.141  37.353  1.00  0.00     0.135 A 
ATOM    105  F   UNL A   1      47.829  39.319  37.894  1.00  0.00    -0.206 F 
ATOM    106  C   UNL A   1      48.120  41.594  38.387  1.00  0.00     0.059 A 
ATOM    107  C   UNL A   1      46.372  43.188  37.831  1.00  0.00     0.059 A 
ATOM    108  F   UNL A   1      44.381  42.433  36.852  1.00  0.00    -0.206 F 
ATOM    109  C   UNL A   1      47.635  42.903  38.347  1.00  0.00     0.060 A 
BRANCH 109 110
ATOM    110  S   UNL A   1      48.698  44.229  38.953  1.00  0.00     0.124 S 
ATOM    111  O   UNL A   1      49.645  44.374  37.852  1.00  0.00    -0.237 OA
ATOM    112  O   UNL A   1      47.751  45.326  39.124  1.00  0.00    -0.237 OA
ATOM    113  O   UNL A   1      49.253  43.685  40.188  1.00  0.00    -0.744 OA
ENDBRANCH 109 110
ENDBRANCH  77 102
ENDBRANCH  51  52
ENDBRANCH  44  46
ENDBRANCH  43  44
ENDBRANCH  42  43
ENDBRANCH  41  42
ENDBRANCH  40  41
ENDBRANCH  39  40
ENDBRANCH  38  39
ENDBRANCH  37  38
ENDBRANCH   1  37
TORSDOF 28
ENDMDL
MODEL 2
REMARK VINA RESULT:      -8.9      5.801      7.850
REMARK SMILES O=C(CNC(=O)[C@@H](CC1=c2ccccc2=NC1)N1C(=O)N=C2C=CC=C[C@H]2C1=O)OCCOCCOCCOCCOC(=O)c1ccc(-c2c3nc(c(-c4c(F)cc(S(=O)(=O)[O-])cc4F)c4ccc([nH]4)c(-c4c(F)cc(S(=O)(=O)[O-])cc4F)c4nc(c(-c5c(F)cc(S(=O)(=O)[O-])cc5F)c5ccc2[nH]5)C=C4)C=C3)cc1
REMARK SMILES IDX 35 1 34 2 33 3 32 4 31 5 30 6 2 7 1 8 3 9 4 10 5 11 6 13
REMARK SMILES IDX 7 14 8 15 9 16 10 17 17 18 11 19 15 20 16 21 12 22 14 23
REMARK SMILES IDX 13 24 18 25 19 26 28 27 21 28 20 29 27 30 29 31 22 32 26 33
REMARK SMILES IDX 23 34 25 35 24 36 36 37 37 38 38 39 39 40 40 41 41 42 42 43
REMARK SMILES IDX 43 44 44 45 45 46 46 47 110 48 47 49 109 50 48 51 49 52
REMARK SMILES IDX 50 53 103 54 51 55 108 56 102 57 104 58 52 59 107 60 101 61
REMARK SMILES IDX 100 62 53 64 87 65 66 66 86 67 67 68 70 69 85 70 105 71
REMARK SMILES IDX 68 72 69 73 84 75 106 76 71 77 54 78 55 79 64 80 56 81 57 82
REMARK SMILES IDX 63 83 65 84 58 85 59 86 60 87 61 88 62 89 88 90 89 91 98 92
REMARK SMILES IDX 90 93 91 94 97 95 99 96 92 97 93 98 94 99 95 100 96 101
REMARK SMILES IDX 72 102 73 103 82 104 74 105 75 106 81 107 83 108 76 109
REMARK SMILES IDX 77 110 78 111 79 112 80 113
REMARK H PARENT 4 12 104 63 70 74
REMARK Flexibility Score: inf
ROOT
ATOM      1  C   UNL A   1      31.958  36.143  32.442  1.00  0.00     0.188 C 
ENDROOT
BRANCH   1   2
ATOM      2  C   UNL A   1      32.435  36.178  30.235  1.00  0.00     0.188 C 
BRANCH   2   3
ATOM      3  O   UNL A   1      32.827  34.715  29.457  1.00  0.00    -0.376 OA
BRANCH   3   4
ATOM      4  C   UNL A   1      33.619  34.445  28.244  1.00  0.00     0.202 C 
BRANCH   4   5
ATOM      5  C   UNL A   1      33.410  33.046  27.691  1.00  0.00     0.261 C 
BRANCH   5   6
ATOM      6  O   UNL A   1      33.868  31.952  28.505  1.00  0.00    -0.462 OA
BRANCH   6   7
ATOM      7  C   UNL A   1      34.969  31.196  28.300  1.00  0.00     0.325 C 
ATOM      8  O   UNL A   1      36.053  31.607  28.721  1.00  0.00    -0.250 OA
BRANCH   7   9
ATOM      9  C   UNL A   1      34.867  29.768  27.666  1.00  0.00     0.238 C 
BRANCH   9  10
ATOM     10  N   UNL A   1      33.623  28.979  27.770  1.00  0.00    -0.343 N 
ATOM     11  C   UNL A   1      32.751  28.376  26.902  1.00  0.00     0.244 C 
ATOM     12  H   UNL A   1      33.348  28.855  28.708  1.00  0.00     0.164 HD
ATOM     13  O   UNL A   1      31.614  28.246  27.389  1.00  0.00    -0.273 OA
BRANCH  11  14
ATOM     14  C   UNL A   1      33.002  27.767  25.416  1.00  0.00     0.188 C 
BRANCH  14  15
ATOM     15  C   UNL A   1      33.748  26.318  25.249  1.00  0.00     0.069 C 
BRANCH  15  16
ATOM     16  C   UNL A   1      33.154  24.873  25.463  1.00  0.00    -0.037 C 
ATOM     17  C   UNL A   1      32.949  24.107  24.124  1.00  0.00     0.001 A 
ATOM     18  C   UNL A   1      31.947  24.010  26.958  1.00  0.00     0.174 C 
ATOM     19  C   UNL A   1      33.638  24.053  22.873  1.00  0.00     0.010 A 
ATOM     20  C   UNL A   1      31.613  22.751  24.356  1.00  0.00     0.065 A 
ATOM     21  N   UNL A   1      31.015  22.635  25.779  1.00  0.00    -0.280 NA
ATOM     22  C   UNL A   1      33.410  23.029  22.032  1.00  0.00     0.001 A 
ATOM     23  C   UNL A   1      31.538  21.819  23.220  1.00  0.00     0.028 A 
ATOM     24  C   UNL A   1      32.426  21.964  22.217  1.00  0.00     0.002 A 
ENDBRANCH  15  16
ENDBRANCH  14  15
BRANCH  14  25
ATOM     25  N   UNL A   1      31.965  28.408  24.536  1.00  0.00    -0.249 N 
ATOM     26  C   UNL A   1      30.990  27.475  24.270  1.00  0.00     0.351 C 
ATOM     27  C   UNL A   1      31.306  29.631  24.639  1.00  0.00     0.244 C 
ATOM     28  N   UNL A   1      30.458  27.521  23.023  1.00  0.00    -0.197 NA
ATOM     29  O   UNL A   1      30.486  26.763  25.133  1.00  0.00    -0.246 OA
ATOM     30  C   UNL A   1      30.192  29.882  23.492  1.00  0.00     0.151 C 
ATOM     31  O   UNL A   1      31.493  30.451  25.535  1.00  0.00    -0.273 OA
ATOM     32  C   UNL A   1      29.646  28.522  23.047  1.00  0.00     0.062 C 
ATOM     33  C   UNL A   1      29.034  30.864  23.601  1.00  0.00    -0.007 C 
ATOM     34  C   UNL A   1      28.211  28.196  22.991  1.00  0.00     0.025 C 
ATOM     35  C   UNL A   1      27.741  30.525  23.417  1.00  0.00    -0.003 C 
ATOM     36  C   UNL A   1      27.328  29.159  23.244  1.00  0.00     0.002 C 
ENDBRANCH  14  25
ENDBRANCH  11  14
ENDBRANCH   9  10
ENDBRANCH   7   9
ENDBRANCH   6   7
ENDBRANCH   5   6
ENDBRANCH   4   5
ENDBRANCH   3   4
ENDBRANCH   2   3
ENDBRANCH   1   2
BRANCH   1  37
ATOM     37  O   UNL A   1      32.684  36.859  33.602  1.00  0.00    -0.377 OA
BRANCH  37  38
ATOM     38  C   UNL A   1      34.011  36.629  33.992  1.00  0.00     0.188 C 
BRANCH  38  39
ATOM     39  C   UNL A   1      34.910  35.839  33.041  1.00  0.00     0.188 C 
BRANCH  39  40
ATOM     40  O   UNL A   1      34.496  34.595  32.493  1.00  0.00    -0.376 OA
BRANCH  40  41
ATOM     41  C   UNL A   1      35.491  33.738  31.925  1.00  0.00     0.202 C 
BRANCH  41  42
ATOM     42  C   UNL A   1      35.190  32.249  31.955  1.00  0.00     0.261 C 
BRANCH  42  43
ATOM     43  O   UNL A   1      36.192  31.592  32.733  1.00  0.00    -0.460 OA
BRANCH  43  44
ATOM     44  C   UNL A   1      36.796  30.554  32.115  1.00  0.00     0.338 C 
ATOM     45  O   UNL A   1      36.262  29.523  31.743  1.00  0.00    -0.246 OA
BRANCH  44  46
ATOM     46  C   UNL A   1      38.155  31.001  31.706  1.00  0.00     0.060 A 
ATOM     47  C   UNL A   1      38.936  31.794  32.552  1.00  0.00     0.016 A 
ATOM     48  C   UNL A   1      38.606  30.695  30.407  1.00  0.00     0.016 A 
ATOM     49  C   UNL A   1      40.200  32.190  32.142  1.00  0.00     0.010 A 
ATOM     50  C   UNL A   1      39.866  31.104  29.986  1.00  0.00     0.010 A 
ATOM     51  C   UNL A   1      40.692  31.771  30.893  1.00  0.00    -0.014 A 
BRANCH  51  52
ATOM     52  C   UNL A   1      42.154  31.692  30.737  1.00  0.00     0.031 A 
ATOM     53  C   UNL A   1      42.957  32.802  30.169  1.00  0.00     0.074 A 
ATOM     54  C   UNL A   1      42.720  30.560  31.200  1.00  0.00     0.049 A 
ATOM     55  N   UNL A   1      44.254  32.935  30.168  1.00  0.00    -0.248 NA
ATOM     56  C   UNL A   1      42.225  33.893  29.511  1.00  0.00     0.031 C 
ATOM     57  C   UNL A   1      41.971  29.410  31.724  1.00  0.00     0.029 A 
ATOM     58  N   UNL A   1      44.027  30.200  31.359  1.00  0.00    -0.354 N 
ATOM     59  C   UNL A   1      44.504  34.143  29.540  1.00  0.00     0.074 A 
ATOM     60  C   UNL A   1      43.224  34.672  29.112  1.00  0.00     0.031 C 
ATOM     61  C   UNL A   1      42.828  28.516  32.227  1.00  0.00     0.029 A 
ATOM     62  C   UNL A   1      44.184  28.999  32.010  1.00  0.00     0.049 A 
ATOM     63  H   UNL A   1      44.782  30.746  31.039  1.00  0.00     0.167 HD
ATOM     64  C   UNL A   1      45.702  34.749  29.369  1.00  0.00     0.037 A 
ATOM     65  C   UNL A   1      45.301  28.362  32.403  1.00  0.00     0.037 A 
ATOM     66  C   UNL A   1      46.952  34.167  29.792  1.00  0.00     0.049 A 
ATOM     67  C   UNL A   1      46.615  29.039  32.155  1.00  0.00     0.074 A 
ATOM     68  C   UNL A   1      48.223  34.699  29.688  1.00  0.00     0.029 A 
ATOM     69  N   UNL A   1      47.090  32.913  30.378  1.00  0.00    -0.354 N 
ATOM     70  N   UNL A   1      46.840  30.226  31.642  1.00  0.00    -0.248 NA
ATOM     71  C   UNL A   1      47.823  28.301  32.533  1.00  0.00     0.031 C 
ATOM     72  C   UNL A   1      49.134  33.740  30.140  1.00  0.00     0.029 A 
ATOM     73  C   UNL A   1      48.428  32.638  30.601  1.00  0.00     0.049 A 
ATOM     74  H   UNL A   1      46.344  32.310  30.602  1.00  0.00     0.167 HD
ATOM     75  C   UNL A   1      48.217  30.385  31.643  1.00  0.00     0.074 A 
ATOM     76  C   UNL A   1      48.771  29.180  32.232  1.00  0.00     0.031 C 
ATOM     77  C   UNL A   1      48.955  31.427  31.190  1.00  0.00     0.037 A 
BRANCH  64  78
ATOM     78  C   UNL A   1      45.718  36.093  28.697  1.00  0.00     0.058 A 
ATOM     79  C   UNL A   1      45.939  36.221  27.316  1.00  0.00     0.135 A 
ATOM     80  C   UNL A   1      45.468  37.264  29.430  1.00  0.00     0.135 A 
ATOM     81  F   UNL A   1      46.194  35.137  26.566  1.00  0.00    -0.206 F 
ATOM     82  C   UNL A   1      45.944  37.463  26.693  1.00  0.00     0.059 A 
ATOM     83  C   UNL A   1      45.433  38.514  28.821  1.00  0.00     0.059 A 
ATOM     84  F   UNL A   1      45.250  37.201  30.753  1.00  0.00    -0.206 F 
ATOM     85  C   UNL A   1      45.689  38.605  27.454  1.00  0.00     0.060 A 
BRANCH  85  86
ATOM     86  S   UNL A   1      45.719  40.208  26.628  1.00  0.00     0.124 S 
ATOM     87  O   UNL A   1      44.550  40.109  25.759  1.00  0.00    -0.237 OA
ATOM     88  O   UNL A   1      45.599  41.134  27.750  1.00  0.00    -0.237 OA
ATOM     89  O   UNL A   1      47.008  40.216  25.944  1.00  0.00    -0.744 OA
ENDBRANCH  85  86
ENDBRANCH  64  78
BRANCH  65  90
ATOM     90  C   UNL A   1      45.192  27.048  33.087  1.00  0.00     0.058 A 
ATOM     91  C   UNL A   1      45.235  25.848  32.366  1.00  0.00     0.135 A 
ATOM     92  C   UNL A   1      45.119  26.967  34.488  1.00  0.00     0.135 A 
ATOM     93  F   UNL A   1      45.311  25.871  31.027  1.00  0.00    -0.206 F 
ATOM     94  C   UNL A   1      45.199  24.613  33.007  1.00  0.00     0.059 A 
ATOM     95  C   UNL A   1      45.116  25.746  35.153  1.00  0.00     0.059 A 
ATOM     96  F   UNL A   1      45.102  28.087  35.229  1.00  0.00    -0.206 F 
ATOM     97  C   UNL A   1      45.149  24.573  34.402  1.00  0.00     0.060 A 
BRANCH  97  98
ATOM     98  S   UNL A   1      45.156  22.965  35.220  1.00  0.00     0.124 S 
ATOM     99  O   UNL A   1      46.247  22.287  34.529  1.00  0.00    -0.237 OA
ATOM    100  O   UNL A   1      45.410  23.333  36.608  1.00  0.00    -0.237 OA
ATOM    101  O   UNL A   1      43.819  22.443  34.951  1.00  0.00    -0.744 OA
ENDBRANCH  97  98
ENDBRANCH  65  90
BRANCH  77 102
ATOM    102  C   UNL A   1      50.450  31.323  31.307  1.00  0.00     0.058 A 
ATOM    103  C   UNL A   1      51.224  30.748  30.287  1.00  0.00     0.135 A 
ATOM    104  C   UNL A   1      51.122  31.910  32.393  1.00  0.00     0.135 A 
ATOM    105  F   UNL A   1      50.630  30.164  29.234  1.00  0.00    -0.206 F 
ATOM    106  C   UNL A   1      52.613  30.758  30.340  1.00  0.00     0.059 A 
ATOM    107  C   UNL A   1      52.511  31.963  32.447  1.00  0.00     0.059 A 
ATOM    108  F   UNL A   1      50.428  32.480  33.390  1.00  0.00    -0.206 F 
ATOM    109  C   UNL A   1      53.247  31.383  31.415  1.00  0.00     0.060 A 
BRANCH 109 110
ATOM    110  S   UNL A   1      55.049  31.452  31.424  1.00  0.00     0.124 S 
ATOM    111  O   UNL A   1      55.371  30.582  32.552  1.00  0.00    -0.237 OA
ATOM    112  O   UNL A   1      55.382  30.927  30.103  1.00  0.00    -0.237 OA
ATOM    113  O   UNL A   1      55.337  32.868  31.624  1.00  0.00    -0.744 OA
ENDBRANCH 109 110
ENDBRANCH  77 102
ENDBRANCH  51  52
ENDBRANCH  44  46
ENDBRANCH  43  44
ENDBRANCH  42  43
ENDBRANCH  41  42
ENDBRANCH  40  41
ENDBRANCH  39  40
ENDBRANCH  38  39
ENDBRANCH  37  38
ENDBRANCH   1  37
TORSDOF 28
ENDMDL
MODEL 3
REMARK VINA RESULT:      -8.4      7.408     12.680
REMARK SMILES O=C(CNC(=O)[C@@H](CC1=c2ccccc2=NC1)N1C(=O)N=C2C=CC=C[C@H]2C1=O)OCCOCCOCCOCCOC(=O)c1ccc(-c2c3nc(c(-c4c(F)cc(S(=O)(=O)[O-])cc4F)c4ccc([nH]4)c(-c4c(F)cc(S(=O)(=O)[O-])cc4F)c4nc(c(-c5c(F)cc(S(=O)(=O)[O-])cc5F)c5ccc2[nH]5)C=C4)C=C3)cc1
REMARK SMILES IDX 35 1 34 2 33 3 32 4 31 5 30 6 2 7 1 8 3 9 4 10 5 11 6 13
REMARK SMILES IDX 7 14 8 15 9 16 10 17 17 18 11 19 15 20 16 21 12 22 14 23
REMARK SMILES IDX 13 24 18 25 19 26 28 27 21 28 20 29 27 30 29 31 22 32 26 33
REMARK SMILES IDX 23 34 25 35 24 36 36 37 37 38 38 39 39 40 40 41 41 42 42 43
REMARK SMILES IDX 43 44 44 45 45 46 46 47 110 48 47 49 109 50 48 51 49 52
REMARK SMILES IDX 50 53 103 54 51 55 108 56 102 57 104 58 52 59 107 60 101 61
REMARK SMILES IDX 100 62 53 64 87 65 66 66 86 67 67 68 70 69 85 70 105 71
REMARK SMILES IDX 68 72 69 73 84 75 106 76 71 77 54 78 55 79 64 80 56 81 57 82
REMARK SMILES IDX 63 83 65 84 58 85 59 86 60 87 61 88 62 89 88 90 89 91 98 92
REMARK SMILES IDX 90 93 91 94 97 95 99 96 92 97 93 98 94 99 95 100 96 101
REMARK SMILES IDX 72 102 73 103 82 104 74 105 75 106 81 107 83 108 76 109
REMARK SMILES IDX 77 110 78 111 79 112 80 113
REMARK H PARENT 4 12 104 63 70 74
REMARK Flexibility Score: inf
ROOT
ATOM      1  C   UNL A   1      37.832  29.264  30.242  1.00  0.00     0.188 C 
ENDROOT
BRANCH   1   2
ATOM      2  C   UNL A   1      39.253  27.594  29.701  1.00  0.00     0.188 C 
BRANCH   2   3
ATOM      3  O   UNL A   1      40.928  27.864  29.843  1.00  0.00    -0.376 OA
BRANCH   3   4
ATOM      4  C   UNL A   1      42.073  27.217  29.178  1.00  0.00     0.202 C 
BRANCH   4   5
ATOM      5  C   UNL A   1      42.593  27.999  27.985  1.00  0.00     0.261 C 
BRANCH   5   6
ATOM      6  O   UNL A   1      42.887  27.247  26.794  1.00  0.00    -0.462 OA
BRANCH   6   7
ATOM      7  C   UNL A   1      42.107  27.133  25.696  1.00  0.00     0.325 C 
ATOM      8  O   UNL A   1      42.236  27.962  24.793  1.00  0.00    -0.250 OA
BRANCH   7   9
ATOM      9  C   UNL A   1      41.156  25.904  25.499  1.00  0.00     0.238 C 
BRANCH   9  10
ATOM     10  N   UNL A   1      40.389  25.350  26.633  1.00  0.00    -0.343 N 
ATOM     11  C   UNL A   1      39.559  24.281  26.846  1.00  0.00     0.244 C 
ATOM     12  H   UNL A   1      40.503  25.891  27.449  1.00  0.00     0.164 HD
ATOM     13  O   UNL A   1      38.775  24.473  27.792  1.00  0.00    -0.273 OA
BRANCH  11  14
ATOM     14  C   UNL A   1      39.508  22.830  26.114  1.00  0.00     0.188 C 
BRANCH  14  15
ATOM     15  C   UNL A   1      40.838  21.873  26.115  1.00  0.00     0.069 C 
BRANCH  15  16
ATOM     16  C   UNL A   1      42.356  22.295  26.077  1.00  0.00    -0.037 C 
ATOM     17  C   UNL A   1      42.843  22.901  27.425  1.00  0.00     0.001 A 
ATOM     18  C   UNL A   1      43.654  22.894  24.529  1.00  0.00     0.174 C 
ATOM     19  C   UNL A   1      42.548  22.668  28.804  1.00  0.00     0.010 A 
ATOM     20  C   UNL A   1      44.368  24.021  27.114  1.00  0.00     0.065 A 
ATOM     21  N   UNL A   1      44.853  24.103  25.647  1.00  0.00    -0.280 NA
ATOM     22  C   UNL A   1      43.392  23.117  29.749  1.00  0.00     0.001 A 
ATOM     23  C   UNL A   1      45.043  24.429  28.357  1.00  0.00     0.028 A 
ATOM     24  C   UNL A   1      44.583  23.934  29.523  1.00  0.00     0.002 A 
ENDBRANCH  15  16
ENDBRANCH  14  15
BRANCH  14  25
ATOM     25  N   UNL A   1      38.056  22.438  26.095  1.00  0.00    -0.249 N 
ATOM     26  C   UNL A   1      37.344  23.456  25.504  1.00  0.00     0.351 C 
ATOM     27  C   UNL A   1      37.433  21.256  25.701  1.00  0.00     0.244 C 
ATOM     28  N   UNL A   1      36.116  23.694  26.030  1.00  0.00    -0.197 NA
ATOM     29  O   UNL A   1      37.688  24.002  24.461  1.00  0.00    -0.246 OA
ATOM     30  C   UNL A   1      35.816  21.304  25.776  1.00  0.00     0.151 C 
ATOM     31  O   UNL A   1      38.021  20.261  25.284  1.00  0.00    -0.273 OA
ATOM     32  C   UNL A   1      35.369  22.754  25.563  1.00  0.00     0.062 C 
ATOM     33  C   UNL A   1      34.879  20.383  25.006  1.00  0.00    -0.007 C 
ATOM     34  C   UNL A   1      34.356  23.160  24.573  1.00  0.00     0.025 C 
ATOM     35  C   UNL A   1      33.887  20.820  24.204  1.00  0.00    -0.003 C 
ATOM     36  C   UNL A   1      33.719  22.213  23.889  1.00  0.00     0.002 C 
ENDBRANCH  14  25
ENDBRANCH  11  14
ENDBRANCH   9  10
ENDBRANCH   7   9
ENDBRANCH   6   7
ENDBRANCH   5   6
ENDBRANCH   4   5
ENDBRANCH   3   4
ENDBRANCH   2   3
ENDBRANCH   1   2
BRANCH   1  37
ATOM     37  O   UNL A   1      38.156  30.677  30.776  1.00  0.00    -0.377 OA
BRANCH  37  38
ATOM     38  C   UNL A   1      38.998  31.606  30.148  1.00  0.00     0.188 C 
BRANCH  38  39
ATOM     39  C   UNL A   1      38.455  33.013  29.901  1.00  0.00     0.188 C 
BRANCH  39  40
ATOM     40  O   UNL A   1      39.319  34.140  29.841  1.00  0.00    -0.376 OA
BRANCH  40  41
ATOM     41  C   UNL A   1      40.578  34.068  30.518  1.00  0.00     0.202 C 
BRANCH  41  42
ATOM     42  C   UNL A   1      41.779  34.608  29.759  1.00  0.00     0.261 C 
BRANCH  42  43
ATOM     43  O   UNL A   1      41.341  35.640  28.875  1.00  0.00    -0.460 OA
BRANCH  43  44
ATOM     44  C   UNL A   1      42.095  35.790  27.765  1.00  0.00     0.338 C 
ATOM     45  O   UNL A   1      41.890  35.279  26.677  1.00  0.00    -0.246 OA
BRANCH  44  46
ATOM     46  C   UNL A   1      43.047  36.906  28.013  1.00  0.00     0.060 A 
ATOM     47  C   UNL A   1      44.421  36.737  27.816  1.00  0.00     0.016 A 
ATOM     48  C   UNL A   1      42.553  38.112  28.546  1.00  0.00     0.016 A 
ATOM     49  C   UNL A   1      45.281  37.798  28.053  1.00  0.00     0.010 A 
ATOM     50  C   UNL A   1      43.413  39.173  28.800  1.00  0.00     0.010 A 
ATOM     51  C   UNL A   1      44.762  39.038  28.463  1.00  0.00    -0.014 A 
BRANCH  51  52
ATOM     52  C   UNL A   1      45.554  40.238  28.146  1.00  0.00     0.031 A 
ATOM     53  C   UNL A   1      46.708  40.672  28.969  1.00  0.00     0.074 A 
ATOM     54  C   UNL A   1      45.191  40.885  27.021  1.00  0.00     0.049 A 
ATOM     55  N   UNL A   1      47.600  41.580  28.686  1.00  0.00    -0.248 NA
ATOM     56  C   UNL A   1      46.885  40.022  30.275  1.00  0.00     0.031 C 
ATOM     57  C   UNL A   1      44.027  40.531  26.197  1.00  0.00     0.029 A 
ATOM     58  N   UNL A   1      45.769  41.921  26.345  1.00  0.00    -0.354 N 
ATOM     59  C   UNL A   1      48.473  41.595  29.760  1.00  0.00     0.074 A 
ATOM     60  C   UNL A   1      47.962  40.650  30.734  1.00  0.00     0.031 C 
ATOM     61  C   UNL A   1      44.030  41.274  25.085  1.00  0.00     0.029 A 
ATOM     62  C   UNL A   1      45.156  42.193  25.144  1.00  0.00     0.049 A 
ATOM     63  H   UNL A   1      46.546  42.423  26.683  1.00  0.00     0.167 HD
ATOM     64  C   UNL A   1      49.607  42.322  29.890  1.00  0.00     0.037 A 
ATOM     65  C   UNL A   1      45.478  43.080  24.186  1.00  0.00     0.037 A 
ATOM     66  C   UNL A   1      50.058  43.269  28.900  1.00  0.00     0.049 A 
ATOM     67  C   UNL A   1      46.714  43.904  24.383  1.00  0.00     0.074 A 
ATOM     68  C   UNL A   1      51.200  44.046  28.917  1.00  0.00     0.029 A 
ATOM     69  N   UNL A   1      49.378  43.583  27.729  1.00  0.00    -0.354 N 
ATOM     70  N   UNL A   1      47.587  43.849  25.361  1.00  0.00    -0.248 NA
ATOM     71  C   UNL A   1      47.012  44.909  23.358  1.00  0.00     0.031 C 
ATOM     72  C   UNL A   1      51.173  44.882  27.797  1.00  0.00     0.029 A 
ATOM     73  C   UNL A   1      50.055  44.574  27.038  1.00  0.00     0.049 A 
ATOM     74  H   UNL A   1      48.537  43.163  27.434  1.00  0.00     0.167 HD
ATOM     75  C   UNL A   1      48.548  44.804  25.067  1.00  0.00     0.074 A 
ATOM     76  C   UNL A   1      48.158  45.405  23.805  1.00  0.00     0.031 C 
ATOM     77  C   UNL A   1      49.645  45.157  25.780  1.00  0.00     0.037 A 
BRANCH  64  78
ATOM     78  C   UNL A   1      50.424  42.129  31.135  1.00  0.00     0.058 A 
ATOM     79  C   UNL A   1      51.495  41.221  31.180  1.00  0.00     0.135 A 
ATOM     80  C   UNL A   1      50.166  42.891  32.286  1.00  0.00     0.135 A 
ATOM     81  F   UNL A   1      51.781  40.458  30.112  1.00  0.00    -0.206 F 
ATOM     82  C   UNL A   1      52.256  41.050  32.330  1.00  0.00     0.059 A 
ATOM     83  C   UNL A   1      50.938  42.762  33.437  1.00  0.00     0.059 A 
ATOM     84  F   UNL A   1      49.156  43.775  32.301  1.00  0.00    -0.206 F 
ATOM     85  C   UNL A   1      51.971  41.827  33.454  1.00  0.00     0.060 A 
BRANCH  85  86
ATOM     86  S   UNL A   1      52.960  41.575  34.941  1.00  0.00     0.124 S 
ATOM     87  O   UNL A   1      53.476  40.227  34.720  1.00  0.00    -0.237 OA
ATOM     88  O   UNL A   1      53.939  42.652  34.844  1.00  0.00    -0.237 OA
ATOM     89  O   UNL A   1      51.990  41.704  36.023  1.00  0.00    -0.744 OA
ENDBRANCH  85  86
ENDBRANCH  64  78
BRANCH  65  90
ATOM     90  C   UNL A   1      44.629  43.185  22.971  1.00  0.00     0.058 A 
ATOM     91  C   UNL A   1      43.401  43.858  22.999  1.00  0.00     0.135 A 
ATOM     92  C   UNL A   1      45.068  42.677  21.737  1.00  0.00     0.135 A 
ATOM     93  F   UNL A   1      42.940  44.367  24.152  1.00  0.00    -0.206 F 
ATOM     94  C   UNL A   1      42.632  44.016  21.850  1.00  0.00     0.059 A 
ATOM     95  C   UNL A   1      44.334  42.851  20.569  1.00  0.00     0.059 A 
ATOM     96  F   UNL A   1      46.251  42.046  21.649  1.00  0.00    -0.206 F 
ATOM     97  C   UNL A   1      43.113  43.517  20.637  1.00  0.00     0.060 A 
BRANCH  97  98
ATOM     98  S   UNL A   1      42.128  43.776  19.148  1.00  0.00     0.124 S 
ATOM     99  O   UNL A   1      42.546  45.114  18.746  1.00  0.00    -0.237 OA
ATOM    100  O   UNL A   1      42.581  42.682  18.294  1.00  0.00    -0.237 OA
ATOM    101  O   UNL A   1      40.754  43.662  19.626  1.00  0.00    -0.744 OA
ENDBRANCH  97  98
ENDBRANCH  65  90
BRANCH  77 102
ATOM    102  C   UNL A   1      50.515  46.249  25.221  1.00  0.00     0.058 A 
ATOM    103  C   UNL A   1      51.488  45.980  24.247  1.00  0.00     0.135 A 
ATOM    104  C   UNL A   1      50.291  47.590  25.576  1.00  0.00     0.135 A 
ATOM    105  F   UNL A   1      51.749  44.714  23.882  1.00  0.00    -0.206 F 
ATOM    106  C   UNL A   1      52.210  47.002  23.643  1.00  0.00     0.059 A 
ATOM    107  C   UNL A   1      50.975  48.630  24.958  1.00  0.00     0.059 A 
ATOM    108  F   UNL A   1      49.365  47.901  26.497  1.00  0.00    -0.206 F 
ATOM    109  C   UNL A   1      51.934  48.325  23.993  1.00  0.00     0.060 A 
BRANCH 109 110
ATOM    110  S   UNL A   1      52.828  49.640  23.142  1.00  0.00     0.124 S 
ATOM    111  O   UNL A   1      53.685  48.878  22.238  1.00  0.00    -0.237 OA
ATOM    112  O   UNL A   1      51.745  50.387  22.509  1.00  0.00    -0.237 OA
ATOM    113  O   UNL A   1      53.520  50.337  24.220  1.00  0.00    -0.744 OA
ENDBRANCH 109 110
ENDBRANCH  77 102
ENDBRANCH  51  52
ENDBRANCH  44  46
ENDBRANCH  43  44
ENDBRANCH  42  43
ENDBRANCH  41  42
ENDBRANCH  40  41
ENDBRANCH  39  40
ENDBRANCH  38  39
ENDBRANCH  37  38
ENDBRANCH   1  37
TORSDOF 28
ENDMDL
