MODEL 1
REMARK VINA RESULT:      -6.4      0.000      0.000
REMARK SMILES Cc1cc(S(=O)(=O)Nc2ccc(Cl)cc2F)ccc1OCC(=O)OCCOCCOCCOCCOC(=O)c1ccc(-c2c3nc(c(-c4c(F)cc(S(=O)(=O)[O-])cc4F)c4ccc([nH]4)c(-c4c(F)cc(S(=O)(=O)[O-])cc4F)c4nc(c(-c5c(F)cc(S(=O)(=O)[O-])cc5F)c5ccc2[nH]5)C=C4)C=C3)cc1
REMARK SMILES IDX 29 1 28 2 27 3 26 4 25 5 24 6 22 7 23 8 21 9 20 10 19 11
REMARK SMILES IDX 1 12 2 13 3 14 4 15 18 16 17 17 5 18 6 19 7 20 8 21 9 23
REMARK SMILES IDX 10 24 15 25 11 26 14 27 16 28 12 29 13 30 30 31 31 32 32 33
REMARK SMILES IDX 33 34 34 35 35 36 36 37 37 38 38 39 39 40 40 41 104 42 41 43
REMARK SMILES IDX 103 44 42 45 43 46 44 47 97 48 45 49 102 50 96 51 98 52
REMARK SMILES IDX 46 53 101 54 95 55 94 56 47 58 81 59 60 60 80 61 61 62 64 63
REMARK SMILES IDX 79 64 99 65 62 66 63 67 78 69 100 70 65 71 48 72 49 73 58 74
REMARK SMILES IDX 50 75 51 76 57 77 59 78 52 79 53 80 54 81 55 82 56 83 82 84
REMARK SMILES IDX 83 85 92 86 84 87 85 88 91 89 93 90 86 91 87 92 88 93 89 94
REMARK SMILES IDX 90 95 66 96 67 97 76 98 68 99 69 100 75 101 77 102 70 103
REMARK SMILES IDX 71 104 72 105 73 106 74 107
REMARK H PARENT 8 22 98 57 64 68
REMARK Flexibility Score: inf
ROOT
ATOM      1  C   UNL A   1      43.123  30.011  35.350  1.00  0.00     0.188 C 
ENDROOT
BRANCH   1   2
ATOM      2  C   UNL A   1      43.147  28.731  36.226  1.00  0.00     0.188 C 
BRANCH   2   3
ATOM      3  O   UNL A   1      42.057  27.888  36.527  1.00  0.00    -0.376 OA
BRANCH   3   4
ATOM      4  C   UNL A   1      42.251  26.548  36.170  1.00  0.00     0.202 C 
BRANCH   4   5
ATOM      5  C   UNL A   1      43.535  25.842  36.563  1.00  0.00     0.261 C 
BRANCH   5   6
ATOM      6  O   UNL A   1      44.283  25.423  35.424  1.00  0.00    -0.461 OA
BRANCH   6   7
ATOM      7  C   UNL A   1      43.980  24.197  34.950  1.00  0.00     0.344 C 
ATOM      8  O   UNL A   1      43.284  23.959  33.970  1.00  0.00    -0.248 OA
BRANCH   7   9
ATOM      9  C   UNL A   1      44.601  23.102  35.806  1.00  0.00     0.351 C 
BRANCH   9  10
ATOM     10  O   UNL A   1      45.924  23.206  36.272  1.00  0.00    -0.482 OA
BRANCH  10  11
ATOM     11  C   UNL A   1      47.053  23.303  35.519  1.00  0.00     0.123 A 
ATOM     12  C   UNL A   1      47.909  25.742  35.859  1.00  0.00     0.048 C 
ATOM     13  C   UNL A   1      47.961  24.349  35.288  1.00  0.00    -0.008 A 
ATOM     14  C   UNL A   1      49.164  24.066  34.573  1.00  0.00     0.029 A 
ATOM     15  C   UNL A   1      49.502  22.771  34.166  1.00  0.00     0.088 A 
ATOM     16  C   UNL A   1      47.400  22.015  35.071  1.00  0.00     0.048 A 
ATOM     17  C   UNL A   1      48.643  21.738  34.501  1.00  0.00     0.026 A 
BRANCH  15  18
ATOM     18  S   UNL A   1      51.007  22.546  33.224  1.00  0.00     0.262 S 
ATOM     19  O   UNL A   1      51.126  21.123  32.929  1.00  0.00    -0.201 OA
ATOM     20  O   UNL A   1      50.973  23.498  32.146  1.00  0.00    -0.201 OA
BRANCH  18  21
ATOM     21  N   UNL A   1      52.330  23.012  34.151  1.00  0.00    -0.277 N 
ATOM     22  H   UNL A   1      52.218  23.001  35.129  1.00  0.00     0.180 HD
BRANCH  21  23
ATOM     23  C   UNL A   1      53.601  23.421  33.646  1.00  0.00     0.085 A 
ATOM     24  C   UNL A   1      54.198  22.572  32.706  1.00  0.00     0.031 A 
ATOM     25  C   UNL A   1      54.199  24.663  33.903  1.00  0.00     0.148 A 
ATOM     26  C   UNL A   1      55.264  23.028  31.925  1.00  0.00     0.023 A 
ATOM     27  C   UNL A   1      55.235  25.136  33.102  1.00  0.00     0.062 A 
ATOM     28  F   UNL A   1      53.689  25.510  34.805  1.00  0.00    -0.205 F 
ATOM     29  C   UNL A   1      55.746  24.324  32.097  1.00  0.00     0.044 A 
ATOM     30  Cl  UNL A   1      56.946  24.945  31.033  1.00  0.00    -0.084 Cl
ENDBRANCH  21  23
ENDBRANCH  18  21
ENDBRANCH  15  18
ENDBRANCH  10  11
ENDBRANCH   9  10
ENDBRANCH   7   9
ENDBRANCH   6   7
ENDBRANCH   5   6
ENDBRANCH   4   5
ENDBRANCH   3   4
ENDBRANCH   2   3
ENDBRANCH   1   2
BRANCH   1  31
ATOM     31  O   UNL A   1      42.386  31.165  35.704  1.00  0.00    -0.377 OA
BRANCH  31  32
ATOM     32  C   UNL A   1      43.232  32.259  36.100  1.00  0.00     0.188 C 
BRANCH  32  33
ATOM     33  C   UNL A   1      43.203  32.302  37.604  1.00  0.00     0.188 C 
BRANCH  33  34
ATOM     34  O   UNL A   1      44.536  32.218  38.088  1.00  0.00    -0.376 OA
BRANCH  34  35
ATOM     35  C   UNL A   1      45.613  32.300  37.197  1.00  0.00     0.202 C 
BRANCH  35  36
ATOM     36  C   UNL A   1      46.909  31.700  37.694  1.00  0.00     0.261 C 
BRANCH  36  37
ATOM     37  O   UNL A   1      48.029  31.678  36.756  1.00  0.00    -0.460 OA
BRANCH  37  38
ATOM     38  C   UNL A   1      48.087  31.747  35.396  1.00  0.00     0.338 C 
ATOM     39  O   UNL A   1      49.002  32.363  34.855  1.00  0.00    -0.246 OA
BRANCH  38  40
ATOM     40  C   UNL A   1      47.229  30.894  34.535  1.00  0.00     0.060 A 
ATOM     41  C   UNL A   1      47.180  29.497  34.707  1.00  0.00     0.016 A 
ATOM     42  C   UNL A   1      46.433  31.471  33.558  1.00  0.00     0.016 A 
ATOM     43  C   UNL A   1      46.502  28.669  33.782  1.00  0.00     0.010 A 
ATOM     44  C   UNL A   1      45.836  30.649  32.602  1.00  0.00     0.010 A 
ATOM     45  C   UNL A   1      45.867  29.239  32.678  1.00  0.00    -0.014 A 
BRANCH  45  46
ATOM     46  C   UNL A   1      45.290  28.507  31.512  1.00  0.00     0.031 A 
ATOM     47  C   UNL A   1      43.791  28.438  31.379  1.00  0.00     0.074 A 
ATOM     48  C   UNL A   1      46.076  28.303  30.419  1.00  0.00     0.049 A 
ATOM     49  N   UNL A   1      43.133  28.037  30.342  1.00  0.00    -0.248 NA
ATOM     50  C   UNL A   1      42.888  28.903  32.427  1.00  0.00     0.031 C 
ATOM     51  C   UNL A   1      45.661  28.302  29.006  1.00  0.00     0.029 A 
ATOM     52  N   UNL A   1      47.467  28.265  30.317  1.00  0.00    -0.354 N 
ATOM     53  C   UNL A   1      41.819  28.490  30.425  1.00  0.00     0.074 A 
ATOM     54  C   UNL A   1      41.714  28.955  31.786  1.00  0.00     0.031 C 
ATOM     55  C   UNL A   1      46.724  28.250  28.189  1.00  0.00     0.029 A 
ATOM     56  C   UNL A   1      47.825  27.829  29.019  1.00  0.00     0.049 A 
ATOM     57  H   UNL A   1      48.098  28.504  31.034  1.00  0.00     0.167 HD
ATOM     58  C   UNL A   1      41.050  28.536  29.281  1.00  0.00     0.037 A 
ATOM     59  C   UNL A   1      48.385  26.589  28.871  1.00  0.00     0.037 A 
ATOM     60  C   UNL A   1      41.770  27.874  28.156  1.00  0.00     0.049 A 
ATOM     61  C   UNL A   1      47.345  25.595  28.328  1.00  0.00     0.074 A 
ATOM     62  C   UNL A   1      42.104  28.200  26.850  1.00  0.00     0.029 A 
ATOM     63  N   UNL A   1      42.430  26.660  28.395  1.00  0.00    -0.354 N 
ATOM     64  N   UNL A   1      46.049  25.800  28.433  1.00  0.00    -0.248 NA
ATOM     65  C   UNL A   1      47.613  24.437  27.476  1.00  0.00     0.031 C 
ATOM     66  C   UNL A   1      43.110  27.289  26.399  1.00  0.00     0.029 A 
ATOM     67  C   UNL A   1      43.323  26.341  27.391  1.00  0.00     0.049 A 
ATOM     68  H   UNL A   1      42.274  26.099  29.189  1.00  0.00     0.167 HD
ATOM     69  C   UNL A   1      45.345  24.962  27.624  1.00  0.00     0.074 A 
ATOM     70  C   UNL A   1      46.368  24.074  27.095  1.00  0.00     0.031 C 
ATOM     71  C   UNL A   1      43.997  25.046  27.398  1.00  0.00     0.037 A 
BRANCH  58  72
ATOM     72  C   UNL A   1      39.705  29.304  29.081  1.00  0.00     0.058 A 
ATOM     73  C   UNL A   1      39.537  30.632  29.560  1.00  0.00     0.135 A 
ATOM     74  C   UNL A   1      38.531  28.811  28.460  1.00  0.00     0.135 A 
ATOM     75  F   UNL A   1      40.546  31.311  30.119  1.00  0.00    -0.206 F 
ATOM     76  C   UNL A   1      38.339  31.366  29.473  1.00  0.00     0.059 A 
ATOM     77  C   UNL A   1      37.327  29.538  28.332  1.00  0.00     0.059 A 
ATOM     78  F   UNL A   1      38.467  27.597  27.916  1.00  0.00    -0.206 F 
ATOM     79  C   UNL A   1      37.235  30.817  28.847  1.00  0.00     0.060 A 
BRANCH  79  80
ATOM     80  S   UNL A   1      35.744  31.818  28.644  1.00  0.00     0.124 S 
ATOM     81  O   UNL A   1      35.314  32.018  30.025  1.00  0.00    -0.237 OA
ATOM     82  O   UNL A   1      36.256  33.002  27.963  1.00  0.00    -0.237 OA
ATOM     83  O   UNL A   1      34.868  30.971  27.837  1.00  0.00    -0.744 OA
ENDBRANCH  79  80
ENDBRANCH  58  72
BRANCH  59  84
ATOM     84  C   UNL A   1      49.604  26.501  29.755  1.00  0.00     0.058 A 
ATOM     85  C   UNL A   1      50.686  27.309  29.317  1.00  0.00     0.135 A 
ATOM     86  C   UNL A   1      49.458  26.383  31.152  1.00  0.00     0.135 A 
ATOM     87  F   UNL A   1      50.913  27.456  28.000  1.00  0.00    -0.206 F 
ATOM     88  C   UNL A   1      51.396  28.151  30.183  1.00  0.00     0.059 A 
ATOM     89  C   UNL A   1      50.153  27.231  32.039  1.00  0.00     0.059 A 
ATOM     90  F   UNL A   1      48.485  25.611  31.658  1.00  0.00    -0.206 F 
ATOM     91  C   UNL A   1      51.068  28.161  31.536  1.00  0.00     0.060 A 
BRANCH  91  92
ATOM     92  S   UNL A   1      51.638  29.559  32.557  1.00  0.00     0.124 S 
ATOM     93  O   UNL A   1      52.672  28.947  33.380  1.00  0.00    -0.237 OA
ATOM     94  O   UNL A   1      52.115  30.523  31.563  1.00  0.00    -0.237 OA
ATOM     95  O   UNL A   1      50.430  29.981  33.255  1.00  0.00    -0.744 OA
ENDBRANCH  91  92
ENDBRANCH  59  84
BRANCH  71  96
ATOM     96  C   UNL A   1      43.130  23.836  27.158  1.00  0.00     0.058 A 
ATOM     97  C   UNL A   1      42.773  23.428  25.865  1.00  0.00     0.135 A 
ATOM     98  C   UNL A   1      42.856  22.909  28.198  1.00  0.00     0.135 A 
ATOM     99  F   UNL A   1      43.093  24.156  24.786  1.00  0.00    -0.206 F 
ATOM    100  C   UNL A   1      42.114  22.229  25.626  1.00  0.00     0.059 A 
ATOM    101  C   UNL A   1      42.262  21.676  27.971  1.00  0.00     0.059 A 
ATOM    102  F   UNL A   1      43.183  23.151  29.477  1.00  0.00    -0.206 F 
ATOM    103  C   UNL A   1      41.857  21.365  26.685  1.00  0.00     0.060 A 
BRANCH 103 104
ATOM    104  S   UNL A   1      40.980  19.833  26.362  1.00  0.00     0.124 S 
ATOM    105  O   UNL A   1      40.727  19.365  27.721  1.00  0.00    -0.237 OA
ATOM    106  O   UNL A   1      39.808  20.289  25.620  1.00  0.00    -0.237 OA
ATOM    107  O   UNL A   1      41.938  19.048  25.590  1.00  0.00    -0.744 OA
ENDBRANCH 103 104
ENDBRANCH  71  96
ENDBRANCH  45  46
ENDBRANCH  38  40
ENDBRANCH  37  38
ENDBRANCH  36  37
ENDBRANCH  35  36
ENDBRANCH  34  35
ENDBRANCH  33  34
ENDBRANCH  32  33
ENDBRANCH  31  32
ENDBRANCH   1  31
TORSDOF 28
ENDMDL
MODEL 2
REMARK VINA RESULT:      -6.3      4.104     10.241
REMARK SMILES Cc1cc(S(=O)(=O)Nc2ccc(Cl)cc2F)ccc1OCC(=O)OCCOCCOCCOCCOC(=O)c1ccc(-c2c3nc(c(-c4c(F)cc(S(=O)(=O)[O-])cc4F)c4ccc([nH]4)c(-c4c(F)cc(S(=O)(=O)[O-])cc4F)c4nc(c(-c5c(F)cc(S(=O)(=O)[O-])cc5F)c5ccc2[nH]5)C=C4)C=C3)cc1
REMARK SMILES IDX 29 1 28 2 27 3 26 4 25 5 24 6 22 7 23 8 21 9 20 10 19 11
REMARK SMILES IDX 1 12 2 13 3 14 4 15 18 16 17 17 5 18 6 19 7 20 8 21 9 23
REMARK SMILES IDX 10 24 15 25 11 26 14 27 16 28 12 29 13 30 30 31 31 32 32 33
REMARK SMILES IDX 33 34 34 35 35 36 36 37 37 38 38 39 39 40 40 41 104 42 41 43
REMARK SMILES IDX 103 44 42 45 43 46 44 47 97 48 45 49 102 50 96 51 98 52
REMARK SMILES IDX 46 53 101 54 95 55 94 56 47 58 81 59 60 60 80 61 61 62 64 63
REMARK SMILES IDX 79 64 99 65 62 66 63 67 78 69 100 70 65 71 48 72 49 73 58 74
REMARK SMILES IDX 50 75 51 76 57 77 59 78 52 79 53 80 54 81 55 82 56 83 82 84
REMARK SMILES IDX 83 85 92 86 84 87 85 88 91 89 93 90 86 91 87 92 88 93 89 94
REMARK SMILES IDX 90 95 66 96 67 97 76 98 68 99 69 100 75 101 77 102 70 103
REMARK SMILES IDX 71 104 72 105 73 106 74 107
REMARK H PARENT 8 22 98 57 64 68
REMARK Flexibility Score: inf
ROOT
ATOM      1  C   UNL A   1      35.628  34.999  32.773  1.00  0.00     0.188 C 
ENDROOT
BRANCH   1   2
ATOM      2  C   UNL A   1      34.413  34.339  32.070  1.00  0.00     0.188 C 
BRANCH   2   3
ATOM      3  O   UNL A   1      34.427  33.191  31.251  1.00  0.00    -0.376 OA
BRANCH   3   4
ATOM      4  C   UNL A   1      35.229  33.310  30.109  1.00  0.00     0.202 C 
BRANCH   4   5
ATOM      5  C   UNL A   1      35.690  32.063  29.378  1.00  0.00     0.261 C 
BRANCH   5   6
ATOM      6  O   UNL A   1      36.941  32.260  28.725  1.00  0.00    -0.461 OA
BRANCH   6   7
ATOM      7  C   UNL A   1      38.029  31.884  29.429  1.00  0.00     0.344 C 
ATOM      8  O   UNL A   1      38.822  32.638  29.980  1.00  0.00    -0.248 OA
BRANCH   7   9
ATOM      9  C   UNL A   1      38.182  30.370  29.446  1.00  0.00     0.351 C 
BRANCH   9  10
ATOM     10  O   UNL A   1      38.599  29.668  28.301  1.00  0.00    -0.482 OA
BRANCH  10  11
ATOM     11  C   UNL A   1      39.624  28.777  28.213  1.00  0.00     0.123 A 
ATOM     12  C   UNL A   1      41.705  30.013  29.184  1.00  0.00     0.048 C 
ATOM     13  C   UNL A   1      40.981  28.844  28.568  1.00  0.00    -0.008 A 
ATOM     14  C   UNL A   1      41.763  27.652  28.510  1.00  0.00     0.029 A 
ATOM     15  C   UNL A   1      41.206  26.409  28.187  1.00  0.00     0.088 A 
ATOM     16  C   UNL A   1      39.094  27.523  27.860  1.00  0.00     0.048 A 
ATOM     17  C   UNL A   1      39.844  26.350  27.947  1.00  0.00     0.026 A 
BRANCH  15  18
ATOM     18  S   UNL A   1      42.296  24.994  28.087  1.00  0.00     0.262 S 
ATOM     19  O   UNL A   1      43.594  25.407  28.608  1.00  0.00    -0.201 OA
ATOM     20  O   UNL A   1      41.604  23.888  28.692  1.00  0.00    -0.201 OA
BRANCH  18  21
ATOM     21  N   UNL A   1      42.487  24.538  26.479  1.00  0.00    -0.277 N 
ATOM     22  H   UNL A   1      41.925  24.998  25.814  1.00  0.00     0.180 HD
BRANCH  21  23
ATOM     23  C   UNL A   1      43.390  23.546  25.994  1.00  0.00     0.085 A 
ATOM     24  C   UNL A   1      43.103  22.220  26.345  1.00  0.00     0.031 A 
ATOM     25  C   UNL A   1      44.426  23.788  25.081  1.00  0.00     0.148 A 
ATOM     26  C   UNL A   1      43.723  21.165  25.670  1.00  0.00     0.023 A 
ATOM     27  C   UNL A   1      45.018  22.742  24.379  1.00  0.00     0.062 A 
ATOM     28  F   UNL A   1      44.763  25.033  24.722  1.00  0.00    -0.205 F 
ATOM     29  C   UNL A   1      44.643  21.433  24.659  1.00  0.00     0.044 A 
ATOM     30  Cl  UNL A   1      45.287  20.147  23.716  1.00  0.00    -0.084 Cl
ENDBRANCH  21  23
ENDBRANCH  18  21
ENDBRANCH  15  18
ENDBRANCH  10  11
ENDBRANCH   9  10
ENDBRANCH   7   9
ENDBRANCH   6   7
ENDBRANCH   5   6
ENDBRANCH   4   5
ENDBRANCH   3   4
ENDBRANCH   2   3
ENDBRANCH   1   2
BRANCH   1  31
ATOM     31  O   UNL A   1      36.470  34.295  33.666  1.00  0.00    -0.377 OA
BRANCH  31  32
ATOM     32  C   UNL A   1      37.291  33.323  32.996  1.00  0.00     0.188 C 
BRANCH  32  33
ATOM     33  C   UNL A   1      36.861  31.973  33.504  1.00  0.00     0.188 C 
BRANCH  33  34
ATOM     34  O   UNL A   1      37.635  30.974  32.858  1.00  0.00    -0.376 OA
BRANCH  34  35
ATOM     35  C   UNL A   1      38.617  30.275  33.570  1.00  0.00     0.202 C 
BRANCH  35  36
ATOM     36  C   UNL A   1      38.687  30.585  35.048  1.00  0.00     0.261 C 
BRANCH  36  37
ATOM     37  O   UNL A   1      39.712  31.532  35.477  1.00  0.00    -0.460 OA
BRANCH  37  38
ATOM     38  C   UNL A   1      40.910  31.366  36.104  1.00  0.00     0.338 C 
ATOM     39  O   UNL A   1      41.042  31.718  37.274  1.00  0.00    -0.246 OA
BRANCH  38  40
ATOM     40  C   UNL A   1      41.993  30.542  35.508  1.00  0.00     0.060 A 
ATOM     41  C   UNL A   1      42.110  29.168  35.798  1.00  0.00     0.016 A 
ATOM     42  C   UNL A   1      42.896  31.114  34.627  1.00  0.00     0.016 A 
ATOM     43  C   UNL A   1      43.236  28.425  35.372  1.00  0.00     0.010 A 
ATOM     44  C   UNL A   1      44.044  30.401  34.279  1.00  0.00     0.010 A 
ATOM     45  C   UNL A   1      44.251  29.056  34.652  1.00  0.00    -0.014 A 
BRANCH  45  46
ATOM     46  C   UNL A   1      45.584  28.478  34.308  1.00  0.00     0.031 A 
ATOM     47  C   UNL A   1      45.743  27.778  32.984  1.00  0.00     0.074 A 
ATOM     48  C   UNL A   1      46.683  28.947  34.961  1.00  0.00     0.049 A 
ATOM     49  N   UNL A   1      46.857  27.413  32.440  1.00  0.00    -0.248 NA
ATOM     50  C   UNL A   1      44.612  27.492  32.107  1.00  0.00     0.031 C 
ATOM     51  C   UNL A   1      48.038  29.131  34.415  1.00  0.00     0.029 A 
ATOM     52  N   UNL A   1      46.781  29.568  36.207  1.00  0.00    -0.354 N 
ATOM     53  C   UNL A   1      46.655  27.184  31.082  1.00  0.00     0.074 A 
ATOM     54  C   UNL A   1      45.218  27.175  30.957  1.00  0.00     0.031 C 
ATOM     55  C   UNL A   1      48.827  29.781  35.284  1.00  0.00     0.029 A 
ATOM     56  C   UNL A   1      48.147  29.700  36.553  1.00  0.00     0.049 A 
ATOM     57  H   UNL A   1      46.021  29.868  36.756  1.00  0.00     0.167 HD
ATOM     58  C   UNL A   1      47.742  27.177  30.233  1.00  0.00     0.037 A 
ATOM     59  C   UNL A   1      48.646  28.934  37.572  1.00  0.00     0.037 A 
ATOM     60  C   UNL A   1      49.005  27.234  31.022  1.00  0.00     0.049 A 
ATOM     61  C   UNL A   1      49.463  27.761  37.006  1.00  0.00     0.074 A 
ATOM     62  C   UNL A   1      50.157  28.007  31.015  1.00  0.00     0.029 A 
ATOM     63  N   UNL A   1      49.126  26.434  32.166  1.00  0.00    -0.354 N 
ATOM     64  N   UNL A   1      49.313  27.323  35.774  1.00  0.00    -0.248 NA
ATOM     65  C   UNL A   1      50.614  27.119  37.641  1.00  0.00     0.031 C 
ATOM     66  C   UNL A   1      50.846  27.803  32.251  1.00  0.00     0.029 A 
ATOM     67  C   UNL A   1      50.172  26.829  32.976  1.00  0.00     0.049 A 
ATOM     68  H   UNL A   1      48.531  25.676  32.370  1.00  0.00     0.167 HD
ATOM     69  C   UNL A   1      50.337  26.505  35.408  1.00  0.00     0.074 A 
ATOM     70  C   UNL A   1      51.094  26.348  36.640  1.00  0.00     0.031 C 
ATOM     71  C   UNL A   1      50.538  26.027  34.140  1.00  0.00     0.037 A 
BRANCH  58  72
ATOM     72  C   UNL A   1      47.719  27.279  28.674  1.00  0.00     0.058 A 
ATOM     73  C   UNL A   1      47.669  26.114  27.860  1.00  0.00     0.135 A 
ATOM     74  C   UNL A   1      47.771  28.465  27.901  1.00  0.00     0.135 A 
ATOM     75  F   UNL A   1      47.548  24.891  28.390  1.00  0.00    -0.206 F 
ATOM     76  C   UNL A   1      47.710  26.122  26.454  1.00  0.00     0.059 A 
ATOM     77  C   UNL A   1      47.779  28.501  26.490  1.00  0.00     0.059 A 
ATOM     78  F   UNL A   1      47.798  29.677  28.454  1.00  0.00    -0.206 F 
ATOM     79  C   UNL A   1      47.754  27.323  25.769  1.00  0.00     0.060 A 
BRANCH  79  80
ATOM     80  S   UNL A   1      47.688  27.315  23.963  1.00  0.00     0.124 S 
ATOM     81  O   UNL A   1      47.652  25.887  23.660  1.00  0.00    -0.237 OA
ATOM     82  O   UNL A   1      46.456  28.049  23.695  1.00  0.00    -0.237 OA
ATOM     83  O   UNL A   1      48.916  28.002  23.571  1.00  0.00    -0.744 OA
ENDBRANCH  79  80
ENDBRANCH  58  72
BRANCH  59  84
ATOM     84  C   UNL A   1      47.817  29.176  38.808  1.00  0.00     0.058 A 
ATOM     85  C   UNL A   1      47.305  27.988  39.393  1.00  0.00     0.135 A 
ATOM     86  C   UNL A   1      48.179  30.193  39.715  1.00  0.00     0.135 A 
ATOM     87  F   UNL A   1      46.912  26.975  38.600  1.00  0.00    -0.206 F 
ATOM     88  C   UNL A   1      47.398  27.722  40.764  1.00  0.00     0.059 A 
ATOM     89  C   UNL A   1      48.292  29.941  41.097  1.00  0.00     0.059 A 
ATOM     90  F   UNL A   1      48.640  31.365  39.253  1.00  0.00    -0.206 F 
ATOM     91  C   UNL A   1      47.966  28.678  41.602  1.00  0.00     0.060 A 
BRANCH  91  92
ATOM     92  S   UNL A   1      48.515  28.163  43.261  1.00  0.00     0.124 S 
ATOM     93  O   UNL A   1      47.306  27.582  43.827  1.00  0.00    -0.237 OA
ATOM     94  O   UNL A   1      49.594  27.216  42.975  1.00  0.00    -0.237 OA
ATOM     95  O   UNL A   1      48.970  29.409  43.868  1.00  0.00    -0.744 OA
ENDBRANCH  91  92
ENDBRANCH  59  84
BRANCH  71  96
ATOM     96  C   UNL A   1      51.126  24.667  33.861  1.00  0.00     0.058 A 
ATOM     97  C   UNL A   1      52.512  24.453  33.836  1.00  0.00     0.135 A 
ATOM     98  C   UNL A   1      50.320  23.499  33.872  1.00  0.00     0.135 A 
ATOM     99  F   UNL A   1      53.381  25.468  33.950  1.00  0.00    -0.206 F 
ATOM    100  C   UNL A   1      53.059  23.181  33.742  1.00  0.00     0.059 A 
ATOM    101  C   UNL A   1      50.849  22.218  33.850  1.00  0.00     0.059 A 
ATOM    102  F   UNL A   1      48.980  23.556  33.937  1.00  0.00    -0.206 F 
ATOM    103  C   UNL A   1      52.221  22.071  33.742  1.00  0.00     0.060 A 
BRANCH 103 104
ATOM    104  S   UNL A   1      52.944  20.436  33.592  1.00  0.00     0.124 S 
ATOM    105  O   UNL A   1      51.815  19.595  33.976  1.00  0.00    -0.237 OA
ATOM    106  O   UNL A   1      53.322  20.384  32.182  1.00  0.00    -0.237 OA
ATOM    107  O   UNL A   1      54.059  20.468  34.533  1.00  0.00    -0.744 OA
ENDBRANCH 103 104
ENDBRANCH  71  96
ENDBRANCH  45  46
ENDBRANCH  38  40
ENDBRANCH  37  38
ENDBRANCH  36  37
ENDBRANCH  35  36
ENDBRANCH  34  35
ENDBRANCH  33  34
ENDBRANCH  32  33
ENDBRANCH  31  32
ENDBRANCH   1  31
TORSDOF 28
ENDMDL
MODEL 3
REMARK VINA RESULT:      -6.2      5.347     12.173
REMARK SMILES Cc1cc(S(=O)(=O)Nc2ccc(Cl)cc2F)ccc1OCC(=O)OCCOCCOCCOCCOC(=O)c1ccc(-c2c3nc(c(-c4c(F)cc(S(=O)(=O)[O-])cc4F)c4ccc([nH]4)c(-c4c(F)cc(S(=O)(=O)[O-])cc4F)c4nc(c(-c5c(F)cc(S(=O)(=O)[O-])cc5F)c5ccc2[nH]5)C=C4)C=C3)cc1
REMARK SMILES IDX 29 1 28 2 27 3 26 4 25 5 24 6 22 7 23 8 21 9 20 10 19 11
REMARK SMILES IDX 1 12 2 13 3 14 4 15 18 16 17 17 5 18 6 19 7 20 8 21 9 23
REMARK SMILES IDX 10 24 15 25 11 26 14 27 16 28 12 29 13 30 30 31 31 32 32 33
REMARK SMILES IDX 33 34 34 35 35 36 36 37 37 38 38 39 39 40 40 41 104 42 41 43
REMARK SMILES IDX 103 44 42 45 43 46 44 47 97 48 45 49 102 50 96 51 98 52
REMARK SMILES IDX 46 53 101 54 95 55 94 56 47 58 81 59 60 60 80 61 61 62 64 63
REMARK SMILES IDX 79 64 99 65 62 66 63 67 78 69 100 70 65 71 48 72 49 73 58 74
REMARK SMILES IDX 50 75 51 76 57 77 59 78 52 79 53 80 54 81 55 82 56 83 82 84
REMARK SMILES IDX 83 85 92 86 84 87 85 88 91 89 93 90 86 91 87 92 88 93 89 94
REMARK SMILES IDX 90 95 66 96 67 97 76 98 68 99 69 100 75 101 77 102 70 103
REMARK SMILES IDX 71 104 72 105 73 106 74 107
REMARK H PARENT 8 22 98 57 64 68
REMARK Flexibility Score: inf
ROOT
ATOM      1  C   UNL A   1      46.863  25.748  32.827  1.00  0.00     0.188 C 
ENDROOT
BRANCH   1   2
ATOM      2  C   UNL A   1      46.151  25.807  31.450  1.00  0.00     0.188 C 
BRANCH   2   3
ATOM      3  O   UNL A   1      46.724  25.553  30.187  1.00  0.00    -0.376 OA
BRANCH   3   4
ATOM      4  C   UNL A   1      46.210  26.346  29.153  1.00  0.00     0.202 C 
BRANCH   4   5
ATOM      5  C   UNL A   1      44.913  25.951  28.474  1.00  0.00     0.261 C 
BRANCH   5   6
ATOM      6  O   UNL A   1      45.037  25.937  27.054  1.00  0.00    -0.461 OA
BRANCH   6   7
ATOM      7  C   UNL A   1      44.408  24.922  26.426  1.00  0.00     0.344 C 
ATOM      8  O   UNL A   1      44.934  24.103  25.683  1.00  0.00    -0.248 OA
BRANCH   7   9
ATOM      9  C   UNL A   1      42.917  24.919  26.734  1.00  0.00     0.351 C 
BRANCH   9  10
ATOM     10  O   UNL A   1      42.072  25.935  26.251  1.00  0.00    -0.482 OA
BRANCH  10  11
ATOM     11  C   UNL A   1      41.311  26.787  26.989  1.00  0.00     0.123 A 
ATOM     12  C   UNL A   1      41.521  29.105  25.812  1.00  0.00     0.048 C 
ATOM     13  C   UNL A   1      41.021  28.156  26.870  1.00  0.00    -0.008 A 
ATOM     14  C   UNL A   1      40.024  28.721  27.721  1.00  0.00     0.029 A 
ATOM     15  C   UNL A   1      39.276  27.943  28.611  1.00  0.00     0.088 A 
ATOM     16  C   UNL A   1      40.568  26.032  27.914  1.00  0.00     0.048 A 
ATOM     17  C   UNL A   1      39.504  26.578  28.632  1.00  0.00     0.026 A 
BRANCH  15  18
ATOM     18  S   UNL A   1      38.095  28.770  29.672  1.00  0.00     0.262 S 
ATOM     19  O   UNL A   1      36.879  28.972  28.893  1.00  0.00    -0.201 OA
ATOM     20  O   UNL A   1      38.040  28.024  30.900  1.00  0.00    -0.201 OA
BRANCH  18  21
ATOM     21  N   UNL A   1      38.695  30.274  30.123  1.00  0.00    -0.277 N 
ATOM     22  H   UNL A   1      39.663  30.422  30.012  1.00  0.00     0.180 HD
BRANCH  21  23
ATOM     23  C   UNL A   1      37.929  31.355  30.653  1.00  0.00     0.085 A 
ATOM     24  C   UNL A   1      37.512  31.226  31.985  1.00  0.00     0.031 A 
ATOM     25  C   UNL A   1      37.707  32.574  29.997  1.00  0.00     0.148 A 
ATOM     26  C   UNL A   1      37.045  32.342  32.686  1.00  0.00     0.023 A 
ATOM     27  C   UNL A   1      37.280  33.696  30.701  1.00  0.00     0.062 A 
ATOM     28  F   UNL A   1      38.063  32.752  28.719  1.00  0.00    -0.205 F 
ATOM     29  C   UNL A   1      36.975  33.581  32.052  1.00  0.00     0.044 A 
ATOM     30  Cl  UNL A   1      36.557  34.986  32.950  1.00  0.00    -0.084 Cl
ENDBRANCH  21  23
ENDBRANCH  18  21
ENDBRANCH  15  18
ENDBRANCH  10  11
ENDBRANCH   9  10
ENDBRANCH   7   9
ENDBRANCH   6   7
ENDBRANCH   5   6
ENDBRANCH   4   5
ENDBRANCH   3   4
ENDBRANCH   2   3
ENDBRANCH   1   2
BRANCH   1  31
ATOM     31  O   UNL A   1      46.513  26.593  33.906  1.00  0.00    -0.377 OA
BRANCH  31  32
ATOM     32  C   UNL A   1      47.021  26.117  35.165  1.00  0.00     0.188 C 
BRANCH  32  33
ATOM     33  C   UNL A   1      46.072  25.048  35.635  1.00  0.00     0.188 C 
BRANCH  33  34
ATOM     34  O   UNL A   1      45.539  25.433  36.893  1.00  0.00    -0.376 OA
BRANCH  34  35
ATOM     35  C   UNL A   1      44.324  24.896  37.336  1.00  0.00     0.202 C 
BRANCH  35  36
ATOM     36  C   UNL A   1      43.103  25.336  36.559  1.00  0.00     0.261 C 
BRANCH  36  37
ATOM     37  O   UNL A   1      42.499  26.608  36.944  1.00  0.00    -0.460 OA
BRANCH  37  38
ATOM     38  C   UNL A   1      41.976  27.633  36.213  1.00  0.00     0.338 C 
ATOM     39  O   UNL A   1      40.863  28.075  36.489  1.00  0.00    -0.246 OA
BRANCH  38  40
ATOM     40  C   UNL A   1      42.804  28.407  35.253  1.00  0.00     0.060 A 
ATOM     41  C   UNL A   1      43.753  29.348  35.700  1.00  0.00     0.016 A 
ATOM     42  C   UNL A   1      42.673  28.191  33.891  1.00  0.00     0.016 A 
ATOM     43  C   UNL A   1      44.415  30.206  34.791  1.00  0.00     0.010 A 
ATOM     44  C   UNL A   1      43.264  29.093  33.005  1.00  0.00     0.010 A 
ATOM     45  C   UNL A   1      44.130  30.124  33.428  1.00  0.00    -0.014 A 
BRANCH  45  46
ATOM     46  C   UNL A   1      44.578  31.078  32.370  1.00  0.00     0.031 A 
ATOM     47  C   UNL A   1      45.701  30.662  31.456  1.00  0.00     0.074 A 
ATOM     48  C   UNL A   1      43.727  32.070  31.986  1.00  0.00     0.049 A 
ATOM     49  N   UNL A   1      46.068  31.261  30.372  1.00  0.00    -0.248 NA
ATOM     50  C   UNL A   1      46.477  29.445  31.673  1.00  0.00     0.031 C 
ATOM     51  C   UNL A   1      43.557  32.630  30.636  1.00  0.00     0.029 A 
ATOM     52  N   UNL A   1      42.666  32.651  32.681  1.00  0.00    -0.354 N 
ATOM     53  C   UNL A   1      46.832  30.391  29.599  1.00  0.00     0.074 A 
ATOM     54  C   UNL A   1      47.114  29.304  30.504  1.00  0.00     0.031 C 
ATOM     55  C   UNL A   1      42.506  33.464  30.585  1.00  0.00     0.029 A 
ATOM     56  C   UNL A   1      42.197  33.774  31.958  1.00  0.00     0.049 A 
ATOM     57  H   UNL A   1      42.300  32.329  33.538  1.00  0.00     0.167 HD
ATOM     58  C   UNL A   1      46.995  30.653  28.255  1.00  0.00     0.037 A 
ATOM     59  C   UNL A   1      42.421  35.025  32.466  1.00  0.00     0.037 A 
ATOM     60  C   UNL A   1      46.440  31.997  27.927  1.00  0.00     0.049 A 
ATOM     61  C   UNL A   1      43.578  35.706  31.715  1.00  0.00     0.074 A 
ATOM     62  C   UNL A   1      45.559  32.516  26.990  1.00  0.00     0.029 A 
ATOM     63  N   UNL A   1      46.705  33.069  28.790  1.00  0.00    -0.354 N 
ATOM     64  N   UNL A   1      44.475  35.027  31.032  1.00  0.00    -0.248 NA
ATOM     65  C   UNL A   1      43.735  37.141  31.481  1.00  0.00     0.031 C 
ATOM     66  C   UNL A   1      45.158  33.820  27.418  1.00  0.00     0.029 A 
ATOM     67  C   UNL A   1      45.869  34.145  28.566  1.00  0.00     0.049 A 
ATOM     68  H   UNL A   1      47.410  33.056  29.478  1.00  0.00     0.167 HD
ATOM     69  C   UNL A   1      45.199  35.839  30.216  1.00  0.00     0.074 A 
ATOM     70  C   UNL A   1      44.747  37.171  30.586  1.00  0.00     0.031 C 
ATOM     71  C   UNL A   1      46.091  35.403  29.273  1.00  0.00     0.037 A 
BRANCH  58  72
ATOM     72  C   UNL A   1      47.508  29.666  27.159  1.00  0.00     0.058 A 
ATOM     73  C   UNL A   1      46.618  29.090  26.211  1.00  0.00     0.135 A 
ATOM     74  C   UNL A   1      48.838  29.211  26.982  1.00  0.00     0.135 A 
ATOM     75  F   UNL A   1      45.327  29.437  26.158  1.00  0.00    -0.206 F 
ATOM     76  C   UNL A   1      46.993  28.147  25.236  1.00  0.00     0.059 A 
ATOM     77  C   UNL A   1      49.245  28.291  25.992  1.00  0.00     0.059 A 
ATOM     78  F   UNL A   1      49.845  29.638  27.743  1.00  0.00    -0.206 F 
ATOM     79  C   UNL A   1      48.315  27.756  25.122  1.00  0.00     0.060 A 
BRANCH  79  80
ATOM     80  S   UNL A   1      48.794  26.634  23.790  1.00  0.00     0.124 S 
ATOM     81  O   UNL A   1      48.410  25.332  24.328  1.00  0.00    -0.237 OA
ATOM     82  O   UNL A   1      47.992  27.118  22.672  1.00  0.00    -0.237 OA
ATOM     83  O   UNL A   1      50.233  26.850  23.658  1.00  0.00    -0.744 OA
ENDBRANCH  79  80
ENDBRANCH  58  72
BRANCH  59  84
ATOM     84  C   UNL A   1      41.854  35.088  33.862  1.00  0.00     0.058 A 
ATOM     85  C   UNL A   1      40.464  34.807  33.926  1.00  0.00     0.135 A 
ATOM     86  C   UNL A   1      42.618  34.637  34.957  1.00  0.00     0.135 A 
ATOM     87  F   UNL A   1      39.657  35.224  32.935  1.00  0.00    -0.206 F 
ATOM     88  C   UNL A   1      39.918  33.918  34.860  1.00  0.00     0.059 A 
ATOM     89  C   UNL A   1      42.090  33.729  35.898  1.00  0.00     0.059 A 
ATOM     90  F   UNL A   1      43.935  34.888  35.000  1.00  0.00    -0.206 F 
ATOM     91  C   UNL A   1      40.757  33.321  35.798  1.00  0.00     0.060 A 
BRANCH  91  92
ATOM     92  S   UNL A   1      40.161  31.841  36.679  1.00  0.00     0.124 S 
ATOM     93  O   UNL A   1      39.398  31.148  35.650  1.00  0.00    -0.237 OA
ATOM     94  O   UNL A   1      41.401  31.182  37.094  1.00  0.00    -0.237 OA
ATOM     95  O   UNL A   1      39.389  32.395  37.784  1.00  0.00    -0.744 OA
ENDBRANCH  91  92
ENDBRANCH  59  84
BRANCH  71  96
ATOM     96  C   UNL A   1      47.342  36.163  28.914  1.00  0.00     0.058 A 
ATOM     97  C   UNL A   1      47.494  36.790  27.669  1.00  0.00     0.135 A 
ATOM     98  C   UNL A   1      48.305  36.504  29.900  1.00  0.00     0.135 A 
ATOM     99  F   UNL A   1      46.580  36.651  26.697  1.00  0.00    -0.206 F 
ATOM    100  C   UNL A   1      48.567  37.626  27.390  1.00  0.00     0.059 A 
ATOM    101  C   UNL A   1      49.345  37.391  29.663  1.00  0.00     0.059 A 
ATOM    102  F   UNL A   1      48.257  36.011  31.147  1.00  0.00    -0.206 F 
ATOM    103  C   UNL A   1      49.490  37.913  28.390  1.00  0.00     0.060 A 
BRANCH 103 104
ATOM    104  S   UNL A   1      50.886  38.973  28.004  1.00  0.00     0.124 S 
ATOM    105  O   UNL A   1      51.823  38.595  29.057  1.00  0.00    -0.237 OA
ATOM    106  O   UNL A   1      51.245  38.546  26.654  1.00  0.00    -0.237 OA
ATOM    107  O   UNL A   1      50.331  40.319  28.104  1.00  0.00    -0.744 OA
ENDBRANCH 103 104
ENDBRANCH  71  96
ENDBRANCH  45  46
ENDBRANCH  38  40
ENDBRANCH  37  38
ENDBRANCH  36  37
ENDBRANCH  35  36
ENDBRANCH  34  35
ENDBRANCH  33  34
ENDBRANCH  32  33
ENDBRANCH  31  32
ENDBRANCH   1  31
TORSDOF 28
ENDMDL
