MODEL 1
REMARK VINA RESULT:     -10.4      0.000      0.000
REMARK SMILES O=C(OCCOCCOCCOCCOC(=O)[C@@H]1CC2(CC[NH2+]CC2)C[N@@H+]1Cc1cccc2nonc12)c1ccc(-c2c3nc(c(-c4c(F)cc(S(=O)(=O)[O-])cc4F)c4ccc([nH]4)c(-c4c(F)cc(S(=O)(=O)[O-])cc4F)c4nc(c(-c5c(F)cc(S(=O)(=O)[O-])cc5F)c5ccc2[nH]5)C=C4)C=C3)cc1
REMARK SMILES IDX 8 1 7 2 6 3 5 4 4 5 3 6 2 7 1 8 38 9 39 10 103 11 40 12
REMARK SMILES IDX 102 13 41 14 42 15 43 16 96 17 44 18 101 19 95 20 97 21
REMARK SMILES IDX 45 22 100 23 94 24 93 25 46 27 80 28 59 29 79 30 60 31 63 32
REMARK SMILES IDX 78 33 98 34 61 35 62 36 77 38 99 39 64 40 47 41 48 42 57 43
REMARK SMILES IDX 49 44 50 45 56 46 58 47 51 48 52 49 53 50 54 51 55 52 81 53
REMARK SMILES IDX 82 54 91 55 83 56 84 57 90 58 92 59 85 60 86 61 87 62 88 63
REMARK SMILES IDX 89 64 65 65 66 66 75 67 67 68 68 69 74 70 76 71 69 72 70 73
REMARK SMILES IDX 71 74 72 75 73 76 9 77 10 78 11 79 12 80 13 81 14 82 15 83
REMARK SMILES IDX 16 84 17 85 18 86 19 87 27 88 20 89 26 90 21 92 25 93 22 94
REMARK SMILES IDX 24 95 23 96 28 99 29 100 30 101 37 102 31 103 33 104 36 105
REMARK SMILES IDX 32 106 34 107 35 108
REMARK H PARENT 97 26 63 37 27 91 23 97 23 98
REMARK Flexibility Score: inf
ROOT
ATOM      1  C   UNL A   1      41.269  20.216  27.321  1.00  0.00     0.188 C 
ENDROOT
BRANCH   1   2
ATOM      2  C   UNL A   1      42.136  20.109  26.061  1.00  0.00     0.188 C 
BRANCH   2   3
ATOM      3  O   UNL A   1      43.214  21.032  26.149  1.00  0.00    -0.376 OA
BRANCH   3   4
ATOM      4  C   UNL A   1      43.079  22.228  25.385  1.00  0.00     0.202 C 
BRANCH   4   5
ATOM      5  C   UNL A   1      43.381  23.467  26.216  1.00  0.00     0.261 C 
BRANCH   5   6
ATOM      6  O   UNL A   1      43.523  23.052  27.581  1.00  0.00    -0.460 OA
BRANCH   6   7
ATOM      7  C   UNL A   1      42.679  23.679  28.439  1.00  0.00     0.338 C 
ATOM      8  O   UNL A   1      41.521  23.984  28.207  1.00  0.00    -0.246 OA
BRANCH   7   9
ATOM      9  C   UNL A   1      43.397  24.005  29.692  1.00  0.00     0.060 A 
ATOM     10  C   UNL A   1      43.844  25.309  29.914  1.00  0.00     0.016 A 
ATOM     11  C   UNL A   1      43.709  23.003  30.614  1.00  0.00     0.016 A 
ATOM     12  C   UNL A   1      44.557  25.611  31.080  1.00  0.00     0.010 A 
ATOM     13  C   UNL A   1      44.443  23.301  31.754  1.00  0.00     0.010 A 
ATOM     14  C   UNL A   1      44.860  24.610  32.019  1.00  0.00    -0.014 A 
BRANCH  14  15
ATOM     15  C   UNL A   1      45.439  24.958  33.338  1.00  0.00     0.031 A 
ATOM     16  C   UNL A   1      45.531  23.856  34.350  1.00  0.00     0.074 A 
ATOM     17  C   UNL A   1      46.282  25.988  33.546  1.00  0.00     0.049 A 
ATOM     18  N   UNL A   1      46.540  23.033  34.421  1.00  0.00    -0.248 NA
ATOM     19  C   UNL A   1      44.376  23.452  35.150  1.00  0.00     0.031 C 
ATOM     20  C   UNL A   1      47.323  26.408  32.604  1.00  0.00     0.029 A 
ATOM     21  N   UNL A   1      46.566  26.671  34.703  1.00  0.00    -0.354 N 
ATOM     22  C   UNL A   1      46.149  21.982  35.231  1.00  0.00     0.074 A 
ATOM     23  C   UNL A   1      44.801  22.288  35.662  1.00  0.00     0.031 C 
ATOM     24  C   UNL A   1      48.236  27.139  33.279  1.00  0.00     0.029 A 
ATOM     25  C   UNL A   1      47.759  27.377  34.637  1.00  0.00     0.049 A 
ATOM     26  H   UNL A   1      45.983  26.661  35.496  1.00  0.00     0.167 HD
ATOM     27  C   UNL A   1      46.925  20.901  35.504  1.00  0.00     0.037 A 
ATOM     28  C   UNL A   1      48.529  27.724  35.703  1.00  0.00     0.037 A 
ATOM     29  C   UNL A   1      48.256  20.922  34.975  1.00  0.00     0.049 A 
ATOM     30  C   UNL A   1      49.100  26.388  36.106  1.00  0.00     0.074 A 
ATOM     31  C   UNL A   1      48.906  20.506  33.831  1.00  0.00     0.029 A 
ATOM     32  N   UNL A   1      49.226  21.559  35.715  1.00  0.00    -0.354 N 
ATOM     33  N   UNL A   1      50.165  25.820  35.613  1.00  0.00    -0.248 NA
ATOM     34  C   UNL A   1      48.249  25.498  36.904  1.00  0.00     0.031 C 
ATOM     35  C   UNL A   1      50.097  21.301  33.749  1.00  0.00     0.029 A 
ATOM     36  C   UNL A   1      50.061  22.185  34.823  1.00  0.00     0.049 A 
ATOM     37  H   UNL A   1      49.306  21.566  36.696  1.00  0.00     0.167 HD
ATOM     38  C   UNL A   1      49.954  24.450  35.778  1.00  0.00     0.074 A 
ATOM     39  C   UNL A   1      48.788  24.320  36.626  1.00  0.00     0.031 C 
ATOM     40  C   UNL A   1      50.605  23.500  35.054  1.00  0.00     0.037 A 
BRANCH  27  41
ATOM     41  C   UNL A   1      46.515  19.841  36.447  1.00  0.00     0.058 A 
ATOM     42  C   UNL A   1      45.556  18.903  36.036  1.00  0.00     0.135 A 
ATOM     43  C   UNL A   1      46.944  19.813  37.778  1.00  0.00     0.135 A 
ATOM     44  F   UNL A   1      45.121  18.902  34.765  1.00  0.00    -0.206 F 
ATOM     45  C   UNL A   1      45.010  17.987  36.924  1.00  0.00     0.059 A 
ATOM     46  C   UNL A   1      46.412  18.901  38.688  1.00  0.00     0.059 A 
ATOM     47  F   UNL A   1      47.864  20.689  38.211  1.00  0.00    -0.206 F 
ATOM     48  C   UNL A   1      45.432  18.006  38.253  1.00  0.00     0.060 A 
BRANCH  48  49
ATOM     49  S   UNL A   1      44.649  16.856  39.405  1.00  0.00     0.124 S 
ATOM     50  O   UNL A   1      43.642  16.224  38.559  1.00  0.00    -0.237 OA
ATOM     51  O   UNL A   1      45.773  16.011  39.796  1.00  0.00    -0.237 OA
ATOM     52  O   UNL A   1      44.130  17.727  40.455  1.00  0.00    -0.744 OA
ENDBRANCH  48  49
ENDBRANCH  27  41
BRANCH  28  53
ATOM     53  C   UNL A   1      47.876  28.643  36.690  1.00  0.00     0.058 A 
ATOM     54  C   UNL A   1      46.947  29.595  36.216  1.00  0.00     0.135 A 
ATOM     55  C   UNL A   1      48.110  28.643  38.073  1.00  0.00     0.135 A 
ATOM     56  F   UNL A   1      46.752  29.755  34.896  1.00  0.00    -0.206 F 
ATOM     57  C   UNL A   1      46.189  30.387  37.072  1.00  0.00     0.059 A 
ATOM     58  C   UNL A   1      47.348  29.411  38.954  1.00  0.00     0.059 A 
ATOM     59  F   UNL A   1      49.068  27.878  38.613  1.00  0.00    -0.206 F 
ATOM     60  C   UNL A   1      46.367  30.256  38.444  1.00  0.00     0.060 A 
BRANCH  60  61
ATOM     61  S   UNL A   1      45.261  31.163  39.544  1.00  0.00     0.124 S 
ATOM     62  O   UNL A   1      45.738  32.533  39.389  1.00  0.00    -0.237 OA
ATOM     63  O   UNL A   1      43.955  30.873  38.958  1.00  0.00    -0.237 OA
ATOM     64  O   UNL A   1      45.506  30.553  40.846  1.00  0.00    -0.744 OA
ENDBRANCH  60  61
ENDBRANCH  28  53
BRANCH  40  65
ATOM     65  C   UNL A   1      51.770  23.975  34.268  1.00  0.00     0.058 A 
ATOM     66  C   UNL A   1      53.053  23.899  34.821  1.00  0.00     0.135 A 
ATOM     67  C   UNL A   1      51.636  24.492  32.973  1.00  0.00     0.135 A 
ATOM     68  F   UNL A   1      53.224  23.426  36.067  1.00  0.00    -0.206 F 
ATOM     69  C   UNL A   1      54.179  24.273  34.097  1.00  0.00     0.059 A 
ATOM     70  C   UNL A   1      52.745  24.929  32.256  1.00  0.00     0.059 A 
ATOM     71  F   UNL A   1      50.436  24.535  32.372  1.00  0.00    -0.206 F 
ATOM     72  C   UNL A   1      54.016  24.774  32.805  1.00  0.00     0.060 A 
BRANCH  72  73
ATOM     73  S   UNL A   1      55.477  25.051  31.779  1.00  0.00     0.124 S 
ATOM     74  O   UNL A   1      55.837  23.697  31.379  1.00  0.00    -0.237 OA
ATOM     75  O   UNL A   1      54.962  25.915  30.719  1.00  0.00    -0.237 OA
ATOM     76  O   UNL A   1      56.405  25.707  32.696  1.00  0.00    -0.744 OA
ENDBRANCH  72  73
ENDBRANCH  40  65
ENDBRANCH  14  15
ENDBRANCH   7   9
ENDBRANCH   6   7
ENDBRANCH   5   6
ENDBRANCH   4   5
ENDBRANCH   3   4
ENDBRANCH   2   3
ENDBRANCH   1   2
BRANCH   1  77
ATOM     77  O   UNL A   1      40.158  21.115  27.244  1.00  0.00    -0.377 OA
BRANCH  77  78
ATOM     78  C   UNL A   1      39.672  21.488  25.959  1.00  0.00     0.188 C 
BRANCH  78  79
ATOM     79  C   UNL A   1      38.323  22.228  25.798  1.00  0.00     0.188 C 
BRANCH  79  80
ATOM     80  O   UNL A   1      37.477  21.830  24.745  1.00  0.00    -0.376 OA
BRANCH  80  81
ATOM     81  C   UNL A   1      36.840  22.790  23.906  1.00  0.00     0.202 C 
BRANCH  81  82
ATOM     82  C   UNL A   1      35.549  23.544  24.272  1.00  0.00     0.261 C 
BRANCH  82  83
ATOM     83  O   UNL A   1      34.801  24.068  23.163  1.00  0.00    -0.459 OA
BRANCH  83  84
ATOM     84  C   UNL A   1      33.831  24.973  23.492  1.00  0.00     0.365 C 
ATOM     85  O   UNL A   1      33.942  25.749  24.433  1.00  0.00    -0.245 OA
BRANCH  84  86
ATOM     86  C   UNL A   1      32.703  25.011  22.441  1.00  0.00     0.296 C 
ATOM     87  C   UNL A   1      32.267  26.456  22.215  1.00  0.00     0.091 C 
ATOM     88  N   UNL A   1      31.418  24.404  22.786  1.00  0.00    -0.319 N 
ATOM     89  C   UNL A   1      31.109  26.725  23.214  1.00  0.00     0.036 C 
ATOM     90  C   UNL A   1      30.475  25.331  23.381  1.00  0.00     0.270 C 
ATOM     91  H   UNL A   1      31.004  24.210  21.874  1.00  0.00     0.349 HD
ATOM     92  C   UNL A   1      30.156  27.791  22.634  1.00  0.00     0.074 C 
ATOM     93  C   UNL A   1      31.517  27.284  24.600  1.00  0.00     0.074 C 
ATOM     94  C   UNL A   1      30.845  29.165  22.569  1.00  0.00     0.261 C 
ATOM     95  C   UNL A   1      32.251  28.617  24.483  1.00  0.00     0.261 C 
ATOM     96  N   UNL A   1      31.378  29.618  23.855  1.00  0.00    -0.346 N 
ATOM     97  H   UNL A   1      30.599  29.813  24.483  1.00  0.00     0.346 HD
ATOM     98  H   UNL A   1      31.938  30.452  23.682  1.00  0.00     0.346 HD
BRANCH  88  99
ATOM     99  C   UNL A   1      31.302  22.977  23.003  1.00  0.00     0.302 C 
BRANCH  99 100
ATOM    100  C   UNL A   1      32.109  22.482  24.160  1.00  0.00     0.038 A 
ATOM    101  C   UNL A   1      32.977  21.366  24.036  1.00  0.00     0.012 A 
ATOM    102  C   UNL A   1      31.960  22.952  25.489  1.00  0.00     0.144 A 
ATOM    103  C   UNL A   1      33.566  20.712  25.141  1.00  0.00     0.003 A 
ATOM    104  C   UNL A   1      32.573  22.280  26.621  1.00  0.00     0.135 A 
ATOM    105  N   UNL A   1      31.243  23.984  25.958  1.00  0.00    -0.049 NA
ATOM    106  C   UNL A   1      33.366  21.136  26.463  1.00  0.00     0.034 A 
ATOM    107  N   UNL A   1      32.205  22.914  27.741  1.00  0.00    -0.050 NA
ATOM    108  O   UNL A   1      31.399  23.958  27.333  1.00  0.00    -0.243 OA
ENDBRANCH  99 100
ENDBRANCH  88  99
ENDBRANCH  84  86
ENDBRANCH  83  84
ENDBRANCH  82  83
ENDBRANCH  81  82
ENDBRANCH  80  81
ENDBRANCH  79  80
ENDBRANCH  78  79
ENDBRANCH  77  78
ENDBRANCH   1  77
TORSDOF 25
ENDMDL
MODEL 2
REMARK VINA RESULT:      -9.9      3.846      7.530
REMARK SMILES O=C(OCCOCCOCCOCCOC(=O)[C@@H]1CC2(CC[NH2+]CC2)C[N@@H+]1Cc1cccc2nonc12)c1ccc(-c2c3nc(c(-c4c(F)cc(S(=O)(=O)[O-])cc4F)c4ccc([nH]4)c(-c4c(F)cc(S(=O)(=O)[O-])cc4F)c4nc(c(-c5c(F)cc(S(=O)(=O)[O-])cc5F)c5ccc2[nH]5)C=C4)C=C3)cc1
REMARK SMILES IDX 8 1 7 2 6 3 5 4 4 5 3 6 2 7 1 8 38 9 39 10 103 11 40 12
REMARK SMILES IDX 102 13 41 14 42 15 43 16 96 17 44 18 101 19 95 20 97 21
REMARK SMILES IDX 45 22 100 23 94 24 93 25 46 27 80 28 59 29 79 30 60 31 63 32
REMARK SMILES IDX 78 33 98 34 61 35 62 36 77 38 99 39 64 40 47 41 48 42 57 43
REMARK SMILES IDX 49 44 50 45 56 46 58 47 51 48 52 49 53 50 54 51 55 52 81 53
REMARK SMILES IDX 82 54 91 55 83 56 84 57 90 58 92 59 85 60 86 61 87 62 88 63
REMARK SMILES IDX 89 64 65 65 66 66 75 67 67 68 68 69 74 70 76 71 69 72 70 73
REMARK SMILES IDX 71 74 72 75 73 76 9 77 10 78 11 79 12 80 13 81 14 82 15 83
REMARK SMILES IDX 16 84 17 85 18 86 19 87 27 88 20 89 26 90 21 92 25 93 22 94
REMARK SMILES IDX 24 95 23 96 28 99 29 100 30 101 37 102 31 103 33 104 36 105
REMARK SMILES IDX 32 106 34 107 35 108
REMARK H PARENT 97 26 63 37 27 91 23 97 23 98
REMARK Flexibility Score: inf
ROOT
ATOM      1  C   UNL A   1      37.921  23.144  26.170  1.00  0.00     0.188 C 
ENDROOT
BRANCH   1   2
ATOM      2  C   UNL A   1      38.904  21.985  25.970  1.00  0.00     0.188 C 
BRANCH   2   3
ATOM      3  O   UNL A   1      39.866  21.993  27.018  1.00  0.00    -0.376 OA
BRANCH   3   4
ATOM      4  C   UNL A   1      40.646  20.809  27.162  1.00  0.00     0.202 C 
BRANCH   4   5
ATOM      5  C   UNL A   1      42.115  21.125  27.403  1.00  0.00     0.261 C 
BRANCH   5   6
ATOM      6  O   UNL A   1      42.239  22.547  27.536  1.00  0.00    -0.460 OA
BRANCH   6   7
ATOM      7  C   UNL A   1      43.456  23.031  27.179  1.00  0.00     0.338 C 
ATOM      8  O   UNL A   1      44.061  22.760  26.156  1.00  0.00    -0.246 OA
BRANCH   7   9
ATOM      9  C   UNL A   1      43.982  23.895  28.261  1.00  0.00     0.060 A 
ATOM     10  C   UNL A   1      45.191  24.570  28.080  1.00  0.00     0.016 A 
ATOM     11  C   UNL A   1      43.327  23.970  29.493  1.00  0.00     0.016 A 
ATOM     12  C   UNL A   1      45.709  25.356  29.116  1.00  0.00     0.010 A 
ATOM     13  C   UNL A   1      43.862  24.726  30.527  1.00  0.00     0.010 A 
ATOM     14  C   UNL A   1      45.046  25.449  30.352  1.00  0.00    -0.014 A 
BRANCH  14  15
ATOM     15  C   UNL A   1      45.485  26.428  31.375  1.00  0.00     0.031 A 
ATOM     16  C   UNL A   1      44.428  27.318  31.957  1.00  0.00     0.074 A 
ATOM     17  C   UNL A   1      46.585  26.282  32.140  1.00  0.00     0.049 A 
ATOM     18  N   UNL A   1      43.691  26.981  32.978  1.00  0.00    -0.248 NA
ATOM     19  C   UNL A   1      43.962  28.513  31.255  1.00  0.00     0.031 C 
ATOM     20  C   UNL A   1      47.053  25.002  32.679  1.00  0.00     0.029 A 
ATOM     21  N   UNL A   1      47.327  27.229  32.800  1.00  0.00    -0.354 N 
ATOM     22  C   UNL A   1      42.641  27.879  33.033  1.00  0.00     0.074 A 
ATOM     23  C   UNL A   1      42.854  28.813  31.947  1.00  0.00     0.031 C 
ATOM     24  C   UNL A   1      47.877  25.257  33.718  1.00  0.00     0.029 A 
ATOM     25  C   UNL A   1      48.123  26.692  33.803  1.00  0.00     0.049 A 
ATOM     26  H   UNL A   1      47.298  28.189  32.584  1.00  0.00     0.167 HD
ATOM     27  C   UNL A   1      41.635  27.820  33.944  1.00  0.00     0.037 A 
ATOM     28  C   UNL A   1      48.565  27.362  34.900  1.00  0.00     0.037 A 
ATOM     29  C   UNL A   1      41.742  26.804  34.948  1.00  0.00     0.049 A 
ATOM     30  C   UNL A   1      47.294  27.504  35.697  1.00  0.00     0.074 A 
ATOM     31  C   UNL A   1      41.340  25.495  35.123  1.00  0.00     0.029 A 
ATOM     32  N   UNL A   1      42.479  27.095  36.073  1.00  0.00    -0.354 N 
ATOM     33  N   UNL A   1      46.795  26.626  36.523  1.00  0.00    -0.248 NA
ATOM     34  C   UNL A   1      46.367  28.575  35.314  1.00  0.00     0.031 C 
ATOM     35  C   UNL A   1      42.223  24.945  36.109  1.00  0.00     0.029 A 
ATOM     36  C   UNL A   1      43.138  25.944  36.427  1.00  0.00     0.049 A 
ATOM     37  H   UNL A   1      42.526  27.962  36.536  1.00  0.00     0.167 HD
ATOM     38  C   UNL A   1      45.419  26.862  36.514  1.00  0.00     0.074 A 
ATOM     39  C   UNL A   1      45.227  28.105  35.797  1.00  0.00     0.031 C 
ATOM     40  C   UNL A   1      44.499  25.938  36.903  1.00  0.00     0.037 A 
BRANCH  27  41
ATOM     41  C   UNL A   1      40.578  28.848  34.035  1.00  0.00     0.058 A 
ATOM     42  C   UNL A   1      39.426  28.707  33.248  1.00  0.00     0.135 A 
ATOM     43  C   UNL A   1      40.739  30.025  34.774  1.00  0.00     0.135 A 
ATOM     44  F   UNL A   1      39.240  27.590  32.526  1.00  0.00    -0.206 F 
ATOM     45  C   UNL A   1      38.476  29.716  33.165  1.00  0.00     0.059 A 
ATOM     46  C   UNL A   1      39.798  31.051  34.709  1.00  0.00     0.059 A 
ATOM     47  F   UNL A   1      41.824  30.199  35.544  1.00  0.00    -0.206 F 
ATOM     48  C   UNL A   1      38.680  30.892  33.886  1.00  0.00     0.060 A 
BRANCH  48  49
ATOM     49  S   UNL A   1      37.469  32.218  33.700  1.00  0.00     0.124 S 
ATOM     50  O   UNL A   1      36.498  31.612  32.795  1.00  0.00    -0.237 OA
ATOM     51  O   UNL A   1      37.023  32.413  35.075  1.00  0.00    -0.237 OA
ATOM     52  O   UNL A   1      38.250  33.316  33.137  1.00  0.00    -0.744 OA
ENDBRANCH  48  49
ENDBRANCH  27  41
BRANCH  28  53
ATOM     53  C   UNL A   1      49.463  28.528  34.617  1.00  0.00     0.058 A 
ATOM     54  C   UNL A   1      50.421  28.409  33.586  1.00  0.00     0.135 A 
ATOM     55  C   UNL A   1      49.438  29.754  35.299  1.00  0.00     0.135 A 
ATOM     56  F   UNL A   1      50.607  27.233  32.963  1.00  0.00    -0.206 F 
ATOM     57  C   UNL A   1      51.195  29.484  33.160  1.00  0.00     0.059 A 
ATOM     58  C   UNL A   1      50.186  30.853  34.877  1.00  0.00     0.059 A 
ATOM     59  F   UNL A   1      48.666  29.928  36.380  1.00  0.00    -0.206 F 
ATOM     60  C   UNL A   1      51.039  30.715  33.786  1.00  0.00     0.060 A 
BRANCH  60  61
ATOM     61  S   UNL A   1      51.921  32.138  33.113  1.00  0.00     0.124 S 
ATOM     62  O   UNL A   1      52.559  31.566  31.932  1.00  0.00    -0.237 OA
ATOM     63  O   UNL A   1      50.828  33.073  32.857  1.00  0.00    -0.237 OA
ATOM     64  O   UNL A   1      52.822  32.518  34.195  1.00  0.00    -0.744 OA
ENDBRANCH  60  61
ENDBRANCH  28  53
BRANCH  40  65
ATOM     65  C   UNL A   1      45.037  24.752  37.613  1.00  0.00     0.058 A 
ATOM     66  C   UNL A   1      45.133  24.769  39.009  1.00  0.00     0.135 A 
ATOM     67  C   UNL A   1      45.448  23.598  36.934  1.00  0.00     0.135 A 
ATOM     68  F   UNL A   1      44.766  25.863  39.698  1.00  0.00    -0.206 F 
ATOM     69  C   UNL A   1      45.571  23.658  39.720  1.00  0.00     0.059 A 
ATOM     70  C   UNL A   1      45.947  22.498  37.624  1.00  0.00     0.059 A 
ATOM     71  F   UNL A   1      45.325  23.506  35.600  1.00  0.00    -0.206 F 
ATOM     72  C   UNL A   1      45.963  22.518  39.018  1.00  0.00     0.060 A 
BRANCH  72  73
ATOM     73  S   UNL A   1      46.320  21.001  39.932  1.00  0.00     0.124 S 
ATOM     74  O   UNL A   1      47.681  21.232  40.395  1.00  0.00    -0.237 OA
ATOM     75  O   UNL A   1      45.286  21.001  40.965  1.00  0.00    -0.237 OA
ATOM     76  O   UNL A   1      46.163  19.960  38.920  1.00  0.00    -0.744 OA
ENDBRANCH  72  73
ENDBRANCH  40  65
ENDBRANCH  14  15
ENDBRANCH   7   9
ENDBRANCH   6   7
ENDBRANCH   5   6
ENDBRANCH   4   5
ENDBRANCH   3   4
ENDBRANCH   2   3
ENDBRANCH   1   2
BRANCH   1  77
ATOM     77  O   UNL A   1      36.584  22.921  25.714  1.00  0.00    -0.377 OA
BRANCH  77  78
ATOM     78  C   UNL A   1      35.909  23.977  25.038  1.00  0.00     0.188 C 
BRANCH  78  79
ATOM     79  C   UNL A   1      35.182  23.731  23.695  1.00  0.00     0.188 C 
BRANCH  79  80
ATOM     80  O   UNL A   1      33.962  24.398  23.478  1.00  0.00    -0.376 OA
BRANCH  80  81
ATOM     81  C   UNL A   1      33.511  24.704  22.161  1.00  0.00     0.202 C 
BRANCH  81  82
ATOM     82  C   UNL A   1      32.076  25.130  21.809  1.00  0.00     0.261 C 
BRANCH  82  83
ATOM     83  O   UNL A   1      31.129  25.073  22.888  1.00  0.00    -0.459 OA
BRANCH  83  84
ATOM     84  C   UNL A   1      30.702  26.286  23.352  1.00  0.00     0.365 C 
ATOM     85  O   UNL A   1      30.459  27.230  22.611  1.00  0.00    -0.245 OA
BRANCH  84  86
ATOM     86  C   UNL A   1      30.401  26.246  24.864  1.00  0.00     0.296 C 
ATOM     87  C   UNL A   1      30.980  27.492  25.530  1.00  0.00     0.091 C 
ATOM     88  N   UNL A   1      31.037  25.204  25.667  1.00  0.00    -0.319 N 
ATOM     89  C   UNL A   1      32.417  27.118  25.983  1.00  0.00     0.036 C 
ATOM     90  C   UNL A   1      32.307  25.603  26.244  1.00  0.00     0.270 C 
ATOM     91  H   UNL A   1      30.428  25.137  26.482  1.00  0.00     0.349 HD
ATOM     92  C   UNL A   1      32.806  27.949  27.223  1.00  0.00     0.074 C 
ATOM     93  C   UNL A   1      33.549  27.393  24.962  1.00  0.00     0.074 C 
ATOM     94  C   UNL A   1      32.965  29.436  26.860  1.00  0.00     0.261 C 
ATOM     95  C   UNL A   1      33.630  28.868  24.584  1.00  0.00     0.261 C 
ATOM     96  N   UNL A   1      33.919  29.678  25.776  1.00  0.00    -0.346 N 
ATOM     97  H   UNL A   1      34.856  29.450  26.106  1.00  0.00     0.346 HD
ATOM     98  H   UNL A   1      33.843  30.659  25.509  1.00  0.00     0.346 HD
BRANCH  88  99
ATOM     99  C   UNL A   1      30.715  23.807  25.466  1.00  0.00     0.302 C 
BRANCH  99 100
ATOM    100  C   UNL A   1      31.701  22.871  26.088  1.00  0.00     0.038 A 
ATOM    101  C   UNL A   1      32.136  23.035  27.428  1.00  0.00     0.012 A 
ATOM    102  C   UNL A   1      32.404  21.870  25.372  1.00  0.00     0.144 A 
ATOM    103  C   UNL A   1      33.236  22.341  27.981  1.00  0.00     0.003 A 
ATOM    104  C   UNL A   1      33.529  21.154  25.946  1.00  0.00     0.135 A 
ATOM    105  N   UNL A   1      32.242  21.445  24.110  1.00  0.00    -0.049 NA
ATOM    106  C   UNL A   1      33.974  21.397  27.252  1.00  0.00     0.034 A 
ATOM    107  N   UNL A   1      34.023  20.325  25.019  1.00  0.00    -0.050 NA
ATOM    108  O   UNL A   1      33.231  20.499  23.901  1.00  0.00    -0.243 OA
ENDBRANCH  99 100
ENDBRANCH  88  99
ENDBRANCH  84  86
ENDBRANCH  83  84
ENDBRANCH  82  83
ENDBRANCH  81  82
ENDBRANCH  80  81
ENDBRANCH  79  80
ENDBRANCH  78  79
ENDBRANCH  77  78
ENDBRANCH   1  77
TORSDOF 25
ENDMDL
MODEL 3
REMARK VINA RESULT:      -9.8      5.366      9.408
REMARK SMILES O=C(OCCOCCOCCOCCOC(=O)[C@@H]1CC2(CC[NH2+]CC2)C[N@@H+]1Cc1cccc2nonc12)c1ccc(-c2c3nc(c(-c4c(F)cc(S(=O)(=O)[O-])cc4F)c4ccc([nH]4)c(-c4c(F)cc(S(=O)(=O)[O-])cc4F)c4nc(c(-c5c(F)cc(S(=O)(=O)[O-])cc5F)c5ccc2[nH]5)C=C4)C=C3)cc1
REMARK SMILES IDX 8 1 7 2 6 3 5 4 4 5 3 6 2 7 1 8 38 9 39 10 103 11 40 12
REMARK SMILES IDX 102 13 41 14 42 15 43 16 96 17 44 18 101 19 95 20 97 21
REMARK SMILES IDX 45 22 100 23 94 24 93 25 46 27 80 28 59 29 79 30 60 31 63 32
REMARK SMILES IDX 78 33 98 34 61 35 62 36 77 38 99 39 64 40 47 41 48 42 57 43
REMARK SMILES IDX 49 44 50 45 56 46 58 47 51 48 52 49 53 50 54 51 55 52 81 53
REMARK SMILES IDX 82 54 91 55 83 56 84 57 90 58 92 59 85 60 86 61 87 62 88 63
REMARK SMILES IDX 89 64 65 65 66 66 75 67 67 68 68 69 74 70 76 71 69 72 70 73
REMARK SMILES IDX 71 74 72 75 73 76 9 77 10 78 11 79 12 80 13 81 14 82 15 83
REMARK SMILES IDX 16 84 17 85 18 86 19 87 27 88 20 89 26 90 21 92 25 93 22 94
REMARK SMILES IDX 24 95 23 96 28 99 29 100 30 101 37 102 31 103 33 104 36 105
REMARK SMILES IDX 32 106 34 107 35 108
REMARK H PARENT 97 26 63 37 27 91 23 97 23 98
REMARK Flexibility Score: inf
ROOT
ATOM      1  C   UNL A   1      37.605  22.987  26.122  1.00  0.00     0.188 C 
ENDROOT
BRANCH   1   2
ATOM      2  C   UNL A   1      38.540  21.833  25.743  1.00  0.00     0.188 C 
BRANCH   2   3
ATOM      3  O   UNL A   1      39.660  21.824  26.619  1.00  0.00    -0.376 OA
BRANCH   3   4
ATOM      4  C   UNL A   1      40.527  20.698  26.517  1.00  0.00     0.202 C 
BRANCH   4   5
ATOM      5  C   UNL A   1      41.947  21.107  26.151  1.00  0.00     0.261 C 
BRANCH   5   6
ATOM      6  O   UNL A   1      41.911  22.481  25.742  1.00  0.00    -0.460 OA
BRANCH   6   7
ATOM      7  C   UNL A   1      43.063  22.915  25.170  1.00  0.00     0.338 C 
ATOM      8  O   UNL A   1      43.720  22.312  24.339  1.00  0.00    -0.246 OA
BRANCH   7   9
ATOM      9  C   UNL A   1      43.449  24.218  25.760  1.00  0.00     0.060 A 
ATOM     10  C   UNL A   1      44.461  24.974  25.165  1.00  0.00     0.016 A 
ATOM     11  C   UNL A   1      42.872  24.655  26.955  1.00  0.00     0.016 A 
ATOM     12  C   UNL A   1      44.853  26.186  25.744  1.00  0.00     0.010 A 
ATOM     13  C   UNL A   1      43.287  25.843  27.541  1.00  0.00     0.010 A 
ATOM     14  C   UNL A   1      44.265  26.640  26.938  1.00  0.00    -0.014 A 
BRANCH  14  15
ATOM     15  C   UNL A   1      44.536  28.006  27.444  1.00  0.00     0.031 A 
ATOM     16  C   UNL A   1      43.346  28.835  27.825  1.00  0.00     0.074 A 
ATOM     17  C   UNL A   1      45.695  28.385  28.017  1.00  0.00     0.049 A 
ATOM     18  N   UNL A   1      42.793  28.794  29.005  1.00  0.00    -0.248 NA
ATOM     19  C   UNL A   1      42.555  29.545  26.820  1.00  0.00     0.031 C 
ATOM     20  C   UNL A   1      46.497  27.536  28.902  1.00  0.00     0.029 A 
ATOM     21  N   UNL A   1      46.239  29.638  28.152  1.00  0.00    -0.354 N 
ATOM     22  C   UNL A   1      41.567  29.424  28.899  1.00  0.00     0.074 A 
ATOM     23  C   UNL A   1      41.465  29.877  27.527  1.00  0.00     0.031 C 
ATOM     24  C   UNL A   1      47.315  28.331  29.626  1.00  0.00     0.029 A 
ATOM     25  C   UNL A   1      47.217  29.701  29.137  1.00  0.00     0.049 A 
ATOM     26  H   UNL A   1      45.965  30.411  27.608  1.00  0.00     0.167 HD
ATOM     27  C   UNL A   1      40.678  29.538  29.921  1.00  0.00     0.037 A 
ATOM     28  C   UNL A   1      47.571  30.820  29.824  1.00  0.00     0.037 A 
ATOM     29  C   UNL A   1      41.104  29.040  31.194  1.00  0.00     0.049 A 
ATOM     30  C   UNL A   1      46.369  31.020  30.710  1.00  0.00     0.074 A 
ATOM     31  C   UNL A   1      41.041  27.856  31.900  1.00  0.00     0.029 A 
ATOM     32  N   UNL A   1      41.836  29.885  31.997  1.00  0.00    -0.354 N 
ATOM     33  N   UNL A   1      46.160  30.461  31.871  1.00  0.00    -0.248 NA
ATOM     34  C   UNL A   1      45.186  31.656  30.120  1.00  0.00     0.031 C 
ATOM     35  C   UNL A   1      42.105  27.917  32.859  1.00  0.00     0.029 A 
ATOM     36  C   UNL A   1      42.776  29.114  32.634  1.00  0.00     0.049 A 
ATOM     37  H   UNL A   1      41.710  30.856  32.095  1.00  0.00     0.167 HD
ATOM     38  C   UNL A   1      44.771  30.408  32.002  1.00  0.00     0.074 A 
ATOM     39  C   UNL A   1      44.232  31.207  30.923  1.00  0.00     0.031 C 
ATOM     40  C   UNL A   1      44.132  29.555  32.848  1.00  0.00     0.037 A 
BRANCH  27  41
ATOM     41  C   UNL A   1      39.417  30.298  29.801  1.00  0.00     0.058 A 
ATOM     42  C   UNL A   1      38.268  29.636  29.344  1.00  0.00     0.135 A 
ATOM     43  C   UNL A   1      39.354  31.682  29.998  1.00  0.00     0.135 A 
ATOM     44  F   UNL A   1      38.295  28.308  29.144  1.00  0.00    -0.206 F 
ATOM     45  C   UNL A   1      37.100  30.327  29.055  1.00  0.00     0.059 A 
ATOM     46  C   UNL A   1      38.191  32.397  29.717  1.00  0.00     0.059 A 
ATOM     47  F   UNL A   1      40.429  32.353  30.440  1.00  0.00    -0.206 F 
ATOM     48  C   UNL A   1      37.077  31.711  29.228  1.00  0.00     0.060 A 
BRANCH  48  49
ATOM     49  S   UNL A   1      35.570  32.595  28.771  1.00  0.00     0.124 S 
ATOM     50  O   UNL A   1      36.016  33.984  28.802  1.00  0.00    -0.237 OA
ATOM     51  O   UNL A   1      35.289  32.046  27.449  1.00  0.00    -0.237 OA
ATOM     52  O   UNL A   1      34.624  32.217  29.816  1.00  0.00    -0.744 OA
ENDBRANCH  48  49
ENDBRANCH  27  41
BRANCH  28  53
ATOM     53  C   UNL A   1      48.139  31.928  28.989  1.00  0.00     0.058 A 
ATOM     54  C   UNL A   1      48.801  31.597  27.786  1.00  0.00     0.135 A 
ATOM     55  C   UNL A   1      48.073  33.294  29.303  1.00  0.00     0.135 A 
ATOM     56  F   UNL A   1      49.025  30.312  27.465  1.00  0.00    -0.206 F 
ATOM     57  C   UNL A   1      49.230  32.563  26.882  1.00  0.00     0.059 A 
ATOM     58  C   UNL A   1      48.475  34.282  28.404  1.00  0.00     0.059 A 
ATOM     59  F   UNL A   1      47.591  33.710  30.482  1.00  0.00    -0.206 F 
ATOM     60  C   UNL A   1      49.024  33.905  27.182  1.00  0.00     0.060 A 
BRANCH  60  61
ATOM     61  S   UNL A   1      49.429  35.137  25.928  1.00  0.00     0.124 S 
ATOM     62  O   UNL A   1      48.644  34.677  24.788  1.00  0.00    -0.237 OA
ATOM     63  O   UNL A   1      48.970  36.370  26.562  1.00  0.00    -0.237 OA
ATOM     64  O   UNL A   1      50.876  35.013  25.790  1.00  0.00    -0.744 OA
ENDBRANCH  60  61
ENDBRANCH  28  53
BRANCH  40  65
ATOM     65  C   UNL A   1      44.992  28.871  33.845  1.00  0.00     0.058 A 
ATOM     66  C   UNL A   1      45.631  27.675  33.498  1.00  0.00     0.135 A 
ATOM     67  C   UNL A   1      45.201  29.387  35.130  1.00  0.00     0.135 A 
ATOM     68  F   UNL A   1      45.444  27.137  32.281  1.00  0.00    -0.206 F 
ATOM     69  C   UNL A   1      46.497  27.034  34.377  1.00  0.00     0.059 A 
ATOM     70  C   UNL A   1      46.015  28.727  36.045  1.00  0.00     0.059 A 
ATOM     71  F   UNL A   1      44.658  30.559  35.496  1.00  0.00    -0.206 F 
ATOM     72  C   UNL A   1      46.695  27.577  35.647  1.00  0.00     0.060 A 
BRANCH  72  73
ATOM     73  S   UNL A   1      47.979  26.881  36.710  1.00  0.00     0.124 S 
ATOM     74  O   UNL A   1      47.945  25.469  36.352  1.00  0.00    -0.237 OA
ATOM     75  O   UNL A   1      49.171  27.616  36.294  1.00  0.00    -0.237 OA
ATOM     76  O   UNL A   1      47.507  27.204  38.054  1.00  0.00    -0.744 OA
ENDBRANCH  72  73
ENDBRANCH  40  65
ENDBRANCH  14  15
ENDBRANCH   7   9
ENDBRANCH   6   7
ENDBRANCH   5   6
ENDBRANCH   4   5
ENDBRANCH   3   4
ENDBRANCH   2   3
ENDBRANCH   1   2
BRANCH   1  77
ATOM     77  O   UNL A   1      36.278  22.921  25.591  1.00  0.00    -0.377 OA
BRANCH  77  78
ATOM     78  C   UNL A   1      35.695  24.109  25.065  1.00  0.00     0.188 C 
BRANCH  78  79
ATOM     79  C   UNL A   1      35.138  24.156  23.623  1.00  0.00     0.188 C 
BRANCH  79  80
ATOM     80  O   UNL A   1      33.952  24.881  23.400  1.00  0.00    -0.376 OA
BRANCH  80  81
ATOM     81  C   UNL A   1      33.579  25.301  22.090  1.00  0.00     0.202 C 
BRANCH  81  82
ATOM     82  C   UNL A   1      32.150  25.693  21.677  1.00  0.00     0.261 C 
BRANCH  82  83
ATOM     83  O   UNL A   1      31.144  25.531  22.689  1.00  0.00    -0.459 OA
BRANCH  83  84
ATOM     84  C   UNL A   1      30.616  26.694  23.176  1.00  0.00     0.365 C 
ATOM     85  O   UNL A   1      30.349  27.650  22.461  1.00  0.00    -0.245 OA
BRANCH  84  86
ATOM     86  C   UNL A   1      30.240  26.571  24.667  1.00  0.00     0.296 C 
ATOM     87  C   UNL A   1      30.841  27.742  25.441  1.00  0.00     0.091 C 
ATOM     88  N   UNL A   1      30.789  25.449  25.427  1.00  0.00    -0.319 N 
ATOM     89  C   UNL A   1      32.237  27.270  25.932  1.00  0.00     0.036 C 
ATOM     90  C   UNL A   1      32.047  25.749  26.085  1.00  0.00     0.270 C 
ATOM     91  H   UNL A   1      30.138  25.359  26.207  1.00  0.00     0.349 HD
ATOM     92  C   UNL A   1      32.603  27.999  27.241  1.00  0.00     0.074 C 
ATOM     93  C   UNL A   1      33.428  27.555  24.984  1.00  0.00     0.074 C 
ATOM     94  C   UNL A   1      32.846  29.497  26.985  1.00  0.00     0.261 C 
ATOM     95  C   UNL A   1      33.593  29.047  24.710  1.00  0.00     0.261 C 
ATOM     96  N   UNL A   1      33.861  29.763  25.964  1.00  0.00    -0.346 N 
ATOM     97  H   UNL A   1      34.770  29.469  26.320  1.00  0.00     0.346 HD
ATOM     98  H   UNL A   1      33.842  30.762  25.760  1.00  0.00     0.346 HD
BRANCH  88  99
ATOM     99  C   UNL A   1      30.414  24.085  25.119  1.00  0.00     0.302 C 
BRANCH  99 100
ATOM    100  C   UNL A   1      31.567  23.133  25.127  1.00  0.00     0.038 A 
ATOM    101  C   UNL A   1      31.980  22.459  23.949  1.00  0.00     0.012 A 
ATOM    102  C   UNL A   1      32.223  22.693  26.304  1.00  0.00     0.144 A 
ATOM    103  C   UNL A   1      32.890  21.377  23.949  1.00  0.00     0.003 A 
ATOM    104  C   UNL A   1      33.162  21.586  26.298  1.00  0.00     0.135 A 
ATOM    105  N   UNL A   1      32.092  23.119  27.569  1.00  0.00    -0.049 NA
ATOM    106  C   UNL A   1      33.490  20.898  25.122  1.00  0.00     0.034 A 
ATOM    107  N   UNL A   1      33.566  21.365  27.555  1.00  0.00    -0.050 NA
ATOM    108  O   UNL A   1      32.917  22.308  28.327  1.00  0.00    -0.243 OA
ENDBRANCH  99 100
ENDBRANCH  88  99
ENDBRANCH  84  86
ENDBRANCH  83  84
ENDBRANCH  82  83
ENDBRANCH  81  82
ENDBRANCH  80  81
ENDBRANCH  79  80
ENDBRANCH  78  79
ENDBRANCH  77  78
ENDBRANCH   1  77
TORSDOF 25
ENDMDL
