MODEL 1
REMARK VINA RESULT:      -8.2      0.000      0.000
REMARK SMILES COc1ccc2c(c1)C=C(C(=O)OCCOCCOCCOCCOC(=O)c1ccc(-c3c4nc(c(-c5c(F)cc(S(=O)(=O)[O-])cc5F)c5ccc([nH]5)c(-c5c(F)cc(S(=O)(=O)[O-])cc5F)c5nc(c(-c6c(F)cc(S(=O)(=O)[O-])cc6F)c6ccc3[nH]6)C=C5)C=C4)cc1)[C@H](C(F)(F)F)O2
REMARK SMILES IDX 20 1 19 2 18 3 17 4 16 5 15 6 14 7 13 8 11 9 12 10 10 11
REMARK SMILES IDX 3 12 4 13 8 14 5 15 7 16 6 17 9 18 99 19 94 20 2 21 1 22
REMARK SMILES IDX 95 23 96 24 97 25 98 26 21 27 22 28 23 29 24 30 25 31 26 32
REMARK SMILES IDX 27 33 28 34 29 35 93 36 30 37 92 38 31 39 32 40 33 41 86 42
REMARK SMILES IDX 34 43 91 44 85 45 87 46 35 47 90 48 84 49 83 50 36 52 70 53
REMARK SMILES IDX 49 54 69 55 50 56 53 57 68 58 88 59 51 60 52 61 67 63 89 64
REMARK SMILES IDX 54 65 37 66 38 67 47 68 39 69 40 70 46 71 48 72 41 73 42 74
REMARK SMILES IDX 43 75 44 76 45 77 71 78 72 79 81 80 73 81 74 82 80 83 82 84
REMARK SMILES IDX 75 85 76 86 77 87 78 88 79 89 55 90 56 91 65 92 57 93 58 94
REMARK SMILES IDX 64 95 66 96 59 97 60 98 61 99 62 100 63 101
REMARK H PARENT 87 51 53 62
REMARK Flexibility Score: inf
ROOT
ATOM      1  C   UNL A   1      45.380  19.439  24.045  1.00  0.00     0.188 C 
ENDROOT
BRANCH   1   2
ATOM      2  O   UNL A   1      43.983  19.305  24.294  1.00  0.00    -0.377 OA
BRANCH   2   3
ATOM      3  C   UNL A   1      43.490  19.443  25.615  1.00  0.00     0.188 C 
BRANCH   3   4
ATOM      4  C   UNL A   1      42.907  20.802  26.054  1.00  0.00     0.188 C 
BRANCH   4   5
ATOM      5  O   UNL A   1      42.729  21.732  25.000  1.00  0.00    -0.376 OA
BRANCH   5   6
ATOM      6  C   UNL A   1      43.196  23.057  25.191  1.00  0.00     0.202 C 
BRANCH   6   7
ATOM      7  C   UNL A   1      43.650  23.450  26.604  1.00  0.00     0.261 C 
BRANCH   7   8
ATOM      8  O   UNL A   1      42.759  24.324  27.312  1.00  0.00    -0.460 OA
BRANCH   8   9
ATOM      9  C   UNL A   1      41.790  23.755  28.061  1.00  0.00     0.338 C 
ATOM     10  O   UNL A   1      41.891  23.395  29.220  1.00  0.00    -0.246 OA
BRANCH   9  11
ATOM     11  C   UNL A   1      40.516  23.789  27.313  1.00  0.00     0.087 C 
ATOM     12  C   UNL A   1      36.723  21.655  25.221  1.00  0.00     0.119 A 
ATOM     13  C   UNL A   1      36.034  22.869  25.264  1.00  0.00     0.050 A 
ATOM     14  C   UNL A   1      38.030  21.581  25.722  1.00  0.00     0.058 A 
ATOM     15  C   UNL A   1      36.650  24.005  25.792  1.00  0.00     0.051 A 
ATOM     16  C   UNL A   1      38.644  22.712  26.269  1.00  0.00     0.021 A 
ATOM     17  C   UNL A   1      37.951  23.926  26.279  1.00  0.00     0.128 A 
ATOM     18  C   UNL A   1      39.938  22.633  26.943  1.00  0.00     0.027 C 
ATOM     19  O   UNL A   1      38.467  25.067  26.832  1.00  0.00    -0.475 OA
ATOM     20  C   UNL A   1      39.920  25.115  26.886  1.00  0.00     0.316 C 
BRANCH  12  21
ATOM     21  O   UNL A   1      36.218  20.469  24.762  1.00  0.00    -0.497 OA
ATOM     22  C   UNL A   1      34.835  20.227  24.981  1.00  0.00     0.278 C 
ENDBRANCH  12  21
BRANCH  20  23
ATOM     23  C   UNL A   1      40.318  26.393  27.642  1.00  0.00     0.430 C 
ATOM     24  F   UNL A   1      41.329  27.052  27.033  1.00  0.00    -0.167 F 
ATOM     25  F   UNL A   1      39.272  27.267  27.652  1.00  0.00    -0.167 F 
ATOM     26  F   UNL A   1      40.655  26.171  28.927  1.00  0.00    -0.167 F 
ENDBRANCH  20  23
ENDBRANCH   9  11
ENDBRANCH   8   9
ENDBRANCH   7   8
ENDBRANCH   6   7
ENDBRANCH   5   6
ENDBRANCH   4   5
ENDBRANCH   3   4
ENDBRANCH   2   3
ENDBRANCH   1   2
BRANCH   1  27
ATOM     27  C   UNL A   1      46.351  19.940  25.142  1.00  0.00     0.188 C 
BRANCH  27  28
ATOM     28  O   UNL A   1      46.336  21.343  25.360  1.00  0.00    -0.376 OA
BRANCH  28  29
ATOM     29  C   UNL A   1      46.520  22.176  24.229  1.00  0.00     0.202 C 
BRANCH  29  30
ATOM     30  C   UNL A   1      46.277  23.674  24.449  1.00  0.00     0.261 C 
BRANCH  30  31
ATOM     31  O   UNL A   1      47.251  24.353  25.258  1.00  0.00    -0.460 OA
BRANCH  31  32
ATOM     32  C   UNL A   1      47.792  25.485  24.757  1.00  0.00     0.338 C 
ATOM     33  O   UNL A   1      48.517  25.584  23.780  1.00  0.00    -0.246 OA
BRANCH  32  34
ATOM     34  C   UNL A   1      47.191  26.621  25.484  1.00  0.00     0.060 A 
ATOM     35  C   UNL A   1      46.217  27.405  24.850  1.00  0.00     0.016 A 
ATOM     36  C   UNL A   1      47.572  26.889  26.800  1.00  0.00     0.016 A 
ATOM     37  C   UNL A   1      45.640  28.482  25.526  1.00  0.00     0.010 A 
ATOM     38  C   UNL A   1      47.013  27.982  27.467  1.00  0.00     0.010 A 
ATOM     39  C   UNL A   1      46.070  28.801  26.821  1.00  0.00    -0.014 A 
BRANCH  39  40
ATOM     40  C   UNL A   1      45.699  30.104  27.422  1.00  0.00     0.031 A 
ATOM     41  C   UNL A   1      46.679  31.240  27.302  1.00  0.00     0.074 A 
ATOM     42  C   UNL A   1      44.527  30.281  28.056  1.00  0.00     0.049 A 
ATOM     43  N   UNL A   1      46.619  32.447  27.799  1.00  0.00    -0.248 NA
ATOM     44  C   UNL A   1      47.896  30.971  26.518  1.00  0.00     0.031 C 
ATOM     45  C   UNL A   1      43.483  29.270  28.203  1.00  0.00     0.029 A 
ATOM     46  N   UNL A   1      44.026  31.381  28.708  1.00  0.00    -0.354 N 
ATOM     47  C   UNL A   1      47.791  33.077  27.399  1.00  0.00     0.074 A 
ATOM     48  C   UNL A   1      48.558  32.111  26.644  1.00  0.00     0.031 C 
ATOM     49  C   UNL A   1      42.469  29.792  28.916  1.00  0.00     0.029 A 
ATOM     50  C   UNL A   1      42.808  31.160  29.306  1.00  0.00     0.049 A 
ATOM     51  H   UNL A   1      44.494  32.246  28.744  1.00  0.00     0.167 HD
ATOM     52  C   UNL A   1      48.189  34.350  27.632  1.00  0.00     0.037 A 
ATOM     53  C   UNL A   1      42.070  31.963  30.099  1.00  0.00     0.037 A 
ATOM     54  C   UNL A   1      47.422  35.303  28.391  1.00  0.00     0.049 A 
ATOM     55  C   UNL A   1      42.564  33.355  30.408  1.00  0.00     0.074 A 
ATOM     56  C   UNL A   1      47.727  36.623  28.670  1.00  0.00     0.029 A 
ATOM     57  N   UNL A   1      46.205  35.035  29.000  1.00  0.00    -0.354 N 
ATOM     58  N   UNL A   1      43.662  33.950  30.002  1.00  0.00    -0.248 NA
ATOM     59  C   UNL A   1      41.720  34.184  31.279  1.00  0.00     0.031 C 
ATOM     60  C   UNL A   1      46.723  37.136  29.498  1.00  0.00     0.029 A 
ATOM     61  C   UNL A   1      45.759  36.157  29.680  1.00  0.00     0.049 A 
ATOM     62  H   UNL A   1      45.727  34.175  28.956  1.00  0.00     0.167 HD
ATOM     63  C   UNL A   1      43.624  35.233  30.542  1.00  0.00     0.074 A 
ATOM     64  C   UNL A   1      42.391  35.329  31.296  1.00  0.00     0.031 C 
ATOM     65  C   UNL A   1      44.524  36.240  30.422  1.00  0.00     0.037 A 
BRANCH  52  66
ATOM     66  C   UNL A   1      49.528  34.769  27.092  1.00  0.00     0.058 A 
ATOM     67  C   UNL A   1      50.696  34.712  27.871  1.00  0.00     0.135 A 
ATOM     68  C   UNL A   1      49.648  35.220  25.767  1.00  0.00     0.135 A 
ATOM     69  F   UNL A   1      50.636  34.310  29.149  1.00  0.00    -0.206 F 
ATOM     70  C   UNL A   1      51.928  35.116  27.365  1.00  0.00     0.059 A 
ATOM     71  C   UNL A   1      50.875  35.597  25.231  1.00  0.00     0.059 A 
ATOM     72  F   UNL A   1      48.565  35.300  24.979  1.00  0.00    -0.206 F 
ATOM     73  C   UNL A   1      52.007  35.557  26.043  1.00  0.00     0.060 A 
BRANCH  73  74
ATOM     74  S   UNL A   1      53.613  36.076  25.403  1.00  0.00     0.124 S 
ATOM     75  O   UNL A   1      53.237  36.674  24.126  1.00  0.00    -0.237 OA
ATOM     76  O   UNL A   1      54.070  37.007  26.429  1.00  0.00    -0.237 OA
ATOM     77  O   UNL A   1      54.363  34.827  25.313  1.00  0.00    -0.744 OA
ENDBRANCH  73  74
ENDBRANCH  52  66
BRANCH  53  78
ATOM     78  C   UNL A   1      40.787  31.467  30.669  1.00  0.00     0.058 A 
ATOM     79  C   UNL A   1      40.769  30.569  31.747  1.00  0.00     0.135 A 
ATOM     80  C   UNL A   1      39.552  31.882  30.147  1.00  0.00     0.135 A 
ATOM     81  F   UNL A   1      41.923  30.129  32.271  1.00  0.00    -0.206 F 
ATOM     82  C   UNL A   1      39.576  30.098  32.285  1.00  0.00     0.059 A 
ATOM     83  C   UNL A   1      38.344  31.447  30.686  1.00  0.00     0.059 A 
ATOM     84  F   UNL A   1      39.511  32.744  29.119  1.00  0.00    -0.206 F 
ATOM     85  C   UNL A   1      38.367  30.549  31.751  1.00  0.00     0.060 A 
BRANCH  85  86
ATOM     86  S   UNL A   1      36.825  29.980  32.500  1.00  0.00     0.124 S 
ATOM     87  O   UNL A   1      36.446  31.134  33.308  1.00  0.00    -0.237 OA
ATOM     88  O   UNL A   1      35.996  29.721  31.327  1.00  0.00    -0.237 OA
ATOM     89  O   UNL A   1      37.231  28.792  33.246  1.00  0.00    -0.744 OA
ENDBRANCH  85  86
ENDBRANCH  53  78
BRANCH  65  90
ATOM     90  C   UNL A   1      44.199  37.554  31.082  1.00  0.00     0.058 A 
ATOM     91  C   UNL A   1      44.492  37.800  32.432  1.00  0.00     0.135 A 
ATOM     92  C   UNL A   1      43.644  38.604  30.332  1.00  0.00     0.135 A 
ATOM     93  F   UNL A   1      45.019  36.830  33.197  1.00  0.00    -0.206 F 
ATOM     94  C   UNL A   1      44.225  39.033  33.022  1.00  0.00     0.059 A 
ATOM     95  C   UNL A   1      43.398  39.855  30.892  1.00  0.00     0.059 A 
ATOM     96  F   UNL A   1      43.355  38.429  29.033  1.00  0.00    -0.206 F 
ATOM     97  C   UNL A   1      43.682  40.056  32.241  1.00  0.00     0.060 A 
BRANCH  97  98
ATOM     98  S   UNL A   1      43.375  41.660  33.010  1.00  0.00     0.124 S 
ATOM     99  O   UNL A   1      43.892  42.576  31.998  1.00  0.00    -0.237 OA
ATOM    100  O   UNL A   1      41.925  41.652  33.179  1.00  0.00    -0.237 OA
ATOM    101  O   UNL A   1      44.145  41.597  34.249  1.00  0.00    -0.744 OA
ENDBRANCH  97  98
ENDBRANCH  65  90
ENDBRANCH  39  40
ENDBRANCH  32  34
ENDBRANCH  31  32
ENDBRANCH  30  31
ENDBRANCH  29  30
ENDBRANCH  28  29
ENDBRANCH  27  28
ENDBRANCH   1  27
TORSDOF 25
ENDMDL
MODEL 2
REMARK VINA RESULT:      -8.1      1.821      8.580
REMARK SMILES COc1ccc2c(c1)C=C(C(=O)OCCOCCOCCOCCOC(=O)c1ccc(-c3c4nc(c(-c5c(F)cc(S(=O)(=O)[O-])cc5F)c5ccc([nH]5)c(-c5c(F)cc(S(=O)(=O)[O-])cc5F)c5nc(c(-c6c(F)cc(S(=O)(=O)[O-])cc6F)c6ccc3[nH]6)C=C5)C=C4)cc1)[C@H](C(F)(F)F)O2
REMARK SMILES IDX 20 1 19 2 18 3 17 4 16 5 15 6 14 7 13 8 11 9 12 10 10 11
REMARK SMILES IDX 3 12 4 13 8 14 5 15 7 16 6 17 9 18 99 19 94 20 2 21 1 22
REMARK SMILES IDX 95 23 96 24 97 25 98 26 21 27 22 28 23 29 24 30 25 31 26 32
REMARK SMILES IDX 27 33 28 34 29 35 93 36 30 37 92 38 31 39 32 40 33 41 86 42
REMARK SMILES IDX 34 43 91 44 85 45 87 46 35 47 90 48 84 49 83 50 36 52 70 53
REMARK SMILES IDX 49 54 69 55 50 56 53 57 68 58 88 59 51 60 52 61 67 63 89 64
REMARK SMILES IDX 54 65 37 66 38 67 47 68 39 69 40 70 46 71 48 72 41 73 42 74
REMARK SMILES IDX 43 75 44 76 45 77 71 78 72 79 81 80 73 81 74 82 80 83 82 84
REMARK SMILES IDX 75 85 76 86 77 87 78 88 79 89 55 90 56 91 65 92 57 93 58 94
REMARK SMILES IDX 64 95 66 96 59 97 60 98 61 99 62 100 63 101
REMARK H PARENT 87 51 53 62
REMARK Flexibility Score: inf
ROOT
ATOM      1  C   UNL A   1      45.388  19.351  24.231  1.00  0.00     0.188 C 
ENDROOT
BRANCH   1   2
ATOM      2  O   UNL A   1      43.963  19.346  24.282  1.00  0.00    -0.377 OA
BRANCH   2   3
ATOM      3  C   UNL A   1      43.307  19.390  25.536  1.00  0.00     0.188 C 
BRANCH   3   4
ATOM      4  C   UNL A   1      42.759  20.739  26.043  1.00  0.00     0.188 C 
BRANCH   4   5
ATOM      5  O   UNL A   1      42.678  21.749  25.052  1.00  0.00    -0.376 OA
BRANCH   5   6
ATOM      6  C   UNL A   1      42.896  23.093  25.447  1.00  0.00     0.202 C 
BRANCH   6   7
ATOM      7  C   UNL A   1      41.894  23.712  26.431  1.00  0.00     0.261 C 
BRANCH   7   8
ATOM      8  O   UNL A   1      41.266  24.924  25.986  1.00  0.00    -0.460 OA
BRANCH   8   9
ATOM      9  C   UNL A   1      41.922  26.084  26.205  1.00  0.00     0.338 C 
ATOM     10  O   UNL A   1      41.966  27.041  25.454  1.00  0.00    -0.246 OA
BRANCH   9  11
ATOM     11  C   UNL A   1      42.445  26.091  27.587  1.00  0.00     0.087 C 
ATOM     12  C   UNL A   1      46.044  25.892  30.802  1.00  0.00     0.119 A 
ATOM     13  C   UNL A   1      45.199  26.457  31.760  1.00  0.00     0.050 A 
ATOM     14  C   UNL A   1      45.560  25.652  29.508  1.00  0.00     0.058 A 
ATOM     15  C   UNL A   1      43.878  26.767  31.434  1.00  0.00     0.051 A 
ATOM     16  C   UNL A   1      44.244  25.979  29.171  1.00  0.00     0.021 A 
ATOM     17  C   UNL A   1      43.403  26.518  30.150  1.00  0.00     0.128 A 
ATOM     18  C   UNL A   1      43.758  25.893  27.795  1.00  0.00     0.027 C 
ATOM     19  O   UNL A   1      42.115  26.901  29.889  1.00  0.00    -0.475 OA
ATOM     20  C   UNL A   1      41.495  26.224  28.760  1.00  0.00     0.316 C 
BRANCH  12  21
ATOM     21  O   UNL A   1      47.362  25.578  30.989  1.00  0.00    -0.497 OA
ATOM     22  C   UNL A   1      48.309  26.621  30.801  1.00  0.00     0.278 C 
ENDBRANCH  12  21
BRANCH  20  23
ATOM     23  C   UNL A   1      40.114  26.861  28.536  1.00  0.00     0.430 C 
ATOM     24  F   UNL A   1      40.168  27.909  27.683  1.00  0.00    -0.167 F 
ATOM     25  F   UNL A   1      39.281  25.959  27.944  1.00  0.00    -0.167 F 
ATOM     26  F   UNL A   1      39.516  27.258  29.675  1.00  0.00    -0.167 F 
ENDBRANCH  20  23
ENDBRANCH   9  11
ENDBRANCH   8   9
ENDBRANCH   7   8
ENDBRANCH   6   7
ENDBRANCH   5   6
ENDBRANCH   4   5
ENDBRANCH   3   4
ENDBRANCH   2   3
ENDBRANCH   1   2
BRANCH   1  27
ATOM     27  C   UNL A   1      46.234  20.020  25.341  1.00  0.00     0.188 C 
BRANCH  27  28
ATOM     28  O   UNL A   1      46.046  21.422  25.475  1.00  0.00    -0.376 OA
BRANCH  28  29
ATOM     29  C   UNL A   1      46.396  22.230  24.365  1.00  0.00     0.202 C 
BRANCH  29  30
ATOM     30  C   UNL A   1      46.007  23.711  24.460  1.00  0.00     0.261 C 
BRANCH  30  31
ATOM     31  O   UNL A   1      46.802  24.509  25.351  1.00  0.00    -0.460 OA
BRANCH  31  32
ATOM     32  C   UNL A   1      47.442  25.575  24.823  1.00  0.00     0.338 C 
ATOM     33  O   UNL A   1      48.119  25.598  23.808  1.00  0.00    -0.246 OA
BRANCH  32  34
ATOM     34  C   UNL A   1      47.017  26.767  25.584  1.00  0.00     0.060 A 
ATOM     35  C   UNL A   1      45.981  27.569  25.085  1.00  0.00     0.016 A 
ATOM     36  C   UNL A   1      47.625  27.072  26.804  1.00  0.00     0.016 A 
ATOM     37  C   UNL A   1      45.569  28.697  25.795  1.00  0.00     0.010 A 
ATOM     38  C   UNL A   1      47.229  28.215  27.501  1.00  0.00     0.010 A 
ATOM     39  C   UNL A   1      46.223  29.050  26.982  1.00  0.00    -0.014 A 
BRANCH  39  40
ATOM     40  C   UNL A   1      46.010  30.393  27.573  1.00  0.00     0.031 A 
ATOM     41  C   UNL A   1      44.747  30.626  28.356  1.00  0.00     0.074 A 
ATOM     42  C   UNL A   1      46.910  31.380  27.424  1.00  0.00     0.049 A 
ATOM     43  N   UNL A   1      44.301  31.723  28.908  1.00  0.00    -0.248 NA
ATOM     44  C   UNL A   1      43.865  29.460  28.534  1.00  0.00     0.031 C 
ATOM     45  C   UNL A   1      48.186  31.264  26.721  1.00  0.00     0.029 A 
ATOM     46  N   UNL A   1      46.876  32.685  27.848  1.00  0.00    -0.354 N 
ATOM     47  C   UNL A   1      43.084  31.384  29.488  1.00  0.00     0.074 A 
ATOM     48  C   UNL A   1      42.847  29.988  29.196  1.00  0.00     0.031 C 
ATOM     49  C   UNL A   1      48.808  32.456  26.748  1.00  0.00     0.029 A 
ATOM     50  C   UNL A   1      47.959  33.427  27.439  1.00  0.00     0.049 A 
ATOM     51  H   UNL A   1      46.146  33.056  28.395  1.00  0.00     0.167 HD
ATOM     52  C   UNL A   1      42.243  32.165  30.207  1.00  0.00     0.037 A 
ATOM     53  C   UNL A   1      48.217  34.743  27.583  1.00  0.00     0.037 A 
ATOM     54  C   UNL A   1      42.484  33.555  30.487  1.00  0.00     0.049 A 
ATOM     55  C   UNL A   1      47.233  35.612  28.326  1.00  0.00     0.074 A 
ATOM     56  C   UNL A   1      41.704  34.431  31.221  1.00  0.00     0.029 A 
ATOM     57  N   UNL A   1      43.580  34.276  30.036  1.00  0.00    -0.354 N 
ATOM     58  N   UNL A   1      46.099  35.276  28.893  1.00  0.00    -0.248 NA
ATOM     59  C   UNL A   1      47.565  37.038  28.450  1.00  0.00     0.031 C 
ATOM     60  C   UNL A   1      42.298  35.696  31.164  1.00  0.00     0.029 A 
ATOM     61  C   UNL A   1      43.482  35.594  30.451  1.00  0.00     0.049 A 
ATOM     62  H   UNL A   1      44.318  33.907  29.500  1.00  0.00     0.167 HD
ATOM     63  C   UNL A   1      45.597  36.441  29.468  1.00  0.00     0.074 A 
ATOM     64  C   UNL A   1      46.558  37.488  29.187  1.00  0.00     0.031 C 
ATOM     65  C   UNL A   1      44.451  36.626  30.168  1.00  0.00     0.037 A 
BRANCH  52  66
ATOM     66  C   UNL A   1      40.970  31.538  30.707  1.00  0.00     0.058 A 
ATOM     67  C   UNL A   1      40.961  30.616  31.766  1.00  0.00     0.135 A 
ATOM     68  C   UNL A   1      39.738  31.879  30.127  1.00  0.00     0.135 A 
ATOM     69  F   UNL A   1      42.113  30.238  32.343  1.00  0.00    -0.206 F 
ATOM     70  C   UNL A   1      39.780  30.032  32.212  1.00  0.00     0.059 A 
ATOM     71  C   UNL A   1      38.540  31.332  30.578  1.00  0.00     0.059 A 
ATOM     72  F   UNL A   1      39.687  32.751  29.107  1.00  0.00    -0.206 F 
ATOM     73  C   UNL A   1      38.574  30.397  31.611  1.00  0.00     0.060 A 
BRANCH  73  74
ATOM     74  S   UNL A   1      37.050  29.630  32.202  1.00  0.00     0.124 S 
ATOM     75  O   UNL A   1      37.556  28.750  33.251  1.00  0.00    -0.237 OA
ATOM     76  O   UNL A   1      36.279  30.781  32.658  1.00  0.00    -0.237 OA
ATOM     77  O   UNL A   1      36.527  28.956  31.018  1.00  0.00    -0.744 OA
ENDBRANCH  73  74
ENDBRANCH  52  66
BRANCH  53  78
ATOM     78  C   UNL A   1      49.459  35.323  27.001  1.00  0.00     0.058 A 
ATOM     79  C   UNL A   1      50.667  35.321  27.715  1.00  0.00     0.135 A 
ATOM     80  C   UNL A   1      49.463  35.889  25.716  1.00  0.00     0.135 A 
ATOM     81  F   UNL A   1      50.712  34.807  28.953  1.00  0.00    -0.206 F 
ATOM     82  C   UNL A   1      51.831  35.863  27.181  1.00  0.00     0.059 A 
ATOM     83  C   UNL A   1      50.622  36.412  25.148  1.00  0.00     0.059 A 
ATOM     84  F   UNL A   1      48.336  35.913  24.988  1.00  0.00    -0.206 F 
ATOM     85  C   UNL A   1      51.800  36.400  25.892  1.00  0.00     0.060 A 
BRANCH  85  86
ATOM     86  S   UNL A   1      53.333  37.042  25.185  1.00  0.00     0.124 S 
ATOM     87  O   UNL A   1      53.366  38.395  25.731  1.00  0.00    -0.237 OA
ATOM     88  O   UNL A   1      54.325  36.114  25.718  1.00  0.00    -0.237 OA
ATOM     89  O   UNL A   1      53.105  36.947  23.746  1.00  0.00    -0.744 OA
ENDBRANCH  85  86
ENDBRANCH  53  78
BRANCH  65  90
ATOM     90  C   UNL A   1      44.181  38.001  30.722  1.00  0.00     0.058 A 
ATOM     91  C   UNL A   1      44.570  38.369  32.019  1.00  0.00     0.135 A 
ATOM     92  C   UNL A   1      43.580  38.983  29.916  1.00  0.00     0.135 A 
ATOM     93  F   UNL A   1      45.144  37.469  32.834  1.00  0.00    -0.206 F 
ATOM     94  C   UNL A   1      44.352  39.655  32.506  1.00  0.00     0.059 A 
ATOM     95  C   UNL A   1      43.382  40.283  30.371  1.00  0.00     0.059 A 
ATOM     96  F   UNL A   1      43.199  38.689  28.663  1.00  0.00    -0.206 F 
ATOM     97  C   UNL A   1      43.762  40.607  31.672  1.00  0.00     0.060 A 
BRANCH  97  98
ATOM     98  S   UNL A   1      43.520  42.281  32.304  1.00  0.00     0.124 S 
ATOM     99  O   UNL A   1      42.269  42.662  31.658  1.00  0.00    -0.237 OA
ATOM    100  O   UNL A   1      43.450  42.061  33.746  1.00  0.00    -0.237 OA
ATOM    101  O   UNL A   1      44.707  42.994  31.842  1.00  0.00    -0.744 OA
ENDBRANCH  97  98
ENDBRANCH  65  90
ENDBRANCH  39  40
ENDBRANCH  32  34
ENDBRANCH  31  32
ENDBRANCH  30  31
ENDBRANCH  29  30
ENDBRANCH  28  29
ENDBRANCH  27  28
ENDBRANCH   1  27
TORSDOF 25
ENDMDL
MODEL 3
REMARK VINA RESULT:      -8.0      1.953      8.395
REMARK SMILES COc1ccc2c(c1)C=C(C(=O)OCCOCCOCCOCCOC(=O)c1ccc(-c3c4nc(c(-c5c(F)cc(S(=O)(=O)[O-])cc5F)c5ccc([nH]5)c(-c5c(F)cc(S(=O)(=O)[O-])cc5F)c5nc(c(-c6c(F)cc(S(=O)(=O)[O-])cc6F)c6ccc3[nH]6)C=C5)C=C4)cc1)[C@H](C(F)(F)F)O2
REMARK SMILES IDX 20 1 19 2 18 3 17 4 16 5 15 6 14 7 13 8 11 9 12 10 10 11
REMARK SMILES IDX 3 12 4 13 8 14 5 15 7 16 6 17 9 18 99 19 94 20 2 21 1 22
REMARK SMILES IDX 95 23 96 24 97 25 98 26 21 27 22 28 23 29 24 30 25 31 26 32
REMARK SMILES IDX 27 33 28 34 29 35 93 36 30 37 92 38 31 39 32 40 33 41 86 42
REMARK SMILES IDX 34 43 91 44 85 45 87 46 35 47 90 48 84 49 83 50 36 52 70 53
REMARK SMILES IDX 49 54 69 55 50 56 53 57 68 58 88 59 51 60 52 61 67 63 89 64
REMARK SMILES IDX 54 65 37 66 38 67 47 68 39 69 40 70 46 71 48 72 41 73 42 74
REMARK SMILES IDX 43 75 44 76 45 77 71 78 72 79 81 80 73 81 74 82 80 83 82 84
REMARK SMILES IDX 75 85 76 86 77 87 78 88 79 89 55 90 56 91 65 92 57 93 58 94
REMARK SMILES IDX 64 95 66 96 59 97 60 98 61 99 62 100 63 101
REMARK H PARENT 87 51 53 62
REMARK Flexibility Score: inf
ROOT
ATOM      1  C   UNL A   1      45.219  19.814  24.126  1.00  0.00     0.188 C 
ENDROOT
BRANCH   1   2
ATOM      2  O   UNL A   1      43.821  19.630  24.337  1.00  0.00    -0.377 OA
BRANCH   2   3
ATOM      3  C   UNL A   1      43.376  18.788  25.386  1.00  0.00     0.188 C 
BRANCH   3   4
ATOM      4  C   UNL A   1      42.536  19.399  26.526  1.00  0.00     0.188 C 
BRANCH   4   5
ATOM      5  O   UNL A   1      41.299  19.952  26.112  1.00  0.00    -0.376 OA
BRANCH   5   6
ATOM      6  C   UNL A   1      41.200  21.361  25.997  1.00  0.00     0.202 C 
BRANCH   6   7
ATOM      7  C   UNL A   1      42.506  22.167  26.050  1.00  0.00     0.261 C 
BRANCH   7   8
ATOM      8  O   UNL A   1      42.394  23.477  26.625  1.00  0.00    -0.460 OA
BRANCH   8   9
ATOM      9  C   UNL A   1      42.111  23.559  27.944  1.00  0.00     0.338 C 
ATOM     10  O   UNL A   1      42.270  22.680  28.771  1.00  0.00    -0.246 OA
BRANCH   9  11
ATOM     11  C   UNL A   1      41.735  24.949  28.274  1.00  0.00     0.087 C 
ATOM     12  C   UNL A   1      38.518  28.524  28.713  1.00  0.00     0.119 A 
ATOM     13  C   UNL A   1      39.410  29.205  29.545  1.00  0.00     0.050 A 
ATOM     14  C   UNL A   1      38.882  27.281  28.178  1.00  0.00     0.058 A 
ATOM     15  C   UNL A   1      40.661  28.655  29.830  1.00  0.00     0.051 A 
ATOM     16  C   UNL A   1      40.126  26.717  28.476  1.00  0.00     0.021 A 
ATOM     17  C   UNL A   1      41.018  27.425  29.287  1.00  0.00     0.128 A 
ATOM     18  C   UNL A   1      40.471  25.356  28.068  1.00  0.00     0.027 C 
ATOM     19  O   UNL A   1      42.237  26.923  29.657  1.00  0.00    -0.475 OA
ATOM     20  C   UNL A   1      42.788  25.929  28.749  1.00  0.00     0.316 C 
BRANCH  12  21
ATOM     21  O   UNL A   1      37.256  28.940  28.389  1.00  0.00    -0.497 OA
ATOM     22  C   UNL A   1      36.550  29.689  29.369  1.00  0.00     0.278 C 
ENDBRANCH  12  21
BRANCH  20  23
ATOM     23  C   UNL A   1      44.084  25.390  29.378  1.00  0.00     0.430 C 
ATOM     24  F   UNL A   1      44.872  24.773  28.470  1.00  0.00    -0.167 F 
ATOM     25  F   UNL A   1      44.830  26.426  29.857  1.00  0.00    -0.167 F 
ATOM     26  F   UNL A   1      43.869  24.551  30.409  1.00  0.00    -0.167 F 
ENDBRANCH  20  23
ENDBRANCH   9  11
ENDBRANCH   8   9
ENDBRANCH   7   8
ENDBRANCH   6   7
ENDBRANCH   5   6
ENDBRANCH   4   5
ENDBRANCH   3   4
ENDBRANCH   2   3
ENDBRANCH   1   2
BRANCH   1  27
ATOM     27  C   UNL A   1      46.164  20.218  25.283  1.00  0.00     0.188 C 
BRANCH  27  28
ATOM     28  O   UNL A   1      46.050  21.570  25.706  1.00  0.00    -0.376 OA
BRANCH  28  29
ATOM     29  C   UNL A   1      46.133  22.569  24.705  1.00  0.00     0.202 C 
BRANCH  29  30
ATOM     30  C   UNL A   1      45.652  23.969  25.109  1.00  0.00     0.261 C 
BRANCH  30  31
ATOM     31  O   UNL A   1      46.603  24.774  25.823  1.00  0.00    -0.460 OA
BRANCH  31  32
ATOM     32  C   UNL A   1      47.151  25.817  25.162  1.00  0.00     0.338 C 
ATOM     33  O   UNL A   1      47.690  25.794  24.068  1.00  0.00    -0.246 OA
BRANCH  32  34
ATOM     34  C   UNL A   1      46.808  27.043  25.911  1.00  0.00     0.060 A 
ATOM     35  C   UNL A   1      46.113  28.074  25.262  1.00  0.00     0.016 A 
ATOM     36  C   UNL A   1      47.148  27.157  27.261  1.00  0.00     0.016 A 
ATOM     37  C   UNL A   1      45.782  29.238  25.958  1.00  0.00     0.010 A 
ATOM     38  C   UNL A   1      46.838  28.332  27.949  1.00  0.00     0.010 A 
ATOM     39  C   UNL A   1      46.184  29.389  27.291  1.00  0.00    -0.014 A 
BRANCH  39  40
ATOM     40  C   UNL A   1      46.114  30.721  27.938  1.00  0.00     0.031 A 
ATOM     41  C   UNL A   1      44.967  30.993  28.872  1.00  0.00     0.074 A 
ATOM     42  C   UNL A   1      47.042  31.667  27.707  1.00  0.00     0.049 A 
ATOM     43  N   UNL A   1      44.648  32.093  29.501  1.00  0.00    -0.248 NA
ATOM     44  C   UNL A   1      44.051  29.867  29.124  1.00  0.00     0.031 C 
ATOM     45  C   UNL A   1      48.218  31.509  26.854  1.00  0.00     0.029 A 
ATOM     46  N   UNL A   1      47.128  32.958  28.166  1.00  0.00    -0.354 N 
ATOM     47  C   UNL A   1      43.492  31.797  30.213  1.00  0.00     0.074 A 
ATOM     48  C   UNL A   1      43.147  30.424  29.915  1.00  0.00     0.031 C 
ATOM     49  C   UNL A   1      48.901  32.667  26.838  1.00  0.00     0.029 A 
ATOM     50  C   UNL A   1      48.193  33.657  27.649  1.00  0.00     0.049 A 
ATOM     51  H   UNL A   1      46.489  33.347  28.805  1.00  0.00     0.167 HD
ATOM     52  C   UNL A   1      42.784  32.595  31.047  1.00  0.00     0.037 A 
ATOM     53  C   UNL A   1      48.537  34.953  27.795  1.00  0.00     0.037 A 
ATOM     54  C   UNL A   1      43.130  33.963  31.332  1.00  0.00     0.049 A 
ATOM     55  C   UNL A   1      47.695  35.847  28.672  1.00  0.00     0.074 A 
ATOM     56  C   UNL A   1      42.491  34.853  32.176  1.00  0.00     0.029 A 
ATOM     57  N   UNL A   1      44.203  34.642  30.772  1.00  0.00    -0.354 N 
ATOM     58  N   UNL A   1      46.619  35.549  29.362  1.00  0.00    -0.248 NA
ATOM     59  C   UNL A   1      48.116  37.249  28.792  1.00  0.00     0.031 C 
ATOM     60  C   UNL A   1      43.141  36.087  32.081  1.00  0.00     0.029 A 
ATOM     61  C   UNL A   1      44.226  35.949  31.229  1.00  0.00     0.049 A 
ATOM     62  H   UNL A   1      44.852  34.253  30.142  1.00  0.00     0.167 HD
ATOM     63  C   UNL A   1      46.252  36.720  30.022  1.00  0.00     0.074 A 
ATOM     64  C   UNL A   1      47.228  37.726  29.655  1.00  0.00     0.031 C 
ATOM     65  C   UNL A   1      45.208  36.940  30.859  1.00  0.00     0.037 A 
BRANCH  52  66
ATOM     66  C   UNL A   1      41.548  32.018  31.679  1.00  0.00     0.058 A 
ATOM     67  C   UNL A   1      40.263  32.279  31.174  1.00  0.00     0.135 A 
ATOM     68  C   UNL A   1      41.651  31.176  32.798  1.00  0.00     0.135 A 
ATOM     69  F   UNL A   1      40.104  33.093  30.119  1.00  0.00    -0.206 F 
ATOM     70  C   UNL A   1      39.125  31.751  31.774  1.00  0.00     0.059 A 
ATOM     71  C   UNL A   1      40.528  30.611  33.395  1.00  0.00     0.059 A 
ATOM     72  F   UNL A   1      42.853  30.897  33.326  1.00  0.00    -0.206 F 
ATOM     73  C   UNL A   1      39.268  30.917  32.885  1.00  0.00     0.060 A 
BRANCH  73  74
ATOM     74  S   UNL A   1      37.780  30.240  33.652  1.00  0.00     0.124 S 
ATOM     75  O   UNL A   1      38.154  30.243  35.063  1.00  0.00    -0.237 OA
ATOM     76  O   UNL A   1      36.762  31.211  33.264  1.00  0.00    -0.237 OA
ATOM     77  O   UNL A   1      37.652  28.922  33.040  1.00  0.00    -0.744 OA
ENDBRANCH  73  74
ENDBRANCH  52  66
BRANCH  53  78
ATOM     78  C   UNL A   1      49.730  35.488  27.084  1.00  0.00     0.058 A 
ATOM     79  C   UNL A   1      49.630  36.005  25.783  1.00  0.00     0.135 A 
ATOM     80  C   UNL A   1      50.995  35.497  27.692  1.00  0.00     0.135 A 
ATOM     81  F   UNL A   1      48.446  36.005  25.152  1.00  0.00    -0.206 F 
ATOM     82  C   UNL A   1      50.739  36.506  25.109  1.00  0.00     0.059 A 
ATOM     83  C   UNL A   1      52.115  36.018  27.049  1.00  0.00     0.059 A 
ATOM     84  F   UNL A   1      51.147  35.019  28.936  1.00  0.00    -0.206 F 
ATOM     85  C   UNL A   1      51.977  36.514  25.754  1.00  0.00     0.060 A 
BRANCH  85  86
ATOM     86  S   UNL A   1      53.396  37.226  24.893  1.00  0.00     0.124 S 
ATOM     87  O   UNL A   1      54.508  36.524  25.527  1.00  0.00    -0.237 OA
ATOM     88  O   UNL A   1      53.122  36.866  23.505  1.00  0.00    -0.237 OA
ATOM     89  O   UNL A   1      53.294  38.650  25.196  1.00  0.00    -0.744 OA
ENDBRANCH  85  86
ENDBRANCH  53  78
BRANCH  65  90
ATOM     90  C   UNL A   1      45.079  38.308  31.476  1.00  0.00     0.058 A 
ATOM     91  C   UNL A   1      45.783  38.670  32.635  1.00  0.00     0.135 A 
ATOM     92  C   UNL A   1      44.287  39.291  30.859  1.00  0.00     0.135 A 
ATOM     93  F   UNL A   1      46.551  37.769  33.269  1.00  0.00    -0.206 F 
ATOM     94  C   UNL A   1      45.689  39.950  33.173  1.00  0.00     0.059 A 
ATOM     95  C   UNL A   1      44.203  40.586  31.361  1.00  0.00     0.059 A 
ATOM     96  F   UNL A   1      43.601  39.003  29.741  1.00  0.00    -0.206 F 
ATOM     97  C   UNL A   1      44.900  40.903  32.526  1.00  0.00     0.060 A 
BRANCH  97  98
ATOM     98  S   UNL A   1      44.816  42.570  33.214  1.00  0.00     0.124 S 
ATOM     99  O   UNL A   1      46.169  43.058  32.970  1.00  0.00    -0.237 OA
ATOM    100  O   UNL A   1      43.764  43.185  32.411  1.00  0.00    -0.237 OA
ATOM    101  O   UNL A   1      44.475  42.343  34.616  1.00  0.00    -0.744 OA
ENDBRANCH  97  98
ENDBRANCH  65  90
ENDBRANCH  39  40
ENDBRANCH  32  34
ENDBRANCH  31  32
ENDBRANCH  30  31
ENDBRANCH  29  30
ENDBRANCH  28  29
ENDBRANCH  27  28
ENDBRANCH   1  27
TORSDOF 25
ENDMDL
