MODEL 1
REMARK VINA RESULT:     -10.3      0.000      0.000
REMARK SMILES O=C(OCCOCCOCCOCCOC(=O)c1c[nH]c(=O)c(-c2cccc([N+](=O)[O-])c2)c1)c1ccc(-c2c3nc(c(-c4c(F)cc(S(=O)(=O)[O-])cc4F)c4ccc([nH]4)c(-c4c(F)cc(S(=O)(=O)[O-])cc4F)c4nc(c(-c5c(F)cc(S(=O)(=O)[O-])cc5F)c5ccc2[nH]5)C=C4)C=C3)cc1
REMARK SMILES IDX 8 1 7 2 6 3 5 4 4 5 3 6 2 7 1 8 34 9 35 10 99 11 36 12 98 13
REMARK SMILES IDX 37 14 38 15 39 16 92 17 40 18 97 19 91 20 93 21 41 22 96 23
REMARK SMILES IDX 90 24 89 25 42 27 76 28 55 29 75 30 56 31 59 32 74 33 94 34
REMARK SMILES IDX 57 35 58 36 73 38 95 39 60 40 43 41 44 42 53 43 45 44 46 45
REMARK SMILES IDX 52 46 54 47 47 48 48 49 49 50 50 51 51 52 77 53 78 54 87 55
REMARK SMILES IDX 79 56 80 57 86 58 88 59 81 60 82 61 83 62 84 63 85 64 61 65
REMARK SMILES IDX 62 66 71 67 63 68 64 69 70 70 72 71 65 72 66 73 67 74 68 75
REMARK SMILES IDX 69 76 9 77 10 78 11 79 12 80 13 81 14 82 15 83 16 84 17 85
REMARK SMILES IDX 18 86 19 87 33 88 20 89 23 90 21 91 22 93 24 94 25 95 32 96
REMARK SMILES IDX 26 97 28 98 27 99 29 100 30 101 31 102
REMARK H PARENT 93 26 59 37 20 92
REMARK Flexibility Score: inf
ROOT
ATOM      1  C   UNL A   1      37.365  21.745  24.691  1.00  0.00     0.188 C 
ENDROOT
BRANCH   1   2
ATOM      2  C   UNL A   1      38.123  20.586  25.340  1.00  0.00     0.188 C 
BRANCH   2   3
ATOM      3  O   UNL A   1      39.292  21.026  26.030  1.00  0.00    -0.376 OA
BRANCH   3   4
ATOM      4  C   UNL A   1      39.500  22.434  26.142  1.00  0.00     0.202 C 
BRANCH   4   5
ATOM      5  C   UNL A   1      40.910  22.867  26.541  1.00  0.00     0.261 C 
BRANCH   5   6
ATOM      6  O   UNL A   1      41.163  24.264  26.342  1.00  0.00    -0.460 OA
BRANCH   6   7
ATOM      7  C   UNL A   1      42.072  25.057  26.962  1.00  0.00     0.338 C 
ATOM      8  O   UNL A   1      43.264  24.852  26.734  1.00  0.00    -0.246 OA
BRANCH   7   9
ATOM      9  C   UNL A   1      41.729  26.156  27.917  1.00  0.00     0.060 A 
ATOM     10  C   UNL A   1      42.398  27.374  28.032  1.00  0.00     0.016 A 
ATOM     11  C   UNL A   1      40.592  25.962  28.720  1.00  0.00     0.016 A 
ATOM     12  C   UNL A   1      42.026  28.337  28.948  1.00  0.00     0.010 A 
ATOM     13  C   UNL A   1      40.195  26.930  29.647  1.00  0.00     0.010 A 
ATOM     14  C   UNL A   1      40.949  28.098  29.789  1.00  0.00    -0.014 A 
BRANCH  14  15
ATOM     15  C   UNL A   1      40.843  28.967  30.969  1.00  0.00     0.031 A 
ATOM     16  C   UNL A   1      39.715  29.955  30.979  1.00  0.00     0.074 A 
ATOM     17  C   UNL A   1      41.596  28.723  32.054  1.00  0.00     0.049 A 
ATOM     18  N   UNL A   1      39.411  30.860  31.864  1.00  0.00    -0.248 NA
ATOM     19  C   UNL A   1      38.789  29.901  29.831  1.00  0.00     0.031 C 
ATOM     20  C   UNL A   1      42.577  27.639  32.175  1.00  0.00     0.029 A 
ATOM     21  N   UNL A   1      41.624  29.336  33.274  1.00  0.00    -0.354 N 
ATOM     22  C   UNL A   1      38.298  31.517  31.354  1.00  0.00     0.074 A 
ATOM     23  C   UNL A   1      37.973  30.909  30.087  1.00  0.00     0.031 C 
ATOM     24  C   UNL A   1      43.098  27.657  33.412  1.00  0.00     0.029 A 
ATOM     25  C   UNL A   1      42.548  28.797  34.136  1.00  0.00     0.049 A 
ATOM     26  H   UNL A   1      41.039  30.091  33.512  1.00  0.00     0.167 HD
ATOM     27  C   UNL A   1      37.623  32.551  31.904  1.00  0.00     0.037 A 
ATOM     28  C   UNL A   1      42.925  29.220  35.357  1.00  0.00     0.037 A 
ATOM     29  C   UNL A   1      37.986  33.112  33.176  1.00  0.00     0.049 A 
ATOM     30  C   UNL A   1      42.241  30.445  35.900  1.00  0.00     0.074 A 
ATOM     31  C   UNL A   1      37.449  34.201  33.830  1.00  0.00     0.029 A 
ATOM     32  N   UNL A   1      39.000  32.610  33.986  1.00  0.00    -0.354 N 
ATOM     33  N   UNL A   1      41.258  31.141  35.373  1.00  0.00    -0.248 NA
ATOM     34  C   UNL A   1      42.719  30.955  37.188  1.00  0.00     0.031 C 
ATOM     35  C   UNL A   1      38.178  34.394  35.009  1.00  0.00     0.029 A 
ATOM     36  C   UNL A   1      39.121  33.380  35.126  1.00  0.00     0.049 A 
ATOM     37  H   UNL A   1      39.550  31.820  33.778  1.00  0.00     0.167 HD
ATOM     38  C   UNL A   1      40.976  32.155  36.278  1.00  0.00     0.074 A 
ATOM     39  C   UNL A   1      41.895  31.974  37.389  1.00  0.00     0.031 C 
ATOM     40  C   UNL A   1      40.049  33.144  36.208  1.00  0.00     0.037 A 
BRANCH  27  41
ATOM     41  C   UNL A   1      36.537  33.177  31.074  1.00  0.00     0.058 A 
ATOM     42  C   UNL A   1      36.805  33.984  29.955  1.00  0.00     0.135 A 
ATOM     43  C   UNL A   1      35.195  33.031  31.463  1.00  0.00     0.135 A 
ATOM     44  F   UNL A   1      38.072  34.193  29.560  1.00  0.00    -0.206 F 
ATOM     45  C   UNL A   1      35.790  34.661  29.284  1.00  0.00     0.059 A 
ATOM     46  C   UNL A   1      34.161  33.673  30.789  1.00  0.00     0.059 A 
ATOM     47  F   UNL A   1      34.880  32.287  32.535  1.00  0.00    -0.206 F 
ATOM     48  C   UNL A   1      34.470  34.504  29.714  1.00  0.00     0.060 A 
BRANCH  48  49
ATOM     49  S   UNL A   1      33.167  35.418  28.863  1.00  0.00     0.124 S 
ATOM     50  O   UNL A   1      33.945  36.359  28.064  1.00  0.00    -0.237 OA
ATOM     51  O   UNL A   1      32.485  34.366  28.117  1.00  0.00    -0.237 OA
ATOM     52  O   UNL A   1      32.398  36.008  29.955  1.00  0.00    -0.744 OA
ENDBRANCH  48  49
ENDBRANCH  27  41
BRANCH  28  53
ATOM     53  C   UNL A   1      44.006  28.515  36.098  1.00  0.00     0.058 A 
ATOM     54  C   UNL A   1      43.730  27.411  36.916  1.00  0.00     0.135 A 
ATOM     55  C   UNL A   1      45.348  28.918  35.982  1.00  0.00     0.135 A 
ATOM     56  F   UNL A   1      42.466  26.987  37.067  1.00  0.00    -0.206 F 
ATOM     57  C   UNL A   1      44.741  26.735  37.597  1.00  0.00     0.059 A 
ATOM     58  C   UNL A   1      46.378  28.241  36.629  1.00  0.00     0.059 A 
ATOM     59  F   UNL A   1      45.674  29.964  35.206  1.00  0.00    -0.206 F 
ATOM     60  C   UNL A   1      46.063  27.154  37.441  1.00  0.00     0.060 A 
BRANCH  60  61
ATOM     61  S   UNL A   1      47.370  26.237  38.288  1.00  0.00     0.124 S 
ATOM     62  O   UNL A   1      48.002  25.534  37.177  1.00  0.00    -0.237 OA
ATOM     63  O   UNL A   1      48.151  27.311  38.892  1.00  0.00    -0.237 OA
ATOM     64  O   UNL A   1      46.637  25.398  39.231  1.00  0.00    -0.744 OA
ENDBRANCH  60  61
ENDBRANCH  28  53
BRANCH  40  65
ATOM     65  C   UNL A   1      39.945  34.058  37.393  1.00  0.00     0.058 A 
ATOM     66  C   UNL A   1      40.654  35.265  37.464  1.00  0.00     0.135 A 
ATOM     67  C   UNL A   1      39.066  33.740  38.441  1.00  0.00     0.135 A 
ATOM     68  F   UNL A   1      41.510  35.607  36.487  1.00  0.00    -0.206 F 
ATOM     69  C   UNL A   1      40.514  36.118  38.551  1.00  0.00     0.059 A 
ATOM     70  C   UNL A   1      38.884  34.596  39.519  1.00  0.00     0.059 A 
ATOM     71  F   UNL A   1      38.357  32.601  38.409  1.00  0.00    -0.206 F 
ATOM     72  C   UNL A   1      39.623  35.776  39.571  1.00  0.00     0.060 A 
BRANCH  72  73
ATOM     73  S   UNL A   1      39.424  36.910  40.958  1.00  0.00     0.124 S 
ATOM     74  O   UNL A   1      40.805  37.083  41.395  1.00  0.00    -0.237 OA
ATOM     75  O   UNL A   1      38.807  38.071  40.324  1.00  0.00    -0.237 OA
ATOM     76  O   UNL A   1      38.562  36.173  41.877  1.00  0.00    -0.744 OA
ENDBRANCH  72  73
ENDBRANCH  40  65
ENDBRANCH  14  15
ENDBRANCH   7   9
ENDBRANCH   6   7
ENDBRANCH   5   6
ENDBRANCH   4   5
ENDBRANCH   3   4
ENDBRANCH   2   3
ENDBRANCH   1   2
BRANCH   1  77
ATOM     77  O   UNL A   1      36.011  21.476  24.334  1.00  0.00    -0.377 OA
BRANCH  77  78
ATOM     78  C   UNL A   1      35.253  20.720  25.271  1.00  0.00     0.188 C 
BRANCH  78  79
ATOM     79  C   UNL A   1      34.311  19.609  24.742  1.00  0.00     0.188 C 
BRANCH  79  80
ATOM     80  O   UNL A   1      32.957  19.793  25.108  1.00  0.00    -0.376 OA
BRANCH  80  81
ATOM     81  C   UNL A   1      32.318  20.977  24.656  1.00  0.00     0.202 C 
BRANCH  81  82
ATOM     82  C   UNL A   1      31.700  21.950  25.682  1.00  0.00     0.261 C 
BRANCH  82  83
ATOM     83  O   UNL A   1      31.380  23.275  25.224  1.00  0.00    -0.460 OA
BRANCH  83  84
ATOM     84  C   UNL A   1      31.421  24.312  26.101  1.00  0.00     0.339 C 
ATOM     85  O   UNL A   1      31.471  24.248  27.306  1.00  0.00    -0.246 OA
BRANCH  84  86
ATOM     86  C   UNL A   1      31.596  25.559  25.293  1.00  0.00     0.077 A 
ATOM     87  C   UNL A   1      32.841  25.977  25.002  1.00  0.00     0.101 A 
ATOM     88  C   UNL A   1      30.468  26.251  24.707  1.00  0.00     0.031 A 
ATOM     89  N   UNL A   1      33.040  26.989  24.089  1.00  0.00    -0.328 N 
ATOM     90  C   UNL A   1      30.630  27.312  23.891  1.00  0.00     0.048 A 
ATOM     91  C   UNL A   1      32.023  27.679  23.461  1.00  0.00     0.255 A 
ATOM     92  H   UNL A   1      33.967  27.235  23.870  1.00  0.00     0.169 HD
ATOM     93  O   UNL A   1      32.252  28.542  22.620  1.00  0.00    -0.269 OA
BRANCH  90  94
ATOM     94  C   UNL A   1      29.464  28.156  23.580  1.00  0.00    -0.006 A 
ATOM     95  C   UNL A   1      28.198  27.536  23.593  1.00  0.00     0.009 A 
ATOM     96  C   UNL A   1      29.547  29.527  23.313  1.00  0.00     0.094 A 
ATOM     97  C   UNL A   1      27.037  28.248  23.313  1.00  0.00     0.008 A 
ATOM     98  C   UNL A   1      28.370  30.243  23.034  1.00  0.00     0.270 A 
ATOM     99  C   UNL A   1      27.119  29.606  23.025  1.00  0.00     0.085 A 
BRANCH  98 100
ATOM    100  N   UNL A   1      28.433  31.680  22.740  1.00  0.00     0.062 N 
ATOM    101  O   UNL A   1      29.377  32.084  22.044  1.00  0.00    -0.258 OA
ATOM    102  O   UNL A   1      27.547  32.409  23.206  1.00  0.00    -0.258 OA
ENDBRANCH  98 100
ENDBRANCH  90  94
ENDBRANCH  84  86
ENDBRANCH  83  84
ENDBRANCH  82  83
ENDBRANCH  81  82
ENDBRANCH  80  81
ENDBRANCH  79  80
ENDBRANCH  78  79
ENDBRANCH  77  78
ENDBRANCH   1  77
TORSDOF 25
ENDMDL
MODEL 2
REMARK VINA RESULT:      -9.2      6.929      9.976
REMARK SMILES O=C(OCCOCCOCCOCCOC(=O)c1c[nH]c(=O)c(-c2cccc([N+](=O)[O-])c2)c1)c1ccc(-c2c3nc(c(-c4c(F)cc(S(=O)(=O)[O-])cc4F)c4ccc([nH]4)c(-c4c(F)cc(S(=O)(=O)[O-])cc4F)c4nc(c(-c5c(F)cc(S(=O)(=O)[O-])cc5F)c5ccc2[nH]5)C=C4)C=C3)cc1
REMARK SMILES IDX 8 1 7 2 6 3 5 4 4 5 3 6 2 7 1 8 34 9 35 10 99 11 36 12 98 13
REMARK SMILES IDX 37 14 38 15 39 16 92 17 40 18 97 19 91 20 93 21 41 22 96 23
REMARK SMILES IDX 90 24 89 25 42 27 76 28 55 29 75 30 56 31 59 32 74 33 94 34
REMARK SMILES IDX 57 35 58 36 73 38 95 39 60 40 43 41 44 42 53 43 45 44 46 45
REMARK SMILES IDX 52 46 54 47 47 48 48 49 49 50 50 51 51 52 77 53 78 54 87 55
REMARK SMILES IDX 79 56 80 57 86 58 88 59 81 60 82 61 83 62 84 63 85 64 61 65
REMARK SMILES IDX 62 66 71 67 63 68 64 69 70 70 72 71 65 72 66 73 67 74 68 75
REMARK SMILES IDX 69 76 9 77 10 78 11 79 12 80 13 81 14 82 15 83 16 84 17 85
REMARK SMILES IDX 18 86 19 87 33 88 20 89 23 90 21 91 22 93 24 94 25 95 32 96
REMARK SMILES IDX 26 97 28 98 27 99 29 100 30 101 31 102
REMARK H PARENT 93 26 59 37 20 92
REMARK Flexibility Score: inf
ROOT
ATOM      1  C   UNL A   1      45.599  23.104  26.423  1.00  0.00     0.188 C 
ENDROOT
BRANCH   1   2
ATOM      2  C   UNL A   1      46.052  23.940  25.225  1.00  0.00     0.188 C 
BRANCH   2   3
ATOM      3  O   UNL A   1      47.204  24.727  25.522  1.00  0.00    -0.376 OA
BRANCH   3   4
ATOM      4  C   UNL A   1      46.999  26.107  25.825  1.00  0.00     0.202 C 
BRANCH   4   5
ATOM      5  C   UNL A   1      46.030  26.850  24.907  1.00  0.00     0.261 C 
BRANCH   5   6
ATOM      6  O   UNL A   1      44.702  26.962  25.438  1.00  0.00    -0.460 OA
BRANCH   6   7
ATOM      7  C   UNL A   1      44.312  27.052  26.733  1.00  0.00     0.338 C 
ATOM      8  O   UNL A   1      44.008  26.012  27.315  1.00  0.00    -0.246 OA
BRANCH   7   9
ATOM      9  C   UNL A   1      44.209  28.332  27.502  1.00  0.00     0.060 A 
ATOM     10  C   UNL A   1      43.409  29.422  27.164  1.00  0.00     0.016 A 
ATOM     11  C   UNL A   1      44.937  28.407  28.702  1.00  0.00     0.016 A 
ATOM     12  C   UNL A   1      43.376  30.576  27.921  1.00  0.00     0.010 A 
ATOM     13  C   UNL A   1      44.909  29.564  29.486  1.00  0.00     0.010 A 
ATOM     14  C   UNL A   1      44.161  30.666  29.061  1.00  0.00    -0.014 A 
BRANCH  14  15
ATOM     15  C   UNL A   1      44.374  32.018  29.596  1.00  0.00     0.031 A 
ATOM     16  C   UNL A   1      43.551  32.408  30.787  1.00  0.00     0.074 A 
ATOM     17  C   UNL A   1      45.404  32.760  29.158  1.00  0.00     0.049 A 
ATOM     18  N   UNL A   1      43.507  33.539  31.432  1.00  0.00    -0.248 NA
ATOM     19  C   UNL A   1      42.663  31.366  31.339  1.00  0.00     0.031 C 
ATOM     20  C   UNL A   1      46.368  32.345  28.133  1.00  0.00     0.029 A 
ATOM     21  N   UNL A   1      45.840  33.994  29.547  1.00  0.00    -0.354 N 
ATOM     22  C   UNL A   1      42.549  33.362  32.424  1.00  0.00     0.074 A 
ATOM     23  C   UNL A   1      42.039  32.018  32.304  1.00  0.00     0.031 C 
ATOM     24  C   UNL A   1      47.293  33.306  27.989  1.00  0.00     0.029 A 
ATOM     25  C   UNL A   1      46.941  34.430  28.848  1.00  0.00     0.049 A 
ATOM     26  H   UNL A   1      45.409  34.520  30.258  1.00  0.00     0.167 HD
ATOM     27  C   UNL A   1      42.132  34.263  33.341  1.00  0.00     0.037 A 
ATOM     28  C   UNL A   1      47.554  35.627  28.883  1.00  0.00     0.037 A 
ATOM     29  C   UNL A   1      42.684  35.587  33.420  1.00  0.00     0.049 A 
ATOM     30  C   UNL A   1      46.998  36.656  29.830  1.00  0.00     0.074 A 
ATOM     31  C   UNL A   1      42.319  36.632  34.242  1.00  0.00     0.029 A 
ATOM     32  N   UNL A   1      43.732  36.041  32.625  1.00  0.00    -0.354 N 
ATOM     33  N   UNL A   1      46.017  36.532  30.697  1.00  0.00    -0.248 NA
ATOM     34  C   UNL A   1      47.610  37.987  29.798  1.00  0.00     0.031 C 
ATOM     35  C   UNL A   1      43.107  37.738  33.904  1.00  0.00     0.029 A 
ATOM     36  C   UNL A   1      44.014  37.360  32.921  1.00  0.00     0.049 A 
ATOM     37  H   UNL A   1      44.205  35.500  31.951  1.00  0.00     0.167 HD
ATOM     38  C   UNL A   1      45.913  37.759  31.338  1.00  0.00     0.074 A 
ATOM     39  C   UNL A   1      46.938  38.609  30.757  1.00  0.00     0.031 C 
ATOM     40  C   UNL A   1      45.059  38.154  32.316  1.00  0.00     0.037 A 
BRANCH  27  41
ATOM     41  C   UNL A   1      40.974  33.863  34.213  1.00  0.00     0.058 A 
ATOM     42  C   UNL A   1      39.638  34.142  33.877  1.00  0.00     0.135 A 
ATOM     43  C   UNL A   1      41.219  33.260  35.458  1.00  0.00     0.135 A 
ATOM     44  F   UNL A   1      39.346  34.754  32.718  1.00  0.00    -0.206 F 
ATOM     45  C   UNL A   1      38.595  33.883  34.763  1.00  0.00     0.059 A 
ATOM     46  C   UNL A   1      40.189  32.963  36.345  1.00  0.00     0.059 A 
ATOM     47  F   UNL A   1      42.476  32.986  35.840  1.00  0.00    -0.206 F 
ATOM     48  C   UNL A   1      38.882  33.299  35.998  1.00  0.00     0.060 A 
BRANCH  48  49
ATOM     49  S   UNL A   1      37.527  33.006  37.154  1.00  0.00     0.124 S 
ATOM     50  O   UNL A   1      36.392  33.554  36.418  1.00  0.00    -0.237 OA
ATOM     51  O   UNL A   1      37.549  31.554  37.296  1.00  0.00    -0.237 OA
ATOM     52  O   UNL A   1      37.926  33.755  38.342  1.00  0.00    -0.744 OA
ENDBRANCH  48  49
ENDBRANCH  27  41
BRANCH  28  53
ATOM     53  C   UNL A   1      48.703  35.912  27.982  1.00  0.00     0.058 A 
ATOM     54  C   UNL A   1      48.513  36.466  26.709  1.00  0.00     0.135 A 
ATOM     55  C   UNL A   1      50.025  35.659  28.389  1.00  0.00     0.135 A 
ATOM     56  F   UNL A   1      47.273  36.722  26.268  1.00  0.00    -0.206 F 
ATOM     57  C   UNL A   1      49.587  36.753  25.869  1.00  0.00     0.059 A 
ATOM     58  C   UNL A   1      51.116  35.964  27.580  1.00  0.00     0.059 A 
ATOM     59  F   UNL A   1      50.270  35.136  29.601  1.00  0.00    -0.206 F 
ATOM     60  C   UNL A   1      50.886  36.504  26.317  1.00  0.00     0.060 A 
BRANCH  60  61
ATOM     61  S   UNL A   1      52.272  36.930  25.239  1.00  0.00     0.124 S 
ATOM     62  O   UNL A   1      53.307  36.022  25.719  1.00  0.00    -0.237 OA
ATOM     63  O   UNL A   1      51.729  36.638  23.916  1.00  0.00    -0.237 OA
ATOM     64  O   UNL A   1      52.494  38.345  25.519  1.00  0.00    -0.744 OA
ENDBRANCH  60  61
ENDBRANCH  28  53
BRANCH  40  65
ATOM     65  C   UNL A   1      45.245  39.541  32.855  1.00  0.00     0.058 A 
ATOM     66  C   UNL A   1      46.228  39.841  33.808  1.00  0.00     0.135 A 
ATOM     67  C   UNL A   1      44.463  40.594  32.353  1.00  0.00     0.135 A 
ATOM     68  F   UNL A   1      46.995  38.866  34.321  1.00  0.00    -0.206 F 
ATOM     69  C   UNL A   1      46.413  41.139  34.267  1.00  0.00     0.059 A 
ATOM     70  C   UNL A   1      44.655  41.904  32.771  1.00  0.00     0.059 A 
ATOM     71  F   UNL A   1      43.519  40.355  31.429  1.00  0.00    -0.206 F 
ATOM     72  C   UNL A   1      45.624  42.163  33.738  1.00  0.00     0.060 A 
BRANCH  72  73
ATOM     73  S   UNL A   1      45.899  43.849  34.315  1.00  0.00     0.124 S 
ATOM     74  O   UNL A   1      47.349  43.871  34.476  1.00  0.00    -0.237 OA
ATOM     75  O   UNL A   1      45.370  44.645  33.211  1.00  0.00    -0.237 OA
ATOM     76  O   UNL A   1      45.128  43.915  35.553  1.00  0.00    -0.744 OA
ENDBRANCH  72  73
ENDBRANCH  40  65
ENDBRANCH  14  15
ENDBRANCH   7   9
ENDBRANCH   6   7
ENDBRANCH   5   6
ENDBRANCH   4   5
ENDBRANCH   3   4
ENDBRANCH   2   3
ENDBRANCH   1   2
BRANCH   1  77
ATOM     77  O   UNL A   1      44.604  22.120  26.151  1.00  0.00    -0.377 OA
BRANCH  77  78
ATOM     78  C   UNL A   1      44.774  21.371  24.953  1.00  0.00     0.188 C 
BRANCH  78  79
ATOM     79  C   UNL A   1      44.449  19.855  24.970  1.00  0.00     0.188 C 
BRANCH  79  80
ATOM     80  O   UNL A   1      43.079  19.568  24.764  1.00  0.00    -0.376 OA
BRANCH  80  81
ATOM     81  C   UNL A   1      42.249  19.503  25.914  1.00  0.00     0.202 C 
BRANCH  81  82
ATOM     82  C   UNL A   1      41.006  20.412  26.008  1.00  0.00     0.261 C 
BRANCH  82  83
ATOM     83  O   UNL A   1      41.231  21.824  26.159  1.00  0.00    -0.460 OA
BRANCH  83  84
ATOM     84  C   UNL A   1      41.270  22.364  27.405  1.00  0.00     0.339 C 
ATOM     85  O   UNL A   1      41.493  21.791  28.443  1.00  0.00    -0.246 OA
BRANCH  84  86
ATOM     86  C   UNL A   1      41.183  23.849  27.239  1.00  0.00     0.077 A 
ATOM     87  C   UNL A   1      41.419  24.384  26.028  1.00  0.00     0.101 A 
ATOM     88  C   UNL A   1      40.725  24.709  28.309  1.00  0.00     0.031 A 
ATOM     89  N   UNL A   1      41.141  25.711  25.787  1.00  0.00    -0.328 N 
ATOM     90  C   UNL A   1      40.544  26.033  28.130  1.00  0.00     0.048 A 
ATOM     91  C   UNL A   1      40.673  26.592  26.740  1.00  0.00     0.255 A 
ATOM     92  H   UNL A   1      41.285  26.053  24.875  1.00  0.00     0.169 HD
ATOM     93  O   UNL A   1      40.396  27.754  26.464  1.00  0.00    -0.269 OA
BRANCH  90  94
ATOM     94  C   UNL A   1      40.380  26.896  29.312  1.00  0.00    -0.006 A 
ATOM     95  C   UNL A   1      41.544  27.484  29.847  1.00  0.00     0.009 A 
ATOM     96  C   UNL A   1      39.142  27.187  29.895  1.00  0.00     0.094 A 
ATOM     97  C   UNL A   1      41.492  28.315  30.961  1.00  0.00     0.008 A 
ATOM     98  C   UNL A   1      39.094  28.030  31.018  1.00  0.00     0.270 A 
ATOM     99  C   UNL A   1      40.266  28.587  31.556  1.00  0.00     0.085 A 
BRANCH  98 100
ATOM    100  N   UNL A   1      37.808  28.341  31.654  1.00  0.00     0.062 N 
ATOM    101  O   UNL A   1      36.945  28.902  30.963  1.00  0.00    -0.258 OA
ATOM    102  O   UNL A   1      37.658  28.031  32.844  1.00  0.00    -0.258 OA
ENDBRANCH  98 100
ENDBRANCH  90  94
ENDBRANCH  84  86
ENDBRANCH  83  84
ENDBRANCH  82  83
ENDBRANCH  81  82
ENDBRANCH  80  81
ENDBRANCH  79  80
ENDBRANCH  78  79
ENDBRANCH  77  78
ENDBRANCH   1  77
TORSDOF 25
ENDMDL
MODEL 3
REMARK VINA RESULT:      -9.1      5.141      6.996
REMARK SMILES O=C(OCCOCCOCCOCCOC(=O)c1c[nH]c(=O)c(-c2cccc([N+](=O)[O-])c2)c1)c1ccc(-c2c3nc(c(-c4c(F)cc(S(=O)(=O)[O-])cc4F)c4ccc([nH]4)c(-c4c(F)cc(S(=O)(=O)[O-])cc4F)c4nc(c(-c5c(F)cc(S(=O)(=O)[O-])cc5F)c5ccc2[nH]5)C=C4)C=C3)cc1
REMARK SMILES IDX 8 1 7 2 6 3 5 4 4 5 3 6 2 7 1 8 34 9 35 10 99 11 36 12 98 13
REMARK SMILES IDX 37 14 38 15 39 16 92 17 40 18 97 19 91 20 93 21 41 22 96 23
REMARK SMILES IDX 90 24 89 25 42 27 76 28 55 29 75 30 56 31 59 32 74 33 94 34
REMARK SMILES IDX 57 35 58 36 73 38 95 39 60 40 43 41 44 42 53 43 45 44 46 45
REMARK SMILES IDX 52 46 54 47 47 48 48 49 49 50 50 51 51 52 77 53 78 54 87 55
REMARK SMILES IDX 79 56 80 57 86 58 88 59 81 60 82 61 83 62 84 63 85 64 61 65
REMARK SMILES IDX 62 66 71 67 63 68 64 69 70 70 72 71 65 72 66 73 67 74 68 75
REMARK SMILES IDX 69 76 9 77 10 78 11 79 12 80 13 81 14 82 15 83 16 84 17 85
REMARK SMILES IDX 18 86 19 87 33 88 20 89 23 90 21 91 22 93 24 94 25 95 32 96
REMARK SMILES IDX 26 97 28 98 27 99 29 100 30 101 31 102
REMARK H PARENT 93 26 59 37 20 92
REMARK Flexibility Score: inf
ROOT
ATOM      1  C   UNL A   1      36.470  23.137  25.697  1.00  0.00     0.188 C 
ENDROOT
BRANCH   1   2
ATOM      2  C   UNL A   1      37.633  22.151  25.817  1.00  0.00     0.188 C 
BRANCH   2   3
ATOM      3  O   UNL A   1      38.875  22.810  26.054  1.00  0.00    -0.376 OA
BRANCH   3   4
ATOM      4  C   UNL A   1      38.843  24.221  26.268  1.00  0.00     0.202 C 
BRANCH   4   5
ATOM      5  C   UNL A   1      39.355  24.698  27.626  1.00  0.00     0.261 C 
BRANCH   5   6
ATOM      6  O   UNL A   1      39.274  26.118  27.808  1.00  0.00    -0.460 OA
BRANCH   6   7
ATOM      7  C   UNL A   1      40.247  27.050  27.650  1.00  0.00     0.338 C 
ATOM      8  O   UNL A   1      41.024  26.915  26.706  1.00  0.00    -0.246 OA
BRANCH   7   9
ATOM      9  C   UNL A   1      40.452  28.224  28.554  1.00  0.00     0.060 A 
ATOM     10  C   UNL A   1      39.696  29.396  28.552  1.00  0.00     0.016 A 
ATOM     11  C   UNL A   1      41.455  28.101  29.531  1.00  0.00     0.016 A 
ATOM     12  C   UNL A   1      39.955  30.443  29.414  1.00  0.00     0.010 A 
ATOM     13  C   UNL A   1      41.725  29.147  30.418  1.00  0.00     0.010 A 
ATOM     14  C   UNL A   1      41.000  30.338  30.320  1.00  0.00    -0.014 A 
BRANCH  14  15
ATOM     15  C   UNL A   1      41.460  31.594  30.928  1.00  0.00     0.031 A 
ATOM     16  C   UNL A   1      40.892  31.939  32.272  1.00  0.00     0.074 A 
ATOM     17  C   UNL A   1      42.490  32.265  30.386  1.00  0.00     0.049 A 
ATOM     18  N   UNL A   1      41.090  32.992  33.011  1.00  0.00    -0.248 NA
ATOM     19  C   UNL A   1      39.983  30.944  32.873  1.00  0.00     0.031 C 
ATOM     20  C   UNL A   1      43.219  31.863  29.179  1.00  0.00     0.029 A 
ATOM     21  N   UNL A   1      43.130  33.396  30.802  1.00  0.00    -0.354 N 
ATOM     22  C   UNL A   1      40.290  32.813  34.133  1.00  0.00     0.074 A 
ATOM     23  C   UNL A   1      39.606  31.551  33.985  1.00  0.00     0.031 C 
ATOM     24  C   UNL A   1      44.220  32.730  28.963  1.00  0.00     0.029 A 
ATOM     25  C   UNL A   1      44.150  33.786  29.966  1.00  0.00     0.049 A 
ATOM     26  H   UNL A   1      42.886  33.886  31.620  1.00  0.00     0.167 HD
ATOM     27  C   UNL A   1      40.138  33.649  35.184  1.00  0.00     0.037 A 
ATOM     28  C   UNL A   1      44.902  34.900  30.001  1.00  0.00     0.037 A 
ATOM     29  C   UNL A   1      40.853  34.891  35.283  1.00  0.00     0.049 A 
ATOM     30  C   UNL A   1      44.636  35.875  31.116  1.00  0.00     0.074 A 
ATOM     31  C   UNL A   1      40.756  35.875  36.245  1.00  0.00     0.029 A 
ATOM     32  N   UNL A   1      41.809  35.314  34.364  1.00  0.00    -0.354 N 
ATOM     33  N   UNL A   1      43.799  35.764  32.124  1.00  0.00    -0.248 NA
ATOM     34  C   UNL A   1      45.393  37.129  31.096  1.00  0.00     0.031 C 
ATOM     35  C   UNL A   1      41.609  36.920  35.875  1.00  0.00     0.029 A 
ATOM     36  C   UNL A   1      42.294  36.556  34.722  1.00  0.00     0.049 A 
ATOM     37  H   UNL A   1      42.098  34.801  33.574  1.00  0.00     0.167 HD
ATOM     38  C   UNL A   1      43.950  36.918  32.879  1.00  0.00     0.074 A 
ATOM     39  C   UNL A   1      44.965  37.712  32.208  1.00  0.00     0.031 C 
ATOM     40  C   UNL A   1      43.317  37.295  34.019  1.00  0.00     0.037 A 
BRANCH  27  41
ATOM     41  C   UNL A   1      39.094  33.283  36.203  1.00  0.00     0.058 A 
ATOM     42  C   UNL A   1      37.736  33.608  36.049  1.00  0.00     0.135 A 
ATOM     43  C   UNL A   1      39.484  32.667  37.403  1.00  0.00     0.135 A 
ATOM     44  F   UNL A   1      37.312  34.235  34.939  1.00  0.00    -0.206 F 
ATOM     45  C   UNL A   1      36.812  33.379  37.066  1.00  0.00     0.059 A 
ATOM     46  C   UNL A   1      38.572  32.399  38.420  1.00  0.00     0.059 A 
ATOM     47  F   UNL A   1      40.771  32.350  37.614  1.00  0.00    -0.206 F 
ATOM     48  C   UNL A   1      37.243  32.779  38.252  1.00  0.00     0.060 A 
BRANCH  48  49
ATOM     49  S   UNL A   1      36.046  32.525  39.578  1.00  0.00     0.124 S 
ATOM     50  O   UNL A   1      36.715  33.170  40.703  1.00  0.00    -0.237 OA
ATOM     51  O   UNL A   1      34.864  33.211  39.066  1.00  0.00    -0.237 OA
ATOM     52  O   UNL A   1      35.935  31.071  39.663  1.00  0.00    -0.744 OA
ENDBRANCH  48  49
ENDBRANCH  27  41
BRANCH  28  53
ATOM     53  C   UNL A   1      45.919  35.157  28.945  1.00  0.00     0.058 A 
ATOM     54  C   UNL A   1      47.251  34.746  29.098  1.00  0.00     0.135 A 
ATOM     55  C   UNL A   1      45.572  35.797  27.743  1.00  0.00     0.135 A 
ATOM     56  F   UNL A   1      47.638  34.136  30.228  1.00  0.00    -0.206 F 
ATOM     57  C   UNL A   1      48.202  34.966  28.105  1.00  0.00     0.059 A 
ATOM     58  C   UNL A   1      46.497  36.001  26.723  1.00  0.00     0.059 A 
ATOM     59  F   UNL A   1      44.310  36.204  27.535  1.00  0.00    -0.206 F 
ATOM     60  C   UNL A   1      47.814  35.588  26.917  1.00  0.00     0.060 A 
BRANCH  60  61
ATOM     61  S   UNL A   1      49.045  35.820  25.615  1.00  0.00     0.124 S 
ATOM     62  O   UNL A   1      50.291  35.665  26.356  1.00  0.00    -0.237 OA
ATOM     63  O   UNL A   1      48.713  34.741  24.689  1.00  0.00    -0.237 OA
ATOM     64  O   UNL A   1      48.766  37.166  25.123  1.00  0.00    -0.744 OA
ENDBRANCH  60  61
ENDBRANCH  28  53
BRANCH  40  65
ATOM     65  C   UNL A   1      43.756  38.589  34.639  1.00  0.00     0.058 A 
ATOM     66  C   UNL A   1      44.591  38.627  35.765  1.00  0.00     0.135 A 
ATOM     67  C   UNL A   1      43.382  39.806  34.047  1.00  0.00     0.135 A 
ATOM     68  F   UNL A   1      44.970  37.489  36.367  1.00  0.00    -0.206 F 
ATOM     69  C   UNL A   1      45.020  39.834  36.301  1.00  0.00     0.059 A 
ATOM     70  C   UNL A   1      43.828  41.022  34.546  1.00  0.00     0.059 A 
ATOM     71  F   UNL A   1      42.595  39.817  32.960  1.00  0.00    -0.206 F 
ATOM     72  C   UNL A   1      44.636  41.026  35.681  1.00  0.00     0.060 A 
BRANCH  72  73
ATOM     73  S   UNL A   1      45.230  42.584  36.365  1.00  0.00     0.124 S 
ATOM     74  O   UNL A   1      44.919  43.515  35.286  1.00  0.00    -0.237 OA
ATOM     75  O   UNL A   1      44.423  42.721  37.574  1.00  0.00    -0.237 OA
ATOM     76  O   UNL A   1      46.651  42.337  36.592  1.00  0.00    -0.744 OA
ENDBRANCH  72  73
ENDBRANCH  40  65
ENDBRANCH  14  15
ENDBRANCH   7   9
ENDBRANCH   6   7
ENDBRANCH   5   6
ENDBRANCH   4   5
ENDBRANCH   3   4
ENDBRANCH   2   3
ENDBRANCH   1   2
BRANCH   1  77
ATOM     77  O   UNL A   1      35.180  22.555  25.516  1.00  0.00    -0.377 OA
BRANCH  77  78
ATOM     78  C   UNL A   1      35.074  21.165  25.801  1.00  0.00     0.188 C 
BRANCH  78  79
ATOM     79  C   UNL A   1      34.295  20.261  24.812  1.00  0.00     0.188 C 
BRANCH  79  80
ATOM     80  O   UNL A   1      32.920  20.137  25.121  1.00  0.00    -0.376 OA
BRANCH  80  81
ATOM     81  C   UNL A   1      32.064  21.192  24.711  1.00  0.00     0.202 C 
BRANCH  81  82
ATOM     82  C   UNL A   1      31.654  22.280  25.725  1.00  0.00     0.261 C 
BRANCH  82  83
ATOM     83  O   UNL A   1      31.114  23.504  25.198  1.00  0.00    -0.460 OA
BRANCH  83  84
ATOM     84  C   UNL A   1      30.653  24.453  26.054  1.00  0.00     0.339 C 
ATOM     85  O   UNL A   1      30.115  24.276  27.119  1.00  0.00    -0.246 OA
BRANCH  84  86
ATOM     86  C   UNL A   1      31.115  25.776  25.527  1.00  0.00     0.077 A 
ATOM     87  C   UNL A   1      32.402  26.128  25.690  1.00  0.00     0.101 A 
ATOM     88  C   UNL A   1      30.249  26.624  24.735  1.00  0.00     0.031 A 
ATOM     89  N   UNL A   1      32.910  27.229  25.037  1.00  0.00    -0.328 N 
ATOM     90  C   UNL A   1      30.694  27.764  24.171  1.00  0.00     0.048 A 
ATOM     91  C   UNL A   1      32.164  28.072  24.240  1.00  0.00     0.255 A 
ATOM     92  H   UNL A   1      33.869  27.427  25.147  1.00  0.00     0.169 HD
ATOM     93  O   UNL A   1      32.673  29.014  23.642  1.00  0.00    -0.269 OA
BRANCH  90  94
ATOM     94  C   UNL A   1      29.713  28.730  23.648  1.00  0.00    -0.006 A 
ATOM     95  C   UNL A   1      28.595  28.208  22.966  1.00  0.00     0.009 A 
ATOM     96  C   UNL A   1      29.816  30.114  23.825  1.00  0.00     0.094 A 
ATOM     97  C   UNL A   1      27.613  29.039  22.436  1.00  0.00     0.008 A 
ATOM     98  C   UNL A   1      28.819  30.950  23.292  1.00  0.00     0.270 A 
ATOM     99  C   UNL A   1      27.725  30.416  22.592  1.00  0.00     0.085 A 
BRANCH  98 100
ATOM    100  N   UNL A   1      28.911  32.406  23.455  1.00  0.00     0.062 N 
ATOM    101  O   UNL A   1      28.072  33.105  22.868  1.00  0.00    -0.258 OA
ATOM    102  O   UNL A   1      29.823  32.855  24.163  1.00  0.00    -0.258 OA
ENDBRANCH  98 100
ENDBRANCH  90  94
ENDBRANCH  84  86
ENDBRANCH  83  84
ENDBRANCH  82  83
ENDBRANCH  81  82
ENDBRANCH  80  81
ENDBRANCH  79  80
ENDBRANCH  78  79
ENDBRANCH  77  78
ENDBRANCH   1  77
TORSDOF 25
ENDMDL
