MODEL 1
REMARK VINA RESULT:     -10.1      0.000      0.000
REMARK SMILES COc1cc2c(cc1OC)[C@H](C(=O)OCCOCCOCCOCCOC(=O)c1ccc(-c3c4nc(c(-c5c(F)cc(S(=O)(=O)[O-])cc5F)c5ccc([nH]5)c(-c5c(F)cc(S(=O)(=O)[O-])cc5F)c5nc(c(-c6c(F)cc(S(=O)(=O)[O-])cc6F)c6ccc3[nH]6)C=C5)C=C4)cc1)[C@H](c1cccc(Cl)c1)N(C)C2=O
REMARK SMILES IDX 21 1 20 2 19 3 18 4 17 5 16 6 15 7 14 8 12 9 13 10 11 11
REMARK SMILES IDX 3 12 4 13 8 14 5 15 7 16 6 17 105 18 103 19 106 20 95 21
REMARK SMILES IDX 104 22 2 23 1 24 9 25 10 26 96 27 97 28 102 29 98 30 100 31
REMARK SMILES IDX 99 32 101 33 22 34 23 35 24 36 25 37 26 38 27 39 28 40 29 41
REMARK SMILES IDX 30 42 94 43 31 44 93 45 32 46 33 47 34 48 87 49 35 50 92 51
REMARK SMILES IDX 86 52 88 53 36 54 91 55 85 56 84 57 37 59 71 60 50 61 70 62
REMARK SMILES IDX 51 63 54 64 69 65 89 66 52 67 53 68 68 70 90 71 55 72 38 73
REMARK SMILES IDX 39 74 48 75 40 76 41 77 47 78 49 79 42 80 43 81 44 82 45 83
REMARK SMILES IDX 46 84 72 85 73 86 82 87 74 88 75 89 81 90 83 91 76 92 77 93
REMARK SMILES IDX 78 94 79 95 80 96 56 97 57 98 66 99 58 100 59 101 65 102
REMARK SMILES IDX 67 103 60 104 61 105 62 106 63 107 64 108
REMARK H PARENT 88 58 54 69
REMARK Flexibility Score: inf
ROOT
ATOM      1  C   UNL A   1      30.613  32.693  25.555  1.00  0.00     0.188 C 
ENDROOT
BRANCH   1   2
ATOM      2  O   UNL A   1      29.981  31.552  25.000  1.00  0.00    -0.377 OA
BRANCH   2   3
ATOM      3  C   UNL A   1      28.995  31.744  24.003  1.00  0.00     0.188 C 
BRANCH   3   4
ATOM      4  C   UNL A   1      28.496  30.586  23.104  1.00  0.00     0.188 C 
BRANCH   4   5
ATOM      5  O   UNL A   1      27.223  30.032  23.380  1.00  0.00    -0.376 OA
BRANCH   5   6
ATOM      6  C   UNL A   1      27.060  28.624  23.428  1.00  0.00     0.202 C 
BRANCH   6   7
ATOM      7  C   UNL A   1      28.310  27.784  23.147  1.00  0.00     0.261 C 
BRANCH   7   8
ATOM      8  O   UNL A   1      28.377  26.598  23.949  1.00  0.00    -0.463 OA
BRANCH   8   9
ATOM      9  C   UNL A   1      29.627  26.201  24.307  1.00  0.00     0.316 C 
ATOM     10  O   UNL A   1      29.877  25.573  25.326  1.00  0.00    -0.251 OA
BRANCH   9  11
ATOM     11  C   UNL A   1      30.641  26.699  23.284  1.00  0.00     0.157 C 
ATOM     12  C   UNL A   1      33.684  28.603  25.570  1.00  0.00     0.161 A 
ATOM     13  C   UNL A   1      33.983  28.116  24.281  1.00  0.00     0.064 A 
ATOM     14  C   UNL A   1      32.356  28.687  25.998  1.00  0.00     0.161 A 
ATOM     15  C   UNL A   1      32.971  27.601  23.472  1.00  0.00     0.048 A 
ATOM     16  C   UNL A   1      31.361  28.204  25.164  1.00  0.00     0.056 A 
ATOM     17  C   UNL A   1      31.678  27.537  23.977  1.00  0.00    -0.015 A 
ATOM     18  C   UNL A   1      33.248  27.111  22.089  1.00  0.00     0.254 C 
ATOM     19  N   UNL A   1      32.314  26.225  21.544  1.00  0.00    -0.333 N 
ATOM     20  O   UNL A   1      34.252  27.486  21.495  1.00  0.00    -0.269 OA
ATOM     21  C   UNL A   1      31.308  25.577  22.418  1.00  0.00     0.134 C 
ATOM     22  C   UNL A   1      32.492  25.754  20.179  1.00  0.00     0.147 C 
BRANCH  12  23
ATOM     23  O   UNL A   1      34.687  28.900  26.452  1.00  0.00    -0.493 OA
ATOM     24  C   UNL A   1      34.405  30.027  27.270  1.00  0.00     0.278 C 
ENDBRANCH  12  23
BRANCH  14  25
ATOM     25  O   UNL A   1      31.826  29.158  27.163  1.00  0.00    -0.493 OA
ATOM     26  C   UNL A   1      31.191  28.256  28.045  1.00  0.00     0.278 C 
ENDBRANCH  14  25
BRANCH  21  27
ATOM     27  C   UNL A   1      31.881  24.333  23.129  1.00  0.00    -0.023 A 
ATOM     28  C   UNL A   1      31.049  23.454  23.849  1.00  0.00     0.006 A 
ATOM     29  C   UNL A   1      33.244  23.991  23.081  1.00  0.00     0.026 A 
ATOM     30  C   UNL A   1      31.548  22.367  24.572  1.00  0.00     0.002 A 
ATOM     31  C   UNL A   1      33.744  22.890  23.786  1.00  0.00     0.041 A 
ATOM     32  C   UNL A   1      32.904  22.091  24.553  1.00  0.00     0.020 A 
ATOM     33  Cl  UNL A   1      35.424  22.521  23.709  1.00  0.00    -0.084 Cl
ENDBRANCH  21  27
ENDBRANCH   9  11
ENDBRANCH   8   9
ENDBRANCH   7   8
ENDBRANCH   6   7
ENDBRANCH   5   6
ENDBRANCH   4   5
ENDBRANCH   3   4
ENDBRANCH   2   3
ENDBRANCH   1   2
BRANCH   1  34
ATOM     34  C   UNL A   1      31.690  32.452  26.637  1.00  0.00     0.188 C 
BRANCH  34  35
ATOM     35  O   UNL A   1      31.862  33.541  27.534  1.00  0.00    -0.376 OA
BRANCH  35  36
ATOM     36  C   UNL A   1      33.169  34.021  27.783  1.00  0.00     0.202 C 
BRANCH  36  37
ATOM     37  C   UNL A   1      33.746  33.905  29.202  1.00  0.00     0.261 C 
BRANCH  37  38
ATOM     38  O   UNL A   1      34.110  32.594  29.648  1.00  0.00    -0.460 OA
BRANCH  38  39
ATOM     39  C   UNL A   1      34.787  32.496  30.811  1.00  0.00     0.338 C 
ATOM     40  O   UNL A   1      34.366  32.751  31.927  1.00  0.00    -0.246 OA
BRANCH  39  41
ATOM     41  C   UNL A   1      36.058  31.800  30.515  1.00  0.00     0.060 A 
ATOM     42  C   UNL A   1      36.756  31.176  31.561  1.00  0.00     0.016 A 
ATOM     43  C   UNL A   1      36.519  31.706  29.201  1.00  0.00     0.016 A 
ATOM     44  C   UNL A   1      37.925  30.465  31.294  1.00  0.00     0.010 A 
ATOM     45  C   UNL A   1      37.715  31.036  28.941  1.00  0.00     0.010 A 
ATOM     46  C   UNL A   1      38.436  30.441  29.991  1.00  0.00    -0.014 A 
BRANCH  46  47
ATOM     47  C   UNL A   1      39.842  30.031  29.775  1.00  0.00     0.031 A 
ATOM     48  C   UNL A   1      40.901  31.084  29.952  1.00  0.00     0.074 A 
ATOM     49  C   UNL A   1      40.172  28.769  29.451  1.00  0.00     0.049 A 
ATOM     50  N   UNL A   1      42.191  31.005  29.765  1.00  0.00    -0.248 NA
ATOM     51  C   UNL A   1      40.437  32.411  30.395  1.00  0.00     0.031 C 
ATOM     52  C   UNL A   1      39.234  27.660  29.296  1.00  0.00     0.029 A 
ATOM     53  N   UNL A   1      41.398  28.214  29.181  1.00  0.00    -0.354 N 
ATOM     54  C   UNL A   1      42.689  32.269  30.054  1.00  0.00     0.074 A 
ATOM     55  C   UNL A   1      41.564  33.105  30.407  1.00  0.00     0.031 C 
ATOM     56  C   UNL A   1      39.917  26.560  28.933  1.00  0.00     0.029 A 
ATOM     57  C   UNL A   1      41.334  26.896  28.798  1.00  0.00     0.049 A 
ATOM     58  H   UNL A   1      42.243  28.715  29.254  1.00  0.00     0.167 HD
ATOM     59  C   UNL A   1      43.972  32.693  30.030  1.00  0.00     0.037 A 
ATOM     60  C   UNL A   1      42.308  26.071  28.360  1.00  0.00     0.037 A 
ATOM     61  C   UNL A   1      45.085  31.853  29.676  1.00  0.00     0.049 A 
ATOM     62  C   UNL A   1      43.725  26.586  28.282  1.00  0.00     0.074 A 
ATOM     63  C   UNL A   1      46.428  32.177  29.646  1.00  0.00     0.029 A 
ATOM     64  N   UNL A   1      44.980  30.528  29.282  1.00  0.00    -0.354 N 
ATOM     65  N   UNL A   1      44.192  27.774  28.591  1.00  0.00    -0.248 NA
ATOM     66  C   UNL A   1      44.750  25.648  27.802  1.00  0.00     0.031 C 
ATOM     67  C   UNL A   1      47.131  31.066  29.172  1.00  0.00     0.029 A 
ATOM     68  C   UNL A   1      46.234  30.028  28.974  1.00  0.00     0.049 A 
ATOM     69  H   UNL A   1      44.140  30.018  29.227  1.00  0.00     0.167 HD
ATOM     70  C   UNL A   1      45.565  27.715  28.372  1.00  0.00     0.074 A 
ATOM     71  C   UNL A   1      45.856  26.371  27.918  1.00  0.00     0.031 C 
ATOM     72  C   UNL A   1      46.504  28.681  28.534  1.00  0.00     0.037 A 
BRANCH  59  73
ATOM     73  C   UNL A   1      44.240  34.135  30.359  1.00  0.00     0.058 A 
ATOM     74  C   UNL A   1      44.206  35.140  29.380  1.00  0.00     0.135 A 
ATOM     75  C   UNL A   1      44.491  34.521  31.686  1.00  0.00     0.135 A 
ATOM     76  F   UNL A   1      43.998  34.823  28.092  1.00  0.00    -0.206 F 
ATOM     77  C   UNL A   1      44.421  36.476  29.704  1.00  0.00     0.059 A 
ATOM     78  C   UNL A   1      44.679  35.853  32.037  1.00  0.00     0.059 A 
ATOM     79  F   UNL A   1      44.547  33.598  32.659  1.00  0.00    -0.206 F 
ATOM     80  C   UNL A   1      44.651  36.823  31.036  1.00  0.00     0.060 A 
BRANCH  80  81
ATOM     81  S   UNL A   1      44.892  38.564  31.443  1.00  0.00     0.124 S 
ATOM     82  O   UNL A   1      44.844  38.534  32.901  1.00  0.00    -0.237 OA
ATOM     83  O   UNL A   1      46.201  38.840  30.858  1.00  0.00    -0.237 OA
ATOM     84  O   UNL A   1      43.766  39.226  30.792  1.00  0.00    -0.744 OA
ENDBRANCH  80  81
ENDBRANCH  59  73
BRANCH  60  85
ATOM     85  C   UNL A   1      41.979  24.684  27.932  1.00  0.00     0.058 A 
ATOM     86  C   UNL A   1      42.215  23.585  28.773  1.00  0.00     0.135 A 
ATOM     87  C   UNL A   1      41.440  24.427  26.661  1.00  0.00     0.135 A 
ATOM     88  F   UNL A   1      42.740  23.774  29.993  1.00  0.00    -0.206 F 
ATOM     89  C   UNL A   1      41.950  22.282  28.361  1.00  0.00     0.059 A 
ATOM     90  C   UNL A   1      41.139  23.135  26.239  1.00  0.00     0.059 A 
ATOM     91  F   UNL A   1      41.186  25.441  25.819  1.00  0.00    -0.206 F 
ATOM     92  C   UNL A   1      41.409  22.067  27.092  1.00  0.00     0.060 A 
BRANCH  92  93
ATOM     93  S   UNL A   1      41.036  20.375  26.584  1.00  0.00     0.124 S 
ATOM     94  O   UNL A   1      42.129  20.097  25.661  1.00  0.00    -0.237 OA
ATOM     95  O   UNL A   1      41.075  19.660  27.855  1.00  0.00    -0.237 OA
ATOM     96  O   UNL A   1      39.713  20.491  25.980  1.00  0.00    -0.744 OA
ENDBRANCH  92  93
ENDBRANCH  60  85
BRANCH  72  97
ATOM     97  C   UNL A   1      47.940  28.316  28.267  1.00  0.00     0.058 A 
ATOM     98  C   UNL A   1      48.534  28.504  27.011  1.00  0.00     0.135 A 
ATOM     99  C   UNL A   1      48.750  27.830  29.309  1.00  0.00     0.135 A 
ATOM    100  F   UNL A   1      47.805  28.964  25.981  1.00  0.00    -0.206 F 
ATOM    101  C   UNL A   1      49.873  28.199  26.787  1.00  0.00     0.059 A 
ATOM    102  C   UNL A   1      50.098  27.550  29.116  1.00  0.00     0.059 A 
ATOM    103  F   UNL A   1      48.237  27.644  30.536  1.00  0.00    -0.206 F 
ATOM    104  C   UNL A   1      50.648  27.726  27.848  1.00  0.00     0.060 A 
BRANCH 104 105
ATOM    105  S   UNL A   1      52.392  27.366  27.551  1.00  0.00     0.124 S 
ATOM    106  O   UNL A   1      52.957  28.708  27.458  1.00  0.00    -0.237 OA
ATOM    107  O   UNL A   1      52.760  26.604  28.740  1.00  0.00    -0.237 OA
ATOM    108  O   UNL A   1      52.376  26.604  26.306  1.00  0.00    -0.744 OA
ENDBRANCH 104 105
ENDBRANCH  72  97
ENDBRANCH  46  47
ENDBRANCH  39  41
ENDBRANCH  38  39
ENDBRANCH  37  38
ENDBRANCH  36  37
ENDBRANCH  35  36
ENDBRANCH  34  35
ENDBRANCH   1  34
TORSDOF 26
ENDMDL
MODEL 2
REMARK VINA RESULT:     -10.0      2.623      8.791
REMARK SMILES COc1cc2c(cc1OC)[C@H](C(=O)OCCOCCOCCOCCOC(=O)c1ccc(-c3c4nc(c(-c5c(F)cc(S(=O)(=O)[O-])cc5F)c5ccc([nH]5)c(-c5c(F)cc(S(=O)(=O)[O-])cc5F)c5nc(c(-c6c(F)cc(S(=O)(=O)[O-])cc6F)c6ccc3[nH]6)C=C5)C=C4)cc1)[C@H](c1cccc(Cl)c1)N(C)C2=O
REMARK SMILES IDX 21 1 20 2 19 3 18 4 17 5 16 6 15 7 14 8 12 9 13 10 11 11
REMARK SMILES IDX 3 12 4 13 8 14 5 15 7 16 6 17 105 18 103 19 106 20 95 21
REMARK SMILES IDX 104 22 2 23 1 24 9 25 10 26 96 27 97 28 102 29 98 30 100 31
REMARK SMILES IDX 99 32 101 33 22 34 23 35 24 36 25 37 26 38 27 39 28 40 29 41
REMARK SMILES IDX 30 42 94 43 31 44 93 45 32 46 33 47 34 48 87 49 35 50 92 51
REMARK SMILES IDX 86 52 88 53 36 54 91 55 85 56 84 57 37 59 71 60 50 61 70 62
REMARK SMILES IDX 51 63 54 64 69 65 89 66 52 67 53 68 68 70 90 71 55 72 38 73
REMARK SMILES IDX 39 74 48 75 40 76 41 77 47 78 49 79 42 80 43 81 44 82 45 83
REMARK SMILES IDX 46 84 72 85 73 86 82 87 74 88 75 89 81 90 83 91 76 92 77 93
REMARK SMILES IDX 78 94 79 95 80 96 56 97 57 98 66 99 58 100 59 101 65 102
REMARK SMILES IDX 67 103 60 104 61 105 62 106 63 107 64 108
REMARK H PARENT 88 58 54 69
REMARK Flexibility Score: inf
ROOT
ATOM      1  C   UNL A   1      37.118  33.701  29.742  1.00  0.00     0.188 C 
ENDROOT
BRANCH   1   2
ATOM      2  O   UNL A   1      36.924  32.331  29.436  1.00  0.00    -0.377 OA
BRANCH   2   3
ATOM      3  C   UNL A   1      35.601  31.832  29.373  1.00  0.00     0.188 C 
BRANCH   3   4
ATOM      4  C   UNL A   1      34.762  31.885  28.074  1.00  0.00     0.188 C 
BRANCH   4   5
ATOM      5  O   UNL A   1      34.085  30.709  27.672  1.00  0.00    -0.376 OA
BRANCH   5   6
ATOM      6  C   UNL A   1      32.807  30.800  27.064  1.00  0.00     0.202 C 
BRANCH   6   7
ATOM      7  C   UNL A   1      31.893  29.581  27.214  1.00  0.00     0.261 C 
BRANCH   7   8
ATOM      8  O   UNL A   1      32.617  28.362  27.424  1.00  0.00    -0.463 OA
BRANCH   8   9
ATOM      9  C   UNL A   1      32.153  27.279  26.746  1.00  0.00     0.316 C 
ATOM     10  O   UNL A   1      31.242  26.565  27.142  1.00  0.00    -0.251 OA
BRANCH   9  11
ATOM     11  C   UNL A   1      32.966  27.078  25.473  1.00  0.00     0.157 C 
ATOM     12  C   UNL A   1      32.092  23.109  24.209  1.00  0.00     0.161 A 
ATOM     13  C   UNL A   1      32.549  24.055  23.268  1.00  0.00     0.064 A 
ATOM     14  C   UNL A   1      32.160  23.391  25.577  1.00  0.00     0.161 A 
ATOM     15  C   UNL A   1      32.956  25.321  23.686  1.00  0.00     0.048 A 
ATOM     16  C   UNL A   1      32.602  24.642  25.972  1.00  0.00     0.056 A 
ATOM     17  C   UNL A   1      32.860  25.645  25.034  1.00  0.00    -0.015 A 
ATOM     18  C   UNL A   1      33.479  26.333  22.720  1.00  0.00     0.254 C 
ATOM     19  N   UNL A   1      33.429  27.669  23.130  1.00  0.00    -0.333 N 
ATOM     20  O   UNL A   1      33.919  25.974  21.634  1.00  0.00    -0.269 OA
ATOM     21  C   UNL A   1      32.608  28.056  24.302  1.00  0.00     0.134 C 
ATOM     22  C   UNL A   1      33.976  28.701  22.261  1.00  0.00     0.147 C 
BRANCH  12  23
ATOM     23  O   UNL A   1      31.486  21.955  23.797  1.00  0.00    -0.493 OA
ATOM     24  C   UNL A   1      32.334  20.817  23.857  1.00  0.00     0.278 C 
ENDBRANCH  12  23
BRANCH  14  25
ATOM     25  O   UNL A   1      31.827  22.629  26.657  1.00  0.00    -0.493 OA
ATOM     26  C   UNL A   1      30.478  22.577  27.074  1.00  0.00     0.278 C 
ENDBRANCH  14  25
BRANCH  21  27
ATOM     27  C   UNL A   1      31.124  28.250  23.924  1.00  0.00    -0.023 A 
ATOM     28  C   UNL A   1      30.226  27.166  23.912  1.00  0.00     0.006 A 
ATOM     29  C   UNL A   1      30.580  29.505  23.601  1.00  0.00     0.026 A 
ATOM     30  C   UNL A   1      28.898  27.293  23.494  1.00  0.00     0.002 A 
ATOM     31  C   UNL A   1      29.245  29.640  23.204  1.00  0.00     0.041 A 
ATOM     32  C   UNL A   1      28.408  28.534  23.125  1.00  0.00     0.020 A 
ATOM     33  Cl  UNL A   1      28.629  31.197  22.803  1.00  0.00    -0.084 Cl
ENDBRANCH  21  27
ENDBRANCH   9  11
ENDBRANCH   8   9
ENDBRANCH   7   8
ENDBRANCH   6   7
ENDBRANCH   5   6
ENDBRANCH   4   5
ENDBRANCH   3   4
ENDBRANCH   2   3
ENDBRANCH   1   2
BRANCH   1  34
ATOM     34  C   UNL A   1      37.363  34.070  31.223  1.00  0.00     0.188 C 
BRANCH  34  35
ATOM     35  O   UNL A   1      36.173  34.251  31.979  1.00  0.00    -0.376 OA
BRANCH  35  36
ATOM     36  C   UNL A   1      35.655  33.156  32.709  1.00  0.00     0.202 C 
BRANCH  36  37
ATOM     37  C   UNL A   1      36.606  32.333  33.591  1.00  0.00     0.261 C 
BRANCH  37  38
ATOM     38  O   UNL A   1      37.402  31.340  32.934  1.00  0.00    -0.460 OA
BRANCH  38  39
ATOM     39  C   UNL A   1      38.365  30.732  33.658  1.00  0.00     0.338 C 
ATOM     40  O   UNL A   1      38.317  30.440  34.841  1.00  0.00    -0.246 OA
BRANCH  39  41
ATOM     41  C   UNL A   1      39.398  30.273  32.706  1.00  0.00     0.060 A 
ATOM     42  C   UNL A   1      40.334  29.311  33.120  1.00  0.00     0.016 A 
ATOM     43  C   UNL A   1      39.399  30.738  31.389  1.00  0.00     0.016 A 
ATOM     44  C   UNL A   1      41.278  28.822  32.220  1.00  0.00     0.010 A 
ATOM     45  C   UNL A   1      40.376  30.285  30.502  1.00  0.00     0.010 A 
ATOM     46  C   UNL A   1      41.337  29.349  30.925  1.00  0.00    -0.014 A 
BRANCH  46  47
ATOM     47  C   UNL A   1      42.551  29.125  30.109  1.00  0.00     0.031 A 
ATOM     48  C   UNL A   1      42.658  27.813  29.381  1.00  0.00     0.074 A 
ATOM     49  C   UNL A   1      43.516  30.055  30.000  1.00  0.00     0.049 A 
ATOM     50  N   UNL A   1      43.636  27.345  28.653  1.00  0.00    -0.248 NA
ATOM     51  C   UNL A   1      41.503  26.904  29.496  1.00  0.00     0.031 C 
ATOM     52  C   UNL A   1      43.496  31.375  30.627  1.00  0.00     0.029 A 
ATOM     53  N   UNL A   1      44.712  30.017  29.329  1.00  0.00    -0.354 N 
ATOM     54  C   UNL A   1      43.221  26.086  28.237  1.00  0.00     0.074 A 
ATOM     55  C   UNL A   1      41.915  25.851  28.808  1.00  0.00     0.031 C 
ATOM     56  C   UNL A   1      44.642  32.013  30.329  1.00  0.00     0.029 A 
ATOM     57  C   UNL A   1      45.487  31.135  29.521  1.00  0.00     0.049 A 
ATOM     58  H   UNL A   1      44.988  29.260  28.764  1.00  0.00     0.167 HD
ATOM     59  C   UNL A   1      43.873  25.205  27.444  1.00  0.00     0.037 A 
ATOM     60  C   UNL A   1      46.746  31.400  29.114  1.00  0.00     0.037 A 
ATOM     61  C   UNL A   1      45.174  25.448  26.881  1.00  0.00     0.049 A 
ATOM     62  C   UNL A   1      47.478  30.375  28.281  1.00  0.00     0.074 A 
ATOM     63  C   UNL A   1      45.911  24.633  26.043  1.00  0.00     0.029 A 
ATOM     64  N   UNL A   1      45.933  26.586  27.108  1.00  0.00    -0.354 N 
ATOM     65  N   UNL A   1      47.064  29.201  27.863  1.00  0.00    -0.248 NA
ATOM     66  C   UNL A   1      48.845  30.711  27.860  1.00  0.00     0.031 C 
ATOM     67  C   UNL A   1      47.144  25.250  25.813  1.00  0.00     0.029 A 
ATOM     68  C   UNL A   1      47.147  26.481  26.451  1.00  0.00     0.049 A 
ATOM     69  H   UNL A   1      45.652  27.355  27.655  1.00  0.00     0.167 HD
ATOM     70  C   UNL A   1      48.107  28.674  27.106  1.00  0.00     0.074 A 
ATOM     71  C   UNL A   1      49.165  29.663  27.112  1.00  0.00     0.031 C 
ATOM     72  C   UNL A   1      48.184  27.483  26.460  1.00  0.00     0.037 A 
BRANCH  59  73
ATOM     73  C   UNL A   1      43.209  23.885  27.169  1.00  0.00     0.058 A 
ATOM     74  C   UNL A   1      43.358  22.784  28.027  1.00  0.00     0.135 A 
ATOM     75  C   UNL A   1      42.373  23.736  26.050  1.00  0.00     0.135 A 
ATOM     76  F   UNL A   1      44.167  22.864  29.096  1.00  0.00    -0.206 F 
ATOM     77  C   UNL A   1      42.710  21.579  27.780  1.00  0.00     0.059 A 
ATOM     78  C   UNL A   1      41.693  22.549  25.800  1.00  0.00     0.059 A 
ATOM     79  F   UNL A   1      42.207  24.753  25.191  1.00  0.00    -0.206 F 
ATOM     80  C   UNL A   1      41.874  21.474  26.667  1.00  0.00     0.060 A 
BRANCH  80  81
ATOM     81  S   UNL A   1      41.013  19.913  26.382  1.00  0.00     0.124 S 
ATOM     82  O   UNL A   1      40.942  19.367  27.733  1.00  0.00    -0.237 OA
ATOM     83  O   UNL A   1      39.746  20.358  25.810  1.00  0.00    -0.237 OA
ATOM     84  O   UNL A   1      41.896  19.200  25.463  1.00  0.00    -0.744 OA
ENDBRANCH  80  81
ENDBRANCH  59  73
BRANCH  60  85
ATOM     85  C   UNL A   1      47.410  32.673  29.508  1.00  0.00     0.058 A 
ATOM     86  C   UNL A   1      48.122  32.783  30.712  1.00  0.00     0.135 A 
ATOM     87  C   UNL A   1      47.327  33.814  28.694  1.00  0.00     0.135 A 
ATOM     88  F   UNL A   1      48.221  31.726  31.531  1.00  0.00    -0.206 F 
ATOM     89  C   UNL A   1      48.708  33.982  31.106  1.00  0.00     0.059 A 
ATOM     90  C   UNL A   1      47.930  35.016  29.052  1.00  0.00     0.059 A 
ATOM     91  F   UNL A   1      46.665  33.763  27.527  1.00  0.00    -0.206 F 
ATOM     92  C   UNL A   1      48.608  35.094  30.267  1.00  0.00     0.060 A 
BRANCH  92  93
ATOM     93  S   UNL A   1      49.403  36.635  30.771  1.00  0.00     0.124 S 
ATOM     94  O   UNL A   1      50.729  36.489  30.182  1.00  0.00    -0.237 OA
ATOM     95  O   UNL A   1      48.539  37.638  30.157  1.00  0.00    -0.237 OA
ATOM     96  O   UNL A   1      49.350  36.580  32.228  1.00  0.00    -0.744 OA
ENDBRANCH  92  93
ENDBRANCH  60  85
BRANCH  72  97
ATOM     97  C   UNL A   1      49.430  27.196  25.665  1.00  0.00     0.058 A 
ATOM     98  C   UNL A   1      49.486  27.384  24.276  1.00  0.00     0.135 A 
ATOM     99  C   UNL A   1      50.607  26.790  26.318  1.00  0.00     0.135 A 
ATOM    100  F   UNL A   1      48.390  27.770  23.602  1.00  0.00    -0.206 F 
ATOM    101  C   UNL A   1      50.654  27.154  23.558  1.00  0.00     0.059 A 
ATOM    102  C   UNL A   1      51.795  26.585  25.626  1.00  0.00     0.059 A 
ATOM    103  F   UNL A   1      50.614  26.609  27.649  1.00  0.00    -0.206 F 
ATOM    104  C   UNL A   1      51.806  26.757  24.243  1.00  0.00     0.060 A 
BRANCH 104 105
ATOM    105  S   UNL A   1      53.324  26.493  23.302  1.00  0.00     0.124 S 
ATOM    106  O   UNL A   1      54.027  27.753  23.520  1.00  0.00    -0.237 OA
ATOM    107  O   UNL A   1      53.899  25.324  23.959  1.00  0.00    -0.237 OA
ATOM    108  O   UNL A   1      52.847  26.269  21.940  1.00  0.00    -0.744 OA
ENDBRANCH 104 105
ENDBRANCH  72  97
ENDBRANCH  46  47
ENDBRANCH  39  41
ENDBRANCH  38  39
ENDBRANCH  37  38
ENDBRANCH  36  37
ENDBRANCH  35  36
ENDBRANCH  34  35
ENDBRANCH   1  34
TORSDOF 26
ENDMDL
MODEL 3
REMARK VINA RESULT:      -9.9      2.909      8.700
REMARK SMILES COc1cc2c(cc1OC)[C@H](C(=O)OCCOCCOCCOCCOC(=O)c1ccc(-c3c4nc(c(-c5c(F)cc(S(=O)(=O)[O-])cc5F)c5ccc([nH]5)c(-c5c(F)cc(S(=O)(=O)[O-])cc5F)c5nc(c(-c6c(F)cc(S(=O)(=O)[O-])cc6F)c6ccc3[nH]6)C=C5)C=C4)cc1)[C@H](c1cccc(Cl)c1)N(C)C2=O
REMARK SMILES IDX 21 1 20 2 19 3 18 4 17 5 16 6 15 7 14 8 12 9 13 10 11 11
REMARK SMILES IDX 3 12 4 13 8 14 5 15 7 16 6 17 105 18 103 19 106 20 95 21
REMARK SMILES IDX 104 22 2 23 1 24 9 25 10 26 96 27 97 28 102 29 98 30 100 31
REMARK SMILES IDX 99 32 101 33 22 34 23 35 24 36 25 37 26 38 27 39 28 40 29 41
REMARK SMILES IDX 30 42 94 43 31 44 93 45 32 46 33 47 34 48 87 49 35 50 92 51
REMARK SMILES IDX 86 52 88 53 36 54 91 55 85 56 84 57 37 59 71 60 50 61 70 62
REMARK SMILES IDX 51 63 54 64 69 65 89 66 52 67 53 68 68 70 90 71 55 72 38 73
REMARK SMILES IDX 39 74 48 75 40 76 41 77 47 78 49 79 42 80 43 81 44 82 45 83
REMARK SMILES IDX 46 84 72 85 73 86 82 87 74 88 75 89 81 90 83 91 76 92 77 93
REMARK SMILES IDX 78 94 79 95 80 96 56 97 57 98 66 99 58 100 59 101 65 102
REMARK SMILES IDX 67 103 60 104 61 105 62 106 63 107 64 108
REMARK H PARENT 88 58 54 69
REMARK Flexibility Score: inf
ROOT
ATOM      1  C   UNL A   1      37.084  23.490  25.307  1.00  0.00     0.188 C 
ENDROOT
BRANCH   1   2
ATOM      2  O   UNL A   1      36.064  23.827  24.382  1.00  0.00    -0.377 OA
BRANCH   2   3
ATOM      3  C   UNL A   1      35.111  22.840  24.036  1.00  0.00     0.188 C 
BRANCH   3   4
ATOM      4  C   UNL A   1      34.271  22.924  22.739  1.00  0.00     0.188 C 
BRANCH   4   5
ATOM      5  O   UNL A   1      34.127  24.190  22.122  1.00  0.00    -0.376 OA
BRANCH   5   6
ATOM      6  C   UNL A   1      32.928  24.510  21.436  1.00  0.00     0.202 C 
BRANCH   6   7
ATOM      7  C   UNL A   1      32.800  25.947  20.922  1.00  0.00     0.261 C 
BRANCH   7   8
ATOM      8  O   UNL A   1      33.329  26.916  21.837  1.00  0.00    -0.463 OA
BRANCH   8   9
ATOM      9  C   UNL A   1      32.812  26.879  23.095  1.00  0.00     0.316 C 
ATOM     10  O   UNL A   1      33.492  26.848  24.110  1.00  0.00    -0.251 OA
BRANCH   9  11
ATOM     11  C   UNL A   1      31.290  26.833  23.027  1.00  0.00     0.157 C 
ATOM     12  C   UNL A   1      30.114  24.258  26.206  1.00  0.00     0.161 A 
ATOM     13  C   UNL A   1      29.201  25.209  25.706  1.00  0.00     0.064 A 
ATOM     14  C   UNL A   1      31.299  23.990  25.512  1.00  0.00     0.161 A 
ATOM     15  C   UNL A   1      29.526  25.975  24.586  1.00  0.00     0.048 A 
ATOM     16  C   UNL A   1      31.586  24.737  24.382  1.00  0.00     0.056 A 
ATOM     17  C   UNL A   1      30.779  25.814  24.006  1.00  0.00    -0.015 A 
ATOM     18  C   UNL A   1      28.568  26.964  24.010  1.00  0.00     0.254 C 
ATOM     19  N   UNL A   1      29.118  27.973  23.213  1.00  0.00    -0.333 N 
ATOM     20  O   UNL A   1      27.370  26.866  24.247  1.00  0.00    -0.269 OA
ATOM     21  C   UNL A   1      30.580  28.216  23.227  1.00  0.00     0.134 C 
ATOM     22  C   UNL A   1      28.235  28.936  22.573  1.00  0.00     0.147 C 
BRANCH  12  23
ATOM     23  O   UNL A   1      29.906  23.666  27.420  1.00  0.00    -0.493 OA
ATOM     24  C   UNL A   1      28.995  22.577  27.370  1.00  0.00     0.278 C 
ENDBRANCH  12  23
BRANCH  14  25
ATOM     25  O   UNL A   1      32.296  23.097  25.771  1.00  0.00    -0.493 OA
ATOM     26  C   UNL A   1      32.047  21.718  25.595  1.00  0.00     0.278 C 
ENDBRANCH  14  25
BRANCH  21  27
ATOM     27  C   UNL A   1      31.004  29.102  24.418  1.00  0.00    -0.023 A 
ATOM     28  C   UNL A   1      30.596  30.447  24.509  1.00  0.00     0.006 A 
ATOM     29  C   UNL A   1      31.789  28.622  25.480  1.00  0.00     0.026 A 
ATOM     30  C   UNL A   1      31.030  31.298  25.529  1.00  0.00     0.002 A 
ATOM     31  C   UNL A   1      32.208  29.467  26.516  1.00  0.00     0.041 A 
ATOM     32  C   UNL A   1      31.852  30.809  26.530  1.00  0.00     0.020 A 
ATOM     33  Cl  UNL A   1      33.182  28.836  27.787  1.00  0.00    -0.084 Cl
ENDBRANCH  21  27
ENDBRANCH   9  11
ENDBRANCH   8   9
ENDBRANCH   7   8
ENDBRANCH   6   7
ENDBRANCH   5   6
ENDBRANCH   4   5
ENDBRANCH   3   4
ENDBRANCH   2   3
ENDBRANCH   1   2
BRANCH   1  34
ATOM     34  C   UNL A   1      37.176  22.013  25.754  1.00  0.00     0.188 C 
BRANCH  34  35
ATOM     35  O   UNL A   1      38.302  21.320  25.234  1.00  0.00    -0.376 OA
BRANCH  35  36
ATOM     36  C   UNL A   1      39.343  20.949  26.117  1.00  0.00     0.202 C 
BRANCH  36  37
ATOM     37  C   UNL A   1      39.973  19.555  25.982  1.00  0.00     0.261 C 
BRANCH  37  38
ATOM     38  O   UNL A   1      41.247  19.357  26.604  1.00  0.00    -0.460 OA
BRANCH  38  39
ATOM     39  C   UNL A   1      42.346  19.684  25.893  1.00  0.00     0.338 C 
ATOM     40  O   UNL A   1      42.863  19.032  25.001  1.00  0.00    -0.246 OA
BRANCH  39  41
ATOM     41  C   UNL A   1      42.678  21.086  26.228  1.00  0.00     0.060 A 
ATOM     42  C   UNL A   1      42.755  22.037  25.198  1.00  0.00     0.016 A 
ATOM     43  C   UNL A   1      42.842  21.471  27.560  1.00  0.00     0.016 A 
ATOM     44  C   UNL A   1      43.008  23.374  25.499  1.00  0.00     0.010 A 
ATOM     45  C   UNL A   1      43.144  22.800  27.857  1.00  0.00     0.010 A 
ATOM     46  C   UNL A   1      43.258  23.748  26.824  1.00  0.00    -0.014 A 
BRANCH  46  47
ATOM     47  C   UNL A   1      43.896  25.056  27.097  1.00  0.00     0.031 A 
ATOM     48  C   UNL A   1      43.017  26.150  27.637  1.00  0.00     0.074 A 
ATOM     49  C   UNL A   1      45.208  25.263  26.891  1.00  0.00     0.049 A 
ATOM     50  N   UNL A   1      43.309  27.395  27.901  1.00  0.00    -0.248 NA
ATOM     51  C   UNL A   1      41.614  25.789  27.910  1.00  0.00     0.031 C 
ATOM     52  C   UNL A   1      46.160  24.263  26.412  1.00  0.00     0.029 A 
ATOM     53  N   UNL A   1      45.962  26.398  27.050  1.00  0.00    -0.354 N 
ATOM     54  C   UNL A   1      42.128  27.967  28.357  1.00  0.00     0.074 A 
ATOM     55  C   UNL A   1      41.109  26.943  28.314  1.00  0.00     0.031 C 
ATOM     56  C   UNL A   1      47.370  24.838  26.292  1.00  0.00     0.029 A 
ATOM     57  C   UNL A   1      47.269  26.252  26.653  1.00  0.00     0.049 A 
ATOM     58  H   UNL A   1      45.599  27.239  27.413  1.00  0.00     0.167 HD
ATOM     59  C   UNL A   1      41.914  29.234  28.778  1.00  0.00     0.037 A 
ATOM     60  C   UNL A   1      48.258  27.166  26.565  1.00  0.00     0.037 A 
ATOM     61  C   UNL A   1      42.936  30.246  28.815  1.00  0.00     0.049 A 
ATOM     62  C   UNL A   1      47.979  28.590  26.982  1.00  0.00     0.074 A 
ATOM     63  C   UNL A   1      42.831  31.554  29.249  1.00  0.00     0.029 A 
ATOM     64  N   UNL A   1      44.244  30.065  28.394  1.00  0.00    -0.354 N 
ATOM     65  N   UNL A   1      46.867  29.114  27.445  1.00  0.00    -0.248 NA
ATOM     66  C   UNL A   1      49.088  29.547  26.870  1.00  0.00     0.031 C 
ATOM     67  C   UNL A   1      44.060  32.183  29.031  1.00  0.00     0.029 A 
ATOM     68  C   UNL A   1      44.950  31.247  28.527  1.00  0.00     0.049 A 
ATOM     69  H   UNL A   1      44.616  29.221  28.050  1.00  0.00     0.167 HD
ATOM     70  C   UNL A   1      47.154  30.450  27.707  1.00  0.00     0.074 A 
ATOM     71  C   UNL A   1      48.546  30.652  27.365  1.00  0.00     0.031 C 
ATOM     72  C   UNL A   1      46.342  31.424  28.191  1.00  0.00     0.037 A 
BRANCH  59  73
ATOM     73  C   UNL A   1      40.520  29.609  29.194  1.00  0.00     0.058 A 
ATOM     74  C   UNL A   1      40.173  29.806  30.540  1.00  0.00     0.135 A 
ATOM     75  C   UNL A   1      39.527  29.818  28.224  1.00  0.00     0.135 A 
ATOM     76  F   UNL A   1      41.077  29.594  31.510  1.00  0.00    -0.206 F 
ATOM     77  C   UNL A   1      38.887  30.187  30.910  1.00  0.00     0.059 A 
ATOM     78  C   UNL A   1      38.243  30.228  28.568  1.00  0.00     0.059 A 
ATOM     79  F   UNL A   1      39.802  29.631  26.924  1.00  0.00    -0.206 F 
ATOM     80  C   UNL A   1      37.931  30.402  29.915  1.00  0.00     0.060 A 
BRANCH  80  81
ATOM     81  S   UNL A   1      36.278  30.930  30.411  1.00  0.00     0.124 S 
ATOM     82  O   UNL A   1      35.566  30.897  29.138  1.00  0.00    -0.237 OA
ATOM     83  O   UNL A   1      35.900  29.902  31.376  1.00  0.00    -0.237 OA
ATOM     84  O   UNL A   1      36.499  32.260  30.971  1.00  0.00    -0.744 OA
ENDBRANCH  80  81
ENDBRANCH  59  73
BRANCH  60  85
ATOM     85  C   UNL A   1      49.594  26.777  26.035  1.00  0.00     0.058 A 
ATOM     86  C   UNL A   1      50.574  26.215  26.867  1.00  0.00     0.135 A 
ATOM     87  C   UNL A   1      49.924  26.981  24.686  1.00  0.00     0.135 A 
ATOM     88  F   UNL A   1      50.314  26.010  28.167  1.00  0.00    -0.206 F 
ATOM     89  C   UNL A   1      51.840  25.890  26.387  1.00  0.00     0.059 A 
ATOM     90  C   UNL A   1      51.172  26.637  24.176  1.00  0.00     0.059 A 
ATOM     91  F   UNL A   1      49.022  27.508  23.843  1.00  0.00    -0.206 F 
ATOM     92  C   UNL A   1      52.129  26.103  25.038  1.00  0.00     0.060 A 
BRANCH  92  93
ATOM     93  S   UNL A   1      53.761  25.644  24.418  1.00  0.00     0.124 S 
ATOM     94  O   UNL A   1      53.761  24.201  24.628  1.00  0.00    -0.237 OA
ATOM     95  O   UNL A   1      53.694  26.087  23.029  1.00  0.00    -0.237 OA
ATOM     96  O   UNL A   1      54.670  26.406  25.268  1.00  0.00    -0.744 OA
ENDBRANCH  92  93
ENDBRANCH  60  85
BRANCH  72  97
ATOM     97  C   UNL A   1      46.943  32.785  28.427  1.00  0.00     0.058 A 
ATOM     98  C   UNL A   1      47.564  33.123  29.638  1.00  0.00     0.135 A 
ATOM     99  C   UNL A   1      46.953  33.741  27.396  1.00  0.00     0.135 A 
ATOM    100  F   UNL A   1      47.581  32.248  30.657  1.00  0.00    -0.206 F 
ATOM    101  C   UNL A   1      48.151  34.370  29.831  1.00  0.00     0.059 A 
ATOM    102  C   UNL A   1      47.563  34.980  27.555  1.00  0.00     0.059 A 
ATOM    103  F   UNL A   1      46.386  33.464  26.211  1.00  0.00    -0.206 F 
ATOM    104  C   UNL A   1      48.148  35.291  28.781  1.00  0.00     0.060 A 
BRANCH 104 105
ATOM    105  S   UNL A   1      48.942  36.893  29.033  1.00  0.00     0.124 S 
ATOM    106  O   UNL A   1      50.213  36.702  28.343  1.00  0.00    -0.237 OA
ATOM    107  O   UNL A   1      48.004  37.810  28.394  1.00  0.00    -0.237 OA
ATOM    108  O   UNL A   1      49.028  37.005  30.486  1.00  0.00    -0.744 OA
ENDBRANCH 104 105
ENDBRANCH  72  97
ENDBRANCH  46  47
ENDBRANCH  39  41
ENDBRANCH  38  39
ENDBRANCH  37  38
ENDBRANCH  36  37
ENDBRANCH  35  36
ENDBRANCH  34  35
ENDBRANCH   1  34
TORSDOF 26
ENDMDL
