MODEL 1
REMARK VINA RESULT:      -8.4      0.000      0.000
REMARK SMILES CCC1(CC)CCN(C(=O)NC(CC)(CC)C(=O)OCCOCCOCCOCCOC(=O)c2ccc(-c3c4nc(c(-c5c(F)cc(S(=O)(=O)[O-])cc5F)c5ccc([nH]5)c(-c5c(F)cc(S(=O)(=O)[O-])cc5F)c5nc(c(-c6c(F)cc(S(=O)(=O)[O-])cc6F)c6ccc3[nH]6)C=C5)C=C4)cc2)CC1
REMARK SMILES IDX 26 1 25 2 24 3 23 4 22 5 21 6 20 7 19 8 17 9 18 10 12 11
REMARK SMILES IDX 11 12 3 13 6 14 101 15 7 16 100 17 8 18 9 19 10 20 2 22 1 23
REMARK SMILES IDX 4 24 5 25 13 26 14 27 15 28 16 29 27 30 28 31 29 32 30 33
REMARK SMILES IDX 31 34 32 35 33 36 34 37 35 38 99 39 36 40 98 41 37 42 38 43
REMARK SMILES IDX 39 44 92 45 40 46 97 47 91 48 93 49 41 50 96 51 90 52 89 53
REMARK SMILES IDX 42 55 76 56 55 57 75 58 56 59 59 60 74 61 94 62 57 63 58 64
REMARK SMILES IDX 73 66 95 67 60 68 43 69 44 70 53 71 45 72 46 73 52 74 54 75
REMARK SMILES IDX 47 76 48 77 49 78 50 79 51 80 77 81 78 82 87 83 79 84 80 85
REMARK SMILES IDX 86 86 88 87 81 88 82 89 83 90 84 91 85 92 61 93 62 94 71 95
REMARK SMILES IDX 63 96 64 97 70 98 72 99 65 100 66 101 67 102 68 103 69 104
REMARK H PARENT 11 21 93 54 59 65
REMARK Flexibility Score: inf
ROOT
ATOM      1  C   UNL A   1      35.754  33.799  29.351  1.00  0.00     0.188 C 
ENDROOT
BRANCH   1   2
ATOM      2  O   UNL A   1      36.834  33.153  28.697  1.00  0.00    -0.377 OA
BRANCH   2   3
ATOM      3  C   UNL A   1      36.365  32.249  27.727  1.00  0.00     0.188 C 
BRANCH   3   4
ATOM      4  C   UNL A   1      36.554  30.819  28.184  1.00  0.00     0.188 C 
BRANCH   4   5
ATOM      5  O   UNL A   1      35.430  30.069  28.610  1.00  0.00    -0.376 OA
BRANCH   5   6
ATOM      6  C   UNL A   1      34.408  29.897  27.608  1.00  0.00     0.202 C 
BRANCH   6   7
ATOM      7  C   UNL A   1      34.232  28.536  26.886  1.00  0.00     0.261 C 
BRANCH   7   8
ATOM      8  O   UNL A   1      33.493  28.589  25.642  1.00  0.00    -0.461 OA
BRANCH   8   9
ATOM      9  C   UNL A   1      32.513  27.673  25.406  1.00  0.00     0.331 C 
ATOM     10  O   UNL A   1      32.109  26.882  26.251  1.00  0.00    -0.249 OA
BRANCH   9  11
ATOM     11  C   UNL A   1      31.955  27.786  23.935  1.00  0.00     0.139 C 
BRANCH  11  12
ATOM     12  N   UNL A   1      31.557  26.429  23.331  1.00  0.00    -0.322 N 
ATOM     13  C   UNL A   1      34.676  22.358  24.934  1.00  0.00    -0.027 C 
ATOM     14  C   UNL A   1      33.439  21.883  24.113  1.00  0.00     0.028 C 
ATOM     15  C   UNL A   1      34.472  23.867  25.190  1.00  0.00     0.028 C 
ATOM     16  C   UNL A   1      32.809  22.895  23.101  1.00  0.00     0.122 C 
ATOM     17  C   UNL A   1      34.107  24.708  23.972  1.00  0.00     0.122 C 
ATOM     18  N   UNL A   1      32.797  24.319  23.519  1.00  0.00    -0.325 N 
ATOM     19  C   UNL A   1      31.699  25.091  23.253  1.00  0.00     0.318 C 
ATOM     20  O   UNL A   1      30.675  24.553  22.801  1.00  0.00    -0.249 OA
ATOM     21  H   UNL A   1      30.848  26.643  22.681  1.00  0.00     0.166 HD
BRANCH  13  22
ATOM     22  C   UNL A   1      36.032  22.241  24.176  1.00  0.00     0.004 C 
ATOM     23  C   UNL A   1      37.277  21.809  24.930  1.00  0.00     0.004 C 
ENDBRANCH  13  22
BRANCH  13  24
ATOM     24  C   UNL A   1      34.678  21.704  26.366  1.00  0.00     0.004 C 
ATOM     25  C   UNL A   1      34.508  22.554  27.617  1.00  0.00     0.004 C 
ENDBRANCH  13  24
ENDBRANCH  11  12
BRANCH  11  26
ATOM     26  C   UNL A   1      33.246  28.291  23.184  1.00  0.00     0.037 C 
ATOM     27  C   UNL A   1      33.634  27.587  21.886  1.00  0.00     0.007 C 
ENDBRANCH  11  26
BRANCH  11  28
ATOM     28  C   UNL A   1      30.876  28.921  23.705  1.00  0.00     0.037 C 
ATOM     29  C   UNL A   1      30.096  28.959  22.392  1.00  0.00     0.007 C 
ENDBRANCH  11  28
ENDBRANCH   9  11
ENDBRANCH   8   9
ENDBRANCH   7   8
ENDBRANCH   6   7
ENDBRANCH   5   6
ENDBRANCH   4   5
ENDBRANCH   3   4
ENDBRANCH   2   3
ENDBRANCH   1   2
BRANCH   1  30
ATOM     30  C   UNL A   1      34.795  34.549  28.412  1.00  0.00     0.188 C 
BRANCH  30  31
ATOM     31  O   UNL A   1      33.482  34.913  28.850  1.00  0.00    -0.376 OA
BRANCH  31  32
ATOM     32  C   UNL A   1      33.176  36.266  29.150  1.00  0.00     0.202 C 
BRANCH  32  33
ATOM     33  C   UNL A   1      32.512  36.475  30.521  1.00  0.00     0.261 C 
BRANCH  33  34
ATOM     34  O   UNL A   1      33.401  36.365  31.637  1.00  0.00    -0.460 OA
BRANCH  34  35
ATOM     35  C   UNL A   1      33.171  35.316  32.481  1.00  0.00     0.338 C 
ATOM     36  O   UNL A   1      32.104  34.888  32.849  1.00  0.00    -0.246 OA
BRANCH  35  37
ATOM     37  C   UNL A   1      34.478  34.641  32.719  1.00  0.00     0.060 A 
ATOM     38  C   UNL A   1      34.474  33.283  33.079  1.00  0.00     0.016 A 
ATOM     39  C   UNL A   1      35.685  35.287  32.423  1.00  0.00     0.016 A 
ATOM     40  C   UNL A   1      35.677  32.580  33.180  1.00  0.00     0.010 A 
ATOM     41  C   UNL A   1      36.890  34.595  32.556  1.00  0.00     0.010 A 
ATOM     42  C   UNL A   1      36.890  33.255  32.981  1.00  0.00    -0.014 A 
BRANCH  42  43
ATOM     43  C   UNL A   1      38.130  32.692  33.565  1.00  0.00     0.031 A 
ATOM     44  C   UNL A   1      38.794  31.593  32.779  1.00  0.00     0.074 A 
ATOM     45  C   UNL A   1      38.650  33.120  34.728  1.00  0.00     0.049 A 
ATOM     46  N   UNL A   1      39.839  30.870  33.074  1.00  0.00    -0.248 NA
ATOM     47  C   UNL A   1      38.181  31.263  31.478  1.00  0.00     0.031 C 
ATOM     48  C   UNL A   1      38.118  34.203  35.553  1.00  0.00     0.029 A 
ATOM     49  N   UNL A   1      39.747  32.675  35.423  1.00  0.00    -0.354 N 
ATOM     50  C   UNL A   1      40.002  29.998  32.002  1.00  0.00     0.074 A 
ATOM     51  C   UNL A   1      38.934  30.257  31.067  1.00  0.00     0.031 C 
ATOM     52  C   UNL A   1      38.883  34.326  36.654  1.00  0.00     0.029 A 
ATOM     53  C   UNL A   1      39.937  33.311  36.626  1.00  0.00     0.049 A 
ATOM     54  H   UNL A   1      40.344  31.966  35.089  1.00  0.00     0.167 HD
ATOM     55  C   UNL A   1      40.963  29.069  31.809  1.00  0.00     0.037 A 
ATOM     56  C   UNL A   1      40.842  33.076  37.598  1.00  0.00     0.037 A 
ATOM     57  C   UNL A   1      42.012  28.806  32.753  1.00  0.00     0.049 A 
ATOM     58  C   UNL A   1      41.863  31.979  37.398  1.00  0.00     0.074 A 
ATOM     59  C   UNL A   1      43.042  27.889  32.661  1.00  0.00     0.029 A 
ATOM     60  N   UNL A   1      42.156  29.455  33.971  1.00  0.00    -0.354 N 
ATOM     61  N   UNL A   1      42.023  31.177  36.372  1.00  0.00    -0.248 NA
ATOM     62  C   UNL A   1      42.825  31.758  38.488  1.00  0.00     0.031 C 
ATOM     63  C   UNL A   1      43.777  27.946  33.849  1.00  0.00     0.029 A 
ATOM     64  C   UNL A   1      43.244  28.942  34.653  1.00  0.00     0.049 A 
ATOM     65  H   UNL A   1      41.570  30.175  34.300  1.00  0.00     0.167 HD
ATOM     66  C   UNL A   1      43.123  30.378  36.678  1.00  0.00     0.074 A 
ATOM     67  C   UNL A   1      43.592  30.801  37.981  1.00  0.00     0.031 C 
ATOM     68  C   UNL A   1      43.696  29.387  35.947  1.00  0.00     0.037 A 
BRANCH  55  69
ATOM     69  C   UNL A   1      40.887  28.250  30.552  1.00  0.00     0.058 A 
ATOM     70  C   UNL A   1      39.839  27.344  30.318  1.00  0.00     0.135 A 
ATOM     71  C   UNL A   1      41.881  28.369  29.567  1.00  0.00     0.135 A 
ATOM     72  F   UNL A   1      38.879  27.166  31.240  1.00  0.00    -0.206 F 
ATOM     73  C   UNL A   1      39.793  26.567  29.165  1.00  0.00     0.059 A 
ATOM     74  C   UNL A   1      41.837  27.625  28.393  1.00  0.00     0.059 A 
ATOM     75  F   UNL A   1      42.912  29.208  29.746  1.00  0.00    -0.206 F 
ATOM     76  C   UNL A   1      40.796  26.717  28.207  1.00  0.00     0.060 A 
BRANCH  76  77
ATOM     77  S   UNL A   1      40.717  25.710  26.712  1.00  0.00     0.124 S 
ATOM     78  O   UNL A   1      39.395  25.103  26.838  1.00  0.00    -0.237 OA
ATOM     79  O   UNL A   1      40.857  26.709  25.657  1.00  0.00    -0.237 OA
ATOM     80  O   UNL A   1      41.844  24.795  26.857  1.00  0.00    -0.744 OA
ENDBRANCH  76  77
ENDBRANCH  55  69
BRANCH  56  81
ATOM     81  C   UNL A   1      40.824  33.880  38.852  1.00  0.00     0.058 A 
ATOM     82  C   UNL A   1      40.047  33.493  39.955  1.00  0.00     0.135 A 
ATOM     83  C   UNL A   1      41.578  35.059  38.970  1.00  0.00     0.135 A 
ATOM     84  F   UNL A   1      39.296  32.383  39.889  1.00  0.00    -0.206 F 
ATOM     85  C   UNL A   1      40.013  34.246  41.125  1.00  0.00     0.059 A 
ATOM     86  C   UNL A   1      41.580  35.815  40.139  1.00  0.00     0.059 A 
ATOM     87  F   UNL A   1      42.341  35.474  37.947  1.00  0.00    -0.206 F 
ATOM     88  C   UNL A   1      40.788  35.403  41.209  1.00  0.00     0.060 A 
BRANCH  88  89
ATOM     89  S   UNL A   1      40.786  36.338  42.756  1.00  0.00     0.124 S 
ATOM     90  O   UNL A   1      39.640  37.219  42.567  1.00  0.00    -0.237 OA
ATOM     91  O   UNL A   1      40.624  35.281  43.749  1.00  0.00    -0.237 OA
ATOM     92  O   UNL A   1      42.092  36.991  42.755  1.00  0.00    -0.744 OA
ENDBRANCH  88  89
ENDBRANCH  56  81
BRANCH  68  93
ATOM     93  C   UNL A   1      44.920  28.720  36.515  1.00  0.00     0.058 A 
ATOM     94  C   UNL A   1      44.840  27.532  37.256  1.00  0.00     0.135 A 
ATOM     95  C   UNL A   1      46.197  29.243  36.247  1.00  0.00     0.135 A 
ATOM     96  F   UNL A   1      43.645  26.992  37.541  1.00  0.00    -0.206 F 
ATOM     97  C   UNL A   1      45.982  26.898  37.734  1.00  0.00     0.059 A 
ATOM     98  C   UNL A   1      47.353  28.608  36.687  1.00  0.00     0.059 A 
ATOM     99  F   UNL A   1      46.329  30.369  35.529  1.00  0.00    -0.206 F 
ATOM    100  C   UNL A   1      47.235  27.443  37.442  1.00  0.00     0.060 A 
BRANCH 100 101
ATOM    101  S   UNL A   1      48.709  26.590  38.038  1.00  0.00     0.124 S 
ATOM    102  O   UNL A   1      49.568  27.711  38.407  1.00  0.00    -0.237 OA
ATOM    103  O   UNL A   1      48.186  25.801  39.149  1.00  0.00    -0.237 OA
ATOM    104  O   UNL A   1      49.149  25.818  36.880  1.00  0.00    -0.744 OA
ENDBRANCH 100 101
ENDBRANCH  68  93
ENDBRANCH  42  43
ENDBRANCH  35  37
ENDBRANCH  34  35
ENDBRANCH  33  34
ENDBRANCH  32  33
ENDBRANCH  31  32
ENDBRANCH  30  31
ENDBRANCH   1  30
TORSDOF 28
ENDMDL
MODEL 2
REMARK VINA RESULT:      -8.1      5.844     10.044
REMARK SMILES CCC1(CC)CCN(C(=O)NC(CC)(CC)C(=O)OCCOCCOCCOCCOC(=O)c2ccc(-c3c4nc(c(-c5c(F)cc(S(=O)(=O)[O-])cc5F)c5ccc([nH]5)c(-c5c(F)cc(S(=O)(=O)[O-])cc5F)c5nc(c(-c6c(F)cc(S(=O)(=O)[O-])cc6F)c6ccc3[nH]6)C=C5)C=C4)cc2)CC1
REMARK SMILES IDX 26 1 25 2 24 3 23 4 22 5 21 6 20 7 19 8 17 9 18 10 12 11
REMARK SMILES IDX 11 12 3 13 6 14 101 15 7 16 100 17 8 18 9 19 10 20 2 22 1 23
REMARK SMILES IDX 4 24 5 25 13 26 14 27 15 28 16 29 27 30 28 31 29 32 30 33
REMARK SMILES IDX 31 34 32 35 33 36 34 37 35 38 99 39 36 40 98 41 37 42 38 43
REMARK SMILES IDX 39 44 92 45 40 46 97 47 91 48 93 49 41 50 96 51 90 52 89 53
REMARK SMILES IDX 42 55 76 56 55 57 75 58 56 59 59 60 74 61 94 62 57 63 58 64
REMARK SMILES IDX 73 66 95 67 60 68 43 69 44 70 53 71 45 72 46 73 52 74 54 75
REMARK SMILES IDX 47 76 48 77 49 78 50 79 51 80 77 81 78 82 87 83 79 84 80 85
REMARK SMILES IDX 86 86 88 87 81 88 82 89 83 90 84 91 85 92 61 93 62 94 71 95
REMARK SMILES IDX 63 96 64 97 70 98 72 99 65 100 66 101 67 102 68 103 69 104
REMARK H PARENT 11 21 93 54 59 65
REMARK Flexibility Score: inf
ROOT
ATOM      1  C   UNL A   1      34.247  34.304  29.729  1.00  0.00     0.188 C 
ENDROOT
BRANCH   1   2
ATOM      2  O   UNL A   1      33.781  34.823  28.493  1.00  0.00    -0.377 OA
BRANCH   2   3
ATOM      3  C   UNL A   1      32.745  34.028  27.973  1.00  0.00     0.188 C 
BRANCH   3   4
ATOM      4  C   UNL A   1      33.303  32.851  27.201  1.00  0.00     0.188 C 
BRANCH   4   5
ATOM      5  O   UNL A   1      33.365  31.578  27.819  1.00  0.00    -0.376 OA
BRANCH   5   6
ATOM      6  C   UNL A   1      33.128  30.467  26.932  1.00  0.00     0.202 C 
BRANCH   6   7
ATOM      7  C   UNL A   1      32.430  29.181  27.448  1.00  0.00     0.261 C 
BRANCH   7   8
ATOM      8  O   UNL A   1      31.790  28.376  26.429  1.00  0.00    -0.461 OA
BRANCH   8   9
ATOM      9  C   UNL A   1      32.556  27.609  25.604  1.00  0.00     0.331 C 
ATOM     10  O   UNL A   1      33.740  27.370  25.808  1.00  0.00    -0.249 OA
BRANCH   9  11
ATOM     11  C   UNL A   1      31.720  27.054  24.386  1.00  0.00     0.139 C 
BRANCH  11  12
ATOM     12  N   UNL A   1      32.577  26.302  23.354  1.00  0.00    -0.322 N 
ATOM     13  C   UNL A   1      34.535  21.639  25.167  1.00  0.00    -0.027 C 
ATOM     14  C   UNL A   1      34.791  21.848  23.644  1.00  0.00     0.028 C 
ATOM     15  C   UNL A   1      33.600  22.785  25.611  1.00  0.00     0.028 C 
ATOM     16  C   UNL A   1      34.847  23.318  23.115  1.00  0.00     0.122 C 
ATOM     17  C   UNL A   1      34.012  24.188  25.183  1.00  0.00     0.122 C 
ATOM     18  N   UNL A   1      33.913  24.281  23.750  1.00  0.00    -0.325 N 
ATOM     19  C   UNL A   1      33.274  25.211  22.977  1.00  0.00     0.318 C 
ATOM     20  O   UNL A   1      33.370  25.142  21.740  1.00  0.00    -0.249 OA
ATOM     21  H   UNL A   1      32.656  26.923  22.594  1.00  0.00     0.166 HD
BRANCH  13  22
ATOM     22  C   UNL A   1      35.809  21.770  26.055  1.00  0.00     0.004 C 
ATOM     23  C   UNL A   1      36.752  22.941  25.844  1.00  0.00     0.004 C 
ENDBRANCH  13  22
BRANCH  13  24
ATOM     24  C   UNL A   1      33.708  20.324  25.418  1.00  0.00     0.004 C 
ATOM     25  C   UNL A   1      32.417  20.053  24.658  1.00  0.00     0.004 C 
ENDBRANCH  13  24
ENDBRANCH  11  12
BRANCH  11  26
ATOM     26  C   UNL A   1      31.248  28.408  23.731  1.00  0.00     0.037 C 
ATOM     27  C   UNL A   1      32.212  29.108  22.774  1.00  0.00     0.007 C 
ENDBRANCH  11  26
BRANCH  11  28
ATOM     28  C   UNL A   1      30.385  26.296  24.770  1.00  0.00     0.037 C 
ATOM     29  C   UNL A   1      30.463  24.883  25.342  1.00  0.00     0.007 C 
ENDBRANCH  11  28
ENDBRANCH   9  11
ENDBRANCH   8   9
ENDBRANCH   7   8
ENDBRANCH   6   7
ENDBRANCH   5   6
ENDBRANCH   4   5
ENDBRANCH   3   4
ENDBRANCH   2   3
ENDBRANCH   1   2
BRANCH   1  30
ATOM     30  C   UNL A   1      33.863  35.142  30.959  1.00  0.00     0.188 C 
BRANCH  30  31
ATOM     31  O   UNL A   1      33.640  34.516  32.226  1.00  0.00    -0.376 OA
BRANCH  31  32
ATOM     32  C   UNL A   1      34.737  34.173  33.060  1.00  0.00     0.202 C 
BRANCH  32  33
ATOM     33  C   UNL A   1      35.092  32.677  33.054  1.00  0.00     0.261 C 
BRANCH  33  34
ATOM     34  O   UNL A   1      36.351  32.365  32.448  1.00  0.00    -0.460 OA
BRANCH  34  35
ATOM     35  C   UNL A   1      36.302  31.529  31.369  1.00  0.00     0.338 C 
ATOM     36  O   UNL A   1      35.328  31.198  30.737  1.00  0.00    -0.246 OA
BRANCH  35  37
ATOM     37  C   UNL A   1      37.708  31.244  30.964  1.00  0.00     0.060 A 
ATOM     38  C   UNL A   1      38.037  31.312  29.599  1.00  0.00     0.016 A 
ATOM     39  C   UNL A   1      38.715  31.087  31.923  1.00  0.00     0.016 A 
ATOM     40  C   UNL A   1      39.366  31.185  29.191  1.00  0.00     0.010 A 
ATOM     41  C   UNL A   1      40.040  30.925  31.514  1.00  0.00     0.010 A 
ATOM     42  C   UNL A   1      40.360  30.926  30.145  1.00  0.00    -0.014 A 
BRANCH  42  43
ATOM     43  C   UNL A   1      41.630  30.299  29.710  1.00  0.00     0.031 A 
ATOM     44  C   UNL A   1      42.839  31.196  29.688  1.00  0.00     0.074 A 
ATOM     45  C   UNL A   1      41.721  29.008  29.349  1.00  0.00     0.049 A 
ATOM     46  N   UNL A   1      44.056  30.947  29.288  1.00  0.00    -0.248 NA
ATOM     47  C   UNL A   1      42.638  32.571  30.184  1.00  0.00     0.031 C 
ATOM     48  C   UNL A   1      40.629  28.037  29.370  1.00  0.00     0.029 A 
ATOM     49  N   UNL A   1      42.796  28.295  28.878  1.00  0.00    -0.354 N 
ATOM     50  C   UNL A   1      44.759  32.132  29.477  1.00  0.00     0.074 A 
ATOM     51  C   UNL A   1      43.830  33.108  29.994  1.00  0.00     0.031 C 
ATOM     52  C   UNL A   1      41.088  26.856  28.913  1.00  0.00     0.029 A 
ATOM     53  C   UNL A   1      42.496  26.998  28.539  1.00  0.00     0.049 A 
ATOM     54  H   UNL A   1      43.699  28.678  28.793  1.00  0.00     0.167 HD
ATOM     55  C   UNL A   1      46.066  32.384  29.246  1.00  0.00     0.037 A 
ATOM     56  C   UNL A   1      43.268  26.050  27.967  1.00  0.00     0.037 A 
ATOM     57  C   UNL A   1      46.979  31.412  28.715  1.00  0.00     0.049 A 
ATOM     58  C   UNL A   1      44.708  26.374  27.645  1.00  0.00     0.074 A 
ATOM     59  C   UNL A   1      48.326  31.555  28.443  1.00  0.00     0.029 A 
ATOM     60  N   UNL A   1      46.630  30.116  28.362  1.00  0.00    -0.354 N 
ATOM     61  N   UNL A   1      45.369  27.490  27.849  1.00  0.00    -0.248 NA
ATOM     62  C   UNL A   1      45.506  25.311  27.019  1.00  0.00     0.031 C 
ATOM     63  C   UNL A   1      48.780  30.361  27.874  1.00  0.00     0.029 A 
ATOM     64  C   UNL A   1      47.731  29.454  27.850  1.00  0.00     0.049 A 
ATOM     65  H   UNL A   1      45.732  29.725  28.461  1.00  0.00     0.167 HD
ATOM     66  C   UNL A   1      46.668  27.253  27.405  1.00  0.00     0.074 A 
ATOM     67  C   UNL A   1      46.700  25.885  26.930  1.00  0.00     0.031 C 
ATOM     68  C   UNL A   1      47.739  28.087  27.393  1.00  0.00     0.037 A 
BRANCH  55  69
ATOM     69  C   UNL A   1      46.561  33.774  29.530  1.00  0.00     0.058 A 
ATOM     70  C   UNL A   1      46.470  34.803  28.578  1.00  0.00     0.135 A 
ATOM     71  C   UNL A   1      47.138  34.081  30.772  1.00  0.00     0.135 A 
ATOM     72  F   UNL A   1      45.956  34.557  27.362  1.00  0.00    -0.206 F 
ATOM     73  C   UNL A   1      46.959  36.079  28.838  1.00  0.00     0.059 A 
ATOM     74  C   UNL A   1      47.604  35.358  31.065  1.00  0.00     0.059 A 
ATOM     75  F   UNL A   1      47.263  33.131  31.713  1.00  0.00    -0.206 F 
ATOM     76  C   UNL A   1      47.522  36.347  30.087  1.00  0.00     0.060 A 
BRANCH  76  77
ATOM     77  S   UNL A   1      48.141  38.010  30.413  1.00  0.00     0.124 S 
ATOM     78  O   UNL A   1      48.590  38.421  29.086  1.00  0.00    -0.237 OA
ATOM     79  O   UNL A   1      46.953  38.690  30.919  1.00  0.00    -0.237 OA
ATOM     80  O   UNL A   1      49.200  37.793  31.393  1.00  0.00    -0.744 OA
ENDBRANCH  76  77
ENDBRANCH  55  69
BRANCH  56  81
ATOM     81  C   UNL A   1      42.699  24.710  27.649  1.00  0.00     0.058 A 
ATOM     82  C   UNL A   1      42.121  24.442  26.399  1.00  0.00     0.135 A 
ATOM     83  C   UNL A   1      42.715  23.672  28.594  1.00  0.00     0.135 A 
ATOM     84  F   UNL A   1      42.065  25.404  25.466  1.00  0.00    -0.206 F 
ATOM     85  C   UNL A   1      41.574  23.198  26.099  1.00  0.00     0.059 A 
ATOM     86  C   UNL A   1      42.198  22.411  28.309  1.00  0.00     0.059 A 
ATOM     87  F   UNL A   1      43.259  23.872  29.805  1.00  0.00    -0.206 F 
ATOM     88  C   UNL A   1      41.623  22.186  27.059  1.00  0.00     0.060 A 
BRANCH  88  89
ATOM     89  S   UNL A   1      40.969  20.556  26.635  1.00  0.00     0.124 S 
ATOM     90  O   UNL A   1      41.988  20.059  25.717  1.00  0.00    -0.237 OA
ATOM     91  O   UNL A   1      40.911  19.903  27.940  1.00  0.00    -0.237 OA
ATOM     92  O   UNL A   1      39.673  20.859  26.036  1.00  0.00    -0.744 OA
ENDBRANCH  88  89
ENDBRANCH  56  81
BRANCH  68  93
ATOM     93  C   UNL A   1      49.048  27.536  26.894  1.00  0.00     0.058 A 
ATOM     94  C   UNL A   1      50.019  27.026  27.769  1.00  0.00     0.135 A 
ATOM     95  C   UNL A   1      49.298  27.454  25.514  1.00  0.00     0.135 A 
ATOM     96  F   UNL A   1      49.830  27.082  29.096  1.00  0.00    -0.206 F 
ATOM     97  C   UNL A   1      51.204  26.475  27.293  1.00  0.00     0.059 A 
ATOM     98  C   UNL A   1      50.462  26.877  25.016  1.00  0.00     0.059 A 
ATOM     99  F   UNL A   1      48.395  27.914  24.634  1.00  0.00    -0.206 F 
ATOM    100  C   UNL A   1      51.415  26.403  25.914  1.00  0.00     0.060 A 
BRANCH 100 101
ATOM    101  S   UNL A   1      52.942  25.653  25.311  1.00  0.00     0.124 S 
ATOM    102  O   UNL A   1      53.952  26.438  26.014  1.00  0.00    -0.237 OA
ATOM    103  O   UNL A   1      52.801  24.266  25.745  1.00  0.00    -0.237 OA
ATOM    104  O   UNL A   1      52.878  25.862  23.867  1.00  0.00    -0.744 OA
ENDBRANCH 100 101
ENDBRANCH  68  93
ENDBRANCH  42  43
ENDBRANCH  35  37
ENDBRANCH  34  35
ENDBRANCH  33  34
ENDBRANCH  32  33
ENDBRANCH  31  32
ENDBRANCH  30  31
ENDBRANCH   1  30
TORSDOF 28
ENDMDL
MODEL 3
REMARK VINA RESULT:      -7.8      5.055      6.823
REMARK SMILES CCC1(CC)CCN(C(=O)NC(CC)(CC)C(=O)OCCOCCOCCOCCOC(=O)c2ccc(-c3c4nc(c(-c5c(F)cc(S(=O)(=O)[O-])cc5F)c5ccc([nH]5)c(-c5c(F)cc(S(=O)(=O)[O-])cc5F)c5nc(c(-c6c(F)cc(S(=O)(=O)[O-])cc6F)c6ccc3[nH]6)C=C5)C=C4)cc2)CC1
REMARK SMILES IDX 26 1 25 2 24 3 23 4 22 5 21 6 20 7 19 8 17 9 18 10 12 11
REMARK SMILES IDX 11 12 3 13 6 14 101 15 7 16 100 17 8 18 9 19 10 20 2 22 1 23
REMARK SMILES IDX 4 24 5 25 13 26 14 27 15 28 16 29 27 30 28 31 29 32 30 33
REMARK SMILES IDX 31 34 32 35 33 36 34 37 35 38 99 39 36 40 98 41 37 42 38 43
REMARK SMILES IDX 39 44 92 45 40 46 97 47 91 48 93 49 41 50 96 51 90 52 89 53
REMARK SMILES IDX 42 55 76 56 55 57 75 58 56 59 59 60 74 61 94 62 57 63 58 64
REMARK SMILES IDX 73 66 95 67 60 68 43 69 44 70 53 71 45 72 46 73 52 74 54 75
REMARK SMILES IDX 47 76 48 77 49 78 50 79 51 80 77 81 78 82 87 83 79 84 80 85
REMARK SMILES IDX 86 86 88 87 81 88 82 89 83 90 84 91 85 92 61 93 62 94 71 95
REMARK SMILES IDX 63 96 64 97 70 98 72 99 65 100 66 101 67 102 68 103 69 104
REMARK H PARENT 11 21 93 54 59 65
REMARK Flexibility Score: inf
ROOT
ATOM      1  C   UNL A   1      33.488  33.507  28.036  1.00  0.00     0.188 C 
ENDROOT
BRANCH   1   2
ATOM      2  O   UNL A   1      33.371  32.294  27.308  1.00  0.00    -0.377 OA
BRANCH   2   3
ATOM      3  C   UNL A   1      32.023  31.910  27.185  1.00  0.00     0.188 C 
BRANCH   3   4
ATOM      4  C   UNL A   1      31.898  30.617  26.409  1.00  0.00     0.188 C 
BRANCH   4   5
ATOM      5  O   UNL A   1      31.755  29.395  27.110  1.00  0.00    -0.376 OA
BRANCH   5   6
ATOM      6  C   UNL A   1      32.898  28.520  27.032  1.00  0.00     0.202 C 
BRANCH   6   7
ATOM      7  C   UNL A   1      33.660  28.335  25.694  1.00  0.00     0.261 C 
BRANCH   7   8
ATOM      8  O   UNL A   1      32.825  28.064  24.542  1.00  0.00    -0.461 OA
BRANCH   8   9
ATOM      9  C   UNL A   1      32.754  26.796  24.051  1.00  0.00     0.331 C 
ATOM     10  O   UNL A   1      33.686  26.234  23.489  1.00  0.00    -0.249 OA
BRANCH   9  11
ATOM     11  C   UNL A   1      31.342  26.147  24.325  1.00  0.00     0.139 C 
BRANCH  11  12
ATOM     12  N   UNL A   1      31.348  25.156  25.502  1.00  0.00    -0.322 N 
ATOM     13  C   UNL A   1      35.670  21.965  25.609  1.00  0.00    -0.027 C 
ATOM     14  C   UNL A   1      34.786  21.826  26.885  1.00  0.00     0.028 C 
ATOM     15  C   UNL A   1      35.095  23.157  24.811  1.00  0.00     0.028 C 
ATOM     16  C   UNL A   1      33.270  22.182  26.758  1.00  0.00     0.122 C 
ATOM     17  C   UNL A   1      33.588  23.148  24.591  1.00  0.00     0.122 C 
ATOM     18  N   UNL A   1      32.935  23.317  25.862  1.00  0.00    -0.325 N 
ATOM     19  C   UNL A   1      31.964  24.207  26.234  1.00  0.00     0.318 C 
ATOM     20  O   UNL A   1      31.484  24.137  27.378  1.00  0.00    -0.249 OA
ATOM     21  H   UNL A   1      30.469  25.271  25.930  1.00  0.00     0.166 HD
BRANCH  13  22
ATOM     22  C   UNL A   1      35.600  20.743  24.644  1.00  0.00     0.004 C 
ATOM     23  C   UNL A   1      34.663  19.592  24.961  1.00  0.00     0.004 C 
ENDBRANCH  13  22
BRANCH  13  24
ATOM     24  C   UNL A   1      37.133  22.404  25.989  1.00  0.00     0.004 C 
ATOM     25  C   UNL A   1      37.512  23.874  26.083  1.00  0.00     0.004 C 
ENDBRANCH  13  24
ENDBRANCH  11  12
BRANCH  11  26
ATOM     26  C   UNL A   1      31.151  25.321  22.996  1.00  0.00     0.037 C 
ATOM     27  C   UNL A   1      30.554  23.920  23.110  1.00  0.00     0.007 C 
ENDBRANCH  11  26
BRANCH  11  28
ATOM     28  C   UNL A   1      30.125  27.159  24.359  1.00  0.00     0.037 C 
ATOM     29  C   UNL A   1      28.749  26.693  23.888  1.00  0.00     0.007 C 
ENDBRANCH  11  28
ENDBRANCH   9  11
ENDBRANCH   8   9
ENDBRANCH   7   8
ENDBRANCH   6   7
ENDBRANCH   5   6
ENDBRANCH   4   5
ENDBRANCH   3   4
ENDBRANCH   2   3
ENDBRANCH   1   2
BRANCH   1  30
ATOM     30  C   UNL A   1      34.917  34.067  28.116  1.00  0.00     0.188 C 
BRANCH  30  31
ATOM     31  O   UNL A   1      36.047  33.190  28.081  1.00  0.00    -0.376 OA
BRANCH  31  32
ATOM     32  C   UNL A   1      36.577  32.655  29.285  1.00  0.00     0.202 C 
BRANCH  32  33
ATOM     33  C   UNL A   1      35.944  31.323  29.719  1.00  0.00     0.261 C 
BRANCH  33  34
ATOM     34  O   UNL A   1      35.692  31.213  31.124  1.00  0.00    -0.460 OA
BRANCH  34  35
ATOM     35  C   UNL A   1      35.159  32.319  31.722  1.00  0.00     0.338 C 
ATOM     36  O   UNL A   1      34.128  32.881  31.445  1.00  0.00    -0.246 OA
BRANCH  35  37
ATOM     37  C   UNL A   1      35.976  32.605  32.936  1.00  0.00     0.060 A 
ATOM     38  C   UNL A   1      35.671  33.748  33.693  1.00  0.00     0.016 A 
ATOM     39  C   UNL A   1      36.906  31.673  33.412  1.00  0.00     0.016 A 
ATOM     40  C   UNL A   1      36.321  33.980  34.907  1.00  0.00     0.010 A 
ATOM     41  C   UNL A   1      37.581  31.921  34.608  1.00  0.00     0.010 A 
ATOM     42  C   UNL A   1      37.325  33.098  35.333  1.00  0.00    -0.014 A 
BRANCH  42  43
ATOM     43  C   UNL A   1      38.340  33.576  36.299  1.00  0.00     0.031 A 
ATOM     44  C   UNL A   1      39.559  34.235  35.709  1.00  0.00     0.074 A 
ATOM     45  C   UNL A   1      38.204  33.440  37.629  1.00  0.00     0.049 A 
ATOM     46  N   UNL A   1      40.634  34.682  36.299  1.00  0.00    -0.248 NA
ATOM     47  C   UNL A   1      39.561  34.405  34.244  1.00  0.00     0.031 C 
ATOM     48  C   UNL A   1      37.052  32.857  38.314  1.00  0.00     0.029 A 
ATOM     49  N   UNL A   1      39.065  33.777  38.645  1.00  0.00    -0.354 N 
ATOM     50  C   UNL A   1      41.439  35.176  35.277  1.00  0.00     0.074 A 
ATOM     51  C   UNL A   1      40.748  34.947  34.031  1.00  0.00     0.031 C 
ATOM     52  C   UNL A   1      37.287  32.862  39.640  1.00  0.00     0.029 A 
ATOM     53  C   UNL A   1      38.617  33.418  39.893  1.00  0.00     0.049 A 
ATOM     54  H   UNL A   1      39.924  34.234  38.492  1.00  0.00     0.167 HD
ATOM     55  C   UNL A   1      42.646  35.776  35.370  1.00  0.00     0.037 A 
ATOM     56  C   UNL A   1      39.228  33.506  41.093  1.00  0.00     0.037 A 
ATOM     57  C   UNL A   1      43.334  35.985  36.612  1.00  0.00     0.049 A 
ATOM     58  C   UNL A   1      40.611  34.111  41.167  1.00  0.00     0.074 A 
ATOM     59  C   UNL A   1      44.560  36.584  36.825  1.00  0.00     0.029 A 
ATOM     60  N   UNL A   1      42.857  35.585  37.852  1.00  0.00    -0.354 N 
ATOM     61  N   UNL A   1      41.354  34.596  40.199  1.00  0.00    -0.248 NA
ATOM     62  C   UNL A   1      41.237  34.181  42.495  1.00  0.00     0.031 C 
ATOM     63  C   UNL A   1      44.850  36.498  38.191  1.00  0.00     0.029 A 
ATOM     64  C   UNL A   1      43.777  35.903  38.835  1.00  0.00     0.049 A 
ATOM     65  H   UNL A   1      41.992  35.142  38.009  1.00  0.00     0.167 HD
ATOM     66  C   UNL A   1      42.520  35.057  40.806  1.00  0.00     0.074 A 
ATOM     67  C   UNL A   1      42.379  34.800  42.224  1.00  0.00     0.031 C 
ATOM     68  C   UNL A   1      43.608  35.644  40.243  1.00  0.00     0.037 A 
BRANCH  55  69
ATOM     69  C   UNL A   1      43.303  36.204  34.088  1.00  0.00     0.058 A 
ATOM     70  C   UNL A   1      43.278  37.539  33.651  1.00  0.00     0.135 A 
ATOM     71  C   UNL A   1      43.963  35.264  33.281  1.00  0.00     0.135 A 
ATOM     72  F   UNL A   1      42.633  38.474  34.368  1.00  0.00    -0.206 F 
ATOM     73  C   UNL A   1      43.862  37.921  32.448  1.00  0.00     0.059 A 
ATOM     74  C   UNL A   1      44.580  35.630  32.090  1.00  0.00     0.059 A 
ATOM     75  F   UNL A   1      44.003  33.972  33.644  1.00  0.00    -0.206 F 
ATOM     76  C   UNL A   1      44.513  36.959  31.675  1.00  0.00     0.060 A 
BRANCH  76  77
ATOM     77  S   UNL A   1      45.275  37.472  30.123  1.00  0.00     0.124 S 
ATOM     78  O   UNL A   1      45.160  36.256  29.324  1.00  0.00    -0.237 OA
ATOM     79  O   UNL A   1      44.423  38.584  29.711  1.00  0.00    -0.237 OA
ATOM     80  O   UNL A   1      46.633  37.839  30.514  1.00  0.00    -0.744 OA
ENDBRANCH  76  77
ENDBRANCH  55  69
BRANCH  56  81
ATOM     81  C   UNL A   1      38.550  33.003  42.320  1.00  0.00     0.058 A 
ATOM     82  C   UNL A   1      38.708  31.676  42.748  1.00  0.00     0.135 A 
ATOM     83  C   UNL A   1      37.721  33.839  43.086  1.00  0.00     0.135 A 
ATOM     84  F   UNL A   1      39.476  30.832  42.043  1.00  0.00    -0.206 F 
ATOM     85  C   UNL A   1      38.066  31.194  43.885  1.00  0.00     0.059 A 
ATOM     86  C   UNL A   1      37.089  33.387  44.241  1.00  0.00     0.059 A 
ATOM     87  F   UNL A   1      37.537  35.118  42.724  1.00  0.00    -0.206 F 
ATOM     88  C   UNL A   1      37.263  32.059  44.629  1.00  0.00     0.060 A 
BRANCH  88  89
ATOM     89  S   UNL A   1      36.488  31.440  46.139  1.00  0.00     0.124 S 
ATOM     90  O   UNL A   1      35.477  30.536  45.602  1.00  0.00    -0.237 OA
ATOM     91  O   UNL A   1      37.613  30.810  46.822  1.00  0.00    -0.237 OA
ATOM     92  O   UNL A   1      35.977  32.652  46.775  1.00  0.00    -0.744 OA
ENDBRANCH  88  89
ENDBRANCH  56  81
BRANCH  68  93
ATOM     93  C   UNL A   1      44.713  36.091  41.162  1.00  0.00     0.058 A 
ATOM     94  C   UNL A   1      45.799  35.259  41.472  1.00  0.00     0.135 A 
ATOM     95  C   UNL A   1      44.718  37.398  41.677  1.00  0.00     0.135 A 
ATOM     96  F   UNL A   1      45.844  34.001  41.007  1.00  0.00    -0.206 F 
ATOM     97  C   UNL A   1      46.841  35.700  42.283  1.00  0.00     0.059 A 
ATOM     98  C   UNL A   1      45.764  37.869  42.463  1.00  0.00     0.059 A 
ATOM     99  F   UNL A   1      43.710  38.238  41.397  1.00  0.00    -0.206 F 
ATOM    100  C   UNL A   1      46.815  37.008  42.772  1.00  0.00     0.060 A 
BRANCH 100 101
ATOM    101  S   UNL A   1      48.189  37.577  43.793  1.00  0.00     0.124 S 
ATOM    102  O   UNL A   1      47.557  38.638  44.572  1.00  0.00    -0.237 OA
ATOM    103  O   UNL A   1      48.546  36.373  44.536  1.00  0.00    -0.237 OA
ATOM    104  O   UNL A   1      49.180  38.022  42.817  1.00  0.00    -0.744 OA
ENDBRANCH 100 101
ENDBRANCH  68  93
ENDBRANCH  42  43
ENDBRANCH  35  37
ENDBRANCH  34  35
ENDBRANCH  33  34
ENDBRANCH  32  33
ENDBRANCH  31  32
ENDBRANCH  30  31
ENDBRANCH   1  30
TORSDOF 28
ENDMDL
