MODEL 1
REMARK VINA RESULT:      -9.7      0.000      0.000
REMARK SMILES COc1cc(Cl)c2c(c1)C=C(C(=O)OCCOCCOCCOCCOC(=O)c1ccc(-c3c4nc(c(-c5c(F)cc(S(=O)(=O)[O-])cc5F)c5ccc([nH]5)c(-c5c(F)cc(S(=O)(=O)[O-])cc5F)c5nc(c(-c6c(F)cc(S(=O)(=O)[O-])cc6F)c6ccc3[nH]6)C=C5)C=C4)cc1)[C@@H](C(F)(F)F)O2
REMARK SMILES IDX 21 1 20 2 19 3 18 4 17 5 16 6 15 7 14 8 12 9 13 10 11 11
REMARK SMILES IDX 3 12 4 13 9 14 5 15 8 16 6 17 7 18 10 19 100 20 95 21 2 22
REMARK SMILES IDX 1 23 96 24 97 25 98 26 99 27 22 28 23 29 24 30 25 31 26 32
REMARK SMILES IDX 27 33 28 34 29 35 30 36 94 37 31 38 93 39 32 40 33 41 34 42
REMARK SMILES IDX 87 43 35 44 92 45 86 46 88 47 36 48 91 49 85 50 84 51 37 53
REMARK SMILES IDX 71 54 50 55 70 56 51 57 54 58 69 59 89 60 52 61 53 62 68 64
REMARK SMILES IDX 90 65 55 66 38 67 39 68 48 69 40 70 41 71 47 72 49 73 42 74
REMARK SMILES IDX 43 75 44 76 45 77 46 78 72 79 73 80 82 81 74 82 75 83 81 84
REMARK SMILES IDX 83 85 76 86 77 87 78 88 79 89 80 90 56 91 57 92 66 93 58 94
REMARK SMILES IDX 59 95 65 96 67 97 60 98 61 99 62 100 63 101 64 102
REMARK H PARENT 88 52 54 63
REMARK Flexibility Score: inf
ROOT
ATOM      1  C   UNL A   1      33.256  35.562  29.150  1.00  0.00     0.188 C 
ENDROOT
BRANCH   1   2
ATOM      2  O   UNL A   1      34.528  35.236  28.598  1.00  0.00    -0.377 OA
BRANCH   2   3
ATOM      3  C   UNL A   1      34.694  33.919  28.109  1.00  0.00     0.188 C 
BRANCH   3   4
ATOM      4  C   UNL A   1      33.390  33.100  28.133  1.00  0.00     0.188 C 
BRANCH   4   5
ATOM      5  O   UNL A   1      33.459  31.716  27.852  1.00  0.00    -0.376 OA
BRANCH   5   6
ATOM      6  C   UNL A   1      32.713  31.075  26.829  1.00  0.00     0.202 C 
BRANCH   6   7
ATOM      7  C   UNL A   1      32.000  29.709  26.897  1.00  0.00     0.261 C 
BRANCH   7   8
ATOM      8  O   UNL A   1      32.339  28.727  25.925  1.00  0.00    -0.460 OA
BRANCH   8   9
ATOM      9  C   UNL A   1      33.543  28.144  26.051  1.00  0.00     0.338 C 
ATOM     10  O   UNL A   1      34.435  28.453  26.822  1.00  0.00    -0.246 OA
BRANCH   9  11
ATOM     11  C   UNL A   1      33.541  26.929  25.209  1.00  0.00     0.087 C 
ATOM     12  C   UNL A   1      34.968  22.392  24.611  1.00  0.00     0.121 A 
ATOM     13  C   UNL A   1      34.477  22.390  23.309  1.00  0.00     0.070 A 
ATOM     14  C   UNL A   1      34.767  23.491  25.440  1.00  0.00     0.058 A 
ATOM     15  C   UNL A   1      33.792  23.511  22.832  1.00  0.00     0.087 A 
ATOM     16  C   UNL A   1      34.134  24.634  24.942  1.00  0.00     0.022 A 
ATOM     17  Cl  UNL A   1      33.211  23.475  21.205  1.00  0.00    -0.080 Cl
ATOM     18  C   UNL A   1      33.617  24.640  23.642  1.00  0.00     0.146 A 
ATOM     19  C   UNL A   1      34.084  25.834  25.752  1.00  0.00     0.027 C 
ATOM     20  O   UNL A   1      32.941  25.708  23.120  1.00  0.00    -0.474 OA
ATOM     21  C   UNL A   1      32.890  26.964  23.851  1.00  0.00     0.316 C 
BRANCH  12  22
ATOM     22  O   UNL A   1      35.632  21.320  25.140  1.00  0.00    -0.497 OA
ATOM     23  C   UNL A   1      34.878  20.117  24.987  1.00  0.00     0.278 C 
ENDBRANCH  12  22
BRANCH  21  24
ATOM     24  C   UNL A   1      33.478  28.066  22.963  1.00  0.00     0.430 C 
ATOM     25  F   UNL A   1      32.546  28.992  22.639  1.00  0.00    -0.167 F 
ATOM     26  F   UNL A   1      34.491  28.722  23.574  1.00  0.00    -0.167 F 
ATOM     27  F   UNL A   1      33.967  27.558  21.806  1.00  0.00    -0.167 F 
ENDBRANCH  21  24
ENDBRANCH   9  11
ENDBRANCH   8   9
ENDBRANCH   7   8
ENDBRANCH   6   7
ENDBRANCH   5   6
ENDBRANCH   4   5
ENDBRANCH   3   4
ENDBRANCH   2   3
ENDBRANCH   1   2
BRANCH   1  28
ATOM     28  C   UNL A   1      33.017  35.423  30.672  1.00  0.00     0.188 C 
BRANCH  28  29
ATOM     29  O   UNL A   1      33.525  36.510  31.438  1.00  0.00    -0.376 OA
BRANCH  29  30
ATOM     30  C   UNL A   1      34.702  36.298  32.202  1.00  0.00     0.202 C 
BRANCH  30  31
ATOM     31  C   UNL A   1      34.915  34.878  32.745  1.00  0.00     0.261 C 
BRANCH  31  32
ATOM     32  O   UNL A   1      35.635  33.979  31.889  1.00  0.00    -0.460 OA
BRANCH  32  33
ATOM     33  C   UNL A   1      35.183  32.711  31.797  1.00  0.00     0.338 C 
ATOM     34  O   UNL A   1      34.041  32.322  31.974  1.00  0.00    -0.246 OA
BRANCH  33  35
ATOM     35  C   UNL A   1      36.281  31.893  31.247  1.00  0.00     0.060 A 
ATOM     36  C   UNL A   1      36.883  30.919  32.055  1.00  0.00     0.016 A 
ATOM     37  C   UNL A   1      36.712  32.095  29.934  1.00  0.00     0.016 A 
ATOM     38  C   UNL A   1      37.948  30.165  31.563  1.00  0.00     0.010 A 
ATOM     39  C   UNL A   1      37.806  31.372  29.458  1.00  0.00     0.010 A 
ATOM     40  C   UNL A   1      38.453  30.440  30.286  1.00  0.00    -0.014 A 
BRANCH  40  41
ATOM     41  C   UNL A   1      39.824  30.002  29.937  1.00  0.00     0.031 A 
ATOM     42  C   UNL A   1      40.918  31.031  30.030  1.00  0.00     0.074 A 
ATOM     43  C   UNL A   1      40.098  28.748  29.547  1.00  0.00     0.049 A 
ATOM     44  N   UNL A   1      42.174  30.947  29.684  1.00  0.00    -0.248 NA
ATOM     45  C   UNL A   1      40.532  32.337  30.594  1.00  0.00     0.031 C 
ATOM     46  C   UNL A   1      39.142  27.646  29.497  1.00  0.00     0.029 A 
ATOM     47  N   UNL A   1      41.276  28.199  29.109  1.00  0.00    -0.354 N 
ATOM     48  C   UNL A   1      42.730  32.182  29.996  1.00  0.00     0.074 A 
ATOM     49  C   UNL A   1      41.668  33.010  30.519  1.00  0.00     0.031 C 
ATOM     50  C   UNL A   1      39.772  26.548  29.041  1.00  0.00     0.029 A 
ATOM     51  C   UNL A   1      41.161  26.885  28.729  1.00  0.00     0.049 A 
ATOM     52  H   UNL A   1      42.123  28.699  29.072  1.00  0.00     0.167 HD
ATOM     53  C   UNL A   1      44.014  32.591  29.864  1.00  0.00     0.037 A 
ATOM     54  C   UNL A   1      42.073  26.063  28.171  1.00  0.00     0.037 A 
ATOM     55  C   UNL A   1      45.055  31.781  29.290  1.00  0.00     0.049 A 
ATOM     56  C   UNL A   1      43.461  26.579  27.896  1.00  0.00     0.074 A 
ATOM     57  C   UNL A   1      46.377  32.109  29.062  1.00  0.00     0.029 A 
ATOM     58  N   UNL A   1      44.881  30.479  28.837  1.00  0.00    -0.354 N 
ATOM     59  N   UNL A   1      43.976  27.758  28.163  1.00  0.00    -0.248 NA
ATOM     60  C   UNL A   1      44.391  25.654  27.236  1.00  0.00     0.031 C 
ATOM     61  C   UNL A   1      46.992  31.025  28.423  1.00  0.00     0.029 A 
ATOM     62  C   UNL A   1      46.066  29.998  28.307  1.00  0.00     0.049 A 
ATOM     63  H   UNL A   1      44.038  29.973  28.886  1.00  0.00     0.167 HD
ATOM     64  C   UNL A   1      45.295  27.710  27.721  1.00  0.00     0.074 A 
ATOM     65  C   UNL A   1      45.501  26.378  27.187  1.00  0.00     0.031 C 
ATOM     66  C   UNL A   1      46.249  28.677  27.754  1.00  0.00     0.037 A 
BRANCH  53  67
ATOM     67  C   UNL A   1      44.327  33.994  30.311  1.00  0.00     0.058 A 
ATOM     68  C   UNL A   1      44.178  35.092  29.446  1.00  0.00     0.135 A 
ATOM     69  C   UNL A   1      44.825  34.240  31.599  1.00  0.00     0.135 A 
ATOM     70  F   UNL A   1      43.732  34.911  28.192  1.00  0.00    -0.206 F 
ATOM     71  C   UNL A   1      44.556  36.375  29.827  1.00  0.00     0.059 A 
ATOM     72  C   UNL A   1      45.179  35.521  32.014  1.00  0.00     0.059 A 
ATOM     73  F   UNL A   1      44.996  33.229  32.465  1.00  0.00    -0.206 F 
ATOM     74  C   UNL A   1      45.063  36.578  31.112  1.00  0.00     0.060 A 
BRANCH  74  75
ATOM     75  S   UNL A   1      45.589  38.242  31.574  1.00  0.00     0.124 S 
ATOM     76  O   UNL A   1      44.340  38.815  32.066  1.00  0.00    -0.237 OA
ATOM     77  O   UNL A   1      46.605  37.975  32.586  1.00  0.00    -0.237 OA
ATOM     78  O   UNL A   1      46.086  38.802  30.322  1.00  0.00    -0.744 OA
ENDBRANCH  74  75
ENDBRANCH  53  67
BRANCH  54  79
ATOM     79  C   UNL A   1      41.697  24.659  27.857  1.00  0.00     0.058 A 
ATOM     80  C   UNL A   1      40.921  24.365  26.727  1.00  0.00     0.135 A 
ATOM     81  C   UNL A   1      42.146  23.584  28.641  1.00  0.00     0.135 A 
ATOM     82  F   UNL A   1      40.450  25.360  25.961  1.00  0.00    -0.206 F 
ATOM     83  C   UNL A   1      40.621  23.055  26.371  1.00  0.00     0.059 A 
ATOM     84  C   UNL A   1      41.879  22.264  28.293  1.00  0.00     0.059 A 
ATOM     85  F   UNL A   1      42.891  23.813  29.734  1.00  0.00    -0.206 F 
ATOM     86  C   UNL A   1      41.120  22.010  27.150  1.00  0.00     0.060 A 
BRANCH  86  87
ATOM     87  S   UNL A   1      40.818  20.314  26.606  1.00  0.00     0.124 S 
ATOM     88  O   UNL A   1      41.969  20.068  25.745  1.00  0.00    -0.237 OA
ATOM     89  O   UNL A   1      40.804  19.591  27.875  1.00  0.00    -0.237 OA
ATOM     90  O   UNL A   1      39.529  20.403  25.927  1.00  0.00    -0.744 OA
ENDBRANCH  86  87
ENDBRANCH  54  79
BRANCH  66  91
ATOM     91  C   UNL A   1      47.605  28.327  27.199  1.00  0.00     0.058 A 
ATOM     92  C   UNL A   1      47.869  28.356  25.820  1.00  0.00     0.135 A 
ATOM     93  C   UNL A   1      48.664  27.986  28.059  1.00  0.00     0.135 A 
ATOM     94  F   UNL A   1      46.895  28.676  24.953  1.00  0.00    -0.206 F 
ATOM     95  C   UNL A   1      49.117  28.015  25.311  1.00  0.00     0.059 A 
ATOM     96  C   UNL A   1      49.930  27.675  27.573  1.00  0.00     0.059 A 
ATOM     97  F   UNL A   1      48.476  27.960  29.388  1.00  0.00    -0.206 F 
ATOM     98  C   UNL A   1      50.143  27.673  26.196  1.00  0.00     0.060 A 
BRANCH  98  99
ATOM     99  S   UNL A   1      51.753  27.223  25.518  1.00  0.00     0.124 S 
ATOM    100  O   UNL A   1      52.650  28.059  26.310  1.00  0.00    -0.237 OA
ATOM    101  O   UNL A   1      51.816  25.791  25.790  1.00  0.00    -0.237 OA
ATOM    102  O   UNL A   1      51.643  27.582  24.107  1.00  0.00    -0.744 OA
ENDBRANCH  98  99
ENDBRANCH  66  91
ENDBRANCH  40  41
ENDBRANCH  33  35
ENDBRANCH  32  33
ENDBRANCH  31  32
ENDBRANCH  30  31
ENDBRANCH  29  30
ENDBRANCH  28  29
ENDBRANCH   1  28
TORSDOF 25
ENDMDL
MODEL 2
REMARK VINA RESULT:      -9.7      1.970      2.835
REMARK SMILES COc1cc(Cl)c2c(c1)C=C(C(=O)OCCOCCOCCOCCOC(=O)c1ccc(-c3c4nc(c(-c5c(F)cc(S(=O)(=O)[O-])cc5F)c5ccc([nH]5)c(-c5c(F)cc(S(=O)(=O)[O-])cc5F)c5nc(c(-c6c(F)cc(S(=O)(=O)[O-])cc6F)c6ccc3[nH]6)C=C5)C=C4)cc1)[C@@H](C(F)(F)F)O2
REMARK SMILES IDX 21 1 20 2 19 3 18 4 17 5 16 6 15 7 14 8 12 9 13 10 11 11
REMARK SMILES IDX 3 12 4 13 9 14 5 15 8 16 6 17 7 18 10 19 100 20 95 21 2 22
REMARK SMILES IDX 1 23 96 24 97 25 98 26 99 27 22 28 23 29 24 30 25 31 26 32
REMARK SMILES IDX 27 33 28 34 29 35 30 36 94 37 31 38 93 39 32 40 33 41 34 42
REMARK SMILES IDX 87 43 35 44 92 45 86 46 88 47 36 48 91 49 85 50 84 51 37 53
REMARK SMILES IDX 71 54 50 55 70 56 51 57 54 58 69 59 89 60 52 61 53 62 68 64
REMARK SMILES IDX 90 65 55 66 38 67 39 68 48 69 40 70 41 71 47 72 49 73 42 74
REMARK SMILES IDX 43 75 44 76 45 77 46 78 72 79 73 80 82 81 74 82 75 83 81 84
REMARK SMILES IDX 83 85 76 86 77 87 78 88 79 89 80 90 56 91 57 92 66 93 58 94
REMARK SMILES IDX 59 95 65 96 67 97 60 98 61 99 62 100 63 101 64 102
REMARK H PARENT 88 52 54 63
REMARK Flexibility Score: inf
ROOT
ATOM      1  C   UNL A   1      34.263  33.538  28.044  1.00  0.00     0.188 C 
ENDROOT
BRANCH   1   2
ATOM      2  O   UNL A   1      34.720  32.401  27.319  1.00  0.00    -0.377 OA
BRANCH   2   3
ATOM      3  C   UNL A   1      34.109  31.161  27.622  1.00  0.00     0.188 C 
BRANCH   3   4
ATOM      4  C   UNL A   1      32.643  31.084  27.156  1.00  0.00     0.188 C 
BRANCH   4   5
ATOM      5  O   UNL A   1      32.214  29.922  26.475  1.00  0.00    -0.376 OA
BRANCH   5   6
ATOM      6  C   UNL A   1      31.813  28.724  27.121  1.00  0.00     0.202 C 
BRANCH   6   7
ATOM      7  C   UNL A   1      32.183  27.276  26.738  1.00  0.00     0.261 C 
BRANCH   7   8
ATOM      8  O   UNL A   1      33.523  27.009  26.343  1.00  0.00    -0.460 OA
BRANCH   8   9
ATOM      9  C   UNL A   1      33.713  26.639  25.065  1.00  0.00     0.338 C 
ATOM     10  O   UNL A   1      33.863  27.369  24.101  1.00  0.00    -0.246 OA
BRANCH   9  11
ATOM     11  C   UNL A   1      33.893  25.172  25.047  1.00  0.00     0.087 C 
ATOM     12  C   UNL A   1      36.885  21.438  25.328  1.00  0.00     0.121 A 
ATOM     13  C   UNL A   1      35.861  20.567  24.970  1.00  0.00     0.070 A 
ATOM     14  C   UNL A   1      36.625  22.789  25.533  1.00  0.00     0.058 A 
ATOM     15  C   UNL A   1      34.566  21.063  24.800  1.00  0.00     0.087 A 
ATOM     16  C   UNL A   1      35.341  23.293  25.305  1.00  0.00     0.022 A 
ATOM     17  Cl  UNL A   1      33.325  19.952  24.341  1.00  0.00    -0.080 Cl
ATOM     18  C   UNL A   1      34.296  22.428  24.965  1.00  0.00     0.146 A 
ATOM     19  C   UNL A   1      35.117  24.724  25.350  1.00  0.00     0.027 C 
ATOM     20  O   UNL A   1      33.011  22.856  24.783  1.00  0.00    -0.474 OA
ATOM     21  C   UNL A   1      32.714  24.279  24.764  1.00  0.00     0.316 C 
BRANCH  12  22
ATOM     22  O   UNL A   1      38.169  21.010  25.524  1.00  0.00    -0.497 OA
ATOM     23  C   UNL A   1      38.998  22.065  26.014  1.00  0.00     0.278 C 
ENDBRANCH  12  22
BRANCH  21  24
ATOM     24  C   UNL A   1      32.049  24.618  23.424  1.00  0.00     0.430 C 
ATOM     25  F   UNL A   1      31.252  23.611  22.998  1.00  0.00    -0.167 F 
ATOM     26  F   UNL A   1      31.277  25.726  23.507  1.00  0.00    -0.167 F 
ATOM     27  F   UNL A   1      32.972  24.842  22.459  1.00  0.00    -0.167 F 
ENDBRANCH  21  24
ENDBRANCH   9  11
ENDBRANCH   8   9
ENDBRANCH   7   8
ENDBRANCH   6   7
ENDBRANCH   5   6
ENDBRANCH   4   5
ENDBRANCH   3   4
ENDBRANCH   2   3
ENDBRANCH   1   2
BRANCH   1  28
ATOM     28  C   UNL A   1      34.733  33.764  29.500  1.00  0.00     0.188 C 
BRANCH  28  29
ATOM     29  O   UNL A   1      36.124  34.036  29.623  1.00  0.00    -0.376 OA
BRANCH  29  30
ATOM     30  C   UNL A   1      36.650  34.259  30.922  1.00  0.00     0.202 C 
BRANCH  30  31
ATOM     31  C   UNL A   1      36.486  33.113  31.930  1.00  0.00     0.261 C 
BRANCH  31  32
ATOM     32  O   UNL A   1      37.442  32.048  31.833  1.00  0.00    -0.460 OA
BRANCH  32  33
ATOM     33  C   UNL A   1      36.975  30.817  31.535  1.00  0.00     0.338 C 
ATOM     34  O   UNL A   1      35.835  30.409  31.674  1.00  0.00    -0.246 OA
BRANCH  33  35
ATOM     35  C   UNL A   1      38.052  30.100  30.824  1.00  0.00     0.060 A 
ATOM     36  C   UNL A   1      38.755  29.084  31.486  1.00  0.00     0.016 A 
ATOM     37  C   UNL A   1      38.363  30.439  29.505  1.00  0.00     0.016 A 
ATOM     38  C   UNL A   1      39.800  28.425  30.841  1.00  0.00     0.010 A 
ATOM     39  C   UNL A   1      39.437  29.810  28.876  1.00  0.00     0.010 A 
ATOM     40  C   UNL A   1      40.185  28.835  29.559  1.00  0.00    -0.014 A 
BRANCH  40  41
ATOM     41  C   UNL A   1      41.536  28.492  29.060  1.00  0.00     0.031 A 
ATOM     42  C   UNL A   1      42.555  29.598  29.019  1.00  0.00     0.074 A 
ATOM     43  C   UNL A   1      41.855  27.254  28.653  1.00  0.00     0.049 A 
ATOM     44  N   UNL A   1      43.767  29.597  28.533  1.00  0.00    -0.248 NA
ATOM     45  C   UNL A   1      42.141  30.882  29.611  1.00  0.00     0.031 C 
ATOM     46  C   UNL A   1      40.983  26.085  28.722  1.00  0.00     0.029 A 
ATOM     47  N   UNL A   1      43.014  26.782  28.089  1.00  0.00    -0.354 N 
ATOM     48  C   UNL A   1      44.263  30.875  28.768  1.00  0.00     0.074 A 
ATOM     49  C   UNL A   1      43.209  31.633  29.401  1.00  0.00     0.031 C 
ATOM     50  C   UNL A   1      41.636  25.028  28.208  1.00  0.00     0.029 A 
ATOM     51  C   UNL A   1      42.953  25.458  27.737  1.00  0.00     0.049 A 
ATOM     52  H   UNL A   1      43.812  27.342  27.951  1.00  0.00     0.167 HD
ATOM     53  C   UNL A   1      45.491  31.372  28.488  1.00  0.00     0.037 A 
ATOM     54  C   UNL A   1      43.854  24.693  27.087  1.00  0.00     0.037 A 
ATOM     55  C   UNL A   1      46.517  30.628  27.807  1.00  0.00     0.049 A 
ATOM     56  C   UNL A   1      45.161  25.302  26.651  1.00  0.00     0.074 A 
ATOM     57  C   UNL A   1      47.778  31.046  27.427  1.00  0.00     0.029 A 
ATOM     58  N   UNL A   1      46.388  29.310  27.389  1.00  0.00    -0.354 N 
ATOM     59  N   UNL A   1      45.615  26.519  26.847  1.00  0.00    -0.248 NA
ATOM     60  C   UNL A   1      46.076  24.435  25.898  1.00  0.00     0.031 C 
ATOM     61  C   UNL A   1      48.393  29.998  26.732  1.00  0.00     0.029 A 
ATOM     62  C   UNL A   1      47.538  28.906  26.732  1.00  0.00     0.049 A 
ATOM     63  H   UNL A   1      45.596  28.746  27.538  1.00  0.00     0.167 HD
ATOM     64  C   UNL A   1      46.876  26.559  26.258  1.00  0.00     0.074 A 
ATOM     65  C   UNL A   1      47.117  25.236  25.716  1.00  0.00     0.031 C 
ATOM     66  C   UNL A   1      47.754  27.592  26.174  1.00  0.00     0.037 A 
BRANCH  53  67
ATOM     67  C   UNL A   1      45.749  32.801  28.883  1.00  0.00     0.058 A 
ATOM     68  C   UNL A   1      45.412  33.871  28.036  1.00  0.00     0.135 A 
ATOM     69  C   UNL A   1      46.380  33.104  30.099  1.00  0.00     0.135 A 
ATOM     70  F   UNL A   1      44.831  33.637  26.848  1.00  0.00    -0.206 F 
ATOM     71  C   UNL A   1      45.735  35.185  28.358  1.00  0.00     0.059 A 
ATOM     72  C   UNL A   1      46.683  34.415  30.458  1.00  0.00     0.059 A 
ATOM     73  F   UNL A   1      46.731  32.123  30.944  1.00  0.00    -0.206 F 
ATOM     74  C   UNL A   1      46.378  35.446  29.570  1.00  0.00     0.060 A 
BRANCH  74  75
ATOM     75  S   UNL A   1      46.829  37.151  29.953  1.00  0.00     0.124 S 
ATOM     76  O   UNL A   1      47.558  37.536  28.749  1.00  0.00    -0.237 OA
ATOM     77  O   UNL A   1      45.526  37.782  30.134  1.00  0.00    -0.237 OA
ATOM     78  O   UNL A   1      47.637  37.026  31.162  1.00  0.00    -0.744 OA
ENDBRANCH  74  75
ENDBRANCH  53  67
BRANCH  54  79
ATOM     79  C   UNL A   1      43.549  23.261  26.831  1.00  0.00     0.058 A 
ATOM     80  C   UNL A   1      43.494  22.344  27.890  1.00  0.00     0.135 A 
ATOM     81  C   UNL A   1      43.255  22.790  25.541  1.00  0.00     0.135 A 
ATOM     82  F   UNL A   1      43.789  22.741  29.136  1.00  0.00    -0.206 F 
ATOM     83  C   UNL A   1      43.138  21.015  27.685  1.00  0.00     0.059 A 
ATOM     84  C   UNL A   1      42.874  21.471  25.313  1.00  0.00     0.059 A 
ATOM     85  F   UNL A   1      43.296  23.628  24.493  1.00  0.00    -0.206 F 
ATOM     86  C   UNL A   1      42.811  20.593  26.395  1.00  0.00     0.060 A 
BRANCH  86  87
ATOM     87  S   UNL A   1      42.238  18.895  26.168  1.00  0.00     0.124 S 
ATOM     88  O   UNL A   1      42.511  18.311  27.476  1.00  0.00    -0.237 OA
ATOM     89  O   UNL A   1      40.829  19.096  25.841  1.00  0.00    -0.237 OA
ATOM     90  O   UNL A   1      43.067  18.403  25.072  1.00  0.00    -0.744 OA
ENDBRANCH  86  87
ENDBRANCH  54  79
BRANCH  66  91
ATOM     91  C   UNL A   1      49.061  27.331  25.472  1.00  0.00     0.058 A 
ATOM     92  C   UNL A   1      49.175  27.398  24.074  1.00  0.00     0.135 A 
ATOM     93  C   UNL A   1      50.222  27.035  26.208  1.00  0.00     0.135 A 
ATOM     94  F   UNL A   1      48.099  27.678  23.321  1.00  0.00    -0.206 F 
ATOM     95  C   UNL A   1      50.380  27.140  23.429  1.00  0.00     0.059 A 
ATOM     96  C   UNL A   1      51.445  26.806  25.585  1.00  0.00     0.059 A 
ATOM     97  F   UNL A   1      50.178  26.975  27.548  1.00  0.00    -0.206 F 
ATOM     98  C   UNL A   1      51.510  26.841  24.193  1.00  0.00     0.060 A 
BRANCH  98  99
ATOM     99  S   UNL A   1      53.062  26.496  23.339  1.00  0.00     0.124 S 
ATOM    100  O   UNL A   1      53.796  27.740  23.550  1.00  0.00    -0.237 OA
ATOM    101  O   UNL A   1      53.564  25.333  24.064  1.00  0.00    -0.237 OA
ATOM    102  O   UNL A   1      52.646  26.238  21.963  1.00  0.00    -0.744 OA
ENDBRANCH  98  99
ENDBRANCH  66  91
ENDBRANCH  40  41
ENDBRANCH  33  35
ENDBRANCH  32  33
ENDBRANCH  31  32
ENDBRANCH  30  31
ENDBRANCH  29  30
ENDBRANCH  28  29
ENDBRANCH   1  28
TORSDOF 25
ENDMDL
MODEL 3
REMARK VINA RESULT:      -9.4      1.145      2.058
REMARK SMILES COc1cc(Cl)c2c(c1)C=C(C(=O)OCCOCCOCCOCCOC(=O)c1ccc(-c3c4nc(c(-c5c(F)cc(S(=O)(=O)[O-])cc5F)c5ccc([nH]5)c(-c5c(F)cc(S(=O)(=O)[O-])cc5F)c5nc(c(-c6c(F)cc(S(=O)(=O)[O-])cc6F)c6ccc3[nH]6)C=C5)C=C4)cc1)[C@@H](C(F)(F)F)O2
REMARK SMILES IDX 21 1 20 2 19 3 18 4 17 5 16 6 15 7 14 8 12 9 13 10 11 11
REMARK SMILES IDX 3 12 4 13 9 14 5 15 8 16 6 17 7 18 10 19 100 20 95 21 2 22
REMARK SMILES IDX 1 23 96 24 97 25 98 26 99 27 22 28 23 29 24 30 25 31 26 32
REMARK SMILES IDX 27 33 28 34 29 35 30 36 94 37 31 38 93 39 32 40 33 41 34 42
REMARK SMILES IDX 87 43 35 44 92 45 86 46 88 47 36 48 91 49 85 50 84 51 37 53
REMARK SMILES IDX 71 54 50 55 70 56 51 57 54 58 69 59 89 60 52 61 53 62 68 64
REMARK SMILES IDX 90 65 55 66 38 67 39 68 48 69 40 70 41 71 47 72 49 73 42 74
REMARK SMILES IDX 43 75 44 76 45 77 46 78 72 79 73 80 82 81 74 82 75 83 81 84
REMARK SMILES IDX 83 85 76 86 77 87 78 88 79 89 80 90 56 91 57 92 66 93 58 94
REMARK SMILES IDX 59 95 65 96 67 97 60 98 61 99 62 100 63 101 64 102
REMARK H PARENT 88 52 54 63
REMARK Flexibility Score: inf
ROOT
ATOM      1  C   UNL A   1      32.903  35.632  29.899  1.00  0.00     0.188 C 
ENDROOT
BRANCH   1   2
ATOM      2  O   UNL A   1      34.063  35.461  29.090  1.00  0.00    -0.377 OA
BRANCH   2   3
ATOM      3  C   UNL A   1      34.307  34.160  28.588  1.00  0.00     0.188 C 
BRANCH   3   4
ATOM      4  C   UNL A   1      33.048  33.500  27.996  1.00  0.00     0.188 C 
BRANCH   4   5
ATOM      5  O   UNL A   1      33.195  32.285  27.290  1.00  0.00    -0.376 OA
BRANCH   5   6
ATOM      6  C   UNL A   1      34.393  31.524  27.258  1.00  0.00     0.202 C 
BRANCH   6   7
ATOM      7  C   UNL A   1      34.561  30.017  27.538  1.00  0.00     0.261 C 
BRANCH   7   8
ATOM      8  O   UNL A   1      34.070  29.096  26.571  1.00  0.00    -0.460 OA
BRANCH   8   9
ATOM      9  C   UNL A   1      32.813  28.653  26.745  1.00  0.00     0.338 C 
ATOM     10  O   UNL A   1      31.888  29.245  27.272  1.00  0.00    -0.246 OA
BRANCH   9  11
ATOM     11  C   UNL A   1      32.687  27.373  26.016  1.00  0.00     0.087 C 
ATOM     12  C   UNL A   1      34.709  23.238  24.676  1.00  0.00     0.121 A 
ATOM     13  C   UNL A   1      33.632  22.961  23.840  1.00  0.00     0.070 A 
ATOM     14  C   UNL A   1      34.694  24.359  25.501  1.00  0.00     0.058 A 
ATOM     15  C   UNL A   1      32.537  23.829  23.821  1.00  0.00     0.087 A 
ATOM     16  C   UNL A   1      33.624  25.256  25.437  1.00  0.00     0.022 A 
ATOM     17  Cl  UNL A   1      31.227  23.457  22.758  1.00  0.00    -0.080 Cl
ATOM     18  C   UNL A   1      32.525  24.982  24.617  1.00  0.00     0.146 A 
ATOM     19  C   UNL A   1      33.695  26.506  26.167  1.00  0.00     0.027 C 
ATOM     20  O   UNL A   1      31.427  25.794  24.555  1.00  0.00    -0.474 OA
ATOM     21  C   UNL A   1      31.441  27.088  25.219  1.00  0.00     0.316 C 
BRANCH  12  22
ATOM     22  O   UNL A   1      35.803  22.420  24.751  1.00  0.00    -0.497 OA
ATOM     23  C   UNL A   1      36.652  22.586  23.615  1.00  0.00     0.278 C 
ENDBRANCH  12  22
BRANCH  21  24
ATOM     24  C   UNL A   1      31.172  28.174  24.171  1.00  0.00     0.430 C 
ATOM     25  F   UNL A   1      30.292  29.095  24.627  1.00  0.00    -0.167 F 
ATOM     26  F   UNL A   1      32.299  28.838  23.829  1.00  0.00    -0.167 F 
ATOM     27  F   UNL A   1      30.656  27.645  23.035  1.00  0.00    -0.167 F 
ENDBRANCH  21  24
ENDBRANCH   9  11
ENDBRANCH   8   9
ENDBRANCH   7   8
ENDBRANCH   6   7
ENDBRANCH   5   6
ENDBRANCH   4   5
ENDBRANCH   3   4
ENDBRANCH   2   3
ENDBRANCH   1   2
BRANCH   1  28
ATOM     28  C   UNL A   1      33.040  35.695  31.439  1.00  0.00     0.188 C 
BRANCH  28  29
ATOM     29  O   UNL A   1      34.359  35.450  31.913  1.00  0.00    -0.376 OA
BRANCH  29  30
ATOM     30  C   UNL A   1      34.517  35.006  33.252  1.00  0.00     0.202 C 
BRANCH  30  31
ATOM     31  C   UNL A   1      34.524  33.487  33.471  1.00  0.00     0.261 C 
BRANCH  31  32
ATOM     32  O   UNL A   1      35.529  32.754  32.757  1.00  0.00    -0.460 OA
BRANCH  32  33
ATOM     33  C   UNL A   1      35.151  32.117  31.628  1.00  0.00     0.338 C 
ATOM     34  O   UNL A   1      34.096  32.242  31.031  1.00  0.00    -0.246 OA
BRANCH  33  35
ATOM     35  C   UNL A   1      36.327  31.380  31.126  1.00  0.00     0.060 A 
ATOM     36  C   UNL A   1      36.855  30.328  31.887  1.00  0.00     0.016 A 
ATOM     37  C   UNL A   1      36.905  31.735  29.905  1.00  0.00     0.016 A 
ATOM     38  C   UNL A   1      37.988  29.647  31.446  1.00  0.00     0.010 A 
ATOM     39  C   UNL A   1      38.065  31.084  29.486  1.00  0.00     0.010 A 
ATOM     40  C   UNL A   1      38.634  30.071  30.277  1.00  0.00    -0.014 A 
BRANCH  40  41
ATOM     41  C   UNL A   1      40.047  29.693  30.048  1.00  0.00     0.031 A 
ATOM     42  C   UNL A   1      41.093  30.733  30.343  1.00  0.00     0.074 A 
ATOM     43  C   UNL A   1      40.398  28.482  29.592  1.00  0.00     0.049 A 
ATOM     44  N   UNL A   1      42.381  30.704  30.133  1.00  0.00    -0.248 NA
ATOM     45  C   UNL A   1      40.609  31.979  30.963  1.00  0.00     0.031 C 
ATOM     46  C   UNL A   1      39.487  27.368  29.349  1.00  0.00     0.029 A 
ATOM     47  N   UNL A   1      41.633  27.995  29.244  1.00  0.00    -0.354 N 
ATOM     48  C   UNL A   1      42.863  31.921  30.602  1.00  0.00     0.074 A 
ATOM     49  C   UNL A   1      41.726  32.680  31.069  1.00  0.00     0.031 C 
ATOM     50  C   UNL A   1      40.195  26.325  28.879  1.00  0.00     0.029 A 
ATOM     51  C   UNL A   1      41.599  26.715  28.750  1.00  0.00     0.049 A 
ATOM     52  H   UNL A   1      42.463  28.514  29.341  1.00  0.00     0.167 HD
ATOM     53  C   UNL A   1      44.141  32.365  30.646  1.00  0.00     0.037 A 
ATOM     54  C   UNL A   1      42.590  25.961  28.234  1.00  0.00     0.037 A 
ATOM     55  C   UNL A   1      45.261  31.627  30.129  1.00  0.00     0.049 A 
ATOM     56  C   UNL A   1      43.985  26.527  28.156  1.00  0.00     0.074 A 
ATOM     57  C   UNL A   1      46.591  32.001  30.076  1.00  0.00     0.029 A 
ATOM     58  N   UNL A   1      45.177  30.364  29.557  1.00  0.00    -0.354 N 
ATOM     59  N   UNL A   1      44.432  27.690  28.571  1.00  0.00    -0.248 NA
ATOM     60  C   UNL A   1      45.008  25.679  27.531  1.00  0.00     0.031 C 
ATOM     61  C   UNL A   1      47.303  30.986  29.424  1.00  0.00     0.029 A 
ATOM     62  C   UNL A   1      46.426  29.954  29.125  1.00  0.00     0.049 A 
ATOM     63  H   UNL A   1      44.349  29.839  29.472  1.00  0.00     0.167 HD
ATOM     64  C   UNL A   1      45.792  27.706  28.276  1.00  0.00     0.074 A 
ATOM     65  C   UNL A   1      46.094  26.427  27.663  1.00  0.00     0.031 C 
ATOM     66  C   UNL A   1      46.707  28.687  28.492  1.00  0.00     0.037 A 
BRANCH  53  67
ATOM     67  C   UNL A   1      44.361  33.733  31.235  1.00  0.00     0.058 A 
ATOM     68  C   UNL A   1      44.645  33.908  32.601  1.00  0.00     0.135 A 
ATOM     69  C   UNL A   1      44.243  34.883  30.440  1.00  0.00     0.135 A 
ATOM     70  F   UNL A   1      44.743  32.844  33.415  1.00  0.00    -0.206 F 
ATOM     71  C   UNL A   1      44.755  35.175  33.165  1.00  0.00     0.059 A 
ATOM     72  C   UNL A   1      44.382  36.160  30.976  1.00  0.00     0.059 A 
ATOM     73  F   UNL A   1      43.964  34.776  29.132  1.00  0.00    -0.206 F 
ATOM     74  C   UNL A   1      44.615  36.296  32.344  1.00  0.00     0.060 A 
BRANCH  74  75
ATOM     75  S   UNL A   1      44.718  37.932  33.100  1.00  0.00     0.124 S 
ATOM     76  O   UNL A   1      45.468  37.642  34.318  1.00  0.00    -0.237 OA
ATOM     77  O   UNL A   1      45.430  38.698  32.083  1.00  0.00    -0.237 OA
ATOM     78  O   UNL A   1      43.321  38.304  33.298  1.00  0.00    -0.744 OA
ENDBRANCH  74  75
ENDBRANCH  53  67
BRANCH  54  79
ATOM     79  C   UNL A   1      42.293  24.580  27.769  1.00  0.00     0.058 A 
ATOM     80  C   UNL A   1      42.369  23.498  28.657  1.00  0.00     0.135 A 
ATOM     81  C   UNL A   1      41.878  24.319  26.453  1.00  0.00     0.135 A 
ATOM     82  F   UNL A   1      42.783  23.693  29.918  1.00  0.00    -0.206 F 
ATOM     83  C   UNL A   1      42.024  22.209  28.266  1.00  0.00     0.059 A 
ATOM     84  C   UNL A   1      41.504  23.043  26.044  1.00  0.00     0.059 A 
ATOM     85  F   UNL A   1      41.790  25.321  25.564  1.00  0.00    -0.206 F 
ATOM     86  C   UNL A   1      41.574  21.995  26.962  1.00  0.00     0.060 A 
BRANCH  86  87
ATOM     87  S   UNL A   1      41.020  20.337  26.507  1.00  0.00     0.124 S 
ATOM     88  O   UNL A   1      39.635  20.582  26.120  1.00  0.00    -0.237 OA
ATOM     89  O   UNL A   1      41.936  20.003  25.420  1.00  0.00    -0.237 OA
ATOM     90  O   UNL A   1      41.206  19.570  27.735  1.00  0.00    -0.744 OA
ENDBRANCH  86  87
ENDBRANCH  54  79
BRANCH  66  91
ATOM     91  C   UNL A   1      48.126  28.412  28.064  1.00  0.00     0.058 A 
ATOM     92  C   UNL A   1      49.033  27.745  28.903  1.00  0.00     0.135 A 
ATOM     93  C   UNL A   1      48.577  28.798  26.790  1.00  0.00     0.135 A 
ATOM     94  F   UNL A   1      48.656  27.353  30.131  1.00  0.00    -0.206 F 
ATOM     95  C   UNL A   1      50.347  27.508  28.512  1.00  0.00     0.059 A 
ATOM     96  C   UNL A   1      49.877  28.541  26.365  1.00  0.00     0.059 A 
ATOM     97  F   UNL A   1      47.749  29.423  25.939  1.00  0.00    -0.206 F 
ATOM     98  C   UNL A   1      50.762  27.913  27.241  1.00  0.00     0.060 A 
BRANCH  98  99
ATOM     99  S   UNL A   1      52.472  27.609  26.754  1.00  0.00     0.124 S 
ATOM    100  O   UNL A   1      52.412  27.831  25.313  1.00  0.00    -0.237 OA
ATOM    101  O   UNL A   1      53.198  28.617  27.520  1.00  0.00    -0.237 OA
ATOM    102  O   UNL A   1      52.705  26.228  27.167  1.00  0.00    -0.744 OA
ENDBRANCH  98  99
ENDBRANCH  66  91
ENDBRANCH  40  41
ENDBRANCH  33  35
ENDBRANCH  32  33
ENDBRANCH  31  32
ENDBRANCH  30  31
ENDBRANCH  29  30
ENDBRANCH  28  29
ENDBRANCH   1  28
TORSDOF 25
ENDMDL
