MODEL 1
REMARK VINA RESULT:     -10.0      0.000      0.000
REMARK SMILES O=C(OCCOCCOCCOCCOC(=O)c1ccc(-c2c3nc(c(-c4c(F)cc(S(=O)(=O)[O-])cc4F)c4ccc([nH]4)c(-c4c(F)cc(S(=O)(=O)[O-])cc4F)c4nc(c(-c5c(F)cc(S(=O)(=O)[O-])cc5F)c5ccc2[nH]5)C=C4)C=C3)cc1)C1=C[C@H]2C=C[C@@H]1[C@@H]1C=C[C@H]21
REMARK SMILES IDX 10 1 9 2 8 3 7 4 6 5 5 6 4 7 3 8 2 9 1 10 84 11 85 12 89 13
REMARK SMILES IDX 86 14 88 15 90 16 87 17 93 18 91 19 92 20 11 21 12 22 13 23
REMARK SMILES IDX 14 24 15 25 16 26 17 27 18 28 19 29 83 30 20 31 82 32 21 33
REMARK SMILES IDX 22 34 23 35 76 36 24 37 81 38 75 39 77 40 25 41 80 42 74 43
REMARK SMILES IDX 73 44 26 46 60 47 39 48 59 49 40 50 43 51 58 52 78 53 41 54
REMARK SMILES IDX 42 55 57 57 79 58 44 59 27 60 28 61 37 62 29 63 30 64 36 65
REMARK SMILES IDX 38 66 31 67 32 68 33 69 34 70 35 71 61 72 62 73 71 74 63 75
REMARK SMILES IDX 64 76 70 77 72 78 65 79 66 80 67 81 68 82 69 83 45 84 46 85
REMARK SMILES IDX 55 86 47 87 48 88 54 89 56 90 49 91 50 92 51 93 52 94 53 95
REMARK H PARENT 77 45 43 56
REMARK Flexibility Score: inf
ROOT
ATOM      1  C   UNL A   1      33.273  28.227  24.103  1.00  0.00     0.188 C 
ENDROOT
BRANCH   1   2
ATOM      2  O   UNL A   1      32.488  28.875  23.116  1.00  0.00    -0.377 OA
BRANCH   2   3
ATOM      3  C   UNL A   1      31.264  28.246  22.742  1.00  0.00     0.188 C 
BRANCH   3   4
ATOM      4  C   UNL A   1      31.333  26.753  22.402  1.00  0.00     0.188 C 
BRANCH   4   5
ATOM      5  O   UNL A   1      30.679  25.972  23.402  1.00  0.00    -0.376 OA
BRANCH   5   6
ATOM      6  C   UNL A   1      30.296  24.628  23.125  1.00  0.00     0.202 C 
BRANCH   6   7
ATOM      7  C   UNL A   1      31.132  23.508  23.739  1.00  0.00     0.261 C 
BRANCH   7   8
ATOM      8  O   UNL A   1      32.075  22.805  22.903  1.00  0.00    -0.460 OA
BRANCH   8   9
ATOM      9  C   UNL A   1      33.271  23.359  22.623  1.00  0.00     0.334 C 
ATOM     10  O   UNL A   1      33.554  23.887  21.556  1.00  0.00    -0.247 OA
BRANCH   9  11
ATOM     11  C   UNL A   1      34.165  23.428  23.780  1.00  0.00     0.041 C 
ATOM     12  C   UNL A   1      34.608  24.557  24.385  1.00  0.00    -0.007 C 
ATOM     13  C   UNL A   1      34.789  22.137  24.301  1.00  0.00     0.056 C 
ATOM     14  C   UNL A   1      35.638  24.288  25.497  1.00  0.00     0.042 C 
ATOM     15  C   UNL A   1      34.614  22.139  25.831  1.00  0.00    -0.022 C 
ATOM     16  C   UNL A   1      36.284  22.356  23.947  1.00  0.00     0.031 C 
ATOM     17  C   UNL A   1      35.017  23.271  26.444  1.00  0.00    -0.022 C 
ATOM     18  C   UNL A   1      36.835  23.565  24.778  1.00  0.00     0.030 C 
ATOM     19  C   UNL A   1      37.346  21.522  24.621  1.00  0.00    -0.026 C 
ATOM     20  C   UNL A   1      37.674  22.495  25.498  1.00  0.00    -0.026 C 
ENDBRANCH   9  11
ENDBRANCH   8   9
ENDBRANCH   7   8
ENDBRANCH   6   7
ENDBRANCH   5   6
ENDBRANCH   4   5
ENDBRANCH   3   4
ENDBRANCH   2   3
ENDBRANCH   1   2
BRANCH   1  21
ATOM     21  C   UNL A   1      33.155  28.708  25.564  1.00  0.00     0.188 C 
BRANCH  21  22
ATOM     22  O   UNL A   1      33.040  30.098  25.764  1.00  0.00    -0.376 OA
BRANCH  22  23
ATOM     23  C   UNL A   1      33.096  30.665  27.064  1.00  0.00     0.202 C 
BRANCH  23  24
ATOM     24  C   UNL A   1      34.308  31.363  27.725  1.00  0.00     0.261 C 
BRANCH  24  25
ATOM     25  O   UNL A   1      35.192  30.580  28.520  1.00  0.00    -0.460 OA
BRANCH  25  26
ATOM     26  C   UNL A   1      36.176  31.253  29.162  1.00  0.00     0.338 C 
ATOM     27  O   UNL A   1      36.045  32.197  29.927  1.00  0.00    -0.246 OA
BRANCH  26  28
ATOM     28  C   UNL A   1      37.430  30.498  28.988  1.00  0.00     0.060 A 
ATOM     29  C   UNL A   1      38.208  30.218  30.123  1.00  0.00     0.016 A 
ATOM     30  C   UNL A   1      37.813  30.031  27.729  1.00  0.00     0.016 A 
ATOM     31  C   UNL A   1      39.375  29.466  30.004  1.00  0.00     0.010 A 
ATOM     32  C   UNL A   1      39.006  29.321  27.603  1.00  0.00     0.010 A 
ATOM     33  C   UNL A   1      39.802  29.059  28.734  1.00  0.00    -0.014 A 
BRANCH  33  34
ATOM     34  C   UNL A   1      41.200  28.615  28.533  1.00  0.00     0.031 A 
ATOM     35  C   UNL A   1      42.259  29.679  28.528  1.00  0.00     0.074 A 
ATOM     36  C   UNL A   1      41.517  27.328  28.320  1.00  0.00     0.049 A 
ATOM     37  N   UNL A   1      43.524  29.594  28.215  1.00  0.00    -0.248 NA
ATOM     38  C   UNL A   1      41.820  31.031  28.916  1.00  0.00     0.031 C 
ATOM     39  C   UNL A   1      40.581  26.206  28.355  1.00  0.00     0.029 A 
ATOM     40  N   UNL A   1      42.722  26.756  27.998  1.00  0.00    -0.354 N 
ATOM     41  C   UNL A   1      44.024  30.884  28.342  1.00  0.00     0.074 A 
ATOM     42  C   UNL A   1      42.925  31.734  28.742  1.00  0.00     0.031 C 
ATOM     43  C   UNL A   1      41.243  25.080  28.031  1.00  0.00     0.029 A 
ATOM     44  C   UNL A   1      42.635  25.412  27.721  1.00  0.00     0.049 A 
ATOM     45  H   UNL A   1      43.569  27.259  27.969  1.00  0.00     0.167 HD
ATOM     46  C   UNL A   1      45.288  31.321  28.136  1.00  0.00     0.037 A 
ATOM     47  C   UNL A   1      43.563  24.565  27.231  1.00  0.00     0.037 A 
ATOM     48  C   UNL A   1      46.365  30.466  27.717  1.00  0.00     0.049 A 
ATOM     49  C   UNL A   1      44.951  25.079  26.938  1.00  0.00     0.074 A 
ATOM     50  C   UNL A   1      47.687  30.798  27.488  1.00  0.00     0.029 A 
ATOM     51  N   UNL A   1      46.238  29.110  27.446  1.00  0.00    -0.354 N 
ATOM     52  N   UNL A   1      45.424  26.295  27.072  1.00  0.00    -0.248 NA
ATOM     53  C   UNL A   1      45.930  24.109  26.430  1.00  0.00     0.031 C 
ATOM     54  C   UNL A   1      48.345  29.657  27.019  1.00  0.00     0.029 A 
ATOM     55  C   UNL A   1      47.452  28.595  27.028  1.00  0.00     0.049 A 
ATOM     56  H   UNL A   1      45.406  28.591  27.538  1.00  0.00     0.167 HD
ATOM     57  C   UNL A   1      46.765  26.230  26.701  1.00  0.00     0.074 A 
ATOM     58  C   UNL A   1      47.024  24.854  26.331  1.00  0.00     0.031 C 
ATOM     59  C   UNL A   1      47.697  27.215  26.680  1.00  0.00     0.037 A 
BRANCH  46  60
ATOM     60  C   UNL A   1      45.543  32.793  28.302  1.00  0.00     0.058 A 
ATOM     61  C   UNL A   1      45.392  33.701  27.242  1.00  0.00     0.135 A 
ATOM     62  C   UNL A   1      45.966  33.300  29.541  1.00  0.00     0.135 A 
ATOM     63  F   UNL A   1      45.010  33.269  26.028  1.00  0.00    -0.206 F 
ATOM     64  C   UNL A   1      45.699  35.050  27.390  1.00  0.00     0.059 A 
ATOM     65  C   UNL A   1      46.244  34.652  29.723  1.00  0.00     0.059 A 
ATOM     66  F   UNL A   1      46.133  32.478  30.588  1.00  0.00    -0.206 F 
ATOM     67  C   UNL A   1      46.129  35.515  28.634  1.00  0.00     0.060 A 
BRANCH  67  68
ATOM     68  S   UNL A   1      46.550  37.261  28.805  1.00  0.00     0.124 S 
ATOM     69  O   UNL A   1      47.056  37.305  30.173  1.00  0.00    -0.237 OA
ATOM     70  O   UNL A   1      47.547  37.446  27.755  1.00  0.00    -0.237 OA
ATOM     71  O   UNL A   1      45.277  37.941  28.584  1.00  0.00    -0.744 OA
ENDBRANCH  67  68
ENDBRANCH  46  60
BRANCH  47  72
ATOM     72  C   UNL A   1      43.197  23.144  26.977  1.00  0.00     0.058 A 
ATOM     73  C   UNL A   1      43.014  22.666  25.672  1.00  0.00     0.135 A 
ATOM     74  C   UNL A   1      43.067  22.227  28.033  1.00  0.00     0.135 A 
ATOM     75  F   UNL A   1      43.110  23.505  24.630  1.00  0.00    -0.206 F 
ATOM     76  C   UNL A   1      42.723  21.329  25.419  1.00  0.00     0.059 A 
ATOM     77  C   UNL A   1      42.802  20.880  27.804  1.00  0.00     0.059 A 
ATOM     78  F   UNL A   1      43.236  22.634  29.300  1.00  0.00    -0.206 F 
ATOM     79  C   UNL A   1      42.633  20.441  26.493  1.00  0.00     0.060 A 
BRANCH  79  80
ATOM     80  S   UNL A   1      42.353  18.690  26.144  1.00  0.00     0.124 S 
ATOM     81  O   UNL A   1      42.656  18.079  27.433  1.00  0.00    -0.237 OA
ATOM     82  O   UNL A   1      40.948  18.683  25.747  1.00  0.00    -0.237 OA
ATOM     83  O   UNL A   1      43.301  18.405  25.071  1.00  0.00    -0.744 OA
ENDBRANCH  79  80
ENDBRANCH  47  72
BRANCH  59  84
ATOM     84  C   UNL A   1      49.109  26.848  26.310  1.00  0.00     0.058 A 
ATOM     85  C   UNL A   1      49.961  26.167  27.191  1.00  0.00     0.135 A 
ATOM     86  C   UNL A   1      49.577  27.095  25.007  1.00  0.00     0.135 A 
ATOM     87  F   UNL A   1      49.569  25.912  28.450  1.00  0.00    -0.206 F 
ATOM     88  C   UNL A   1      51.229  25.749  26.798  1.00  0.00     0.059 A 
ATOM     89  C   UNL A   1      50.826  26.659  24.582  1.00  0.00     0.059 A 
ATOM     90  F   UNL A   1      48.797  27.733  24.119  1.00  0.00    -0.206 F 
ATOM     91  C   UNL A   1      51.648  25.990  25.486  1.00  0.00     0.060 A 
BRANCH  91  92
ATOM     92  S   UNL A   1      53.268  25.383  24.969  1.00  0.00     0.124 S 
ATOM     93  O   UNL A   1      54.165  26.238  25.739  1.00  0.00    -0.237 OA
ATOM     94  O   UNL A   1      53.220  23.982  25.378  1.00  0.00    -0.237 OA
ATOM     95  O   UNL A   1      53.272  25.609  23.526  1.00  0.00    -0.744 OA
ENDBRANCH  91  92
ENDBRANCH  59  84
ENDBRANCH  33  34
ENDBRANCH  26  28
ENDBRANCH  25  26
ENDBRANCH  24  25
ENDBRANCH  23  24
ENDBRANCH  22  23
ENDBRANCH  21  22
ENDBRANCH   1  21
TORSDOF 23
ENDMDL
MODEL 2
REMARK VINA RESULT:     -10.0      1.901      2.519
REMARK SMILES O=C(OCCOCCOCCOCCOC(=O)c1ccc(-c2c3nc(c(-c4c(F)cc(S(=O)(=O)[O-])cc4F)c4ccc([nH]4)c(-c4c(F)cc(S(=O)(=O)[O-])cc4F)c4nc(c(-c5c(F)cc(S(=O)(=O)[O-])cc5F)c5ccc2[nH]5)C=C4)C=C3)cc1)C1=C[C@H]2C=C[C@@H]1[C@@H]1C=C[C@H]21
REMARK SMILES IDX 10 1 9 2 8 3 7 4 6 5 5 6 4 7 3 8 2 9 1 10 84 11 85 12 89 13
REMARK SMILES IDX 86 14 88 15 90 16 87 17 93 18 91 19 92 20 11 21 12 22 13 23
REMARK SMILES IDX 14 24 15 25 16 26 17 27 18 28 19 29 83 30 20 31 82 32 21 33
REMARK SMILES IDX 22 34 23 35 76 36 24 37 81 38 75 39 77 40 25 41 80 42 74 43
REMARK SMILES IDX 73 44 26 46 60 47 39 48 59 49 40 50 43 51 58 52 78 53 41 54
REMARK SMILES IDX 42 55 57 57 79 58 44 59 27 60 28 61 37 62 29 63 30 64 36 65
REMARK SMILES IDX 38 66 31 67 32 68 33 69 34 70 35 71 61 72 62 73 71 74 63 75
REMARK SMILES IDX 64 76 70 77 72 78 65 79 66 80 67 81 68 82 69 83 45 84 46 85
REMARK SMILES IDX 55 86 47 87 48 88 54 89 56 90 49 91 50 92 51 93 52 94 53 95
REMARK H PARENT 77 45 43 56
REMARK Flexibility Score: inf
ROOT
ATOM      1  C   UNL A   1      33.049  28.736  23.235  1.00  0.00     0.188 C 
ENDROOT
BRANCH   1   2
ATOM      2  O   UNL A   1      31.825  28.754  22.519  1.00  0.00    -0.377 OA
BRANCH   2   3
ATOM      3  C   UNL A   1      31.224  27.494  22.227  1.00  0.00     0.188 C 
BRANCH   3   4
ATOM      4  C   UNL A   1      31.860  26.261  22.879  1.00  0.00     0.188 C 
BRANCH   4   5
ATOM      5  O   UNL A   1      31.116  25.849  24.025  1.00  0.00    -0.376 OA
BRANCH   5   6
ATOM      6  C   UNL A   1      30.590  24.527  24.101  1.00  0.00     0.202 C 
BRANCH   6   7
ATOM      7  C   UNL A   1      31.137  23.603  25.187  1.00  0.00     0.261 C 
BRANCH   7   8
ATOM      8  O   UNL A   1      31.598  22.288  24.813  1.00  0.00    -0.460 OA
BRANCH   8   9
ATOM      9  C   UNL A   1      32.467  22.142  23.794  1.00  0.00     0.334 C 
ATOM     10  O   UNL A   1      32.154  21.790  22.665  1.00  0.00    -0.247 OA
BRANCH   9  11
ATOM     11  C   UNL A   1      33.818  22.611  24.110  1.00  0.00     0.041 C 
ATOM     12  C   UNL A   1      34.557  23.479  23.377  1.00  0.00    -0.007 C 
ATOM     13  C   UNL A   1      34.552  21.986  25.292  1.00  0.00     0.056 C 
ATOM     14  C   UNL A   1      35.986  23.668  23.917  1.00  0.00     0.042 C 
ATOM     15  C   UNL A   1      35.154  23.144  26.109  1.00  0.00    -0.022 C 
ATOM     16  C   UNL A   1      35.688  21.212  24.571  1.00  0.00     0.031 C 
ATOM     17  C   UNL A   1      35.863  24.036  25.388  1.00  0.00    -0.022 C 
ATOM     18  C   UNL A   1      36.636  22.238  23.860  1.00  0.00     0.030 C 
ATOM     19  C   UNL A   1      36.901  20.761  25.347  1.00  0.00    -0.026 C 
ATOM     20  C   UNL A   1      37.666  21.784  24.909  1.00  0.00    -0.026 C 
ENDBRANCH   9  11
ENDBRANCH   8   9
ENDBRANCH   7   8
ENDBRANCH   6   7
ENDBRANCH   5   6
ENDBRANCH   4   5
ENDBRANCH   3   4
ENDBRANCH   2   3
ENDBRANCH   1   2
BRANCH   1  21
ATOM     21  C   UNL A   1      33.031  29.139  24.724  1.00  0.00     0.188 C 
BRANCH  21  22
ATOM     22  O   UNL A   1      31.910  29.868  25.168  1.00  0.00    -0.376 OA
BRANCH  22  23
ATOM     23  C   UNL A   1      31.824  30.355  26.499  1.00  0.00     0.202 C 
BRANCH  23  24
ATOM     24  C   UNL A   1      32.890  31.175  27.263  1.00  0.00     0.261 C 
BRANCH  24  25
ATOM     25  O   UNL A   1      33.909  30.475  27.968  1.00  0.00    -0.460 OA
BRANCH  25  26
ATOM     26  C   UNL A   1      34.708  31.221  28.765  1.00  0.00     0.338 C 
ATOM     27  O   UNL A   1      34.374  32.160  29.472  1.00  0.00    -0.246 OA
BRANCH  26  28
ATOM     28  C   UNL A   1      36.022  30.556  28.841  1.00  0.00     0.060 A 
ATOM     29  C   UNL A   1      36.495  30.148  30.099  1.00  0.00     0.016 A 
ATOM     30  C   UNL A   1      36.758  30.296  27.684  1.00  0.00     0.016 A 
ATOM     31  C   UNL A   1      37.711  29.474  30.204  1.00  0.00     0.010 A 
ATOM     32  C   UNL A   1      37.997  29.666  27.795  1.00  0.00     0.010 A 
ATOM     33  C   UNL A   1      38.488  29.277  29.056  1.00  0.00    -0.014 A 
BRANCH  33  34
ATOM     34  C   UNL A   1      39.921  28.930  29.186  1.00  0.00     0.031 A 
ATOM     35  C   UNL A   1      40.856  30.034  29.585  1.00  0.00     0.074 A 
ATOM     36  C   UNL A   1      40.385  27.698  28.919  1.00  0.00     0.049 A 
ATOM     37  N   UNL A   1      42.161  30.052  29.614  1.00  0.00    -0.248 NA
ATOM     38  C   UNL A   1      40.225  31.301  29.995  1.00  0.00     0.031 C 
ATOM     39  C   UNL A   1      39.565  26.539  28.575  1.00  0.00     0.029 A 
ATOM     40  N   UNL A   1      41.674  27.232  28.867  1.00  0.00    -0.354 N 
ATOM     41  C   UNL A   1      42.506  31.336  30.016  1.00  0.00     0.074 A 
ATOM     42  C   UNL A   1      41.277  32.073  30.203  1.00  0.00     0.031 C 
ATOM     43  C   UNL A   1      40.376  25.498  28.312  1.00  0.00     0.029 A 
ATOM     44  C   UNL A   1      41.769  25.934  28.425  1.00  0.00     0.049 A 
ATOM     45  H   UNL A   1      42.456  27.773  29.123  1.00  0.00     0.167 HD
ATOM     46  C   UNL A   1      43.742  31.855  30.206  1.00  0.00     0.037 A 
ATOM     47  C   UNL A   1      42.857  25.203  28.107  1.00  0.00     0.037 A 
ATOM     48  C   UNL A   1      44.955  31.114  29.995  1.00  0.00     0.049 A 
ATOM     49  C   UNL A   1      44.228  25.816  28.255  1.00  0.00     0.074 A 
ATOM     50  C   UNL A   1      46.261  31.535  30.167  1.00  0.00     0.029 A 
ATOM     51  N   UNL A   1      45.012  29.801  29.546  1.00  0.00    -0.354 N 
ATOM     52  N   UNL A   1      44.551  27.025  28.649  1.00  0.00    -0.248 NA
ATOM     53  C   UNL A   1      45.380  24.968  27.919  1.00  0.00     0.031 C 
ATOM     54  C   UNL A   1      47.107  30.498  29.762  1.00  0.00     0.029 A 
ATOM     55  C   UNL A   1      46.330  29.404  29.411  1.00  0.00     0.049 A 
ATOM     56  H   UNL A   1      44.228  29.236  29.353  1.00  0.00     0.167 HD
ATOM     57  C   UNL A   1      45.943  27.072  28.644  1.00  0.00     0.074 A 
ATOM     58  C   UNL A   1      46.399  25.771  28.201  1.00  0.00     0.031 C 
ATOM     59  C   UNL A   1      46.767  28.095  28.986  1.00  0.00     0.037 A 
BRANCH  46  60
ATOM     60  C   UNL A   1      43.825  33.303  30.602  1.00  0.00     0.058 A 
ATOM     61  C   UNL A   1      43.900  34.333  29.651  1.00  0.00     0.135 A 
ATOM     62  C   UNL A   1      43.853  33.663  31.959  1.00  0.00     0.135 A 
ATOM     63  F   UNL A   1      43.899  34.046  28.339  1.00  0.00    -0.206 F 
ATOM     64  C   UNL A   1      44.048  35.664  30.030  1.00  0.00     0.059 A 
ATOM     65  C   UNL A   1      43.965  34.990  32.362  1.00  0.00     0.059 A 
ATOM     66  F   UNL A   1      43.791  32.719  32.911  1.00  0.00    -0.206 F 
ATOM     67  C   UNL A   1      44.085  35.981  31.390  1.00  0.00     0.060 A 
BRANCH  67  68
ATOM     68  S   UNL A   1      44.305  37.707  31.867  1.00  0.00     0.124 S 
ATOM     69  O   UNL A   1      45.744  37.761  32.105  1.00  0.00    -0.237 OA
ATOM     70  O   UNL A   1      43.832  38.420  30.684  1.00  0.00    -0.237 OA
ATOM     71  O   UNL A   1      43.467  37.842  33.054  1.00  0.00    -0.744 OA
ENDBRANCH  67  68
ENDBRANCH  46  60
BRANCH  47  72
ATOM     72  C   UNL A   1      42.685  23.812  27.603  1.00  0.00     0.058 A 
ATOM     73  C   UNL A   1      42.756  22.713  28.469  1.00  0.00     0.135 A 
ATOM     74  C   UNL A   1      42.404  23.561  26.250  1.00  0.00     0.135 A 
ATOM     75  F   UNL A   1      43.040  22.899  29.767  1.00  0.00    -0.206 F 
ATOM     76  C   UNL A   1      42.546  21.414  28.018  1.00  0.00     0.059 A 
ATOM     77  C   UNL A   1      42.164  22.273  25.779  1.00  0.00     0.059 A 
ATOM     78  F   UNL A   1      42.321  24.578  25.379  1.00  0.00    -0.206 F 
ATOM     79  C   UNL A   1      42.236  21.206  26.673  1.00  0.00     0.060 A 
BRANCH  79  80
ATOM     80  S   UNL A   1      41.869  19.524  26.121  1.00  0.00     0.124 S 
ATOM     81  O   UNL A   1      42.736  19.399  24.956  1.00  0.00    -0.237 OA
ATOM     82  O   UNL A   1      42.248  18.735  27.289  1.00  0.00    -0.237 OA
ATOM     83  O   UNL A   1      40.437  19.568  25.841  1.00  0.00    -0.744 OA
ENDBRANCH  79  80
ENDBRANCH  47  72
BRANCH  59  84
ATOM     84  C   UNL A   1      48.251  27.847  28.966  1.00  0.00     0.058 A 
ATOM     85  C   UNL A   1      48.911  27.168  30.002  1.00  0.00     0.135 A 
ATOM     86  C   UNL A   1      49.005  28.207  27.835  1.00  0.00     0.135 A 
ATOM     87  F   UNL A   1      48.241  26.808  31.108  1.00  0.00    -0.206 F 
ATOM     88  C   UNL A   1      50.266  26.862  29.921  1.00  0.00     0.059 A 
ATOM     89  C   UNL A   1      50.352  27.883  27.719  1.00  0.00     0.059 A 
ATOM     90  F   UNL A   1      48.421  28.848  26.810  1.00  0.00    -0.206 F 
ATOM     91  C   UNL A   1      50.976  27.214  28.769  1.00  0.00     0.060 A 
BRANCH  91  92
ATOM     92  S   UNL A   1      52.716  26.750  28.649  1.00  0.00     0.124 S 
ATOM     93  O   UNL A   1      52.679  25.729  27.607  1.00  0.00    -0.237 OA
ATOM     94  O   UNL A   1      53.350  28.012  28.279  1.00  0.00    -0.237 OA
ATOM     95  O   UNL A   1      53.034  26.265  29.989  1.00  0.00    -0.744 OA
ENDBRANCH  91  92
ENDBRANCH  59  84
ENDBRANCH  33  34
ENDBRANCH  26  28
ENDBRANCH  25  26
ENDBRANCH  24  25
ENDBRANCH  23  24
ENDBRANCH  22  23
ENDBRANCH  21  22
ENDBRANCH   1  21
TORSDOF 23
ENDMDL
MODEL 3
REMARK VINA RESULT:      -9.5      2.186      9.010
REMARK SMILES O=C(OCCOCCOCCOCCOC(=O)c1ccc(-c2c3nc(c(-c4c(F)cc(S(=O)(=O)[O-])cc4F)c4ccc([nH]4)c(-c4c(F)cc(S(=O)(=O)[O-])cc4F)c4nc(c(-c5c(F)cc(S(=O)(=O)[O-])cc5F)c5ccc2[nH]5)C=C4)C=C3)cc1)C1=C[C@H]2C=C[C@@H]1[C@@H]1C=C[C@H]21
REMARK SMILES IDX 10 1 9 2 8 3 7 4 6 5 5 6 4 7 3 8 2 9 1 10 84 11 85 12 89 13
REMARK SMILES IDX 86 14 88 15 90 16 87 17 93 18 91 19 92 20 11 21 12 22 13 23
REMARK SMILES IDX 14 24 15 25 16 26 17 27 18 28 19 29 83 30 20 31 82 32 21 33
REMARK SMILES IDX 22 34 23 35 76 36 24 37 81 38 75 39 77 40 25 41 80 42 74 43
REMARK SMILES IDX 73 44 26 46 60 47 39 48 59 49 40 50 43 51 58 52 78 53 41 54
REMARK SMILES IDX 42 55 57 57 79 58 44 59 27 60 28 61 37 62 29 63 30 64 36 65
REMARK SMILES IDX 38 66 31 67 32 68 33 69 34 70 35 71 61 72 62 73 71 74 63 75
REMARK SMILES IDX 64 76 70 77 72 78 65 79 66 80 67 81 68 82 69 83 45 84 46 85
REMARK SMILES IDX 55 86 47 87 48 88 54 89 56 90 49 91 50 92 51 93 52 94 53 95
REMARK H PARENT 77 45 43 56
REMARK Flexibility Score: inf
ROOT
ATOM      1  C   UNL A   1      33.548  35.358  30.742  1.00  0.00     0.188 C 
ENDROOT
BRANCH   1   2
ATOM      2  O   UNL A   1      33.081  34.496  29.718  1.00  0.00    -0.377 OA
BRANCH   2   3
ATOM      3  C   UNL A   1      34.064  33.870  28.896  1.00  0.00     0.188 C 
BRANCH   3   4
ATOM      4  C   UNL A   1      33.815  32.405  28.520  1.00  0.00     0.188 C 
BRANCH   4   5
ATOM      5  O   UNL A   1      34.916  31.874  27.783  1.00  0.00    -0.376 OA
BRANCH   5   6
ATOM      6  C   UNL A   1      34.954  30.490  27.448  1.00  0.00     0.202 C 
BRANCH   6   7
ATOM      7  C   UNL A   1      33.673  29.850  26.915  1.00  0.00     0.261 C 
BRANCH   7   8
ATOM      8  O   UNL A   1      33.474  28.433  27.102  1.00  0.00    -0.460 OA
BRANCH   8   9
ATOM      9  C   UNL A   1      32.225  27.931  27.171  1.00  0.00     0.334 C 
ATOM     10  O   UNL A   1      31.392  28.265  28.002  1.00  0.00    -0.247 OA
BRANCH   9  11
ATOM     11  C   UNL A   1      31.886  27.060  26.045  1.00  0.00     0.041 C 
ATOM     12  C   UNL A   1      31.756  25.712  26.085  1.00  0.00    -0.007 C 
ATOM     13  C   UNL A   1      31.796  27.670  24.649  1.00  0.00     0.056 C 
ATOM     14  C   UNL A   1      31.517  25.082  24.701  1.00  0.00     0.042 C 
ATOM     15  C   UNL A   1      30.495  27.146  24.014  1.00  0.00    -0.022 C 
ATOM     16  C   UNL A   1      33.018  27.015  23.950  1.00  0.00     0.031 C 
ATOM     17  C   UNL A   1      30.334  25.807  24.078  1.00  0.00    -0.022 C 
ATOM     18  C   UNL A   1      32.783  25.468  23.852  1.00  0.00     0.030 C 
ATOM     19  C   UNL A   1      33.108  27.008  22.444  1.00  0.00    -0.026 C 
ATOM     20  C   UNL A   1      32.685  25.730  22.340  1.00  0.00    -0.026 C 
ENDBRANCH   9  11
ENDBRANCH   8   9
ENDBRANCH   7   8
ENDBRANCH   6   7
ENDBRANCH   5   6
ENDBRANCH   4   5
ENDBRANCH   3   4
ENDBRANCH   2   3
ENDBRANCH   1   2
BRANCH   1  21
ATOM     21  C   UNL A   1      34.388  34.750  31.884  1.00  0.00     0.188 C 
BRANCH  21  22
ATOM     22  O   UNL A   1      34.034  33.454  32.307  1.00  0.00    -0.376 OA
BRANCH  22  23
ATOM     23  C   UNL A   1      34.961  32.379  32.253  1.00  0.00     0.202 C 
BRANCH  23  24
ATOM     24  C   UNL A   1      36.219  32.277  31.359  1.00  0.00     0.261 C 
BRANCH  24  25
ATOM     25  O   UNL A   1      36.418  31.090  30.599  1.00  0.00    -0.460 OA
BRANCH  25  26
ATOM     26  C   UNL A   1      37.104  30.095  31.209  1.00  0.00     0.338 C 
ATOM     27  O   UNL A   1      36.655  29.243  31.960  1.00  0.00    -0.246 OA
BRANCH  26  28
ATOM     28  C   UNL A   1      38.455  30.048  30.619  1.00  0.00     0.060 A 
ATOM     29  C   UNL A   1      38.588  30.228  29.233  1.00  0.00     0.016 A 
ATOM     30  C   UNL A   1      39.581  29.876  31.427  1.00  0.00     0.016 A 
ATOM     31  C   UNL A   1      39.852  30.236  28.647  1.00  0.00     0.010 A 
ATOM     32  C   UNL A   1      40.842  29.836  30.833  1.00  0.00     0.010 A 
ATOM     33  C   UNL A   1      40.979  29.990  29.441  1.00  0.00    -0.014 A 
BRANCH  33  34
ATOM     34  C   UNL A   1      42.260  29.610  28.806  1.00  0.00     0.031 A 
ATOM     35  C   UNL A   1      42.400  28.185  28.353  1.00  0.00     0.074 A 
ATOM     36  C   UNL A   1      43.277  30.476  28.673  1.00  0.00     0.049 A 
ATOM     37  N   UNL A   1      43.454  27.547  27.922  1.00  0.00    -0.248 NA
ATOM     38  C   UNL A   1      41.178  27.364  28.411  1.00  0.00     0.031 C 
ATOM     39  C   UNL A   1      43.236  31.892  29.028  1.00  0.00     0.029 A 
ATOM     40  N   UNL A   1      44.559  30.273  28.229  1.00  0.00    -0.354 N 
ATOM     41  C   UNL A   1      43.029  26.246  27.685  1.00  0.00     0.074 A 
ATOM     42  C   UNL A   1      41.629  26.180  28.036  1.00  0.00     0.031 C 
ATOM     43  C   UNL A   1      44.454  32.426  28.820  1.00  0.00     0.029 A 
ATOM     44  C   UNL A   1      45.367  31.377  28.362  1.00  0.00     0.049 A 
ATOM     45  H   UNL A   1      44.872  29.419  27.850  1.00  0.00     0.167 HD
ATOM     46  C   UNL A   1      43.747  25.197  27.221  1.00  0.00     0.037 A 
ATOM     47  C   UNL A   1      46.697  31.507  28.178  1.00  0.00     0.037 A 
ATOM     48  C   UNL A   1      45.145  25.273  26.896  1.00  0.00     0.049 A 
ATOM     49  C   UNL A   1      47.501  30.312  27.729  1.00  0.00     0.074 A 
ATOM     50  C   UNL A   1      45.971  24.277  26.409  1.00  0.00     0.029 A 
ATOM     51  N   UNL A   1      45.930  26.409  27.045  1.00  0.00    -0.354 N 
ATOM     52  N   UNL A   1      47.094  29.087  27.493  1.00  0.00    -0.248 NA
ATOM     53  C   UNL A   1      48.941  30.515  27.520  1.00  0.00     0.031 C 
ATOM     54  C   UNL A   1      47.268  24.794  26.322  1.00  0.00     0.029 A 
ATOM     55  C   UNL A   1      47.236  26.133  26.683  1.00  0.00     0.049 A 
ATOM     56  H   UNL A   1      45.604  27.283  27.362  1.00  0.00     0.167 HD
ATOM     57  C   UNL A   1      48.219  28.382  27.071  1.00  0.00     0.074 A 
ATOM     58  C   UNL A   1      49.324  29.318  27.092  1.00  0.00     0.031 C 
ATOM     59  C   UNL A   1      48.323  27.084  26.691  1.00  0.00     0.037 A 
BRANCH  46  60
ATOM     60  C   UNL A   1      43.038  23.876  27.103  1.00  0.00     0.058 A 
ATOM     61  C   UNL A   1      42.858  23.025  28.206  1.00  0.00     0.135 A 
ATOM     62  C   UNL A   1      42.551  23.445  25.859  1.00  0.00     0.135 A 
ATOM     63  F   UNL A   1      43.323  23.376  29.416  1.00  0.00    -0.206 F 
ATOM     64  C   UNL A   1      42.263  21.775  28.071  1.00  0.00     0.059 A 
ATOM     65  C   UNL A   1      41.920  22.215  25.707  1.00  0.00     0.059 A 
ATOM     66  F   UNL A   1      42.700  24.215  24.770  1.00  0.00    -0.206 F 
ATOM     67  C   UNL A   1      41.801  21.377  26.814  1.00  0.00     0.060 A 
BRANCH  67  68
ATOM     68  S   UNL A   1      41.057  19.742  26.648  1.00  0.00     0.124 S 
ATOM     69  O   UNL A   1      42.082  19.032  25.889  1.00  0.00    -0.237 OA
ATOM     70  O   UNL A   1      40.899  19.328  28.038  1.00  0.00    -0.237 OA
ATOM     71  O   UNL A   1      39.814  20.005  25.930  1.00  0.00    -0.744 OA
ENDBRANCH  67  68
ENDBRANCH  46  60
BRANCH  47  72
ATOM     72  C   UNL A   1      47.348  32.821  28.435  1.00  0.00     0.058 A 
ATOM     73  C   UNL A   1      47.505  33.765  27.411  1.00  0.00     0.135 A 
ATOM     74  C   UNL A   1      47.787  33.175  29.722  1.00  0.00     0.135 A 
ATOM     75  F   UNL A   1      47.117  33.469  26.161  1.00  0.00    -0.206 F 
ATOM     76  C   UNL A   1      48.065  35.016  27.651  1.00  0.00     0.059 A 
ATOM     77  C   UNL A   1      48.326  34.429  29.992  1.00  0.00     0.059 A 
ATOM     78  F   UNL A   1      47.656  32.309  30.738  1.00  0.00    -0.206 F 
ATOM     79  C   UNL A   1      48.460  35.343  28.949  1.00  0.00     0.060 A 
BRANCH  79  80
ATOM     80  S   UNL A   1      49.094  37.006  29.265  1.00  0.00     0.124 S 
ATOM     81  O   UNL A   1      48.642  37.240  30.632  1.00  0.00    -0.237 OA
ATOM     82  O   UNL A   1      50.531  36.819  29.090  1.00  0.00    -0.237 OA
ATOM     83  O   UNL A   1      48.444  37.815  28.238  1.00  0.00    -0.744 OA
ENDBRANCH  79  80
ENDBRANCH  47  72
BRANCH  59  84
ATOM     84  C   UNL A   1      49.658  26.594  26.198  1.00  0.00     0.058 A 
ATOM     85  C   UNL A   1      50.091  26.802  24.880  1.00  0.00     0.135 A 
ATOM     86  C   UNL A   1      50.560  25.999  27.097  1.00  0.00     0.135 A 
ATOM     87  F   UNL A   1      49.269  27.360  23.978  1.00  0.00    -0.206 F 
ATOM     88  C   UNL A   1      51.368  26.430  24.469  1.00  0.00     0.059 A 
ATOM     89  C   UNL A   1      51.850  25.648  26.717  1.00  0.00     0.059 A 
ATOM     90  F   UNL A   1      50.201  25.788  28.374  1.00  0.00    -0.206 F 
ATOM     91  C   UNL A   1      52.244  25.864  25.398  1.00  0.00     0.060 A 
BRANCH  91  92
ATOM     92  S   UNL A   1      53.920  25.449  24.868  1.00  0.00     0.124 S 
ATOM     93  O   UNL A   1      53.920  23.995  24.997  1.00  0.00    -0.237 OA
ATOM     94  O   UNL A   1      53.951  25.965  23.503  1.00  0.00    -0.237 OA
ATOM     95  O   UNL A   1      54.766  26.162  25.821  1.00  0.00    -0.744 OA
ENDBRANCH  91  92
ENDBRANCH  59  84
ENDBRANCH  33  34
ENDBRANCH  26  28
ENDBRANCH  25  26
ENDBRANCH  24  25
ENDBRANCH  23  24
ENDBRANCH  22  23
ENDBRANCH  21  22
ENDBRANCH   1  21
TORSDOF 23
ENDMDL
