MODEL 1
REMARK VINA RESULT:     -10.3      0.000      0.000
REMARK SMILES Nc1ccc2[nH]cc(C(=O)OCCOCCOCCOCCOC(=O)c3ccc(-c4c5nc(c(-c6c(F)cc(S(=O)(=O)[O-])cc6F)c6ccc([nH]6)c(-c6c(F)cc(S(=O)(=O)[O-])cc6F)c6nc(c(-c7c(F)cc(S(=O)(=O)[O-])cc7F)c7ccc4[nH]7)C=C6)C=C5)cc3)c2c1
REMARK SMILES IDX 18 1 17 2 16 3 15 4 14 5 13 6 12 7 11 8 9 9 10 10 8 11 2 12
REMARK SMILES IDX 3 13 93 14 4 15 92 16 5 17 6 18 7 19 1 21 19 24 20 25 21 26
REMARK SMILES IDX 22 27 23 28 24 29 25 30 26 31 27 32 91 33 28 34 90 35 29 36
REMARK SMILES IDX 30 37 31 38 84 39 32 40 89 41 83 42 85 43 33 44 88 45 82 46
REMARK SMILES IDX 81 47 34 49 68 50 47 51 67 52 48 53 51 54 66 55 86 56 49 57
REMARK SMILES IDX 50 58 65 60 87 61 52 62 35 63 36 64 45 65 37 66 38 67 44 68
REMARK SMILES IDX 46 69 39 70 40 71 41 72 42 73 43 74 69 75 70 76 79 77 71 78
REMARK SMILES IDX 72 79 78 80 80 81 73 82 74 83 75 84 76 85 77 86 53 87 54 88
REMARK SMILES IDX 63 89 55 90 56 91 62 92 64 93 57 94 58 95 59 96 60 97 61 98
REMARK H PARENT 6 20 1 22 1 23 85 48 51 59
REMARK Flexibility Score: inf
ROOT
ATOM      1  C   UNL A   1      42.545  19.319  25.649  1.00  0.00     0.188 C 
ENDROOT
BRANCH   1   2
ATOM      2  O   UNL A   1      41.305  19.456  26.328  1.00  0.00    -0.377 OA
BRANCH   2   3
ATOM      3  C   UNL A   1      41.331  19.860  27.680  1.00  0.00     0.188 C 
BRANCH   3   4
ATOM      4  C   UNL A   1      41.318  21.385  27.840  1.00  0.00     0.188 C 
BRANCH   4   5
ATOM      5  O   UNL A   1      41.017  22.081  26.647  1.00  0.00    -0.376 OA
BRANCH   5   6
ATOM      6  C   UNL A   1      39.699  22.523  26.341  1.00  0.00     0.202 C 
BRANCH   6   7
ATOM      7  C   UNL A   1      38.580  21.688  25.676  1.00  0.00     0.261 C 
BRANCH   7   8
ATOM      8  O   UNL A   1      37.578  22.369  24.924  1.00  0.00    -0.460 OA
BRANCH   8   9
ATOM      9  C   UNL A   1      36.609  23.020  25.617  1.00  0.00     0.340 C 
ATOM     10  O   UNL A   1      36.709  24.148  26.054  1.00  0.00    -0.246 OA
BRANCH   9  11
ATOM     11  C   UNL A   1      35.336  22.304  25.507  1.00  0.00     0.085 A 
ATOM     12  C   UNL A   1      33.116  22.737  22.395  1.00  0.00     0.032 A 
ATOM     13  C   UNL A   1      32.056  21.974  22.886  1.00  0.00     0.027 A 
ATOM     14  C   UNL A   1      34.232  22.968  23.212  1.00  0.00     0.036 A 
ATOM     15  C   UNL A   1      32.104  21.375  24.149  1.00  0.00     0.029 A 
ATOM     16  C   UNL A   1      34.337  22.341  24.476  1.00  0.00     0.016 A 
ATOM     17  C   UNL A   1      33.260  21.565  24.913  1.00  0.00     0.046 A 
ATOM     18  N   UNL A   1      33.577  21.097  26.165  1.00  0.00    -0.360 N 
ATOM     19  C   UNL A   1      34.829  21.507  26.522  1.00  0.00     0.099 A 
ATOM     20  H   UNL A   1      32.986  20.545  26.725  1.00  0.00     0.166 HD
BRANCH  12  21
ATOM     21  N   UNL A   1      33.003  23.379  21.165  1.00  0.00    -0.399 N 
ATOM     22  H   UNL A   1      32.553  24.253  21.105  1.00  0.00     0.156 HD
ATOM     23  H   UNL A   1      33.371  22.959  20.354  1.00  0.00     0.156 HD
ENDBRANCH  12  21
ENDBRANCH   9  11
ENDBRANCH   8   9
ENDBRANCH   7   8
ENDBRANCH   6   7
ENDBRANCH   5   6
ENDBRANCH   4   5
ENDBRANCH   3   4
ENDBRANCH   2   3
ENDBRANCH   1   2
BRANCH   1  24
ATOM     24  C   UNL A   1      43.618  18.299  26.085  1.00  0.00     0.188 C 
BRANCH  24  25
ATOM     25  O   UNL A   1      44.692  18.167  25.154  1.00  0.00    -0.376 OA
BRANCH  25  26
ATOM     26  C   UNL A   1      45.966  18.626  25.595  1.00  0.00     0.202 C 
BRANCH  26  27
ATOM     27  C   UNL A   1      46.560  19.777  24.771  1.00  0.00     0.261 C 
BRANCH  27  28
ATOM     28  O   UNL A   1      46.029  21.058  25.143  1.00  0.00    -0.460 OA
BRANCH  28  29
ATOM     29  C   UNL A   1      45.005  21.565  24.417  1.00  0.00     0.338 C 
ATOM     30  O   UNL A   1      44.541  21.112  23.389  1.00  0.00    -0.246 OA
BRANCH  29  31
ATOM     31  C   UNL A   1      44.335  22.537  25.317  1.00  0.00     0.060 A 
ATOM     32  C   UNL A   1      43.556  23.584  24.807  1.00  0.00     0.016 A 
ATOM     33  C   UNL A   1      44.777  22.557  26.645  1.00  0.00     0.016 A 
ATOM     34  C   UNL A   1      43.330  24.709  25.597  1.00  0.00     0.010 A 
ATOM     35  C   UNL A   1      44.565  23.692  27.423  1.00  0.00     0.010 A 
ATOM     36  C   UNL A   1      43.886  24.789  26.883  1.00  0.00    -0.014 A 
BRANCH  36  37
ATOM     37  C   UNL A   1      43.598  25.981  27.694  1.00  0.00     0.031 A 
ATOM     38  C   UNL A   1      44.632  27.052  27.587  1.00  0.00     0.074 A 
ATOM     39  C   UNL A   1      42.430  26.223  28.329  1.00  0.00     0.049 A 
ATOM     40  N   UNL A   1      45.257  27.691  28.524  1.00  0.00    -0.248 NA
ATOM     41  C   UNL A   1      45.077  27.394  26.224  1.00  0.00     0.031 C 
ATOM     42  C   UNL A   1      41.204  25.428  28.253  1.00  0.00     0.029 A 
ATOM     43  N   UNL A   1      42.051  27.303  29.083  1.00  0.00    -0.354 N 
ATOM     44  C   UNL A   1      46.046  28.635  27.868  1.00  0.00     0.074 A 
ATOM     45  C   UNL A   1      45.995  28.324  26.464  1.00  0.00     0.031 C 
ATOM     46  C   UNL A   1      40.177  26.140  28.767  1.00  0.00     0.029 A 
ATOM     47  C   UNL A   1      40.674  27.411  29.263  1.00  0.00     0.049 A 
ATOM     48  H   UNL A   1      42.693  27.945  29.463  1.00  0.00     0.167 HD
ATOM     49  C   UNL A   1      46.555  29.737  28.481  1.00  0.00     0.037 A 
ATOM     50  C   UNL A   1      39.976  28.502  29.678  1.00  0.00     0.037 A 
ATOM     51  C   UNL A   1      46.592  29.611  29.907  1.00  0.00     0.049 A 
ATOM     52  C   UNL A   1      40.925  29.416  30.364  1.00  0.00     0.074 A 
ATOM     53  C   UNL A   1      47.240  28.767  30.787  1.00  0.00     0.029 A 
ATOM     54  N   UNL A   1      45.628  30.250  30.645  1.00  0.00    -0.354 N 
ATOM     55  N   UNL A   1      41.513  29.163  31.500  1.00  0.00    -0.248 NA
ATOM     56  C   UNL A   1      41.520  30.489  29.582  1.00  0.00     0.031 C 
ATOM     57  C   UNL A   1      46.344  28.603  31.882  1.00  0.00     0.029 A 
ATOM     58  C   UNL A   1      45.211  29.374  31.616  1.00  0.00     0.049 A 
ATOM     59  H   UNL A   1      45.297  31.166  30.504  1.00  0.00     0.167 HD
ATOM     60  C   UNL A   1      42.768  29.745  31.389  1.00  0.00     0.074 A 
ATOM     61  C   UNL A   1      42.673  30.634  30.238  1.00  0.00     0.031 C 
ATOM     62  C   UNL A   1      43.841  29.252  32.072  1.00  0.00     0.037 A 
BRANCH  49  63
ATOM     63  C   UNL A   1      46.763  31.039  27.758  1.00  0.00     0.058 A 
ATOM     64  C   UNL A   1      48.058  31.526  27.511  1.00  0.00     0.135 A 
ATOM     65  C   UNL A   1      45.704  31.941  27.501  1.00  0.00     0.135 A 
ATOM     66  F   UNL A   1      49.132  30.761  27.760  1.00  0.00    -0.206 F 
ATOM     67  C   UNL A   1      48.286  32.827  27.059  1.00  0.00     0.059 A 
ATOM     68  C   UNL A   1      45.905  33.220  26.997  1.00  0.00     0.059 A 
ATOM     69  F   UNL A   1      44.435  31.644  27.812  1.00  0.00    -0.206 F 
ATOM     70  C   UNL A   1      47.202  33.667  26.812  1.00  0.00     0.060 A 
BRANCH  70  71
ATOM     71  S   UNL A   1      47.498  35.376  26.319  1.00  0.00     0.124 S 
ATOM     72  O   UNL A   1      48.025  35.946  27.553  1.00  0.00    -0.237 OA
ATOM     73  O   UNL A   1      48.455  35.216  25.228  1.00  0.00    -0.237 OA
ATOM     74  O   UNL A   1      46.175  35.845  25.919  1.00  0.00    -0.744 OA
ENDBRANCH  70  71
ENDBRANCH  49  63
BRANCH  50  75
ATOM     75  C   UNL A   1      38.638  28.962  29.198  1.00  0.00     0.058 A 
ATOM     76  C   UNL A   1      37.547  29.099  30.079  1.00  0.00     0.135 A 
ATOM     77  C   UNL A   1      38.470  29.542  27.923  1.00  0.00     0.135 A 
ATOM     78  F   UNL A   1      37.618  28.602  31.324  1.00  0.00    -0.206 F 
ATOM     79  C   UNL A   1      36.390  29.812  29.736  1.00  0.00     0.059 A 
ATOM     80  C   UNL A   1      37.320  30.234  27.552  1.00  0.00     0.059 A 
ATOM     81  F   UNL A   1      39.460  29.549  27.021  1.00  0.00    -0.206 F 
ATOM     82  C   UNL A   1      36.297  30.397  28.473  1.00  0.00     0.060 A 
BRANCH  82  83
ATOM     83  S   UNL A   1      34.909  31.490  28.086  1.00  0.00     0.124 S 
ATOM     84  O   UNL A   1      34.075  30.637  27.249  1.00  0.00    -0.237 OA
ATOM     85  O   UNL A   1      34.383  31.797  29.412  1.00  0.00    -0.237 OA
ATOM     86  O   UNL A   1      35.544  32.612  27.398  1.00  0.00    -0.744 OA
ENDBRANCH  82  83
ENDBRANCH  50  75
BRANCH  62  87
ATOM     87  C   UNL A   1      43.587  28.302  33.216  1.00  0.00     0.058 A 
ATOM     88  C   UNL A   1      43.528  26.903  33.088  1.00  0.00     0.135 A 
ATOM     89  C   UNL A   1      43.556  28.828  34.518  1.00  0.00     0.135 A 
ATOM     90  F   UNL A   1      43.650  26.311  31.891  1.00  0.00    -0.206 F 
ATOM     91  C   UNL A   1      43.408  26.069  34.202  1.00  0.00     0.059 A 
ATOM     92  C   UNL A   1      43.473  28.014  35.644  1.00  0.00     0.059 A 
ATOM     93  F   UNL A   1      43.667  30.153  34.712  1.00  0.00    -0.206 F 
ATOM     94  C   UNL A   1      43.391  26.634  35.477  1.00  0.00     0.060 A 
BRANCH  94  95
ATOM     95  S   UNL A   1      43.348  25.543  36.916  1.00  0.00     0.124 S 
ATOM     96  O   UNL A   1      43.373  26.494  38.022  1.00  0.00    -0.237 OA
ATOM     97  O   UNL A   1      42.093  24.821  36.722  1.00  0.00    -0.237 OA
ATOM     98  O   UNL A   1      44.553  24.730  36.765  1.00  0.00    -0.744 OA
ENDBRANCH  94  95
ENDBRANCH  62  87
ENDBRANCH  36  37
ENDBRANCH  29  31
ENDBRANCH  28  29
ENDBRANCH  27  28
ENDBRANCH  26  27
ENDBRANCH  25  26
ENDBRANCH  24  25
ENDBRANCH   1  24
TORSDOF 24
ENDMDL
MODEL 2
REMARK VINA RESULT:      -9.2      1.257      1.987
REMARK SMILES Nc1ccc2[nH]cc(C(=O)OCCOCCOCCOCCOC(=O)c3ccc(-c4c5nc(c(-c6c(F)cc(S(=O)(=O)[O-])cc6F)c6ccc([nH]6)c(-c6c(F)cc(S(=O)(=O)[O-])cc6F)c6nc(c(-c7c(F)cc(S(=O)(=O)[O-])cc7F)c7ccc4[nH]7)C=C6)C=C5)cc3)c2c1
REMARK SMILES IDX 18 1 17 2 16 3 15 4 14 5 13 6 12 7 11 8 9 9 10 10 8 11 2 12
REMARK SMILES IDX 3 13 93 14 4 15 92 16 5 17 6 18 7 19 1 21 19 24 20 25 21 26
REMARK SMILES IDX 22 27 23 28 24 29 25 30 26 31 27 32 91 33 28 34 90 35 29 36
REMARK SMILES IDX 30 37 31 38 84 39 32 40 89 41 83 42 85 43 33 44 88 45 82 46
REMARK SMILES IDX 81 47 34 49 68 50 47 51 67 52 48 53 51 54 66 55 86 56 49 57
REMARK SMILES IDX 50 58 65 60 87 61 52 62 35 63 36 64 45 65 37 66 38 67 44 68
REMARK SMILES IDX 46 69 39 70 40 71 41 72 42 73 43 74 69 75 70 76 79 77 71 78
REMARK SMILES IDX 72 79 78 80 80 81 73 82 74 83 75 84 76 85 77 86 53 87 54 88
REMARK SMILES IDX 63 89 55 90 56 91 62 92 64 93 57 94 58 95 59 96 60 97 61 98
REMARK H PARENT 6 20 1 22 1 23 85 48 51 59
REMARK Flexibility Score: inf
ROOT
ATOM      1  C   UNL A   1      42.641  18.517  26.545  1.00  0.00     0.188 C 
ENDROOT
BRANCH   1   2
ATOM      2  O   UNL A   1      41.521  18.539  25.673  1.00  0.00    -0.377 OA
BRANCH   2   3
ATOM      3  C   UNL A   1      40.519  19.506  25.904  1.00  0.00     0.188 C 
BRANCH   3   4
ATOM      4  C   UNL A   1      40.818  20.385  27.125  1.00  0.00     0.188 C 
BRANCH   4   5
ATOM      5  O   UNL A   1      39.930  21.474  27.273  1.00  0.00    -0.376 OA
BRANCH   5   6
ATOM      6  C   UNL A   1      39.455  22.219  26.156  1.00  0.00     0.202 C 
BRANCH   6   7
ATOM      7  C   UNL A   1      38.475  23.415  26.198  1.00  0.00     0.261 C 
BRANCH   7   8
ATOM      8  O   UNL A   1      37.368  23.420  25.300  1.00  0.00    -0.460 OA
BRANCH   8   9
ATOM      9  C   UNL A   1      36.154  23.072  25.802  1.00  0.00     0.340 C 
ATOM     10  O   UNL A   1      35.890  22.995  26.985  1.00  0.00    -0.246 OA
BRANCH   9  11
ATOM     11  C   UNL A   1      35.141  23.096  24.745  1.00  0.00     0.085 A 
ATOM     12  C   UNL A   1      32.776  20.104  24.238  1.00  0.00     0.032 A 
ATOM     13  C   UNL A   1      32.172  20.611  23.087  1.00  0.00     0.027 A 
ATOM     14  C   UNL A   1      33.825  20.818  24.834  1.00  0.00     0.036 A 
ATOM     15  C   UNL A   1      32.539  21.849  22.548  1.00  0.00     0.029 A 
ATOM     16  C   UNL A   1      34.191  22.095  24.346  1.00  0.00     0.016 A 
ATOM     17  C   UNL A   1      33.539  22.571  23.206  1.00  0.00     0.046 A 
ATOM     18  N   UNL A   1      34.085  23.796  22.907  1.00  0.00    -0.360 N 
ATOM     19  C   UNL A   1      35.024  24.137  23.836  1.00  0.00     0.099 A 
ATOM     20  H   UNL A   1      33.833  24.350  22.134  1.00  0.00     0.166 HD
BRANCH  12  21
ATOM     21  N   UNL A   1      32.438  18.836  24.702  1.00  0.00    -0.399 N 
ATOM     22  H   UNL A   1      32.649  18.041  24.162  1.00  0.00     0.156 HD
ATOM     23  H   UNL A   1      31.987  18.734  25.572  1.00  0.00     0.156 HD
ENDBRANCH  12  21
ENDBRANCH   9  11
ENDBRANCH   8   9
ENDBRANCH   7   8
ENDBRANCH   6   7
ENDBRANCH   5   6
ENDBRANCH   4   5
ENDBRANCH   3   4
ENDBRANCH   2   3
ENDBRANCH   1   2
BRANCH   1  24
ATOM     24  C   UNL A   1      44.092  18.443  26.024  1.00  0.00     0.188 C 
BRANCH  24  25
ATOM     25  O   UNL A   1      44.215  18.737  24.633  1.00  0.00    -0.376 OA
BRANCH  25  26
ATOM     26  C   UNL A   1      45.245  19.653  24.273  1.00  0.00     0.202 C 
BRANCH  26  27
ATOM     27  C   UNL A   1      45.519  20.757  25.304  1.00  0.00     0.261 C 
BRANCH  27  28
ATOM     28  O   UNL A   1      45.304  22.075  24.778  1.00  0.00    -0.460 OA
BRANCH  28  29
ATOM     29  C   UNL A   1      44.041  22.561  24.755  1.00  0.00     0.338 C 
ATOM     30  O   UNL A   1      43.024  21.946  24.498  1.00  0.00    -0.246 OA
BRANCH  29  31
ATOM     31  C   UNL A   1      44.112  23.861  25.466  1.00  0.00     0.060 A 
ATOM     32  C   UNL A   1      44.742  23.977  26.712  1.00  0.00     0.016 A 
ATOM     33  C   UNL A   1      43.254  24.867  25.004  1.00  0.00     0.016 A 
ATOM     34  C   UNL A   1      44.410  25.043  27.545  1.00  0.00     0.010 A 
ATOM     35  C   UNL A   1      42.911  25.920  25.848  1.00  0.00     0.010 A 
ATOM     36  C   UNL A   1      43.449  25.981  27.138  1.00  0.00    -0.014 A 
BRANCH  36  37
ATOM     37  C   UNL A   1      43.149  27.107  28.035  1.00  0.00     0.031 A 
ATOM     38  C   UNL A   1      44.161  28.202  27.993  1.00  0.00     0.074 A 
ATOM     39  C   UNL A   1      41.985  27.280  28.698  1.00  0.00     0.049 A 
ATOM     40  N   UNL A   1      44.786  28.785  28.965  1.00  0.00    -0.248 NA
ATOM     41  C   UNL A   1      44.582  28.649  26.652  1.00  0.00     0.031 C 
ATOM     42  C   UNL A   1      40.773  26.468  28.581  1.00  0.00     0.029 A 
ATOM     43  N   UNL A   1      41.595  28.296  29.532  1.00  0.00    -0.354 N 
ATOM     44  C   UNL A   1      45.549  29.789  28.370  1.00  0.00     0.074 A 
ATOM     45  C   UNL A   1      45.486  29.577  26.948  1.00  0.00     0.031 C 
ATOM     46  C   UNL A   1      39.740  27.121  29.155  1.00  0.00     0.029 A 
ATOM     47  C   UNL A   1      40.219  28.364  29.735  1.00  0.00     0.049 A 
ATOM     48  H   UNL A   1      42.231  28.921  29.950  1.00  0.00     0.167 HD
ATOM     49  C   UNL A   1      46.045  30.854  29.054  1.00  0.00     0.037 A 
ATOM     50  C   UNL A   1      39.507  29.408  30.236  1.00  0.00     0.037 A 
ATOM     51  C   UNL A   1      46.102  30.628  30.467  1.00  0.00     0.049 A 
ATOM     52  C   UNL A   1      40.447  30.289  30.974  1.00  0.00     0.074 A 
ATOM     53  C   UNL A   1      46.777  29.736  31.277  1.00  0.00     0.029 A 
ATOM     54  N   UNL A   1      45.136  31.194  31.259  1.00  0.00    -0.354 N 
ATOM     55  N   UNL A   1      41.053  29.968  32.082  1.00  0.00    -0.248 NA
ATOM     56  C   UNL A   1      41.011  31.427  30.264  1.00  0.00     0.031 C 
ATOM     57  C   UNL A   1      45.899  29.477  32.368  1.00  0.00     0.029 A 
ATOM     58  C   UNL A   1      44.748  30.243  32.171  1.00  0.00     0.049 A 
ATOM     59  H   UNL A   1      44.787  32.111  31.189  1.00  0.00     0.167 HD
ATOM     60  C   UNL A   1      42.296  30.580  31.998  1.00  0.00     0.074 A 
ATOM     61  C   UNL A   1      42.170  31.548  30.915  1.00  0.00     0.031 C 
ATOM     62  C   UNL A   1      43.387  30.061  32.632  1.00  0.00     0.037 A 
BRANCH  49  63
ATOM     63  C   UNL A   1      46.219  32.209  28.423  1.00  0.00     0.058 A 
ATOM     64  C   UNL A   1      47.490  32.799  28.327  1.00  0.00     0.135 A 
ATOM     65  C   UNL A   1      45.123  33.048  28.115  1.00  0.00     0.135 A 
ATOM     66  F   UNL A   1      48.593  32.098  28.636  1.00  0.00    -0.206 F 
ATOM     67  C   UNL A   1      47.661  34.137  27.967  1.00  0.00     0.059 A 
ATOM     68  C   UNL A   1      45.271  34.365  27.700  1.00  0.00     0.059 A 
ATOM     69  F   UNL A   1      43.856  32.645  28.288  1.00  0.00    -0.206 F 
ATOM     70  C   UNL A   1      46.543  34.913  27.663  1.00  0.00     0.060 A 
BRANCH  70  71
ATOM     71  S   UNL A   1      46.753  36.664  27.291  1.00  0.00     0.124 S 
ATOM     72  O   UNL A   1      47.479  37.125  28.468  1.00  0.00    -0.237 OA
ATOM     73  O   UNL A   1      47.514  36.621  26.046  1.00  0.00    -0.237 OA
ATOM     74  O   UNL A   1      45.382  37.147  27.163  1.00  0.00    -0.744 OA
ENDBRANCH  70  71
ENDBRANCH  49  63
BRANCH  50  75
ATOM     75  C   UNL A   1      38.154  29.875  29.805  1.00  0.00     0.058 A 
ATOM     76  C   UNL A   1      37.207  30.347  30.736  1.00  0.00     0.135 A 
ATOM     77  C   UNL A   1      37.856  30.129  28.449  1.00  0.00     0.135 A 
ATOM     78  F   UNL A   1      37.410  30.176  32.051  1.00  0.00    -0.206 F 
ATOM     79  C   UNL A   1      36.072  31.072  30.348  1.00  0.00     0.059 A 
ATOM     80  C   UNL A   1      36.723  30.825  28.040  1.00  0.00     0.059 A 
ATOM     81  F   UNL A   1      38.712  29.799  27.472  1.00  0.00    -0.206 F 
ATOM     82  C   UNL A   1      35.851  31.326  28.995  1.00  0.00     0.060 A 
BRANCH  82  83
ATOM     83  S   UNL A   1      34.510  32.430  28.491  1.00  0.00     0.124 S 
ATOM     84  O   UNL A   1      35.206  33.382  27.634  1.00  0.00    -0.237 OA
ATOM     85  O   UNL A   1      33.596  31.512  27.818  1.00  0.00    -0.237 OA
ATOM     86  O   UNL A   1      34.022  32.970  29.757  1.00  0.00    -0.744 OA
ENDBRANCH  82  83
ENDBRANCH  50  75
BRANCH  62  87
ATOM     87  C   UNL A   1      43.165  29.028  33.708  1.00  0.00     0.058 A 
ATOM     88  C   UNL A   1      42.915  29.329  35.059  1.00  0.00     0.135 A 
ATOM     89  C   UNL A   1      43.049  27.683  33.319  1.00  0.00     0.135 A 
ATOM     90  F   UNL A   1      42.906  30.596  35.496  1.00  0.00    -0.206 F 
ATOM     91  C   UNL A   1      42.599  28.332  35.985  1.00  0.00     0.059 A 
ATOM     92  C   UNL A   1      42.701  26.679  34.219  1.00  0.00     0.059 A 
ATOM     93  F   UNL A   1      43.219  27.337  32.032  1.00  0.00    -0.206 F 
ATOM     94  C   UNL A   1      42.485  27.012  35.554  1.00  0.00     0.060 A 
BRANCH  94  95
ATOM     95  S   UNL A   1      41.967  25.747  36.735  1.00  0.00     0.124 S 
ATOM     96  O   UNL A   1      42.970  24.708  36.531  1.00  0.00    -0.237 OA
ATOM     97  O   UNL A   1      42.038  26.462  38.007  1.00  0.00    -0.237 OA
ATOM     98  O   UNL A   1      40.615  25.405  36.299  1.00  0.00    -0.744 OA
ENDBRANCH  94  95
ENDBRANCH  62  87
ENDBRANCH  36  37
ENDBRANCH  29  31
ENDBRANCH  28  29
ENDBRANCH  27  28
ENDBRANCH  26  27
ENDBRANCH  25  26
ENDBRANCH  24  25
ENDBRANCH   1  24
TORSDOF 24
ENDMDL
MODEL 3
REMARK VINA RESULT:      -8.9      4.012      9.157
REMARK SMILES Nc1ccc2[nH]cc(C(=O)OCCOCCOCCOCCOC(=O)c3ccc(-c4c5nc(c(-c6c(F)cc(S(=O)(=O)[O-])cc6F)c6ccc([nH]6)c(-c6c(F)cc(S(=O)(=O)[O-])cc6F)c6nc(c(-c7c(F)cc(S(=O)(=O)[O-])cc7F)c7ccc4[nH]7)C=C6)C=C5)cc3)c2c1
REMARK SMILES IDX 18 1 17 2 16 3 15 4 14 5 13 6 12 7 11 8 9 9 10 10 8 11 2 12
REMARK SMILES IDX 3 13 93 14 4 15 92 16 5 17 6 18 7 19 1 21 19 24 20 25 21 26
REMARK SMILES IDX 22 27 23 28 24 29 25 30 26 31 27 32 91 33 28 34 90 35 29 36
REMARK SMILES IDX 30 37 31 38 84 39 32 40 89 41 83 42 85 43 33 44 88 45 82 46
REMARK SMILES IDX 81 47 34 49 68 50 47 51 67 52 48 53 51 54 66 55 86 56 49 57
REMARK SMILES IDX 50 58 65 60 87 61 52 62 35 63 36 64 45 65 37 66 38 67 44 68
REMARK SMILES IDX 46 69 39 70 40 71 41 72 42 73 43 74 69 75 70 76 79 77 71 78
REMARK SMILES IDX 72 79 78 80 80 81 73 82 74 83 75 84 76 85 77 86 53 87 54 88
REMARK SMILES IDX 63 89 55 90 56 91 62 92 64 93 57 94 58 95 59 96 60 97 61 98
REMARK H PARENT 6 20 1 22 1 23 85 48 51 59
REMARK Flexibility Score: inf
ROOT
ATOM      1  C   UNL A   1      33.577  28.301  23.022  1.00  0.00     0.188 C 
ENDROOT
BRANCH   1   2
ATOM      2  O   UNL A   1      34.069  27.137  22.374  1.00  0.00    -0.377 OA
BRANCH   2   3
ATOM      3  C   UNL A   1      33.286  25.965  22.432  1.00  0.00     0.188 C 
BRANCH   3   4
ATOM      4  C   UNL A   1      33.222  25.366  23.842  1.00  0.00     0.188 C 
BRANCH   4   5
ATOM      5  O   UNL A   1      34.481  24.972  24.350  1.00  0.00    -0.376 OA
BRANCH   5   6
ATOM      6  C   UNL A   1      34.606  24.048  25.427  1.00  0.00     0.202 C 
BRANCH   6   7
ATOM      7  C   UNL A   1      34.681  22.508  25.313  1.00  0.00     0.261 C 
BRANCH   7   8
ATOM      8  O   UNL A   1      35.891  21.855  25.689  1.00  0.00    -0.460 OA
BRANCH   8   9
ATOM      9  C   UNL A   1      36.998  22.111  24.944  1.00  0.00     0.340 C 
ATOM     10  O   UNL A   1      37.010  22.211  23.734  1.00  0.00    -0.246 OA
BRANCH   9  11
ATOM     11  C   UNL A   1      38.101  22.544  25.804  1.00  0.00     0.085 A 
ATOM     12  C   UNL A   1      41.035  20.172  26.560  1.00  0.00     0.032 A 
ATOM     13  C   UNL A   1      41.658  21.024  27.472  1.00  0.00     0.027 A 
ATOM     14  C   UNL A   1      39.808  20.550  25.994  1.00  0.00     0.036 A 
ATOM     15  C   UNL A   1      41.125  22.279  27.788  1.00  0.00     0.029 A 
ATOM     16  C   UNL A   1      39.263  21.829  26.254  1.00  0.00     0.016 A 
ATOM     17  C   UNL A   1      39.938  22.657  27.155  1.00  0.00     0.046 A 
ATOM     18  N   UNL A   1      39.207  23.814  27.270  1.00  0.00    -0.360 N 
ATOM     19  C   UNL A   1      38.120  23.773  26.445  1.00  0.00     0.099 A 
ATOM     20  H   UNL A   1      39.434  24.567  27.862  1.00  0.00     0.166 HD
BRANCH  12  21
ATOM     21  N   UNL A   1      41.553  18.901  26.326  1.00  0.00    -0.399 N 
ATOM     22  H   UNL A   1      42.496  18.794  26.066  1.00  0.00     0.156 HD
ATOM     23  H   UNL A   1      40.975  18.109  26.418  1.00  0.00     0.156 HD
ENDBRANCH  12  21
ENDBRANCH   9  11
ENDBRANCH   8   9
ENDBRANCH   7   8
ENDBRANCH   6   7
ENDBRANCH   5   6
ENDBRANCH   4   5
ENDBRANCH   3   4
ENDBRANCH   2   3
ENDBRANCH   1   2
BRANCH   1  24
ATOM     24  C   UNL A   1      32.198  28.910  22.689  1.00  0.00     0.188 C 
BRANCH  24  25
ATOM     25  O   UNL A   1      31.325  28.995  23.815  1.00  0.00    -0.376 OA
BRANCH  25  26
ATOM     26  C   UNL A   1      31.950  29.178  25.081  1.00  0.00     0.202 C 
BRANCH  26  27
ATOM     27  C   UNL A   1      31.577  30.480  25.805  1.00  0.00     0.261 C 
BRANCH  27  28
ATOM     28  O   UNL A   1      32.424  30.752  26.932  1.00  0.00    -0.460 OA
BRANCH  28  29
ATOM     29  C   UNL A   1      32.692  32.042  27.240  1.00  0.00     0.338 C 
ATOM     30  O   UNL A   1      31.936  32.990  27.143  1.00  0.00    -0.246 OA
BRANCH  29  31
ATOM     31  C   UNL A   1      33.927  31.999  28.061  1.00  0.00     0.060 A 
ATOM     32  C   UNL A   1      34.550  33.173  28.502  1.00  0.00     0.016 A 
ATOM     33  C   UNL A   1      34.606  30.774  28.092  1.00  0.00     0.016 A 
ATOM     34  C   UNL A   1      35.897  33.135  28.854  1.00  0.00     0.010 A 
ATOM     35  C   UNL A   1      35.957  30.746  28.426  1.00  0.00     0.010 A 
ATOM     36  C   UNL A   1      36.617  31.934  28.758  1.00  0.00    -0.014 A 
BRANCH  36  37
ATOM     37  C   UNL A   1      38.029  31.932  29.167  1.00  0.00     0.031 A 
ATOM     38  C   UNL A   1      38.730  30.637  28.925  1.00  0.00     0.074 A 
ATOM     39  C   UNL A   1      38.729  33.026  29.540  1.00  0.00     0.049 A 
ATOM     40  N   UNL A   1      39.444  29.922  29.733  1.00  0.00    -0.248 NA
ATOM     41  C   UNL A   1      38.529  30.027  27.597  1.00  0.00     0.031 C 
ATOM     42  C   UNL A   1      38.276  34.417  29.507  1.00  0.00     0.029 A 
ATOM     43  N   UNL A   1      40.044  33.140  29.912  1.00  0.00    -0.354 N 
ATOM     44  C   UNL A   1      39.925  28.861  28.967  1.00  0.00     0.074 A 
ATOM     45  C   UNL A   1      39.232  28.905  27.707  1.00  0.00     0.031 C 
ATOM     46  C   UNL A   1      39.338  35.237  29.657  1.00  0.00     0.029 A 
ATOM     47  C   UNL A   1      40.536  34.441  29.858  1.00  0.00     0.049 A 
ATOM     48  H   UNL A   1      40.590  32.371  30.193  1.00  0.00     0.167 HD
ATOM     49  C   UNL A   1      40.998  28.108  29.325  1.00  0.00     0.037 A 
ATOM     50  C   UNL A   1      41.838  34.834  29.859  1.00  0.00     0.037 A 
ATOM     51  C   UNL A   1      41.299  28.200  30.723  1.00  0.00     0.049 A 
ATOM     52  C   UNL A   1      42.651  33.716  30.401  1.00  0.00     0.074 A 
ATOM     53  C   UNL A   1      40.623  27.871  31.881  1.00  0.00     0.029 A 
ATOM     54  N   UNL A   1      42.346  28.995  31.115  1.00  0.00    -0.354 N 
ATOM     55  N   UNL A   1      42.612  33.297  31.635  1.00  0.00    -0.248 NA
ATOM     56  C   UNL A   1      43.261  32.798  29.452  1.00  0.00     0.031 C 
ATOM     57  C   UNL A   1      41.019  28.847  32.840  1.00  0.00     0.029 A 
ATOM     58  C   UNL A   1      41.931  29.702  32.217  1.00  0.00     0.049 A 
ATOM     59  H   UNL A   1      43.230  29.049  30.687  1.00  0.00     0.167 HD
ATOM     60  C   UNL A   1      42.806  31.926  31.552  1.00  0.00     0.074 A 
ATOM     61  C   UNL A   1      43.306  31.695  30.202  1.00  0.00     0.031 C 
ATOM     62  C   UNL A   1      42.291  31.078  32.489  1.00  0.00     0.037 A 
BRANCH  49  63
ATOM     63  C   UNL A   1      41.933  27.500  28.315  1.00  0.00     0.058 A 
ATOM     64  C   UNL A   1      42.118  26.109  28.252  1.00  0.00     0.135 A 
ATOM     65  C   UNL A   1      42.833  28.279  27.551  1.00  0.00     0.135 A 
ATOM     66  F   UNL A   1      41.339  25.285  28.972  1.00  0.00    -0.206 F 
ATOM     67  C   UNL A   1      43.140  25.531  27.497  1.00  0.00     0.059 A 
ATOM     68  C   UNL A   1      43.821  27.723  26.748  1.00  0.00     0.059 A 
ATOM     69  F   UNL A   1      42.843  29.617  27.622  1.00  0.00    -0.206 F 
ATOM     70  C   UNL A   1      43.990  26.348  26.755  1.00  0.00     0.060 A 
BRANCH  70  71
ATOM     71  S   UNL A   1      45.367  25.612  25.855  1.00  0.00     0.124 S 
ATOM     72  O   UNL A   1      44.811  24.316  25.485  1.00  0.00    -0.237 OA
ATOM     73  O   UNL A   1      45.559  26.561  24.763  1.00  0.00    -0.237 OA
ATOM     74  O   UNL A   1      46.439  25.581  26.845  1.00  0.00    -0.744 OA
ENDBRANCH  70  71
ENDBRANCH  49  63
BRANCH  50  75
ATOM     75  C   UNL A   1      42.449  35.959  29.087  1.00  0.00     0.058 A 
ATOM     76  C   UNL A   1      42.053  36.245  27.765  1.00  0.00     0.135 A 
ATOM     77  C   UNL A   1      43.232  36.948  29.718  1.00  0.00     0.135 A 
ATOM     78  F   UNL A   1      41.286  35.378  27.088  1.00  0.00    -0.206 F 
ATOM     79  C   UNL A   1      42.367  37.456  27.134  1.00  0.00     0.059 A 
ATOM     80  C   UNL A   1      43.576  38.149  29.102  1.00  0.00     0.059 A 
ATOM     81  F   UNL A   1      43.608  36.832  30.999  1.00  0.00    -0.206 F 
ATOM     82  C   UNL A   1      43.112  38.413  27.822  1.00  0.00     0.060 A 
BRANCH  82  83
ATOM     83  S   UNL A   1      43.350  40.057  27.107  1.00  0.00     0.124 S 
ATOM     84  O   UNL A   1      44.063  40.752  28.172  1.00  0.00    -0.237 OA
ATOM     85  O   UNL A   1      44.127  39.758  25.907  1.00  0.00    -0.237 OA
ATOM     86  O   UNL A   1      41.987  40.521  26.861  1.00  0.00    -0.744 OA
ENDBRANCH  82  83
ENDBRANCH  50  75
BRANCH  62  87
ATOM     87  C   UNL A   1      41.819  31.660  33.797  1.00  0.00     0.058 A 
ATOM     88  C   UNL A   1      40.590  32.319  33.976  1.00  0.00     0.135 A 
ATOM     89  C   UNL A   1      42.580  31.399  34.950  1.00  0.00     0.135 A 
ATOM     90  F   UNL A   1      39.755  32.519  32.946  1.00  0.00    -0.206 F 
ATOM     91  C   UNL A   1      40.156  32.731  35.238  1.00  0.00     0.059 A 
ATOM     92  C   UNL A   1      42.149  31.770  36.221  1.00  0.00     0.059 A 
ATOM     93  F   UNL A   1      43.736  30.722  34.854  1.00  0.00    -0.206 F 
ATOM     94  C   UNL A   1      40.938  32.444  36.356  1.00  0.00     0.060 A 
BRANCH  94  95
ATOM     95  S   UNL A   1      40.317  32.881  37.995  1.00  0.00     0.124 S 
ATOM     96  O   UNL A   1      40.342  34.339  37.953  1.00  0.00    -0.237 OA
ATOM     97  O   UNL A   1      38.993  32.265  38.000  1.00  0.00    -0.237 OA
ATOM     98  O   UNL A   1      41.283  32.266  38.902  1.00  0.00    -0.744 OA
ENDBRANCH  94  95
ENDBRANCH  62  87
ENDBRANCH  36  37
ENDBRANCH  29  31
ENDBRANCH  28  29
ENDBRANCH  27  28
ENDBRANCH  26  27
ENDBRANCH  25  26
ENDBRANCH  24  25
ENDBRANCH   1  24
TORSDOF 24
ENDMDL
