MODEL 1
REMARK VINA RESULT:      -9.2      0.000      0.000
REMARK SMILES O=C(OCCOCCOCCOCCOC(=O)c1ccc(-c2c3nc(c(-c4c(F)cc(S(=O)(=O)[O-])cc4F)c4ccc([nH]4)c(-c4c(F)cc(S(=O)(=O)[O-])cc4F)c4nc(c(-c5c(F)cc(S(=O)(=O)[O-])cc5F)c5ccc2[nH]5)C=C4)C=C3)cc1)C1=Cc2cc(Cl)cc(-c3ccc(O)cc3)c2O[C@@H]1C(F)(F)F
REMARK SMILES IDX 10 1 9 2 8 3 7 4 6 5 5 6 4 7 3 8 2 9 1 10 84 11 85 12 101 13
REMARK SMILES IDX 86 14 100 15 87 16 99 17 88 18 91 19 89 20 90 21 102 22
REMARK SMILES IDX 103 23 104 24 105 25 92 26 93 27 98 28 94 29 97 30 95 31
REMARK SMILES IDX 96 32 11 34 12 35 13 36 14 37 15 38 16 39 17 40 18 41 19 42
REMARK SMILES IDX 83 43 20 44 82 45 21 46 22 47 23 48 76 49 24 50 81 51 75 52
REMARK SMILES IDX 77 53 25 54 80 55 74 56 73 57 26 59 60 60 39 61 59 62 40 63
REMARK SMILES IDX 43 64 58 65 78 66 41 67 42 68 57 70 79 71 44 72 27 73 28 74
REMARK SMILES IDX 37 75 29 76 30 77 36 78 38 79 31 80 32 81 33 82 34 83 35 84
REMARK SMILES IDX 61 85 62 86 71 87 63 88 64 89 70 90 72 91 65 92 66 93 67 94
REMARK SMILES IDX 68 95 69 96 45 97 46 98 55 99 47 100 48 101 54 102 56 103
REMARK SMILES IDX 49 104 50 105 51 106 52 107 53 108
REMARK H PARENT 96 33 77 58 43 69
REMARK Flexibility Score: inf
ROOT
ATOM      1  C   UNL A   1      45.511  21.918  25.669  1.00  0.00     0.188 C 
ENDROOT
BRANCH   1   2
ATOM      2  O   UNL A   1      46.602  22.802  25.754  1.00  0.00    -0.377 OA
BRANCH   2   3
ATOM      3  C   UNL A   1      46.489  23.806  24.781  1.00  0.00     0.188 C 
BRANCH   3   4
ATOM      4  C   UNL A   1      47.142  25.082  25.286  1.00  0.00     0.188 C 
BRANCH   4   5
ATOM      5  O   UNL A   1      46.401  26.221  25.846  1.00  0.00    -0.376 OA
BRANCH   5   6
ATOM      6  C   UNL A   1      45.726  27.594  25.212  1.00  0.00     0.202 C 
BRANCH   6   7
ATOM      7  C   UNL A   1      46.118  29.668  25.779  1.00  0.00     0.261 C 
BRANCH   7   8
ATOM      8  O   UNL A   1      45.834  30.305  27.137  1.00  0.00    -0.460 OA
BRANCH   8   9
ATOM      9  C   UNL A   1      44.964  31.317  27.061  1.00  0.00     0.338 C 
ATOM     10  O   UNL A   1      44.260  31.647  26.139  1.00  0.00    -0.246 OA
BRANCH   9  11
ATOM     11  C   UNL A   1      45.493  32.067  28.182  1.00  0.00     0.087 C 
ATOM     12  C   UNL A   1      46.702  32.823  27.857  1.00  0.00     0.027 C 
ATOM     13  C   UNL A   1      43.797  32.843  28.659  1.00  0.00     0.316 C 
ATOM     14  C   UNL A   1      46.737  34.604  27.618  1.00  0.00     0.019 A 
ATOM     15  O   UNL A   1      43.779  34.768  28.313  1.00  0.00    -0.475 OA
ATOM     16  C   UNL A   1      47.912  35.149  27.163  1.00  0.00     0.032 A 
ATOM     17  C   UNL A   1      45.311  35.593  27.701  1.00  0.00     0.135 A 
ATOM     18  C   UNL A   1      47.850  36.496  26.793  1.00  0.00     0.042 A 
ATOM     19  C   UNL A   1      45.346  36.909  27.250  1.00  0.00     0.026 A 
ATOM     20  Cl  UNL A   1      49.309  37.224  26.206  1.00  0.00    -0.084 Cl
ATOM     21  C   UNL A   1      46.658  37.312  26.830  1.00  0.00     0.033 A 
BRANCH  13  22
ATOM     22  C   UNL A   1      43.720  31.907  30.042  1.00  0.00     0.430 C 
ATOM     23  F   UNL A   1      44.366  30.728  30.068  1.00  0.00    -0.167 F 
ATOM     24  F   UNL A   1      44.335  32.629  31.033  1.00  0.00    -0.167 F 
ATOM     25  F   UNL A   1      42.465  31.699  30.520  1.00  0.00    -0.167 F 
ENDBRANCH  13  22
BRANCH  19  26
ATOM     26  C   UNL A   1      44.292  37.904  27.177  1.00  0.00    -0.014 A 
ATOM     27  C   UNL A   1      44.444  39.161  26.585  1.00  0.00     0.012 A 
ATOM     28  C   UNL A   1      43.104  37.664  27.848  1.00  0.00     0.012 A 
ATOM     29  C   UNL A   1      43.359  40.047  26.494  1.00  0.00     0.047 A 
ATOM     30  C   UNL A   1      41.986  38.453  27.607  1.00  0.00     0.047 A 
ATOM     31  C   UNL A   1      42.112  39.652  26.943  1.00  0.00     0.115 A 
BRANCH  31  32
ATOM     32  O   UNL A   1      41.039  40.465  26.774  1.00  0.00    -0.508 OA
ATOM     33  H   UNL A   1      40.171  40.119  26.851  1.00  0.00     0.293 HD
ENDBRANCH  31  32
ENDBRANCH  19  26
ENDBRANCH   9  11
ENDBRANCH   8   9
ENDBRANCH   7   8
ENDBRANCH   6   7
ENDBRANCH   5   6
ENDBRANCH   4   5
ENDBRANCH   3   4
ENDBRANCH   2   3
ENDBRANCH   1   2
BRANCH   1  34
ATOM     34  C   UNL A   1      44.462  22.108  24.579  1.00  0.00     0.188 C 
BRANCH  34  35
ATOM     35  O   UNL A   1      43.101  22.320  24.886  1.00  0.00    -0.376 OA
BRANCH  35  36
ATOM     36  C   UNL A   1      42.744  23.526  25.532  1.00  0.00     0.202 C 
BRANCH  36  37
ATOM     37  C   UNL A   1      41.408  23.611  26.308  1.00  0.00     0.261 C 
BRANCH  37  38
ATOM     38  O   UNL A   1      40.536  24.733  26.060  1.00  0.00    -0.460 OA
BRANCH  38  39
ATOM     39  C   UNL A   1      41.103  25.963  25.975  1.00  0.00     0.338 C 
ATOM     40  O   UNL A   1      41.495  26.521  24.967  1.00  0.00    -0.246 OA
BRANCH  39  41
ATOM     41  C   UNL A   1      41.025  26.602  27.320  1.00  0.00     0.060 A 
ATOM     42  C   UNL A   1      39.996  26.257  28.215  1.00  0.00     0.016 A 
ATOM     43  C   UNL A   1      41.998  27.520  27.717  1.00  0.00     0.016 A 
ATOM     44  C   UNL A   1      39.958  26.790  29.520  1.00  0.00     0.010 A 
ATOM     45  C   UNL A   1      41.953  28.061  29.010  1.00  0.00     0.010 A 
ATOM     46  C   UNL A   1      40.939  27.701  29.935  1.00  0.00    -0.014 A 
BRANCH  46  47
ATOM     47  C   UNL A   1      40.823  28.520  31.183  1.00  0.00     0.031 A 
ATOM     48  C   UNL A   1      39.817  29.632  31.121  1.00  0.00     0.074 A 
ATOM     49  C   UNL A   1      41.604  28.415  32.282  1.00  0.00     0.049 A 
ATOM     50  N   UNL A   1      39.661  30.664  31.901  1.00  0.00    -0.248 NA
ATOM     51  C   UNL A   1      38.882  29.577  29.984  1.00  0.00     0.031 C 
ATOM     52  C   UNL A   1      42.547  27.345  32.573  1.00  0.00     0.029 A 
ATOM     53  N   UNL A   1      41.763  29.278  33.351  1.00  0.00    -0.354 N 
ATOM     54  C   UNL A   1      38.620  31.385  31.340  1.00  0.00     0.074 A 
ATOM     55  C   UNL A   1      38.263  30.735  30.100  1.00  0.00     0.031 C 
ATOM     56  C   UNL A   1      43.271  27.665  33.661  1.00  0.00     0.029 A 
ATOM     57  C   UNL A   1      42.826  28.958  34.172  1.00  0.00     0.049 A 
ATOM     58  H   UNL A   1      41.173  30.050  33.510  1.00  0.00     0.167 HD
ATOM     59  C   UNL A   1      37.976  32.467  31.832  1.00  0.00     0.037 A 
ATOM     60  C   UNL A   1      43.386  29.628  35.207  1.00  0.00     0.037 A 
ATOM     61  C   UNL A   1      38.328  33.114  33.062  1.00  0.00     0.049 A 
ATOM     62  C   UNL A   1      42.747  30.910  35.686  1.00  0.00     0.074 A 
ATOM     63  C   UNL A   1      37.716  34.195  33.665  1.00  0.00     0.029 A 
ATOM     64  N   UNL A   1      39.400  32.755  33.866  1.00  0.00    -0.354 N 
ATOM     65  N   UNL A   1      41.720  31.553  35.183  1.00  0.00    -0.248 NA
ATOM     66  C   UNL A   1      43.305  31.534  36.896  1.00  0.00     0.031 C 
ATOM     67  C   UNL A   1      38.465  34.543  34.792  1.00  0.00     0.029 A 
ATOM     68  C   UNL A   1      39.491  33.620  34.941  1.00  0.00     0.049 A 
ATOM     69  H   UNL A   1      40.005  31.997  33.696  1.00  0.00     0.167 HD
ATOM     70  C   UNL A   1      41.468  32.613  36.050  1.00  0.00     0.074 A 
ATOM     71  C   UNL A   1      42.466  32.544  37.095  1.00  0.00     0.031 C 
ATOM     72  C   UNL A   1      40.476  33.538  35.994  1.00  0.00     0.037 A 
BRANCH  59  73
ATOM     73  C   UNL A   1      36.857  33.013  30.994  1.00  0.00     0.058 A 
ATOM     74  C   UNL A   1      37.090  33.914  29.939  1.00  0.00     0.135 A 
ATOM     75  C   UNL A   1      35.527  32.695  31.307  1.00  0.00     0.135 A 
ATOM     76  F   UNL A   1      38.344  34.272  29.618  1.00  0.00    -0.206 F 
ATOM     77  C   UNL A   1      36.043  34.539  29.277  1.00  0.00     0.059 A 
ATOM     78  C   UNL A   1      34.465  33.273  30.624  1.00  0.00     0.059 A 
ATOM     79  F   UNL A   1      35.250  31.845  32.307  1.00  0.00    -0.206 F 
ATOM     80  C   UNL A   1      34.732  34.217  29.633  1.00  0.00     0.060 A 
BRANCH  80  81
ATOM     81  S   UNL A   1      33.383  35.073  28.800  1.00  0.00     0.124 S 
ATOM     82  O   UNL A   1      34.115  35.983  27.924  1.00  0.00    -0.237 OA
ATOM     83  O   UNL A   1      32.687  33.977  28.135  1.00  0.00    -0.237 OA
ATOM     84  O   UNL A   1      32.655  35.705  29.894  1.00  0.00    -0.744 OA
ENDBRANCH  80  81
ENDBRANCH  59  73
BRANCH  60  85
ATOM     85  C   UNL A   1      44.603  29.090  35.888  1.00  0.00     0.058 A 
ATOM     86  C   UNL A   1      45.892  29.529  35.544  1.00  0.00     0.135 A 
ATOM     87  C   UNL A   1      44.502  28.122  36.901  1.00  0.00     0.135 A 
ATOM     88  F   UNL A   1      46.053  30.430  34.563  1.00  0.00    -0.206 F 
ATOM     89  C   UNL A   1      47.031  29.038  36.181  1.00  0.00     0.059 A 
ATOM     90  C   UNL A   1      45.626  27.630  37.567  1.00  0.00     0.059 A 
ATOM     91  F   UNL A   1      43.299  27.654  37.264  1.00  0.00    -0.206 F 
ATOM     92  C   UNL A   1      46.887  28.098  37.203  1.00  0.00     0.060 A 
BRANCH  92  93
ATOM     93  S   UNL A   1      48.367  27.552  38.089  1.00  0.00     0.124 S 
ATOM     94  O   UNL A   1      48.077  26.142  38.320  1.00  0.00    -0.237 OA
ATOM     95  O   UNL A   1      49.419  27.839  37.120  1.00  0.00    -0.237 OA
ATOM     96  O   UNL A   1      48.377  28.396  39.281  1.00  0.00    -0.744 OA
ENDBRANCH  92  93
ENDBRANCH  60  85
BRANCH  72  97
ATOM     97  C   UNL A   1      40.345  34.524  37.124  1.00  0.00     0.058 A 
ATOM     98  C   UNL A   1      40.971  35.778  37.105  1.00  0.00     0.135 A 
ATOM     99  C   UNL A   1      39.460  34.251  38.184  1.00  0.00     0.135 A 
ATOM    100  F   UNL A   1      41.829  36.092  36.122  1.00  0.00    -0.206 F 
ATOM    101  C   UNL A   1      40.726  36.726  38.095  1.00  0.00     0.059 A 
ATOM    102  C   UNL A   1      39.173  35.195  39.162  1.00  0.00     0.059 A 
ATOM    103  F   UNL A   1      38.825  33.069  38.246  1.00  0.00    -0.206 F 
ATOM    104  C   UNL A   1      39.813  36.432  39.111  1.00  0.00     0.060 A 
BRANCH 104 105
ATOM    105  S   UNL A   1      39.440  37.701  40.338  1.00  0.00     0.124 S 
ATOM    106  O   UNL A   1      38.497  38.545  39.613  1.00  0.00    -0.237 OA
ATOM    107  O   UNL A   1      38.878  36.917  41.434  1.00  0.00    -0.237 OA
ATOM    108  O   UNL A   1      40.741  38.306  40.611  1.00  0.00    -0.744 OA
ENDBRANCH 104 105
ENDBRANCH  72  97
ENDBRANCH  46  47
ENDBRANCH  39  41
ENDBRANCH  38  39
ENDBRANCH  37  38
ENDBRANCH  36  37
ENDBRANCH  35  36
ENDBRANCH  34  35
ENDBRANCH   1  34
TORSDOF 26
ENDMDL
MODEL 2
REMARK VINA RESULT:      -9.0      5.620     13.595
REMARK SMILES O=C(OCCOCCOCCOCCOC(=O)c1ccc(-c2c3nc(c(-c4c(F)cc(S(=O)(=O)[O-])cc4F)c4ccc([nH]4)c(-c4c(F)cc(S(=O)(=O)[O-])cc4F)c4nc(c(-c5c(F)cc(S(=O)(=O)[O-])cc5F)c5ccc2[nH]5)C=C4)C=C3)cc1)C1=Cc2cc(Cl)cc(-c3ccc(O)cc3)c2O[C@@H]1C(F)(F)F
REMARK SMILES IDX 10 1 9 2 8 3 7 4 6 5 5 6 4 7 3 8 2 9 1 10 84 11 85 12 101 13
REMARK SMILES IDX 86 14 100 15 87 16 99 17 88 18 91 19 89 20 90 21 102 22
REMARK SMILES IDX 103 23 104 24 105 25 92 26 93 27 98 28 94 29 97 30 95 31
REMARK SMILES IDX 96 32 11 34 12 35 13 36 14 37 15 38 16 39 17 40 18 41 19 42
REMARK SMILES IDX 83 43 20 44 82 45 21 46 22 47 23 48 76 49 24 50 81 51 75 52
REMARK SMILES IDX 77 53 25 54 80 55 74 56 73 57 26 59 60 60 39 61 59 62 40 63
REMARK SMILES IDX 43 64 58 65 78 66 41 67 42 68 57 70 79 71 44 72 27 73 28 74
REMARK SMILES IDX 37 75 29 76 30 77 36 78 38 79 31 80 32 81 33 82 34 83 35 84
REMARK SMILES IDX 61 85 62 86 71 87 63 88 64 89 70 90 72 91 65 92 66 93 67 94
REMARK SMILES IDX 68 95 69 96 45 97 46 98 55 99 47 100 48 101 54 102 56 103
REMARK SMILES IDX 49 104 50 105 51 106 52 107 53 108
REMARK H PARENT 96 33 77 58 43 69
REMARK Flexibility Score: inf
ROOT
ATOM      1  C   UNL A   1      48.415  37.174  34.543  1.00  0.00     0.188 C 
ENDROOT
BRANCH   1   2
ATOM      2  O   UNL A   1      47.924  36.907  35.834  1.00  0.00    -0.377 OA
BRANCH   2   3
ATOM      3  C   UNL A   1      46.913  37.820  36.167  1.00  0.00     0.188 C 
BRANCH   3   4
ATOM      4  C   UNL A   1      45.750  37.668  35.202  1.00  0.00     0.188 C 
BRANCH   4   5
ATOM      5  O   UNL A   1      45.147  38.781  34.456  1.00  0.00    -0.376 OA
BRANCH   5   6
ATOM      6  C   UNL A   1      43.773  38.965  33.548  1.00  0.00     0.202 C 
BRANCH   6   7
ATOM      7  C   UNL A   1      43.581  39.884  31.575  1.00  0.00     0.261 C 
BRANCH   7   8
ATOM      8  O   UNL A   1      44.720  40.417  30.709  1.00  0.00    -0.460 OA
BRANCH   8   9
ATOM      9  C   UNL A   1      44.612  40.048  29.428  1.00  0.00     0.338 C 
ATOM     10  O   UNL A   1      45.285  39.268  28.802  1.00  0.00    -0.246 OA
BRANCH   9  11
ATOM     11  C   UNL A   1      43.801  41.173  29.007  1.00  0.00     0.087 C 
ATOM     12  C   UNL A   1      44.497  42.456  29.094  1.00  0.00     0.027 C 
ATOM     13  C   UNL A   1      43.220  40.337  27.373  1.00  0.00     0.316 C 
ATOM     14  C   UNL A   1      45.136  43.349  27.672  1.00  0.00     0.019 A 
ATOM     15  O   UNL A   1      43.985  41.233  25.811  1.00  0.00    -0.475 OA
ATOM     16  C   UNL A   1      45.903  44.459  27.925  1.00  0.00     0.032 A 
ATOM     17  C   UNL A   1      45.028  42.736  26.050  1.00  0.00     0.135 A 
ATOM     18  C   UNL A   1      46.551  45.011  26.816  1.00  0.00     0.042 A 
ATOM     19  C   UNL A   1      45.764  43.328  25.028  1.00  0.00     0.026 A 
ATOM     20  Cl  UNL A   1      47.536  46.411  27.091  1.00  0.00    -0.084 Cl
ATOM     21  C   UNL A   1      46.490  44.484  25.472  1.00  0.00     0.033 A 
BRANCH  13  22
ATOM     22  C   UNL A   1      41.670  40.163  27.973  1.00  0.00     0.430 C 
ATOM     23  F   UNL A   1      41.249  40.996  28.942  1.00  0.00    -0.167 F 
ATOM     24  F   UNL A   1      40.819  40.431  26.932  1.00  0.00    -0.167 F 
ATOM     25  F   UNL A   1      41.342  38.899  28.347  1.00  0.00    -0.167 F 
ENDBRANCH  13  22
BRANCH  19  26
ATOM     26  C   UNL A   1      45.874  42.975  23.624  1.00  0.00    -0.014 A 
ATOM     27  C   UNL A   1      45.170  43.616  22.600  1.00  0.00     0.012 A 
ATOM     28  C   UNL A   1      46.608  41.853  23.277  1.00  0.00     0.012 A 
ATOM     29  C   UNL A   1      45.377  43.262  21.258  1.00  0.00     0.047 A 
ATOM     30  C   UNL A   1      46.952  41.618  21.951  1.00  0.00     0.047 A 
ATOM     31  C   UNL A   1      46.327  42.310  20.939  1.00  0.00     0.115 A 
BRANCH  31  32
ATOM     32  O   UNL A   1      46.600  42.030  19.639  1.00  0.00    -0.508 OA
ATOM     33  H   UNL A   1      46.252  41.256  19.243  1.00  0.00     0.293 HD
ENDBRANCH  31  32
ENDBRANCH  19  26
ENDBRANCH   9  11
ENDBRANCH   8   9
ENDBRANCH   7   8
ENDBRANCH   6   7
ENDBRANCH   5   6
ENDBRANCH   4   5
ENDBRANCH   3   4
ENDBRANCH   2   3
ENDBRANCH   1   2
BRANCH   1  34
ATOM     34  C   UNL A   1      48.343  36.097  33.466  1.00  0.00     0.188 C 
BRANCH  34  35
ATOM     35  O   UNL A   1      47.574  36.267  32.294  1.00  0.00    -0.376 OA
BRANCH  35  36
ATOM     36  C   UNL A   1      47.384  37.581  31.807  1.00  0.00     0.202 C 
BRANCH  36  37
ATOM     37  C   UNL A   1      48.004  37.990  30.450  1.00  0.00     0.261 C 
BRANCH  37  38
ATOM     38  O   UNL A   1      48.485  36.954  29.570  1.00  0.00    -0.460 OA
BRANCH  38  39
ATOM     39  C   UNL A   1      47.846  36.789  28.384  1.00  0.00     0.338 C 
ATOM     40  O   UNL A   1      47.748  37.603  27.485  1.00  0.00    -0.246 OA
BRANCH  39  41
ATOM     41  C   UNL A   1      47.408  35.367  28.290  1.00  0.00     0.060 A 
ATOM     42  C   UNL A   1      46.762  34.894  27.133  1.00  0.00     0.016 A 
ATOM     43  C   UNL A   1      47.670  34.483  29.337  1.00  0.00     0.016 A 
ATOM     44  C   UNL A   1      46.418  33.533  26.998  1.00  0.00     0.010 A 
ATOM     45  C   UNL A   1      47.316  33.131  29.209  1.00  0.00     0.010 A 
ATOM     46  C   UNL A   1      46.692  32.632  28.036  1.00  0.00    -0.014 A 
BRANCH  46  47
ATOM     47  C   UNL A   1      46.119  31.250  28.097  1.00  0.00     0.031 A 
ATOM     48  C   UNL A   1      47.017  30.167  27.574  1.00  0.00     0.074 A 
ATOM     49  C   UNL A   1      44.860  30.924  28.466  1.00  0.00     0.049 A 
ATOM     50  N   UNL A   1      46.740  28.938  27.241  1.00  0.00    -0.248 NA
ATOM     51  C   UNL A   1      48.422  30.557  27.364  1.00  0.00     0.031 C 
ATOM     52  C   UNL A   1      43.889  31.805  29.099  1.00  0.00     0.029 A 
ATOM     53  N   UNL A   1      44.157  29.745  28.299  1.00  0.00    -0.354 N 
ATOM     54  C   UNL A   1      47.934  28.414  26.773  1.00  0.00     0.074 A 
ATOM     55  C   UNL A   1      48.900  29.489  26.757  1.00  0.00     0.031 C 
ATOM     56  C   UNL A   1      42.692  31.192  29.155  1.00  0.00     0.029 A 
ATOM     57  C   UNL A   1      42.810  29.853  28.586  1.00  0.00     0.049 A 
ATOM     58  H   UNL A   1      44.578  28.906  28.002  1.00  0.00     0.167 HD
ATOM     59  C   UNL A   1      48.223  27.140  26.429  1.00  0.00     0.037 A 
ATOM     60  C   UNL A   1      41.788  28.984  28.404  1.00  0.00     0.037 A 
ATOM     61  C   UNL A   1      47.267  26.073  26.443  1.00  0.00     0.049 A 
ATOM     62  C   UNL A   1      42.086  27.592  27.899  1.00  0.00     0.074 A 
ATOM     63  C   UNL A   1      47.469  24.739  26.147  1.00  0.00     0.029 A 
ATOM     64  N   UNL A   1      45.922  26.220  26.748  1.00  0.00    -0.354 N 
ATOM     65  N   UNL A   1      43.233  27.086  27.515  1.00  0.00    -0.248 NA
ATOM     66  C   UNL A   1      40.967  26.638  27.845  1.00  0.00     0.031 C 
ATOM     67  C   UNL A   1      46.230  24.094  26.192  1.00  0.00     0.029 A 
ATOM     68  C   UNL A   1      45.272  25.007  26.608  1.00  0.00     0.049 A 
ATOM     69  H   UNL A   1      45.493  27.063  27.023  1.00  0.00     0.167 HD
ATOM     70  C   UNL A   1      42.990  25.743  27.241  1.00  0.00     0.074 A 
ATOM     71  C   UNL A   1      41.580  25.519  27.475  1.00  0.00     0.031 C 
ATOM     72  C   UNL A   1      43.868  24.781  26.861  1.00  0.00     0.037 A 
BRANCH  59  73
ATOM     73  C   UNL A   1      49.631  26.876  25.980  1.00  0.00     0.058 A 
ATOM     74  C   UNL A   1      49.976  26.810  24.618  1.00  0.00     0.135 A 
ATOM     75  C   UNL A   1      50.629  26.601  26.925  1.00  0.00     0.135 A 
ATOM     76  F   UNL A   1      49.049  27.037  23.672  1.00  0.00    -0.206 F 
ATOM     77  C   UNL A   1      51.239  26.404  24.210  1.00  0.00     0.059 A 
ATOM     78  C   UNL A   1      51.914  26.241  26.539  1.00  0.00     0.059 A 
ATOM     79  F   UNL A   1      50.352  26.645  28.238  1.00  0.00    -0.206 F 
ATOM     80  C   UNL A   1      52.200  26.115  25.180  1.00  0.00     0.060 A 
BRANCH  80  81
ATOM     81  S   UNL A   1      53.820  25.542  24.637  1.00  0.00     0.124 S 
ATOM     82  O   UNL A   1      54.686  26.100  25.672  1.00  0.00    -0.237 OA
ATOM     83  O   UNL A   1      53.658  24.093  24.659  1.00  0.00    -0.237 OA
ATOM     84  O   UNL A   1      53.962  26.137  23.312  1.00  0.00    -0.744 OA
ENDBRANCH  80  81
ENDBRANCH  59  73
BRANCH  60  85
ATOM     85  C   UNL A   1      40.385  29.385  28.731  1.00  0.00     0.058 A 
ATOM     86  C   UNL A   1      39.956  29.539  30.059  1.00  0.00     0.135 A 
ATOM     87  C   UNL A   1      39.441  29.624  27.718  1.00  0.00     0.135 A 
ATOM     88  F   UNL A   1      40.805  29.295  31.069  1.00  0.00    -0.206 F 
ATOM     89  C   UNL A   1      38.652  29.922  30.372  1.00  0.00     0.059 A 
ATOM     90  C   UNL A   1      38.136  30.027  28.005  1.00  0.00     0.059 A 
ATOM     91  F   UNL A   1      39.788  29.480  26.430  1.00  0.00    -0.206 F 
ATOM     92  C   UNL A   1      37.752  30.179  29.336  1.00  0.00     0.060 A 
BRANCH  92  93
ATOM     93  S   UNL A   1      36.098  30.776  29.758  1.00  0.00     0.124 S 
ATOM     94  O   UNL A   1      35.765  29.951  30.914  1.00  0.00    -0.237 OA
ATOM     95  O   UNL A   1      36.350  32.187  30.031  1.00  0.00    -0.237 OA
ATOM     96  O   UNL A   1      35.324  30.509  28.549  1.00  0.00    -0.744 OA
ENDBRANCH  92  93
ENDBRANCH  60  85
BRANCH  72  97
ATOM     97  C   UNL A   1      43.377  23.363  26.737  1.00  0.00     0.058 A 
ATOM     98  C   UNL A   1      43.181  22.741  25.497  1.00  0.00     0.135 A 
ATOM     99  C   UNL A   1      43.232  22.576  27.895  1.00  0.00     0.135 A 
ATOM    100  F   UNL A   1      43.300  23.443  24.360  1.00  0.00    -0.206 F 
ATOM    101  C   UNL A   1      42.859  21.388  25.407  1.00  0.00     0.059 A 
ATOM    102  C   UNL A   1      42.946  21.218  27.827  1.00  0.00     0.059 A 
ATOM    103  F   UNL A   1      43.418  23.119  29.108  1.00  0.00    -0.206 F 
ATOM    104  C   UNL A   1      42.759  20.632  26.577  1.00  0.00     0.060 A 
BRANCH 104 105
ATOM    105  S   UNL A   1      42.426  18.863  26.441  1.00  0.00     0.124 S 
ATOM    106  O   UNL A   1      42.364  18.465  27.842  1.00  0.00    -0.237 OA
ATOM    107  O   UNL A   1      41.157  18.842  25.718  1.00  0.00    -0.237 OA
ATOM    108  O   UNL A   1      43.573  18.355  25.695  1.00  0.00    -0.744 OA
ENDBRANCH 104 105
ENDBRANCH  72  97
ENDBRANCH  46  47
ENDBRANCH  39  41
ENDBRANCH  38  39
ENDBRANCH  37  38
ENDBRANCH  36  37
ENDBRANCH  35  36
ENDBRANCH  34  35
ENDBRANCH   1  34
TORSDOF 26
ENDMDL
MODEL 3
REMARK VINA RESULT:      -8.6      3.711      6.928
REMARK SMILES O=C(OCCOCCOCCOCCOC(=O)c1ccc(-c2c3nc(c(-c4c(F)cc(S(=O)(=O)[O-])cc4F)c4ccc([nH]4)c(-c4c(F)cc(S(=O)(=O)[O-])cc4F)c4nc(c(-c5c(F)cc(S(=O)(=O)[O-])cc5F)c5ccc2[nH]5)C=C4)C=C3)cc1)C1=Cc2cc(Cl)cc(-c3ccc(O)cc3)c2O[C@@H]1C(F)(F)F
REMARK SMILES IDX 10 1 9 2 8 3 7 4 6 5 5 6 4 7 3 8 2 9 1 10 84 11 85 12 101 13
REMARK SMILES IDX 86 14 100 15 87 16 99 17 88 18 91 19 89 20 90 21 102 22
REMARK SMILES IDX 103 23 104 24 105 25 92 26 93 27 98 28 94 29 97 30 95 31
REMARK SMILES IDX 96 32 11 34 12 35 13 36 14 37 15 38 16 39 17 40 18 41 19 42
REMARK SMILES IDX 83 43 20 44 82 45 21 46 22 47 23 48 76 49 24 50 81 51 75 52
REMARK SMILES IDX 77 53 25 54 80 55 74 56 73 57 26 59 60 60 39 61 59 62 40 63
REMARK SMILES IDX 43 64 58 65 78 66 41 67 42 68 57 70 79 71 44 72 27 73 28 74
REMARK SMILES IDX 37 75 29 76 30 77 36 78 38 79 31 80 32 81 33 82 34 83 35 84
REMARK SMILES IDX 61 85 62 86 71 87 63 88 64 89 70 90 72 91 65 92 66 93 67 94
REMARK SMILES IDX 68 95 69 96 45 97 46 98 55 99 47 100 48 101 54 102 56 103
REMARK SMILES IDX 49 104 50 105 51 106 52 107 53 108
REMARK H PARENT 96 33 77 58 43 69
REMARK Flexibility Score: inf
ROOT
ATOM      1  C   UNL A   1      48.652  35.250  30.245  1.00  0.00     0.188 C 
ENDROOT
BRANCH   1   2
ATOM      2  O   UNL A   1      48.319  34.643  31.469  1.00  0.00    -0.377 OA
BRANCH   2   3
ATOM      3  C   UNL A   1      48.038  33.282  31.276  1.00  0.00     0.188 C 
BRANCH   3   4
ATOM      4  C   UNL A   1      49.338  32.496  31.220  1.00  0.00     0.188 C 
BRANCH   4   5
ATOM      5  O   UNL A   1      49.963  31.854  32.384  1.00  0.00    -0.376 OA
BRANCH   5   6
ATOM      6  C   UNL A   1      49.587  30.550  33.334  1.00  0.00     0.202 C 
BRANCH   6   7
ATOM      7  C   UNL A   1      49.289  28.476  32.711  1.00  0.00     0.261 C 
BRANCH   7   8
ATOM      8  O   UNL A   1      48.810  28.002  31.341  1.00  0.00    -0.460 OA
BRANCH   8   9
ATOM      9  C   UNL A   1      47.597  28.471  31.028  1.00  0.00     0.338 C 
ATOM     10  O   UNL A   1      47.238  29.613  30.881  1.00  0.00    -0.246 OA
BRANCH   9  11
ATOM     11  C   UNL A   1      46.865  27.272  31.382  1.00  0.00     0.087 C 
ATOM     12  C   UNL A   1      46.184  27.366  32.674  1.00  0.00     0.027 C 
ATOM     13  C   UNL A   1      45.987  27.120  29.676  1.00  0.00     0.316 C 
ATOM     14  C   UNL A   1      44.412  27.598  32.858  1.00  0.00     0.019 A 
ATOM     15  O   UNL A   1      44.069  27.466  29.837  1.00  0.00    -0.475 OA
ATOM     16  C   UNL A   1      43.942  27.826  34.128  1.00  0.00     0.032 A 
ATOM     17  C   UNL A   1      43.341  27.782  31.503  1.00  0.00     0.135 A 
ATOM     18  C   UNL A   1      42.598  28.203  34.215  1.00  0.00     0.042 A 
ATOM     19  C   UNL A   1      42.035  28.221  31.699  1.00  0.00     0.026 A 
ATOM     20  Cl  UNL A   1      41.963  28.508  35.799  1.00  0.00    -0.084 Cl
ATOM     21  C   UNL A   1      41.714  28.390  33.087  1.00  0.00     0.033 A 
BRANCH  13  22
ATOM     22  C   UNL A   1      46.899  25.774  29.288  1.00  0.00     0.430 C 
ATOM     23  F   UNL A   1      47.870  25.380  30.131  1.00  0.00    -0.167 F 
ATOM     24  F   UNL A   1      46.035  24.710  29.278  1.00  0.00    -0.167 F 
ATOM     25  F   UNL A   1      47.422  25.784  28.034  1.00  0.00    -0.167 F 
ENDBRANCH  13  22
BRANCH  19  26
ATOM     26  C   UNL A   1      40.982  28.491  30.737  1.00  0.00    -0.014 A 
ATOM     27  C   UNL A   1      41.193  28.619  29.361  1.00  0.00     0.012 A 
ATOM     28  C   UNL A   1      39.710  28.776  31.208  1.00  0.00     0.012 A 
ATOM     29  C   UNL A   1      40.115  28.817  28.485  1.00  0.00     0.047 A 
ATOM     30  C   UNL A   1      38.625  28.792  30.341  1.00  0.00     0.047 A 
ATOM     31  C   UNL A   1      38.823  28.827  28.980  1.00  0.00     0.115 A 
BRANCH  31  32
ATOM     32  O   UNL A   1      37.770  28.923  28.129  1.00  0.00    -0.508 OA
ATOM     33  H   UNL A   1      37.246  29.700  28.116  1.00  0.00     0.293 HD
ENDBRANCH  31  32
ENDBRANCH  19  26
ENDBRANCH   9  11
ENDBRANCH   8   9
ENDBRANCH   7   8
ENDBRANCH   6   7
ENDBRANCH   5   6
ENDBRANCH   4   5
ENDBRANCH   3   4
ENDBRANCH   2   3
ENDBRANCH   1   2
BRANCH   1  34
ATOM     34  C   UNL A   1      47.890  34.873  28.979  1.00  0.00     0.188 C 
BRANCH  34  35
ATOM     35  O   UNL A   1      48.030  35.607  27.781  1.00  0.00    -0.376 OA
BRANCH  35  36
ATOM     36  C   UNL A   1      47.121  35.346  26.730  1.00  0.00     0.202 C 
BRANCH  36  37
ATOM     37  C   UNL A   1      47.319  34.096  25.841  1.00  0.00     0.261 C 
BRANCH  37  38
ATOM     38  O   UNL A   1      46.873  32.818  26.338  1.00  0.00    -0.460 OA
BRANCH  38  39
ATOM     39  C   UNL A   1      45.563  32.500  26.172  1.00  0.00     0.338 C 
ATOM     40  O   UNL A   1      44.990  32.286  25.120  1.00  0.00    -0.246 OA
BRANCH  39  41
ATOM     41  C   UNL A   1      44.963  32.296  27.521  1.00  0.00     0.060 A 
ATOM     42  C   UNL A   1      44.795  30.998  28.039  1.00  0.00     0.016 A 
ATOM     43  C   UNL A   1      44.599  33.395  28.299  1.00  0.00     0.016 A 
ATOM     44  C   UNL A   1      44.307  30.795  29.346  1.00  0.00     0.010 A 
ATOM     45  C   UNL A   1      44.100  33.193  29.595  1.00  0.00     0.010 A 
ATOM     46  C   UNL A   1      43.953  31.892  30.143  1.00  0.00    -0.014 A 
BRANCH  46  47
ATOM     47  C   UNL A   1      43.175  31.766  31.416  1.00  0.00     0.031 A 
ATOM     48  C   UNL A   1      41.704  32.035  31.289  1.00  0.00     0.074 A 
ATOM     49  C   UNL A   1      43.689  31.549  32.647  1.00  0.00     0.049 A 
ATOM     50  N   UNL A   1      40.814  32.270  32.212  1.00  0.00    -0.248 NA
ATOM     51  C   UNL A   1      41.185  32.081  29.912  1.00  0.00     0.031 C 
ATOM     52  C   UNL A   1      45.058  31.160  32.956  1.00  0.00     0.029 A 
ATOM     53  N   UNL A   1      43.109  31.688  33.895  1.00  0.00    -0.354 N 
ATOM     54  C   UNL A   1      39.635  32.503  31.524  1.00  0.00     0.074 A 
ATOM     55  C   UNL A   1      39.949  32.495  30.113  1.00  0.00     0.031 C 
ATOM     56  C   UNL A   1      45.252  31.211  34.287  1.00  0.00     0.029 A 
ATOM     57  C   UNL A   1      44.009  31.610  34.940  1.00  0.00     0.049 A 
ATOM     58  H   UNL A   1      42.144  31.829  34.025  1.00  0.00     0.167 HD
ATOM     59  C   UNL A   1      38.385  32.663  32.012  1.00  0.00     0.037 A 
ATOM     60  C   UNL A   1      43.858  31.843  36.265  1.00  0.00     0.037 A 
ATOM     61  C   UNL A   1      38.070  32.671  33.411  1.00  0.00     0.049 A 
ATOM     62  C   UNL A   1      42.482  32.147  36.807  1.00  0.00     0.074 A 
ATOM     63  C   UNL A   1      36.831  32.790  34.007  1.00  0.00     0.029 A 
ATOM     64  N   UNL A   1      39.004  32.581  34.432  1.00  0.00    -0.354 N 
ATOM     65  N   UNL A   1      41.358  32.305  36.150  1.00  0.00    -0.248 NA
ATOM     66  C   UNL A   1      42.338  32.259  38.267  1.00  0.00     0.031 C 
ATOM     67  C   UNL A   1      37.021  32.854  35.390  1.00  0.00     0.029 A 
ATOM     68  C   UNL A   1      38.371  32.681  35.658  1.00  0.00     0.049 A 
ATOM     69  H   UNL A   1      39.973  32.462  34.304  1.00  0.00     0.167 HD
ATOM     70  C   UNL A   1      40.367  32.465  37.115  1.00  0.00     0.074 A 
ATOM     71  C   UNL A   1      41.026  32.413  38.402  1.00  0.00     0.031 C 
ATOM     72  C   UNL A   1      39.029  32.610  36.942  1.00  0.00     0.037 A 
BRANCH  59  73
ATOM     73  C   UNL A   1      37.297  32.874  31.000  1.00  0.00     0.058 A 
ATOM     74  C   UNL A   1      37.167  34.082  30.291  1.00  0.00     0.135 A 
ATOM     75  C   UNL A   1      36.323  31.886  30.801  1.00  0.00     0.135 A 
ATOM     76  F   UNL A   1      38.058  35.072  30.468  1.00  0.00    -0.206 F 
ATOM     77  C   UNL A   1      36.067  34.331  29.482  1.00  0.00     0.059 A 
ATOM     78  C   UNL A   1      35.240  32.095  29.957  1.00  0.00     0.059 A 
ATOM     79  F   UNL A   1      36.397  30.717  31.456  1.00  0.00    -0.206 F 
ATOM     80  C   UNL A   1      35.105  33.332  29.327  1.00  0.00     0.060 A 
BRANCH  80  81
ATOM     81  S   UNL A   1      33.658  33.687  28.312  1.00  0.00     0.124 S 
ATOM     82  O   UNL A   1      32.808  34.401  29.260  1.00  0.00    -0.237 OA
ATOM     83  O   UNL A   1      34.226  34.494  27.238  1.00  0.00    -0.237 OA
ATOM     84  O   UNL A   1      33.187  32.364  27.919  1.00  0.00    -0.744 OA
ENDBRANCH  80  81
ENDBRANCH  59  73
BRANCH  60  85
ATOM     85  C   UNL A   1      45.033  31.766  37.186  1.00  0.00     0.058 A 
ATOM     86  C   UNL A   1      45.862  32.877  37.413  1.00  0.00     0.135 A 
ATOM     87  C   UNL A   1      45.353  30.576  37.861  1.00  0.00     0.135 A 
ATOM     88  F   UNL A   1      45.624  34.031  36.773  1.00  0.00    -0.206 F 
ATOM     89  C   UNL A   1      46.955  32.816  38.278  1.00  0.00     0.059 A 
ATOM     90  C   UNL A   1      46.429  30.495  38.747  1.00  0.00     0.059 A 
ATOM     91  F   UNL A   1      44.607  29.477  37.675  1.00  0.00    -0.206 F 
ATOM     92  C   UNL A   1      47.222  31.624  38.953  1.00  0.00     0.060 A 
BRANCH  92  93
ATOM     93  S   UNL A   1      48.578  31.594  40.149  1.00  0.00     0.124 S 
ATOM     94  O   UNL A   1      47.874  31.316  41.396  1.00  0.00    -0.237 OA
ATOM     95  O   UNL A   1      49.410  30.513  39.631  1.00  0.00    -0.237 OA
ATOM     96  O   UNL A   1      49.157  32.929  40.036  1.00  0.00    -0.744 OA
ENDBRANCH  92  93
ENDBRANCH  60  85
BRANCH  72  97
ATOM     97  C   UNL A   1      38.144  32.650  38.160  1.00  0.00     0.058 A 
ATOM     98  C   UNL A   1      37.420  31.534  38.599  1.00  0.00     0.135 A 
ATOM     99  C   UNL A   1      38.134  33.799  38.972  1.00  0.00     0.135 A 
ATOM    100  F   UNL A   1      37.388  30.413  37.863  1.00  0.00    -0.206 F 
ATOM    101  C   UNL A   1      36.717  31.553  39.802  1.00  0.00     0.059 A 
ATOM    102  C   UNL A   1      37.469  33.828  40.192  1.00  0.00     0.059 A 
ATOM    103  F   UNL A   1      38.818  34.893  38.603  1.00  0.00    -0.206 F 
ATOM    104  C   UNL A   1      36.761  32.699  40.599  1.00  0.00     0.060 A 
BRANCH 104 105
ATOM    105  S   UNL A   1      35.917  32.680  42.194  1.00  0.00     0.124 S 
ATOM    106  O   UNL A   1      36.628  31.615  42.893  1.00  0.00    -0.237 OA
ATOM    107  O   UNL A   1      36.156  34.033  42.688  1.00  0.00    -0.237 OA
ATOM    108  O   UNL A   1      34.531  32.383  41.845  1.00  0.00    -0.744 OA
ENDBRANCH 104 105
ENDBRANCH  72  97
ENDBRANCH  46  47
ENDBRANCH  39  41
ENDBRANCH  38  39
ENDBRANCH  37  38
ENDBRANCH  36  37
ENDBRANCH  35  36
ENDBRANCH  34  35
ENDBRANCH   1  34
TORSDOF 26
ENDMDL
