MODEL 1
REMARK VINA RESULT:     -10.7      0.000      0.000
REMARK SMILES Cc1cccc(OC2(C(=O)OCCOCCOCCOCCOC(=O)c3ccc(-c4c5nc(c(-c6c(F)cc(S(=O)(=O)[O-])cc6F)c6ccc([nH]6)c(-c6c(F)cc(S(=O)(=O)[O-])cc6F)c6nc(c(-c7c(F)cc(S(=O)(=O)[O-])cc7F)c7ccc4[nH]7)C=C6)C=C5)cc3)CCN(C(=O)c3cnc[nH]c3=O)CC2)c1
REMARK SMILES IDX 18 1 17 2 16 3 15 4 14 5 13 6 12 7 11 8 9 9 10 10 8 11 92 12
REMARK SMILES IDX 105 13 93 14 104 15 94 16 95 17 96 18 7 19 6 20 1 21 2 22
REMARK SMILES IDX 3 23 106 24 4 25 5 26 97 27 98 28 102 29 99 30 101 31 103 32
REMARK SMILES IDX 100 33 19 35 20 36 21 37 22 38 23 39 24 40 25 41 26 42 27 43
REMARK SMILES IDX 91 44 28 45 90 46 29 47 30 48 31 49 84 50 32 51 89 52 83 53
REMARK SMILES IDX 85 54 33 55 88 56 82 57 81 58 34 60 68 61 47 62 67 63 48 64
REMARK SMILES IDX 51 65 66 66 86 67 49 68 50 69 65 71 87 72 52 73 35 74 36 75
REMARK SMILES IDX 45 76 37 77 38 78 44 79 46 80 39 81 40 82 41 83 42 84 43 85
REMARK SMILES IDX 69 86 70 87 79 88 71 89 72 90 78 91 80 92 73 93 74 94 75 95
REMARK SMILES IDX 76 96 77 97 53 98 54 99 63 100 55 101 56 102 62 103 64 104
REMARK SMILES IDX 57 105 58 106 59 107 60 108 61 109
REMARK H PARENT 101 34 85 59 51 70
REMARK Flexibility Score: inf
ROOT
ATOM      1  C   UNL A   1      34.809  32.386  28.542  1.00  0.00     0.188 C 
ENDROOT
BRANCH   1   2
ATOM      2  O   UNL A   1      34.858  31.463  27.476  1.00  0.00    -0.377 OA
BRANCH   2   3
ATOM      3  C   UNL A   1      33.643  30.760  27.245  1.00  0.00     0.188 C 
BRANCH   3   4
ATOM      4  C   UNL A   1      33.583  29.414  26.342  1.00  0.00     0.188 C 
BRANCH   4   5
ATOM      5  O   UNL A   1      33.220  29.365  24.860  1.00  0.00    -0.376 OA
BRANCH   5   6
ATOM      6  C   UNL A   1      33.923  28.748  23.569  1.00  0.00     0.202 C 
BRANCH   6   7
ATOM      7  C   UNL A   1      33.784  27.325  22.391  1.00  0.00     0.261 C 
BRANCH   7   8
ATOM      8  O   UNL A   1      33.978  25.486  22.495  1.00  0.00    -0.460 OA
BRANCH   8   9
ATOM      9  C   UNL A   1      34.461  24.172  23.065  1.00  0.00     0.350 C 
ATOM     10  O   UNL A   1      35.661  23.912  22.866  1.00  0.00    -0.247 OA
BRANCH   9  11
ATOM     11  C   UNL A   1      33.541  22.839  23.899  1.00  0.00     0.209 C 
ATOM     12  C   UNL A   1      32.162  22.213  23.421  1.00  0.00     0.082 C 
ATOM     13  C   UNL A   1      34.550  21.634  24.203  1.00  0.00     0.082 C 
ATOM     14  C   UNL A   1      31.688  20.881  23.979  1.00  0.00     0.124 C 
ATOM     15  C   UNL A   1      33.916  20.328  24.755  1.00  0.00     0.124 C 
ATOM     16  N   UNL A   1      32.757  19.918  23.982  1.00  0.00    -0.338 N 
ATOM     17  C   UNL A   1      32.572  18.730  23.298  1.00  0.00     0.261 C 
ATOM     18  O   UNL A   1      32.007  18.643  22.211  1.00  0.00    -0.269 OA
BRANCH  11  19
ATOM     19  O   UNL A   1      33.290  23.279  25.311  1.00  0.00    -0.475 OA
BRANCH  19  20
ATOM     20  C   UNL A   1      32.144  23.979  25.563  1.00  0.00     0.121 A 
ATOM     21  C   UNL A   1      30.608  27.307  24.589  1.00  0.00     0.044 C 
ATOM     22  C   UNL A   1      30.733  25.939  25.192  1.00  0.00    -0.047 A 
ATOM     23  C   UNL A   1      29.781  25.400  26.049  1.00  0.00     0.003 A 
ATOM     24  C   UNL A   1      31.845  25.158  24.876  1.00  0.00     0.050 A 
ATOM     25  C   UNL A   1      29.993  24.142  26.627  1.00  0.00     0.004 A 
ATOM     26  C   UNL A   1      31.186  23.444  26.407  1.00  0.00     0.046 A 
ENDBRANCH  19  20
ENDBRANCH  11  19
BRANCH  17  27
ATOM     27  C   UNL A   1      32.861  17.484  24.031  1.00  0.00     0.123 A 
ATOM     28  C   UNL A   1      32.384  17.295  25.271  1.00  0.00     0.132 A 
ATOM     29  C   UNL A   1      33.921  16.563  23.578  1.00  0.00     0.263 A 
ATOM     30  N   UNL A   1      32.724  16.250  26.103  1.00  0.00    -0.246 NA
ATOM     31  N   UNL A   1      34.258  15.579  24.465  1.00  0.00    -0.312 N 
ATOM     32  O   UNL A   1      34.499  16.658  22.498  1.00  0.00    -0.269 OA
ATOM     33  C   UNL A   1      33.647  15.457  25.676  1.00  0.00     0.199 A 
ATOM     34  H   UNL A   1      34.964  14.938  24.222  1.00  0.00     0.171 HD
ENDBRANCH  17  27
ENDBRANCH   9  11
ENDBRANCH   8   9
ENDBRANCH   7   8
ENDBRANCH   6   7
ENDBRANCH   5   6
ENDBRANCH   4   5
ENDBRANCH   3   4
ENDBRANCH   2   3
ENDBRANCH   1   2
BRANCH   1  35
ATOM     35  C   UNL A   1      35.214  33.811  28.155  1.00  0.00     0.188 C 
BRANCH  35  36
ATOM     36  O   UNL A   1      34.101  34.698  27.993  1.00  0.00    -0.376 OA
BRANCH  36  37
ATOM     37  C   UNL A   1      33.115  34.568  29.020  1.00  0.00     0.202 C 
BRANCH  37  38
ATOM     38  C   UNL A   1      33.157  35.704  30.054  1.00  0.00     0.261 C 
BRANCH  38  39
ATOM     39  O   UNL A   1      34.243  35.537  30.986  1.00  0.00    -0.460 OA
BRANCH  39  40
ATOM     40  C   UNL A   1      34.094  34.488  31.838  1.00  0.00     0.338 C 
ATOM     41  O   UNL A   1      33.088  34.258  32.485  1.00  0.00    -0.246 OA
BRANCH  40  42
ATOM     42  C   UNL A   1      35.392  33.766  31.947  1.00  0.00     0.060 A 
ATOM     43  C   UNL A   1      35.398  32.449  32.370  1.00  0.00     0.016 A 
ATOM     44  C   UNL A   1      36.609  34.456  31.858  1.00  0.00     0.016 A 
ATOM     45  C   UNL A   1      36.597  31.906  32.845  1.00  0.00     0.010 A 
ATOM     46  C   UNL A   1      37.749  33.973  32.508  1.00  0.00     0.010 A 
ATOM     47  C   UNL A   1      37.743  32.710  33.103  1.00  0.00    -0.014 A 
BRANCH  47  48
ATOM     48  C   UNL A   1      39.054  32.236  33.853  1.00  0.00     0.031 A 
ATOM     49  C   UNL A   1      38.489  32.985  35.399  1.00  0.00     0.074 A 
ATOM     50  C   UNL A   1      40.512  31.662  33.382  1.00  0.00     0.049 A 
ATOM     51  N   UNL A   1      39.228  33.687  36.218  1.00  0.00    -0.248 NA
ATOM     52  C   UNL A   1      37.088  33.223  35.838  1.00  0.00     0.031 C 
ATOM     53  C   UNL A   1      41.956  31.254  34.190  1.00  0.00     0.029 A 
ATOM     54  N   UNL A   1      41.331  31.612  32.141  1.00  0.00    -0.354 N 
ATOM     55  C   UNL A   1      38.627  33.922  37.396  1.00  0.00     0.074 A 
ATOM     56  C   UNL A   1      37.238  33.833  37.032  1.00  0.00     0.031 C 
ATOM     57  C   UNL A   1      43.054  31.047  33.475  1.00  0.00     0.029 A 
ATOM     58  C   UNL A   1      42.758  31.689  32.275  1.00  0.00     0.049 A 
ATOM     59  H   UNL A   1      40.907  31.529  31.256  1.00  0.00     0.167 HD
ATOM     60  C   UNL A   1      39.398  33.998  38.530  1.00  0.00     0.037 A 
ATOM     61  C   UNL A   1      43.600  32.679  31.835  1.00  0.00     0.037 A 
ATOM     62  C   UNL A   1      40.863  33.716  38.274  1.00  0.00     0.049 A 
ATOM     63  C   UNL A   1      44.259  33.429  33.053  1.00  0.00     0.074 A 
ATOM     64  C   UNL A   1      41.611  32.560  38.477  1.00  0.00     0.029 A 
ATOM     65  N   UNL A   1      41.710  34.534  37.483  1.00  0.00    -0.354 N 
ATOM     66  N   UNL A   1      43.720  33.493  34.254  1.00  0.00    -0.248 NA
ATOM     67  C   UNL A   1      45.586  34.033  33.082  1.00  0.00     0.031 C 
ATOM     68  C   UNL A   1      42.833  32.639  37.742  1.00  0.00     0.029 A 
ATOM     69  C   UNL A   1      42.912  33.874  37.111  1.00  0.00     0.049 A 
ATOM     70  H   UNL A   1      41.490  35.458  37.221  1.00  0.00     0.167 HD
ATOM     71  C   UNL A   1      44.481  34.194  35.163  1.00  0.00     0.074 A 
ATOM     72  C   UNL A   1      45.689  34.433  34.371  1.00  0.00     0.031 C 
ATOM     73  C   UNL A   1      44.090  34.540  36.457  1.00  0.00     0.037 A 
BRANCH  60  74
ATOM     74  C   UNL A   1      38.671  33.853  39.873  1.00  0.00     0.058 A 
ATOM     75  C   UNL A   1      37.873  32.739  40.201  1.00  0.00     0.135 A 
ATOM     76  C   UNL A   1      38.647  34.884  40.842  1.00  0.00     0.135 A 
ATOM     77  F   UNL A   1      37.902  31.618  39.470  1.00  0.00    -0.206 F 
ATOM     78  C   UNL A   1      37.001  32.720  41.304  1.00  0.00     0.059 A 
ATOM     79  C   UNL A   1      37.747  34.916  41.915  1.00  0.00     0.059 A 
ATOM     80  F   UNL A   1      39.525  35.898  40.781  1.00  0.00    -0.206 F 
ATOM     81  C   UNL A   1      36.907  33.834  42.129  1.00  0.00     0.060 A 
BRANCH  81  82
ATOM     82  S   UNL A   1      35.709  33.840  43.484  1.00  0.00     0.124 S 
ATOM     83  O   UNL A   1      34.441  34.024  42.784  1.00  0.00    -0.237 OA
ATOM     84  O   UNL A   1      35.916  32.525  44.083  1.00  0.00    -0.237 OA
ATOM     85  O   UNL A   1      36.127  34.972  44.306  1.00  0.00    -0.744 OA
ENDBRANCH  81  82
ENDBRANCH  60  74
BRANCH  61  86
ATOM     86  C   UNL A   1      43.309  33.149  30.443  1.00  0.00     0.058 A 
ATOM     87  C   UNL A   1      42.589  34.366  30.315  1.00  0.00     0.135 A 
ATOM     88  C   UNL A   1      43.914  32.672  29.277  1.00  0.00     0.135 A 
ATOM     89  F   UNL A   1      41.913  34.852  31.369  1.00  0.00    -0.206 F 
ATOM     90  C   UNL A   1      42.610  35.147  29.160  1.00  0.00     0.059 A 
ATOM     91  C   UNL A   1      43.949  33.441  28.099  1.00  0.00     0.059 A 
ATOM     92  F   UNL A   1      44.571  31.503  29.288  1.00  0.00    -0.206 F 
ATOM     93  C   UNL A   1      43.325  34.693  28.060  1.00  0.00     0.060 A 
BRANCH  93  94
ATOM     94  S   UNL A   1      43.496  35.732  26.581  1.00  0.00     0.124 S 
ATOM     95  O   UNL A   1      44.940  35.737  26.375  1.00  0.00    -0.237 OA
ATOM     96  O   UNL A   1      42.727  35.021  25.564  1.00  0.00    -0.237 OA
ATOM     97  O   UNL A   1      42.919  37.002  27.010  1.00  0.00    -0.744 OA
ENDBRANCH  93  94
ENDBRANCH  61  86
BRANCH  73  98
ATOM     98  C   UNL A   1      44.894  35.476  37.373  1.00  0.00     0.058 A 
ATOM     99  C   UNL A   1      46.038  35.092  38.094  1.00  0.00     0.135 A 
ATOM    100  C   UNL A   1      44.595  36.867  37.444  1.00  0.00     0.135 A 
ATOM    101  F   UNL A   1      46.521  33.845  38.027  1.00  0.00    -0.206 F 
ATOM    102  C   UNL A   1      46.777  35.987  38.876  1.00  0.00     0.059 A 
ATOM    103  C   UNL A   1      45.361  37.788  38.157  1.00  0.00     0.059 A 
ATOM    104  F   UNL A   1      43.545  37.404  36.808  1.00  0.00    -0.206 F 
ATOM    105  C   UNL A   1      46.439  37.335  38.894  1.00  0.00     0.060 A 
BRANCH 105 106
ATOM    106  S   UNL A   1      47.457  38.510  39.804  1.00  0.00     0.124 S 
ATOM    107  O   UNL A   1      47.059  38.236  41.181  1.00  0.00    -0.237 OA
ATOM    108  O   UNL A   1      48.813  38.103  39.447  1.00  0.00    -0.237 OA
ATOM    109  O   UNL A   1      47.038  39.801  39.269  1.00  0.00    -0.744 OA
ENDBRANCH 105 106
ENDBRANCH  73  98
ENDBRANCH  47  48
ENDBRANCH  40  42
ENDBRANCH  39  40
ENDBRANCH  38  39
ENDBRANCH  37  38
ENDBRANCH  36  37
ENDBRANCH  35  36
ENDBRANCH   1  35
TORSDOF 26
ENDMDL
MODEL 2
REMARK VINA RESULT:      -9.5      8.175     13.954
REMARK SMILES Cc1cccc(OC2(C(=O)OCCOCCOCCOCCOC(=O)c3ccc(-c4c5nc(c(-c6c(F)cc(S(=O)(=O)[O-])cc6F)c6ccc([nH]6)c(-c6c(F)cc(S(=O)(=O)[O-])cc6F)c6nc(c(-c7c(F)cc(S(=O)(=O)[O-])cc7F)c7ccc4[nH]7)C=C6)C=C5)cc3)CCN(C(=O)c3cnc[nH]c3=O)CC2)c1
REMARK SMILES IDX 18 1 17 2 16 3 15 4 14 5 13 6 12 7 11 8 9 9 10 10 8 11 92 12
REMARK SMILES IDX 105 13 93 14 104 15 94 16 95 17 96 18 7 19 6 20 1 21 2 22
REMARK SMILES IDX 3 23 106 24 4 25 5 26 97 27 98 28 102 29 99 30 101 31 103 32
REMARK SMILES IDX 100 33 19 35 20 36 21 37 22 38 23 39 24 40 25 41 26 42 27 43
REMARK SMILES IDX 91 44 28 45 90 46 29 47 30 48 31 49 84 50 32 51 89 52 83 53
REMARK SMILES IDX 85 54 33 55 88 56 82 57 81 58 34 60 68 61 47 62 67 63 48 64
REMARK SMILES IDX 51 65 66 66 86 67 49 68 50 69 65 71 87 72 52 73 35 74 36 75
REMARK SMILES IDX 45 76 37 77 38 78 44 79 46 80 39 81 40 82 41 83 42 84 43 85
REMARK SMILES IDX 69 86 70 87 79 88 71 89 72 90 78 91 80 92 73 93 74 94 75 95
REMARK SMILES IDX 76 96 77 97 53 98 54 99 63 100 55 101 56 102 62 103 64 104
REMARK SMILES IDX 57 105 58 106 59 107 60 108 61 109
REMARK H PARENT 101 34 85 59 51 70
REMARK Flexibility Score: inf
ROOT
ATOM      1  C   UNL A   1      42.391  23.888  27.140  1.00  0.00     0.188 C 
ENDROOT
BRANCH   1   2
ATOM      2  O   UNL A   1      42.340  24.452  25.848  1.00  0.00    -0.377 OA
BRANCH   2   3
ATOM      3  C   UNL A   1      41.763  25.751  25.791  1.00  0.00     0.188 C 
BRANCH   3   4
ATOM      4  C   UNL A   1      42.642  27.072  25.458  1.00  0.00     0.188 C 
BRANCH   4   5
ATOM      5  O   UNL A   1      42.572  28.391  26.223  1.00  0.00    -0.376 OA
BRANCH   5   6
ATOM      6  C   UNL A   1      43.665  29.350  26.876  1.00  0.00     0.202 C 
BRANCH   6   7
ATOM      7  C   UNL A   1      43.893  30.530  28.286  1.00  0.00     0.261 C 
BRANCH   7   8
ATOM      8  O   UNL A   1      43.044  30.856  29.900  1.00  0.00    -0.460 OA
BRANCH   8   9
ATOM      9  C   UNL A   1      41.896  31.207  30.818  1.00  0.00     0.350 C 
ATOM     10  O   UNL A   1      42.218  31.545  31.971  1.00  0.00    -0.247 OA
BRANCH   9  11
ATOM     11  C   UNL A   1      40.097  31.105  30.550  1.00  0.00     0.209 C 
ATOM     12  C   UNL A   1      39.057  30.336  31.473  1.00  0.00     0.082 C 
ATOM     13  C   UNL A   1      39.533  32.580  30.294  1.00  0.00     0.082 C 
ATOM     14  C   UNL A   1      37.569  30.626  31.358  1.00  0.00     0.124 C 
ATOM     15  C   UNL A   1      37.988  32.723  30.218  1.00  0.00     0.124 C 
ATOM     16  N   UNL A   1      37.325  32.043  31.317  1.00  0.00    -0.338 N 
ATOM     17  C   UNL A   1      36.494  32.594  32.276  1.00  0.00     0.261 C 
ATOM     18  O   UNL A   1      36.488  32.259  33.457  1.00  0.00    -0.269 OA
BRANCH  11  19
ATOM     19  O   UNL A   1      39.877  30.542  29.177  1.00  0.00    -0.475 OA
BRANCH  19  20
ATOM     20  C   UNL A   1      39.964  29.186  29.026  1.00  0.00     0.121 A 
ATOM     21  C   UNL A   1      42.563  26.464  29.493  1.00  0.00     0.044 C 
ATOM     22  C   UNL A   1      41.236  27.109  29.221  1.00  0.00    -0.047 A 
ATOM     23  C   UNL A   1      40.134  26.405  28.751  1.00  0.00     0.003 A 
ATOM     24  C   UNL A   1      41.085  28.475  29.460  1.00  0.00     0.050 A 
ATOM     25  C   UNL A   1      38.944  27.083  28.458  1.00  0.00     0.004 A 
ATOM     26  C   UNL A   1      38.867  28.476  28.568  1.00  0.00     0.046 A 
ENDBRANCH  19  20
ENDBRANCH  11  19
BRANCH  17  27
ATOM     27  C   UNL A   1      35.401  33.459  31.795  1.00  0.00     0.123 A 
ATOM     28  C   UNL A   1      34.678  33.111  30.719  1.00  0.00     0.132 A 
ATOM     29  C   UNL A   1      35.271  34.853  32.262  1.00  0.00     0.263 A 
ATOM     30  N   UNL A   1      33.750  33.914  30.092  1.00  0.00    -0.246 NA
ATOM     31  N   UNL A   1      34.377  35.620  31.568  1.00  0.00    -0.312 N 
ATOM     32  O   UNL A   1      35.921  35.331  33.189  1.00  0.00    -0.269 OA
ATOM     33  C   UNL A   1      33.653  35.124  30.527  1.00  0.00     0.199 A 
ATOM     34  H   UNL A   1      34.252  36.561  31.830  1.00  0.00     0.171 HD
ENDBRANCH  17  27
ENDBRANCH   9  11
ENDBRANCH   8   9
ENDBRANCH   7   8
ENDBRANCH   6   7
ENDBRANCH   5   6
ENDBRANCH   4   5
ENDBRANCH   3   4
ENDBRANCH   2   3
ENDBRANCH   1   2
BRANCH   1  35
ATOM     35  C   UNL A   1      41.702  22.526  27.257  1.00  0.00     0.188 C 
BRANCH  35  36
ATOM     36  O   UNL A   1      42.609  21.419  27.192  1.00  0.00    -0.376 OA
BRANCH  36  37
ATOM     37  C   UNL A   1      42.529  20.689  25.967  1.00  0.00     0.202 C 
BRANCH  37  38
ATOM     38  C   UNL A   1      43.885  20.529  25.261  1.00  0.00     0.261 C 
BRANCH  38  39
ATOM     39  O   UNL A   1      44.809  21.569  25.638  1.00  0.00    -0.460 OA
BRANCH  39  40
ATOM     40  C   UNL A   1      44.910  22.581  24.738  1.00  0.00     0.338 C 
ATOM     41  O   UNL A   1      44.592  22.500  23.564  1.00  0.00    -0.246 OA
BRANCH  40  42
ATOM     42  C   UNL A   1      45.594  23.736  25.384  1.00  0.00     0.060 A 
ATOM     43  C   UNL A   1      45.807  24.891  24.652  1.00  0.00     0.016 A 
ATOM     44  C   UNL A   1      46.230  23.593  26.625  1.00  0.00     0.016 A 
ATOM     45  C   UNL A   1      46.770  25.800  25.103  1.00  0.00     0.010 A 
ATOM     46  C   UNL A   1      47.317  24.404  26.965  1.00  0.00     0.010 A 
ATOM     47  C   UNL A   1      47.675  25.485  26.156  1.00  0.00    -0.014 A 
BRANCH  47  48
ATOM     48  C   UNL A   1      48.936  26.342  26.577  1.00  0.00     0.031 A 
ATOM     49  C   UNL A   1      47.954  27.270  27.778  1.00  0.00     0.074 A 
ATOM     50  C   UNL A   1      50.424  26.599  25.945  1.00  0.00     0.049 A 
ATOM     51  N   UNL A   1      48.004  28.565  27.963  1.00  0.00    -0.248 NA
ATOM     52  C   UNL A   1      46.736  26.821  28.501  1.00  0.00     0.031 C 
ATOM     53  C   UNL A   1      51.738  27.605  26.347  1.00  0.00     0.029 A 
ATOM     54  N   UNL A   1      51.117  26.413  24.642  1.00  0.00    -0.354 N 
ATOM     55  C   UNL A   1      47.353  28.962  29.069  1.00  0.00     0.074 A 
ATOM     56  C   UNL A   1      46.392  27.903  29.232  1.00  0.00     0.031 C 
ATOM     57  C   UNL A   1      52.722  27.755  25.471  1.00  0.00     0.029 A 
ATOM     58  C   UNL A   1      52.123  27.369  24.274  1.00  0.00     0.049 A 
ATOM     59  H   UNL A   1      50.892  25.659  24.050  1.00  0.00     0.167 HD
ATOM     60  C   UNL A   1      47.831  30.042  29.767  1.00  0.00     0.037 A 
ATOM     61  C   UNL A   1      52.108  28.258  23.229  1.00  0.00     0.037 A 
ATOM     62  C   UNL A   1      49.121  30.596  29.199  1.00  0.00     0.049 A 
ATOM     63  C   UNL A   1      52.050  29.739  23.763  1.00  0.00     0.074 A 
ATOM     64  C   UNL A   1      50.439  30.417  29.605  1.00  0.00     0.029 A 
ATOM     65  N   UNL A   1      49.238  31.202  27.921  1.00  0.00    -0.354 N 
ATOM     66  N   UNL A   1      51.558  30.077  24.938  1.00  0.00    -0.248 NA
ATOM     67  C   UNL A   1      52.635  30.912  23.123  1.00  0.00     0.031 C 
ATOM     68  C   UNL A   1      51.326  30.808  28.556  1.00  0.00     0.029 A 
ATOM     69  C   UNL A   1      50.587  31.304  27.490  1.00  0.00     0.049 A 
ATOM     70  H   UNL A   1      48.469  31.517  27.392  1.00  0.00     0.167 HD
ATOM     71  C   UNL A   1      51.622  31.429  25.193  1.00  0.00     0.074 A 
ATOM     72  C   UNL A   1      52.394  31.883  24.035  1.00  0.00     0.031 C 
ATOM     73  C   UNL A   1      51.048  32.078  26.287  1.00  0.00     0.037 A 
BRANCH  60  74
ATOM     74  C   UNL A   1      47.332  30.212  31.208  1.00  0.00     0.058 A 
ATOM     75  C   UNL A   1      47.815  29.444  32.287  1.00  0.00     0.135 A 
ATOM     76  C   UNL A   1      46.261  31.072  31.547  1.00  0.00     0.135 A 
ATOM     77  F   UNL A   1      48.919  28.696  32.173  1.00  0.00    -0.206 F 
ATOM     78  C   UNL A   1      47.184  29.407  33.542  1.00  0.00     0.059 A 
ATOM     79  C   UNL A   1      45.577  31.012  32.769  1.00  0.00     0.059 A 
ATOM     80  F   UNL A   1      45.851  32.022  30.691  1.00  0.00    -0.206 F 
ATOM     81  C   UNL A   1      46.034  30.157  33.760  1.00  0.00     0.060 A 
BRANCH  81  82
ATOM     82  S   UNL A   1      45.172  30.024  35.344  1.00  0.00     0.124 S 
ATOM     83  O   UNL A   1      46.153  30.558  36.285  1.00  0.00    -0.237 OA
ATOM     84  O   UNL A   1      43.992  30.853  35.122  1.00  0.00    -0.237 OA
ATOM     85  O   UNL A   1      44.912  28.592  35.474  1.00  0.00    -0.744 OA
ENDBRANCH  81  82
ENDBRANCH  60  74
BRANCH  61  86
ATOM     86  C   UNL A   1      51.634  27.668  21.937  1.00  0.00     0.058 A 
ATOM     87  C   UNL A   1      52.633  27.202  21.041  1.00  0.00     0.135 A 
ATOM     88  C   UNL A   1      50.325  27.270  21.653  1.00  0.00     0.135 A 
ATOM     89  F   UNL A   1      53.905  27.603  21.198  1.00  0.00    -0.206 F 
ATOM     90  C   UNL A   1      52.380  26.269  20.037  1.00  0.00     0.059 A 
ATOM     91  C   UNL A   1      50.044  26.330  20.645  1.00  0.00     0.059 A 
ATOM     92  F   UNL A   1      49.309  27.704  22.414  1.00  0.00    -0.206 F 
ATOM     93  C   UNL A   1      51.081  25.807  19.865  1.00  0.00     0.060 A 
BRANCH  93  94
ATOM     94  S   UNL A   1      50.724  24.494  18.664  1.00  0.00     0.124 S 
ATOM     95  O   UNL A   1      50.972  25.165  17.393  1.00  0.00    -0.237 OA
ATOM     96  O   UNL A   1      51.676  23.440  19.005  1.00  0.00    -0.237 OA
ATOM     97  O   UNL A   1      49.327  24.172  18.942  1.00  0.00    -0.744 OA
ENDBRANCH  93  94
ENDBRANCH  61  86
BRANCH  73  98
ATOM     98  C   UNL A   1      50.986  33.607  26.440  1.00  0.00     0.058 A 
ATOM     99  C   UNL A   1      49.852  34.388  26.160  1.00  0.00     0.135 A 
ATOM    100  C   UNL A   1      52.069  34.330  27.017  1.00  0.00     0.135 A 
ATOM    101  F   UNL A   1      48.710  33.834  25.732  1.00  0.00    -0.206 F 
ATOM    102  C   UNL A   1      49.815  35.772  26.363  1.00  0.00     0.059 A 
ATOM    103  C   UNL A   1      52.027  35.695  27.295  1.00  0.00     0.059 A 
ATOM    104  F   UNL A   1      53.223  33.739  27.354  1.00  0.00    -0.206 F 
ATOM    105  C   UNL A   1      50.903  36.417  26.941  1.00  0.00     0.060 A 
BRANCH 105 106
ATOM    106  S   UNL A   1      50.816  38.177  27.312  1.00  0.00     0.124 S 
ATOM    107  O   UNL A   1      51.911  38.702  26.502  1.00  0.00    -0.237 OA
ATOM    108  O   UNL A   1      49.474  38.534  26.862  1.00  0.00    -0.237 OA
ATOM    109  O   UNL A   1      51.017  38.225  28.757  1.00  0.00    -0.744 OA
ENDBRANCH 105 106
ENDBRANCH  73  98
ENDBRANCH  47  48
ENDBRANCH  40  42
ENDBRANCH  39  40
ENDBRANCH  38  39
ENDBRANCH  37  38
ENDBRANCH  36  37
ENDBRANCH  35  36
ENDBRANCH   1  35
TORSDOF 26
ENDMDL
MODEL 3
REMARK VINA RESULT:      -9.3      6.464     10.734
REMARK SMILES Cc1cccc(OC2(C(=O)OCCOCCOCCOCCOC(=O)c3ccc(-c4c5nc(c(-c6c(F)cc(S(=O)(=O)[O-])cc6F)c6ccc([nH]6)c(-c6c(F)cc(S(=O)(=O)[O-])cc6F)c6nc(c(-c7c(F)cc(S(=O)(=O)[O-])cc7F)c7ccc4[nH]7)C=C6)C=C5)cc3)CCN(C(=O)c3cnc[nH]c3=O)CC2)c1
REMARK SMILES IDX 18 1 17 2 16 3 15 4 14 5 13 6 12 7 11 8 9 9 10 10 8 11 92 12
REMARK SMILES IDX 105 13 93 14 104 15 94 16 95 17 96 18 7 19 6 20 1 21 2 22
REMARK SMILES IDX 3 23 106 24 4 25 5 26 97 27 98 28 102 29 99 30 101 31 103 32
REMARK SMILES IDX 100 33 19 35 20 36 21 37 22 38 23 39 24 40 25 41 26 42 27 43
REMARK SMILES IDX 91 44 28 45 90 46 29 47 30 48 31 49 84 50 32 51 89 52 83 53
REMARK SMILES IDX 85 54 33 55 88 56 82 57 81 58 34 60 68 61 47 62 67 63 48 64
REMARK SMILES IDX 51 65 66 66 86 67 49 68 50 69 65 71 87 72 52 73 35 74 36 75
REMARK SMILES IDX 45 76 37 77 38 78 44 79 46 80 39 81 40 82 41 83 42 84 43 85
REMARK SMILES IDX 69 86 70 87 79 88 71 89 72 90 78 91 80 92 73 93 74 94 75 95
REMARK SMILES IDX 76 96 77 97 53 98 54 99 63 100 55 101 56 102 62 103 64 104
REMARK SMILES IDX 57 105 58 106 59 107 60 108 61 109
REMARK H PARENT 101 34 85 59 51 70
REMARK Flexibility Score: inf
ROOT
ATOM      1  C   UNL A   1      35.996  34.383  31.478  1.00  0.00     0.188 C 
ENDROOT
BRANCH   1   2
ATOM      2  O   UNL A   1      34.876  33.658  31.019  1.00  0.00    -0.377 OA
BRANCH   2   3
ATOM      3  C   UNL A   1      35.002  32.246  31.123  1.00  0.00     0.188 C 
BRANCH   3   4
ATOM      4  C   UNL A   1      35.784  31.365  30.009  1.00  0.00     0.188 C 
BRANCH   4   5
ATOM      5  O   UNL A   1      35.325  31.164  28.566  1.00  0.00    -0.376 OA
BRANCH   5   6
ATOM      6  C   UNL A   1      33.995  30.595  27.897  1.00  0.00     0.202 C 
BRANCH   6   7
ATOM      7  C   UNL A   1      33.079  30.586  26.287  1.00  0.00     0.261 C 
BRANCH   7   8
ATOM      8  O   UNL A   1      33.257  29.723  24.658  1.00  0.00    -0.460 OA
BRANCH   8   9
ATOM      9  C   UNL A   1      33.225  28.560  23.693  1.00  0.00     0.350 C 
ATOM     10  O   UNL A   1      33.782  28.758  22.598  1.00  0.00    -0.247 OA
BRANCH   9  11
ATOM     11  C   UNL A   1      32.397  26.943  23.821  1.00  0.00     0.209 C 
ATOM     12  C   UNL A   1      31.863  26.067  22.609  1.00  0.00     0.082 C 
ATOM     13  C   UNL A   1      33.272  25.994  24.767  1.00  0.00     0.082 C 
ATOM     14  C   UNL A   1      31.532  24.596  22.810  1.00  0.00     0.124 C 
ATOM     15  C   UNL A   1      32.822  24.510  24.860  1.00  0.00     0.124 C 
ATOM     16  N   UNL A   1      32.573  23.934  23.550  1.00  0.00    -0.338 N 
ATOM     17  C   UNL A   1      33.193  22.840  22.974  1.00  0.00     0.261 C 
ATOM     18  O   UNL A   1      33.487  22.763  21.783  1.00  0.00    -0.269 OA
BRANCH  11  19
ATOM     19  O   UNL A   1      31.208  27.114  24.720  1.00  0.00    -0.475 OA
BRANCH  19  20
ATOM     20  C   UNL A   1      30.051  27.578  24.159  1.00  0.00     0.121 A 
ATOM     21  C   UNL A   1      28.864  30.664  22.300  1.00  0.00     0.044 C 
ATOM     22  C   UNL A   1      28.843  29.289  22.899  1.00  0.00    -0.047 A 
ATOM     23  C   UNL A   1      27.691  28.515  22.978  1.00  0.00     0.003 A 
ATOM     24  C   UNL A   1      30.030  28.745  23.392  1.00  0.00     0.050 A 
ATOM     25  C   UNL A   1      27.730  27.266  23.609  1.00  0.00     0.004 A 
ATOM     26  C   UNL A   1      28.902  26.809  24.224  1.00  0.00     0.046 A 
ENDBRANCH  19  20
ENDBRANCH  11  19
BRANCH  17  27
ATOM     27  C   UNL A   1      33.286  21.617  23.791  1.00  0.00     0.123 A 
ATOM     28  C   UNL A   1      32.192  20.882  24.046  1.00  0.00     0.132 A 
ATOM     29  C   UNL A   1      34.482  21.336  24.608  1.00  0.00     0.263 A 
ATOM     30  N   UNL A   1      32.135  19.821  24.925  1.00  0.00    -0.246 NA
ATOM     31  N   UNL A   1      34.351  20.310  25.502  1.00  0.00    -0.312 N 
ATOM     32  O   UNL A   1      35.530  21.974  24.535  1.00  0.00    -0.269 OA
ATOM     33  C   UNL A   1      33.198  19.595  25.618  1.00  0.00     0.199 A 
ATOM     34  H   UNL A   1      35.114  20.080  26.080  1.00  0.00     0.171 HD
ENDBRANCH  17  27
ENDBRANCH   9  11
ENDBRANCH   8   9
ENDBRANCH   7   8
ENDBRANCH   6   7
ENDBRANCH   5   6
ENDBRANCH   4   5
ENDBRANCH   3   4
ENDBRANCH   2   3
ENDBRANCH   1   2
BRANCH   1  35
ATOM     35  C   UNL A   1      35.943  34.742  32.966  1.00  0.00     0.188 C 
BRANCH  35  36
ATOM     36  O   UNL A   1      37.031  34.199  33.724  1.00  0.00    -0.376 OA
BRANCH  36  37
ATOM     37  C   UNL A   1      37.022  32.772  33.790  1.00  0.00     0.202 C 
BRANCH  37  38
ATOM     38  C   UNL A   1      38.392  32.168  34.138  1.00  0.00     0.261 C 
BRANCH  38  39
ATOM     39  O   UNL A   1      39.004  31.540  32.994  1.00  0.00    -0.460 OA
BRANCH  39  40
ATOM     40  C   UNL A   1      39.734  32.383  32.217  1.00  0.00     0.338 C 
ATOM     41  O   UNL A   1      39.280  33.058  31.310  1.00  0.00    -0.246 OA
BRANCH  40  42
ATOM     42  C   UNL A   1      41.175  32.236  32.565  1.00  0.00     0.060 A 
ATOM     43  C   UNL A   1      42.124  32.321  31.562  1.00  0.00     0.016 A 
ATOM     44  C   UNL A   1      41.565  31.783  33.833  1.00  0.00     0.016 A 
ATOM     45  C   UNL A   1      43.401  31.802  31.805  1.00  0.00     0.010 A 
ATOM     46  C   UNL A   1      42.773  31.099  34.002  1.00  0.00     0.010 A 
ATOM     47  C   UNL A   1      43.691  31.012  32.953  1.00  0.00    -0.014 A 
BRANCH  47  48
ATOM     48  C   UNL A   1      45.024  30.195  33.198  1.00  0.00     0.031 A 
ATOM     49  C   UNL A   1      44.359  28.768  32.308  1.00  0.00     0.074 A 
ATOM     50  C   UNL A   1      46.323  30.367  34.178  1.00  0.00     0.049 A 
ATOM     51  N   UNL A   1      44.462  27.520  32.686  1.00  0.00    -0.248 NA
ATOM     52  C   UNL A   1      43.340  28.763  31.225  1.00  0.00     0.031 C 
ATOM     53  C   UNL A   1      47.704  29.427  34.511  1.00  0.00     0.029 A 
ATOM     54  N   UNL A   1      46.690  31.127  35.403  1.00  0.00    -0.354 N 
ATOM     55  C   UNL A   1      44.092  26.650  31.732  1.00  0.00     0.074 A 
ATOM     56  C   UNL A   1      43.187  27.451  30.950  1.00  0.00     0.031 C 
ATOM     57  C   UNL A   1      48.456  29.741  35.557  1.00  0.00     0.029 A 
ATOM     58  C   UNL A   1      47.589  30.506  36.333  1.00  0.00     0.049 A 
ATOM     59  H   UNL A   1      46.325  32.026  35.570  1.00  0.00     0.167 HD
ATOM     60  C   UNL A   1      44.730  25.437  31.658  1.00  0.00     0.037 A 
ATOM     61  C   UNL A   1      47.338  30.111  37.622  1.00  0.00     0.037 A 
ATOM     62  C   UNL A   1      45.855  25.293  32.661  1.00  0.00     0.049 A 
ATOM     63  C   UNL A   1      47.419  28.542  37.747  1.00  0.00     0.074 A 
ATOM     64  C   UNL A   1      47.231  25.433  32.505  1.00  0.00     0.029 A 
ATOM     65  N   UNL A   1      45.674  25.261  34.068  1.00  0.00    -0.354 N 
ATOM     66  N   UNL A   1      47.219  27.715  36.740  1.00  0.00    -0.248 NA
ATOM     67  C   UNL A   1      47.848  27.789  38.919  1.00  0.00     0.031 C 
ATOM     68  C   UNL A   1      47.850  25.585  33.782  1.00  0.00     0.029 A 
ATOM     69  C   UNL A   1      46.886  25.481  34.776  1.00  0.00     0.049 A 
ATOM     70  H   UNL A   1      44.805  25.105  34.504  1.00  0.00     0.167 HD
ATOM     71  C   UNL A   1      47.353  26.388  37.082  1.00  0.00     0.074 A 
ATOM     72  C   UNL A   1      47.836  26.515  38.459  1.00  0.00     0.031 C 
ATOM     73  C   UNL A   1      47.057  25.301  36.258  1.00  0.00     0.037 A 
BRANCH  60  74
ATOM     74  C   UNL A   1      44.585  24.657  30.344  1.00  0.00     0.058 A 
ATOM     75  C   UNL A   1      45.141  25.091  29.124  1.00  0.00     0.135 A 
ATOM     76  C   UNL A   1      43.778  23.500  30.230  1.00  0.00     0.135 A 
ATOM     77  F   UNL A   1      46.048  26.075  29.080  1.00  0.00    -0.206 F 
ATOM     78  C   UNL A   1      44.794  24.531  27.883  1.00  0.00     0.059 A 
ATOM     79  C   UNL A   1      43.368  22.960  29.003  1.00  0.00     0.059 A 
ATOM     80  F   UNL A   1      43.369  22.842  31.327  1.00  0.00    -0.206 F 
ATOM     81  C   UNL A   1      43.867  23.497  27.826  1.00  0.00     0.060 A 
BRANCH  81  82
ATOM     82  S   UNL A   1      43.349  22.853  26.218  1.00  0.00     0.124 S 
ATOM     83  O   UNL A   1      42.903  24.057  25.523  1.00  0.00    -0.237 OA
ATOM     84  O   UNL A   1      44.581  22.252  25.716  1.00  0.00    -0.237 OA
ATOM     85  O   UNL A   1      42.286  21.908  26.553  1.00  0.00    -0.744 OA
ENDBRANCH  81  82
ENDBRANCH  60  74
BRANCH  61  86
ATOM     86  C   UNL A   1      46.569  31.113  38.426  1.00  0.00     0.058 A 
ATOM     87  C   UNL A   1      45.213  30.802  38.710  1.00  0.00     0.135 A 
ATOM     88  C   UNL A   1      47.120  32.167  39.160  1.00  0.00     0.135 A 
ATOM     89  F   UNL A   1      44.585  29.854  37.994  1.00  0.00    -0.206 F 
ATOM     90  C   UNL A   1      44.503  31.375  39.764  1.00  0.00     0.059 A 
ATOM     91  C   UNL A   1      46.425  32.762  40.229  1.00  0.00     0.059 A 
ATOM     92  F   UNL A   1      48.378  32.567  38.924  1.00  0.00    -0.206 F 
ATOM     93  C   UNL A   1      45.130  32.336  40.547  1.00  0.00     0.060 A 
BRANCH  93  94
ATOM     94  S   UNL A   1      44.300  33.014  42.012  1.00  0.00     0.124 S 
ATOM     95  O   UNL A   1      44.109  31.825  42.834  1.00  0.00    -0.237 OA
ATOM     96  O   UNL A   1      45.256  33.985  42.537  1.00  0.00    -0.237 OA
ATOM     97  O   UNL A   1      43.081  33.593  41.454  1.00  0.00    -0.744 OA
ENDBRANCH  93  94
ENDBRANCH  61  86
BRANCH  73  98
ATOM     98  C   UNL A   1      47.047  23.841  36.739  1.00  0.00     0.058 A 
ATOM     99  C   UNL A   1      48.184  23.018  36.806  1.00  0.00     0.135 A 
ATOM    100  C   UNL A   1      45.868  23.258  37.286  1.00  0.00     0.135 A 
ATOM    101  F   UNL A   1      49.394  23.467  36.447  1.00  0.00    -0.206 F 
ATOM    102  C   UNL A   1      48.146  21.710  37.301  1.00  0.00     0.059 A 
ATOM    103  C   UNL A   1      45.825  21.984  37.851  1.00  0.00     0.059 A 
ATOM    104  F   UNL A   1      44.696  23.908  37.312  1.00  0.00    -0.206 F 
ATOM    105  C   UNL A   1      46.965  21.204  37.831  1.00  0.00     0.060 A 
BRANCH 105 106
ATOM    106  S   UNL A   1      46.939  19.564  38.576  1.00  0.00     0.124 S 
ATOM    107  O   UNL A   1      48.365  19.267  38.678  1.00  0.00    -0.237 OA
ATOM    108  O   UNL A   1      46.252  19.798  39.842  1.00  0.00    -0.237 OA
ATOM    109  O   UNL A   1      46.194  18.767  37.606  1.00  0.00    -0.744 OA
ENDBRANCH 105 106
ENDBRANCH  73  98
ENDBRANCH  47  48
ENDBRANCH  40  42
ENDBRANCH  39  40
ENDBRANCH  38  39
ENDBRANCH  37  38
ENDBRANCH  36  37
ENDBRANCH  35  36
ENDBRANCH   1  35
TORSDOF 26
ENDMDL
