MODEL 1
REMARK VINA RESULT:      -8.6      0.000      0.000
REMARK SMILES Cc1c(CCC(=O)N2CCC[C@H]2C(=O)OCCOCCOCCOCCOC(=O)c2ccc(-c3c4nc(c(-c5c(F)cc(S(=O)(=O)[O-])cc5F)c5ccc([nH]5)c(-c5c(F)cc(S(=O)(=O)[O-])cc5F)c5nc(c(-c6c(F)cc(S(=O)(=O)[O-])cc6F)c6ccc3[nH]6)C=C5)C=C4)cc2)c(=O)oc2cc3oc4c(c3cc12)CCCC4
REMARK SMILES IDX 20 1 19 2 18 3 17 4 16 5 15 6 13 7 14 8 12 9 8 10 9 11 10 12
REMARK SMILES IDX 11 13 6 14 7 15 5 16 4 17 3 18 1 19 2 20 107 21 96 22 99 23
REMARK SMILES IDX 106 24 97 25 98 26 100 27 105 28 101 29 104 30 102 31 103 32
REMARK SMILES IDX 108 33 111 34 109 35 110 36 21 37 22 38 23 39 24 40 25 41
REMARK SMILES IDX 26 42 27 43 28 44 29 45 30 46 31 47 95 48 32 49 94 50 33 51
REMARK SMILES IDX 34 52 35 53 88 54 36 55 93 56 87 57 89 58 37 59 92 60 86 61
REMARK SMILES IDX 85 62 38 64 72 65 51 66 71 67 52 68 55 69 70 70 90 71 53 72
REMARK SMILES IDX 54 73 69 75 91 76 56 77 39 78 40 79 49 80 41 81 42 82 48 83
REMARK SMILES IDX 50 84 43 85 44 86 45 87 46 88 47 89 73 90 74 91 83 92 75 93
REMARK SMILES IDX 76 94 82 95 84 96 77 97 78 98 79 99 80 100 81 101 57 102
REMARK SMILES IDX 58 103 67 104 59 105 60 106 66 107 68 108 61 109 62 110
REMARK SMILES IDX 63 111 64 112 65 113
REMARK H PARENT 89 63 55 74
REMARK Flexibility Score: inf
ROOT
ATOM      1  C   UNL A   1      38.489  29.227  29.280  1.00  0.00     0.188 C 
ENDROOT
BRANCH   1   2
ATOM      2  C   UNL A   1      39.854  29.720  29.784  1.00  0.00     0.188 C 
BRANCH   2   3
ATOM      3  O   UNL A   1      40.901  28.885  29.300  1.00  0.00    -0.376 OA
BRANCH   3   4
ATOM      4  C   UNL A   1      40.519  27.811  28.445  1.00  0.00     0.202 C 
BRANCH   4   5
ATOM      5  C   UNL A   1      41.543  26.684  28.239  1.00  0.00     0.261 C 
BRANCH   5   6
ATOM      6  O   UNL A   1      42.834  26.816  28.879  1.00  0.00    -0.462 OA
BRANCH   6   7
ATOM      7  C   UNL A   1      43.632  25.715  28.995  1.00  0.00     0.328 C 
ATOM      8  O   UNL A   1      43.438  24.806  29.787  1.00  0.00    -0.250 OA
BRANCH   7   9
ATOM      9  C   UNL A   1      44.676  25.705  27.863  1.00  0.00     0.195 C 
ATOM     10  N   UNL A   1      44.240  25.111  26.586  1.00  0.00    -0.329 N 
ATOM     11  C   UNL A   1      44.470  26.021  25.476  1.00  0.00     0.120 C 
ATOM     12  C   UNL A   1      45.418  27.072  26.019  1.00  0.00     0.024 C 
ATOM     13  C   UNL A   1      45.016  27.152  27.479  1.00  0.00     0.039 C 
BRANCH  10  14
ATOM     14  C   UNL A   1      43.887  23.780  26.526  1.00  0.00     0.223 C 
ATOM     15  O   UNL A   1      44.682  22.897  26.848  1.00  0.00    -0.275 OA
BRANCH  14  16
ATOM     16  C   UNL A   1      42.481  23.400  26.079  1.00  0.00     0.105 C 
BRANCH  16  17
ATOM     17  C   UNL A   1      41.665  22.675  27.159  1.00  0.00     0.053 C 
BRANCH  17  18
ATOM     18  C   UNL A   1      40.296  22.281  26.662  1.00  0.00     0.042 A 
ATOM     19  C   UNL A   1      39.220  24.376  27.511  1.00  0.00     0.046 C 
ATOM     20  C   UNL A   1      39.241  23.114  26.687  1.00  0.00    -0.030 A 
ATOM     21  C   UNL A   1      38.090  22.776  25.845  1.00  0.00     0.022 A 
ATOM     22  C   UNL A   1      40.177  20.907  26.098  1.00  0.00     0.339 A 
ATOM     23  C   UNL A   1      37.905  21.447  25.456  1.00  0.00     0.142 A 
ATOM     24  C   UNL A   1      37.187  23.745  25.398  1.00  0.00     0.024 A 
ATOM     25  O   UNL A   1      41.135  20.144  26.041  1.00  0.00    -0.246 OA
ATOM     26  O   UNL A   1      38.913  20.496  25.693  1.00  0.00    -0.422 OA
ATOM     27  C   UNL A   1      36.750  20.986  24.814  1.00  0.00     0.095 A 
ATOM     28  C   UNL A   1      35.998  23.321  24.789  1.00  0.00     0.025 A 
ATOM     29  C   UNL A   1      35.785  21.958  24.591  1.00  0.00     0.138 A 
ATOM     30  C   UNL A   1      34.783  23.962  24.473  1.00  0.00     0.001 A 
ATOM     31  O   UNL A   1      34.470  21.725  24.291  1.00  0.00    -0.461 OA
ATOM     32  C   UNL A   1      33.870  22.936  24.378  1.00  0.00     0.108 A 
ATOM     33  C   UNL A   1      34.312  25.341  24.751  1.00  0.00     0.040 C 
ATOM     34  C   UNL A   1      32.486  23.065  24.905  1.00  0.00     0.076 C 
ATOM     35  C   UNL A   1      33.358  25.305  25.962  1.00  0.00     0.005 C 
ATOM     36  C   UNL A   1      32.616  23.951  26.179  1.00  0.00     0.008 C 
ENDBRANCH  17  18
ENDBRANCH  16  17
ENDBRANCH  14  16
ENDBRANCH  10  14
ENDBRANCH   7   9
ENDBRANCH   6   7
ENDBRANCH   5   6
ENDBRANCH   4   5
ENDBRANCH   3   4
ENDBRANCH   2   3
ENDBRANCH   1   2
BRANCH   1  37
ATOM     37  O   UNL A   1      37.662  30.238  28.711  1.00  0.00    -0.377 OA
BRANCH  37  38
ATOM     38  C   UNL A   1      36.699  29.813  27.761  1.00  0.00     0.188 C 
BRANCH  38  39
ATOM     39  C   UNL A   1      35.319  30.342  28.158  1.00  0.00     0.188 C 
BRANCH  39  40
ATOM     40  O   UNL A   1      34.799  31.412  27.359  1.00  0.00    -0.376 OA
BRANCH  40  41
ATOM     41  C   UNL A   1      34.574  32.682  27.987  1.00  0.00     0.202 C 
BRANCH  41  42
ATOM     42  C   UNL A   1      34.627  32.724  29.520  1.00  0.00     0.261 C 
BRANCH  42  43
ATOM     43  O   UNL A   1      35.167  33.981  29.969  1.00  0.00    -0.460 OA
BRANCH  43  44
ATOM     44  C   UNL A   1      35.329  34.129  31.303  1.00  0.00     0.338 C 
ATOM     45  O   UNL A   1      34.472  34.422  32.123  1.00  0.00    -0.246 OA
BRANCH  44  46
ATOM     46  C   UNL A   1      36.677  33.661  31.667  1.00  0.00     0.060 A 
ATOM     47  C   UNL A   1      37.783  34.510  31.682  1.00  0.00     0.016 A 
ATOM     48  C   UNL A   1      36.824  32.306  31.961  1.00  0.00     0.016 A 
ATOM     49  C   UNL A   1      39.041  33.996  32.020  1.00  0.00     0.010 A 
ATOM     50  C   UNL A   1      38.085  31.788  32.230  1.00  0.00     0.010 A 
ATOM     51  C   UNL A   1      39.208  32.627  32.297  1.00  0.00    -0.014 A 
BRANCH  51  52
ATOM     52  C   UNL A   1      40.508  32.117  32.805  1.00  0.00     0.031 A 
ATOM     53  C   UNL A   1      41.648  33.082  32.807  1.00  0.00     0.074 A 
ATOM     54  C   UNL A   1      40.631  31.148  33.737  1.00  0.00     0.049 A 
ATOM     55  N   UNL A   1      41.845  33.884  33.811  1.00  0.00    -0.248 NA
ATOM     56  C   UNL A   1      42.454  33.404  31.632  1.00  0.00     0.031 C 
ATOM     57  C   UNL A   1      39.649  30.875  34.795  1.00  0.00     0.029 A 
ATOM     58  N   UNL A   1      41.722  30.380  34.077  1.00  0.00    -0.354 N 
ATOM     59  C   UNL A   1      42.762  34.836  33.413  1.00  0.00     0.074 A 
ATOM     60  C   UNL A   1      43.115  34.497  32.052  1.00  0.00     0.031 C 
ATOM     61  C   UNL A   1      40.233  30.109  35.738  1.00  0.00     0.029 A 
ATOM     62  C   UNL A   1      41.558  29.710  35.278  1.00  0.00     0.049 A 
ATOM     63  H   UNL A   1      42.533  30.313  33.524  1.00  0.00     0.167 HD
ATOM     64  C   UNL A   1      43.181  35.827  34.246  1.00  0.00     0.037 A 
ATOM     65  C   UNL A   1      42.530  29.150  36.040  1.00  0.00     0.037 A 
ATOM     66  C   UNL A   1      42.717  35.797  35.617  1.00  0.00     0.049 A 
ATOM     67  C   UNL A   1      43.101  30.354  36.737  1.00  0.00     0.074 A 
ATOM     68  C   UNL A   1      42.405  36.687  36.625  1.00  0.00     0.029 A 
ATOM     69  N   UNL A   1      42.550  34.558  36.173  1.00  0.00    -0.354 N 
ATOM     70  N   UNL A   1      42.579  30.943  37.784  1.00  0.00    -0.248 NA
ATOM     71  C   UNL A   1      44.168  31.124  36.074  1.00  0.00     0.031 C 
ATOM     72  C   UNL A   1      42.196  35.925  37.825  1.00  0.00     0.029 A 
ATOM     73  C   UNL A   1      42.431  34.592  37.534  1.00  0.00     0.049 A 
ATOM     74  H   UNL A   1      42.518  33.726  35.646  1.00  0.00     0.167 HD
ATOM     75  C   UNL A   1      43.052  32.248  37.721  1.00  0.00     0.074 A 
ATOM     76  C   UNL A   1      44.128  32.264  36.754  1.00  0.00     0.031 C 
ATOM     77  C   UNL A   1      42.372  33.321  38.212  1.00  0.00     0.037 A 
BRANCH  64  78
ATOM     78  C   UNL A   1      44.282  36.752  33.885  1.00  0.00     0.058 A 
ATOM     79  C   UNL A   1      43.947  38.074  33.550  1.00  0.00     0.135 A 
ATOM     80  C   UNL A   1      45.610  36.346  33.714  1.00  0.00     0.135 A 
ATOM     81  F   UNL A   1      42.685  38.508  33.712  1.00  0.00    -0.206 F 
ATOM     82  C   UNL A   1      44.882  38.955  33.027  1.00  0.00     0.059 A 
ATOM     83  C   UNL A   1      46.570  37.217  33.196  1.00  0.00     0.059 A 
ATOM     84  F   UNL A   1      45.979  35.092  34.018  1.00  0.00    -0.206 F 
ATOM     85  C   UNL A   1      46.190  38.513  32.837  1.00  0.00     0.060 A 
BRANCH  85  86
ATOM     86  S   UNL A   1      47.370  39.660  32.090  1.00  0.00     0.124 S 
ATOM     87  O   UNL A   1      48.519  39.531  32.979  1.00  0.00    -0.237 OA
ATOM     88  O   UNL A   1      47.532  39.098  30.754  1.00  0.00    -0.237 OA
ATOM     89  O   UNL A   1      46.676  40.943  32.146  1.00  0.00    -0.744 OA
ENDBRANCH  85  86
ENDBRANCH  64  78
BRANCH  65  90
ATOM     90  C   UNL A   1      43.354  28.092  35.371  1.00  0.00     0.058 A 
ATOM     91  C   UNL A   1      43.409  26.812  35.970  1.00  0.00     0.135 A 
ATOM     92  C   UNL A   1      44.106  28.251  34.200  1.00  0.00     0.135 A 
ATOM     93  F   UNL A   1      42.843  26.599  37.169  1.00  0.00    -0.206 F 
ATOM     94  C   UNL A   1      44.026  25.724  35.361  1.00  0.00     0.059 A 
ATOM     95  C   UNL A   1      44.711  27.171  33.552  1.00  0.00     0.059 A 
ATOM     96  F   UNL A   1      44.268  29.457  33.638  1.00  0.00    -0.206 F 
ATOM     97  C   UNL A   1      44.636  25.904  34.124  1.00  0.00     0.060 A 
BRANCH  97  98
ATOM     98  S   UNL A   1      45.262  24.455  33.254  1.00  0.00     0.124 S 
ATOM     99  O   UNL A   1      44.036  23.708  32.990  1.00  0.00    -0.237 OA
ATOM    100  O   UNL A   1      45.901  25.059  32.088  1.00  0.00    -0.237 OA
ATOM    101  O   UNL A   1      46.175  23.851  34.219  1.00  0.00    -0.744 OA
ENDBRANCH  97  98
ENDBRANCH  65  90
BRANCH  77 102
ATOM    102  C   UNL A   1      41.455  33.071  39.346  1.00  0.00     0.058 A 
ATOM    103  C   UNL A   1      40.071  33.038  39.116  1.00  0.00     0.135 A 
ATOM    104  C   UNL A   1      41.919  32.789  40.635  1.00  0.00     0.135 A 
ATOM    105  F   UNL A   1      39.580  33.268  37.886  1.00  0.00    -0.206 F 
ATOM    106  C   UNL A   1      39.174  32.720  40.126  1.00  0.00     0.059 A 
ATOM    107  C   UNL A   1      41.036  32.462  41.659  1.00  0.00     0.059 A 
ATOM    108  F   UNL A   1      43.233  32.809  40.914  1.00  0.00    -0.206 F 
ATOM    109  C   UNL A   1      39.668  32.421  41.392  1.00  0.00     0.060 A 
BRANCH 109 110
ATOM    110  S   UNL A   1      38.511  31.874  42.663  1.00  0.00     0.124 S 
ATOM    111  O   UNL A   1      37.273  32.516  42.238  1.00  0.00    -0.237 OA
ATOM    112  O   UNL A   1      38.555  30.421  42.516  1.00  0.00    -0.237 OA
ATOM    113  O   UNL A   1      39.102  32.385  43.895  1.00  0.00    -0.744 OA
ENDBRANCH 109 110
ENDBRANCH  77 102
ENDBRANCH  51  52
ENDBRANCH  44  46
ENDBRANCH  43  44
ENDBRANCH  42  43
ENDBRANCH  41  42
ENDBRANCH  40  41
ENDBRANCH  39  40
ENDBRANCH  38  39
ENDBRANCH  37  38
ENDBRANCH   1  37
TORSDOF 27
ENDMDL
MODEL 2
REMARK VINA RESULT:      -8.2      4.167      7.197
REMARK SMILES Cc1c(CCC(=O)N2CCC[C@H]2C(=O)OCCOCCOCCOCCOC(=O)c2ccc(-c3c4nc(c(-c5c(F)cc(S(=O)(=O)[O-])cc5F)c5ccc([nH]5)c(-c5c(F)cc(S(=O)(=O)[O-])cc5F)c5nc(c(-c6c(F)cc(S(=O)(=O)[O-])cc6F)c6ccc3[nH]6)C=C5)C=C4)cc2)c(=O)oc2cc3oc4c(c3cc12)CCCC4
REMARK SMILES IDX 20 1 19 2 18 3 17 4 16 5 15 6 13 7 14 8 12 9 8 10 9 11 10 12
REMARK SMILES IDX 11 13 6 14 7 15 5 16 4 17 3 18 1 19 2 20 107 21 96 22 99 23
REMARK SMILES IDX 106 24 97 25 98 26 100 27 105 28 101 29 104 30 102 31 103 32
REMARK SMILES IDX 108 33 111 34 109 35 110 36 21 37 22 38 23 39 24 40 25 41
REMARK SMILES IDX 26 42 27 43 28 44 29 45 30 46 31 47 95 48 32 49 94 50 33 51
REMARK SMILES IDX 34 52 35 53 88 54 36 55 93 56 87 57 89 58 37 59 92 60 86 61
REMARK SMILES IDX 85 62 38 64 72 65 51 66 71 67 52 68 55 69 70 70 90 71 53 72
REMARK SMILES IDX 54 73 69 75 91 76 56 77 39 78 40 79 49 80 41 81 42 82 48 83
REMARK SMILES IDX 50 84 43 85 44 86 45 87 46 88 47 89 73 90 74 91 83 92 75 93
REMARK SMILES IDX 76 94 82 95 84 96 77 97 78 98 79 99 80 100 81 101 57 102
REMARK SMILES IDX 58 103 67 104 59 105 60 106 66 107 68 108 61 109 62 110
REMARK SMILES IDX 63 111 64 112 65 113
REMARK H PARENT 89 63 55 74
REMARK Flexibility Score: inf
ROOT
ATOM      1  C   UNL A   1      42.564  33.498  32.705  1.00  0.00     0.188 C 
ENDROOT
BRANCH   1   2
ATOM      2  C   UNL A   1      42.539  33.087  31.225  1.00  0.00     0.188 C 
BRANCH   2   3
ATOM      3  O   UNL A   1      41.712  33.969  30.472  1.00  0.00    -0.376 OA
BRANCH   3   4
ATOM      4  C   UNL A   1      42.293  34.551  29.308  1.00  0.00     0.202 C 
BRANCH   4   5
ATOM      5  C   UNL A   1      43.403  35.590  29.527  1.00  0.00     0.261 C 
BRANCH   5   6
ATOM      6  O   UNL A   1      43.295  36.855  28.832  1.00  0.00    -0.462 OA
BRANCH   6   7
ATOM      7  C   UNL A   1      44.099  37.090  27.755  1.00  0.00     0.328 C 
ATOM      8  O   UNL A   1      44.116  38.138  27.127  1.00  0.00    -0.250 OA
BRANCH   7   9
ATOM      9  C   UNL A   1      45.095  35.929  27.582  1.00  0.00     0.195 C 
ATOM     10  N   UNL A   1      45.042  35.218  26.291  1.00  0.00    -0.329 N 
ATOM     11  C   UNL A   1      46.354  35.156  25.670  1.00  0.00     0.120 C 
ATOM     12  C   UNL A   1      47.329  35.514  26.773  1.00  0.00     0.024 C 
ATOM     13  C   UNL A   1      46.525  36.484  27.618  1.00  0.00     0.039 C 
BRANCH  10  14
ATOM     14  C   UNL A   1      43.900  34.541  25.919  1.00  0.00     0.223 C 
ATOM     15  O   UNL A   1      42.843  35.139  25.723  1.00  0.00    -0.275 OA
BRANCH  14  16
ATOM     16  C   UNL A   1      43.958  33.031  25.723  1.00  0.00     0.105 C 
BRANCH  16  17
ATOM     17  C   UNL A   1      44.225  32.251  27.019  1.00  0.00     0.053 C 
BRANCH  17  18
ATOM     18  C   UNL A   1      44.298  30.763  26.776  1.00  0.00     0.042 A 
ATOM     19  C   UNL A   1      42.190  30.302  28.046  1.00  0.00     0.046 C 
ATOM     20  C   UNL A   1      43.305  29.918  27.107  1.00  0.00    -0.030 A 
ATOM     21  C   UNL A   1      43.312  28.590  26.489  1.00  0.00     0.022 A 
ATOM     22  C   UNL A   1      45.535  30.270  26.107  1.00  0.00     0.339 A 
ATOM     23  C   UNL A   1      44.518  28.074  26.008  1.00  0.00     0.142 A 
ATOM     24  C   UNL A   1      42.146  27.832  26.343  1.00  0.00     0.024 A 
ATOM     25  O   UNL A   1      46.438  31.030  25.773  1.00  0.00    -0.246 OA
ATOM     26  O   UNL A   1      45.655  28.898  25.930  1.00  0.00    -0.422 OA
ATOM     27  C   UNL A   1      44.673  26.754  25.573  1.00  0.00     0.095 A 
ATOM     28  C   UNL A   1      42.263  26.492  25.951  1.00  0.00     0.025 A 
ATOM     29  C   UNL A   1      43.525  25.978  25.658  1.00  0.00     0.138 A 
ATOM     30  C   UNL A   1      41.380  25.393  25.963  1.00  0.00     0.001 A 
ATOM     31  O   UNL A   1      43.479  24.611  25.614  1.00  0.00    -0.461 OA
ATOM     32  C   UNL A   1      42.206  24.291  25.950  1.00  0.00     0.108 A 
ATOM     33  C   UNL A   1      39.995  25.266  26.476  1.00  0.00     0.040 C 
ATOM     34  C   UNL A   1      41.914  23.081  26.762  1.00  0.00     0.076 C 
ATOM     35  C   UNL A   1      40.036  24.561  27.847  1.00  0.00     0.005 C 
ATOM     36  C   UNL A   1      41.256  23.616  28.068  1.00  0.00     0.008 C 
ENDBRANCH  17  18
ENDBRANCH  16  17
ENDBRANCH  14  16
ENDBRANCH  10  14
ENDBRANCH   7   9
ENDBRANCH   6   7
ENDBRANCH   5   6
ENDBRANCH   4   5
ENDBRANCH   3   4
ENDBRANCH   2   3
ENDBRANCH   1   2
BRANCH   1  37
ATOM     37  O   UNL A   1      41.882  32.607  33.584  1.00  0.00    -0.377 OA
BRANCH  37  38
ATOM     38  C   UNL A   1      40.878  33.172  34.410  1.00  0.00     0.188 C 
BRANCH  38  39
ATOM     39  C   UNL A   1      39.680  33.586  33.553  1.00  0.00     0.188 C 
BRANCH  39  40
ATOM     40  O   UNL A   1      38.417  33.016  33.915  1.00  0.00    -0.376 OA
BRANCH  40  41
ATOM     41  C   UNL A   1      37.264  33.366  33.135  1.00  0.00     0.202 C 
BRANCH  41  42
ATOM     42  C   UNL A   1      36.141  32.324  33.041  1.00  0.00     0.261 C 
BRANCH  42  43
ATOM     43  O   UNL A   1      36.695  30.998  32.941  1.00  0.00    -0.460 OA
BRANCH  43  44
ATOM     44  C   UNL A   1      37.129  30.614  31.720  1.00  0.00     0.338 C 
ATOM     45  O   UNL A   1      36.651  30.916  30.637  1.00  0.00    -0.246 OA
BRANCH  44  46
ATOM     46  C   UNL A   1      38.428  29.937  31.875  1.00  0.00     0.060 A 
ATOM     47  C   UNL A   1      39.634  30.548  31.528  1.00  0.00     0.016 A 
ATOM     48  C   UNL A   1      38.413  28.627  32.349  1.00  0.00     0.016 A 
ATOM     49  C   UNL A   1      40.832  29.841  31.684  1.00  0.00     0.010 A 
ATOM     50  C   UNL A   1      39.599  27.907  32.438  1.00  0.00     0.010 A 
ATOM     51  C   UNL A   1      40.830  28.511  32.140  1.00  0.00    -0.014 A 
BRANCH  51  52
ATOM     52  C   UNL A   1      42.109  27.821  32.450  1.00  0.00     0.031 A 
ATOM     53  C   UNL A   1      43.315  28.282  31.699  1.00  0.00     0.074 A 
ATOM     54  C   UNL A   1      42.407  27.279  33.651  1.00  0.00     0.049 A 
ATOM     55  N   UNL A   1      44.029  29.280  32.126  1.00  0.00    -0.248 NA
ATOM     56  C   UNL A   1      43.644  27.864  30.338  1.00  0.00     0.031 C 
ATOM     57  C   UNL A   1      41.882  27.755  34.937  1.00  0.00     0.029 A 
ATOM     58  N   UNL A   1      43.385  26.373  33.995  1.00  0.00    -0.354 N 
ATOM     59  C   UNL A   1      44.876  29.658  31.102  1.00  0.00     0.074 A 
ATOM     60  C   UNL A   1      44.603  28.748  30.011  1.00  0.00     0.031 C 
ATOM     61  C   UNL A   1      42.638  27.240  35.929  1.00  0.00     0.029 A 
ATOM     62  C   UNL A   1      43.582  26.285  35.363  1.00  0.00     0.049 A 
ATOM     63  H   UNL A   1      43.890  25.843  33.338  1.00  0.00     0.167 HD
ATOM     64  C   UNL A   1      45.757  30.684  31.237  1.00  0.00     0.037 A 
ATOM     65  C   UNL A   1      44.655  25.753  36.001  1.00  0.00     0.037 A 
ATOM     66  C   UNL A   1      45.867  31.314  32.536  1.00  0.00     0.049 A 
ATOM     67  C   UNL A   1      45.660  26.865  35.881  1.00  0.00     0.074 A 
ATOM     68  C   UNL A   1      46.139  32.560  33.064  1.00  0.00     0.029 A 
ATOM     69  N   UNL A   1      45.707  30.496  33.621  1.00  0.00    -0.354 N 
ATOM     70  N   UNL A   1      45.704  27.934  36.637  1.00  0.00    -0.248 NA
ATOM     71  C   UNL A   1      46.506  26.937  34.676  1.00  0.00     0.031 C 
ATOM     72  C   UNL A   1      46.279  32.406  34.485  1.00  0.00     0.029 A 
ATOM     73  C   UNL A   1      46.136  31.063  34.788  1.00  0.00     0.049 A 
ATOM     74  H   UNL A   1      45.322  29.591  33.566  1.00  0.00     0.167 HD
ATOM     75  C   UNL A   1      46.343  28.888  35.855  1.00  0.00     0.074 A 
ATOM     76  C   UNL A   1      46.942  28.190  34.738  1.00  0.00     0.031 C 
ATOM     77  C   UNL A   1      46.115  30.226  35.962  1.00  0.00     0.037 A 
BRANCH  64  78
ATOM     78  C   UNL A   1      46.780  30.990  30.207  1.00  0.00     0.058 A 
ATOM     79  C   UNL A   1      47.874  30.117  30.089  1.00  0.00     0.135 A 
ATOM     80  C   UNL A   1      46.795  32.169  29.456  1.00  0.00     0.135 A 
ATOM     81  F   UNL A   1      47.893  28.967  30.783  1.00  0.00    -0.206 F 
ATOM     82  C   UNL A   1      48.965  30.417  29.285  1.00  0.00     0.059 A 
ATOM     83  C   UNL A   1      47.878  32.490  28.635  1.00  0.00     0.059 A 
ATOM     84  F   UNL A   1      45.773  33.037  29.536  1.00  0.00    -0.206 F 
ATOM     85  C   UNL A   1      48.966  31.616  28.574  1.00  0.00     0.060 A 
BRANCH  85  86
ATOM     86  S   UNL A   1      50.429  32.013  27.591  1.00  0.00     0.124 S 
ATOM     87  O   UNL A   1      50.312  33.459  27.447  1.00  0.00    -0.237 OA
ATOM     88  O   UNL A   1      51.509  31.544  28.453  1.00  0.00    -0.237 OA
ATOM     89  O   UNL A   1      50.233  31.243  26.365  1.00  0.00    -0.744 OA
ENDBRANCH  85  86
ENDBRANCH  64  78
BRANCH  65  90
ATOM     90  C   UNL A   1      44.946  24.315  35.698  1.00  0.00     0.058 A 
ATOM     91  C   UNL A   1      46.175  23.775  36.144  1.00  0.00     0.135 A 
ATOM     92  C   UNL A   1      44.117  23.438  34.985  1.00  0.00     0.135 A 
ATOM     93  F   UNL A   1      47.100  24.569  36.707  1.00  0.00    -0.206 F 
ATOM     94  C   UNL A   1      46.482  22.423  36.040  1.00  0.00     0.059 A 
ATOM     95  C   UNL A   1      44.387  22.071  34.890  1.00  0.00     0.059 A 
ATOM     96  F   UNL A   1      43.011  23.878  34.368  1.00  0.00    -0.206 F 
ATOM     97  C   UNL A   1      45.557  21.567  35.451  1.00  0.00     0.060 A 
BRANCH  97  98
ATOM     98  S   UNL A   1      45.876  19.794  35.493  1.00  0.00     0.124 S 
ATOM     99  O   UNL A   1      46.977  19.662  34.544  1.00  0.00    -0.237 OA
ATOM    100  O   UNL A   1      46.220  19.585  36.897  1.00  0.00    -0.237 OA
ATOM    101  O   UNL A   1      44.606  19.212  35.072  1.00  0.00    -0.744 OA
ENDBRANCH  97  98
ENDBRANCH  65  90
BRANCH  77 102
ATOM    102  C   UNL A   1      45.683  30.728  37.284  1.00  0.00     0.058 A 
ATOM    103  C   UNL A   1      44.322  30.988  37.510  1.00  0.00     0.135 A 
ATOM    104  C   UNL A   1      46.573  30.886  38.352  1.00  0.00     0.135 A 
ATOM    105  F   UNL A   1      43.425  30.817  36.524  1.00  0.00    -0.206 F 
ATOM    106  C   UNL A   1      43.853  31.375  38.757  1.00  0.00     0.059 A 
ATOM    107  C   UNL A   1      46.121  31.267  39.611  1.00  0.00     0.059 A 
ATOM    108  F   UNL A   1      47.886  30.655  38.194  1.00  0.00    -0.206 F 
ATOM    109  C   UNL A   1      44.760  31.499  39.806  1.00  0.00     0.060 A 
BRANCH 109 110
ATOM    110  S   UNL A   1      44.127  31.866  41.454  1.00  0.00     0.124 S 
ATOM    111  O   UNL A   1      43.344  33.072  41.214  1.00  0.00    -0.237 OA
ATOM    112  O   UNL A   1      43.360  30.663  41.766  1.00  0.00    -0.237 OA
ATOM    113  O   UNL A   1      45.341  32.043  42.246  1.00  0.00    -0.744 OA
ENDBRANCH 109 110
ENDBRANCH  77 102
ENDBRANCH  51  52
ENDBRANCH  44  46
ENDBRANCH  43  44
ENDBRANCH  42  43
ENDBRANCH  41  42
ENDBRANCH  40  41
ENDBRANCH  39  40
ENDBRANCH  38  39
ENDBRANCH  37  38
ENDBRANCH   1  37
TORSDOF 27
ENDMDL
MODEL 3
REMARK VINA RESULT:      -8.1      3.438      9.995
REMARK SMILES Cc1c(CCC(=O)N2CCC[C@H]2C(=O)OCCOCCOCCOCCOC(=O)c2ccc(-c3c4nc(c(-c5c(F)cc(S(=O)(=O)[O-])cc5F)c5ccc([nH]5)c(-c5c(F)cc(S(=O)(=O)[O-])cc5F)c5nc(c(-c6c(F)cc(S(=O)(=O)[O-])cc6F)c6ccc3[nH]6)C=C5)C=C4)cc2)c(=O)oc2cc3oc4c(c3cc12)CCCC4
REMARK SMILES IDX 20 1 19 2 18 3 17 4 16 5 15 6 13 7 14 8 12 9 8 10 9 11 10 12
REMARK SMILES IDX 11 13 6 14 7 15 5 16 4 17 3 18 1 19 2 20 107 21 96 22 99 23
REMARK SMILES IDX 106 24 97 25 98 26 100 27 105 28 101 29 104 30 102 31 103 32
REMARK SMILES IDX 108 33 111 34 109 35 110 36 21 37 22 38 23 39 24 40 25 41
REMARK SMILES IDX 26 42 27 43 28 44 29 45 30 46 31 47 95 48 32 49 94 50 33 51
REMARK SMILES IDX 34 52 35 53 88 54 36 55 93 56 87 57 89 58 37 59 92 60 86 61
REMARK SMILES IDX 85 62 38 64 72 65 51 66 71 67 52 68 55 69 70 70 90 71 53 72
REMARK SMILES IDX 54 73 69 75 91 76 56 77 39 78 40 79 49 80 41 81 42 82 48 83
REMARK SMILES IDX 50 84 43 85 44 86 45 87 46 88 47 89 73 90 74 91 83 92 75 93
REMARK SMILES IDX 76 94 82 95 84 96 77 97 78 98 79 99 80 100 81 101 57 102
REMARK SMILES IDX 58 103 67 104 59 105 60 106 66 107 68 108 61 109 62 110
REMARK SMILES IDX 63 111 64 112 65 113
REMARK H PARENT 89 63 55 74
REMARK Flexibility Score: inf
ROOT
ATOM      1  C   UNL A   1      47.216  24.794  24.914  1.00  0.00     0.188 C 
ENDROOT
BRANCH   1   2
ATOM      2  C   UNL A   1      47.873  26.102  24.452  1.00  0.00     0.188 C 
BRANCH   2   3
ATOM      3  O   UNL A   1      47.623  27.148  25.386  1.00  0.00    -0.376 OA
BRANCH   3   4
ATOM      4  C   UNL A   1      46.730  28.177  24.969  1.00  0.00     0.202 C 
BRANCH   4   5
ATOM      5  C   UNL A   1      45.685  28.651  25.992  1.00  0.00     0.261 C 
BRANCH   5   6
ATOM      6  O   UNL A   1      46.072  28.696  27.386  1.00  0.00    -0.462 OA
BRANCH   6   7
ATOM      7  C   UNL A   1      45.238  29.290  28.287  1.00  0.00     0.328 C 
ATOM      8  O   UNL A   1      44.068  29.561  28.065  1.00  0.00    -0.250 OA
BRANCH   7   9
ATOM      9  C   UNL A   1      45.931  29.383  29.659  1.00  0.00     0.195 C 
ATOM     10  N   UNL A   1      45.637  30.591  30.452  1.00  0.00    -0.329 N 
ATOM     11  C   UNL A   1      45.183  30.245  31.789  1.00  0.00     0.120 C 
ATOM     12  C   UNL A   1      45.555  28.786  31.966  1.00  0.00     0.024 C 
ATOM     13  C   UNL A   1      45.428  28.243  30.555  1.00  0.00     0.039 C 
BRANCH  10  14
ATOM     14  C   UNL A   1      45.994  31.835  29.978  1.00  0.00     0.223 C 
ATOM     15  O   UNL A   1      47.175  32.172  29.907  1.00  0.00    -0.275 OA
BRANCH  14  16
ATOM     16  C   UNL A   1      44.907  32.796  29.511  1.00  0.00     0.105 C 
BRANCH  16  17
ATOM     17  C   UNL A   1      44.060  33.371  30.656  1.00  0.00     0.053 C 
BRANCH  17  18
ATOM     18  C   UNL A   1      42.633  33.617  30.232  1.00  0.00     0.042 A 
ATOM     19  C   UNL A   1      42.100  31.175  30.083  1.00  0.00     0.046 C 
ATOM     20  C   UNL A   1      41.721  32.633  30.128  1.00  0.00    -0.030 A 
ATOM     21  C   UNL A   1      40.308  33.020  30.093  1.00  0.00     0.022 A 
ATOM     22  C   UNL A   1      42.265  35.036  29.965  1.00  0.00     0.339 A 
ATOM     23  C   UNL A   1      39.971  34.312  29.684  1.00  0.00     0.142 A 
ATOM     24  C   UNL A   1      39.289  32.144  30.479  1.00  0.00     0.024 A 
ATOM     25  O   UNL A   1      43.076  35.949  30.083  1.00  0.00    -0.246 OA
ATOM     26  O   UNL A   1      40.976  35.281  29.512  1.00  0.00    -0.422 OA
ATOM     27  C   UNL A   1      38.657  34.724  29.437  1.00  0.00     0.095 A 
ATOM     28  C   UNL A   1      37.961  32.502  30.209  1.00  0.00     0.025 A 
ATOM     29  C   UNL A   1      37.697  33.740  29.627  1.00  0.00     0.138 A 
ATOM     30  C   UNL A   1      36.743  31.792  30.203  1.00  0.00     0.001 A 
ATOM     31  O   UNL A   1      36.413  33.774  29.154  1.00  0.00    -0.461 OA
ATOM     32  C   UNL A   1      35.921  32.533  29.384  1.00  0.00     0.108 A 
ATOM     33  C   UNL A   1      36.456  30.355  30.424  1.00  0.00     0.040 C 
ATOM     34  C   UNL A   1      34.988  31.892  28.420  1.00  0.00     0.076 C 
ATOM     35  C   UNL A   1      36.241  29.675  29.057  1.00  0.00     0.005 C 
ATOM     36  C   UNL A   1      35.728  30.616  27.924  1.00  0.00     0.008 C 
ENDBRANCH  17  18
ENDBRANCH  16  17
ENDBRANCH  14  16
ENDBRANCH  10  14
ENDBRANCH   7   9
ENDBRANCH   6   7
ENDBRANCH   5   6
ENDBRANCH   4   5
ENDBRANCH   3   4
ENDBRANCH   2   3
ENDBRANCH   1   2
BRANCH   1  37
ATOM     37  O   UNL A   1      45.817  24.887  25.172  1.00  0.00    -0.377 OA
BRANCH  37  38
ATOM     38  C   UNL A   1      45.379  24.489  26.461  1.00  0.00     0.188 C 
BRANCH  38  39
ATOM     39  C   UNL A   1      43.878  24.194  26.424  1.00  0.00     0.188 C 
BRANCH  39  40
ATOM     40  O   UNL A   1      43.184  24.295  27.673  1.00  0.00    -0.376 OA
BRANCH  40  41
ATOM     41  C   UNL A   1      41.805  23.902  27.719  1.00  0.00     0.202 C 
BRANCH  41  42
ATOM     42  C   UNL A   1      40.761  25.023  27.820  1.00  0.00     0.261 C 
BRANCH  42  43
ATOM     43  O   UNL A   1      41.227  26.064  28.700  1.00  0.00    -0.460 OA
BRANCH  43  44
ATOM     44  C   UNL A   1      40.513  27.212  28.711  1.00  0.00     0.338 C 
ATOM     45  O   UNL A   1      39.813  27.655  27.814  1.00  0.00    -0.246 OA
BRANCH  44  46
ATOM     46  C   UNL A   1      40.527  27.759  30.078  1.00  0.00     0.060 A 
ATOM     47  C   UNL A   1      39.374  28.235  30.703  1.00  0.00     0.016 A 
ATOM     48  C   UNL A   1      41.759  27.829  30.726  1.00  0.00     0.016 A 
ATOM     49  C   UNL A   1      39.460  28.760  31.998  1.00  0.00     0.010 A 
ATOM     50  C   UNL A   1      41.849  28.412  31.985  1.00  0.00     0.010 A 
ATOM     51  C   UNL A   1      40.699  28.857  32.655  1.00  0.00    -0.014 A 
BRANCH  51  52
ATOM     52  C   UNL A   1      40.763  29.268  34.081  1.00  0.00     0.031 A 
ATOM     53  C   UNL A   1      41.586  28.410  34.986  1.00  0.00     0.074 A 
ATOM     54  C   UNL A   1      40.660  30.545  34.509  1.00  0.00     0.049 A 
ATOM     55  N   UNL A   1      42.863  28.611  35.121  1.00  0.00    -0.248 NA
ATOM     56  C   UNL A   1      41.125  27.153  35.570  1.00  0.00     0.031 C 
ATOM     57  C   UNL A   1      41.066  31.722  33.731  1.00  0.00     0.029 A 
ATOM     58  N   UNL A   1      40.403  31.039  35.768  1.00  0.00    -0.354 N 
ATOM     59  C   UNL A   1      43.394  27.512  35.767  1.00  0.00     0.074 A 
ATOM     60  C   UNL A   1      42.276  26.632  36.029  1.00  0.00     0.031 C 
ATOM     61  C   UNL A   1      41.163  32.778  34.565  1.00  0.00     0.029 A 
ATOM     62  C   UNL A   1      40.676  32.391  35.883  1.00  0.00     0.049 A 
ATOM     63  H   UNL A   1      40.060  30.489  36.508  1.00  0.00     0.167 HD
ATOM     64  C   UNL A   1      44.719  27.418  36.059  1.00  0.00     0.037 A 
ATOM     65  C   UNL A   1      40.841  33.096  37.031  1.00  0.00     0.037 A 
ATOM     66  C   UNL A   1      45.558  28.562  35.768  1.00  0.00     0.049 A 
ATOM     67  C   UNL A   1      42.250  32.732  37.410  1.00  0.00     0.074 A 
ATOM     68  C   UNL A   1      46.859  28.824  35.390  1.00  0.00     0.029 A 
ATOM     69  N   UNL A   1      44.980  29.792  35.928  1.00  0.00    -0.354 N 
ATOM     70  N   UNL A   1      43.334  33.258  36.897  1.00  0.00    -0.248 NA
ATOM     71  C   UNL A   1      42.484  31.517  38.211  1.00  0.00     0.031 C 
ATOM     72  C   UNL A   1      47.059  30.243  35.482  1.00  0.00     0.029 A 
ATOM     73  C   UNL A   1      45.890  30.812  35.958  1.00  0.00     0.049 A 
ATOM     74  H   UNL A   1      44.008  29.929  36.013  1.00  0.00     0.167 HD
ATOM     75  C   UNL A   1      44.311  32.287  37.075  1.00  0.00     0.074 A 
ATOM     76  C   UNL A   1      43.781  31.317  38.008  1.00  0.00     0.031 C 
ATOM     77  C   UNL A   1      45.378  32.130  36.244  1.00  0.00     0.037 A 
BRANCH  64  78
ATOM     78  C   UNL A   1      45.270  26.323  36.894  1.00  0.00     0.058 A 
ATOM     79  C   UNL A   1      45.414  25.057  36.305  1.00  0.00     0.135 A 
ATOM     80  C   UNL A   1      45.512  26.443  38.266  1.00  0.00     0.135 A 
ATOM     81  F   UNL A   1      45.203  24.901  34.987  1.00  0.00    -0.206 F 
ATOM     82  C   UNL A   1      45.746  23.936  37.053  1.00  0.00     0.059 A 
ATOM     83  C   UNL A   1      45.854  25.331  39.039  1.00  0.00     0.059 A 
ATOM     84  F   UNL A   1      45.386  27.632  38.876  1.00  0.00    -0.206 F 
ATOM     85  C   UNL A   1      45.949  24.080  38.425  1.00  0.00     0.060 A 
BRANCH  85  86
ATOM     86  S   UNL A   1      46.312  22.592  39.385  1.00  0.00     0.124 S 
ATOM     87  O   UNL A   1      45.574  22.842  40.618  1.00  0.00    -0.237 OA
ATOM     88  O   UNL A   1      45.780  21.540  38.525  1.00  0.00    -0.237 OA
ATOM     89  O   UNL A   1      47.767  22.618  39.510  1.00  0.00    -0.744 OA
ENDBRANCH  85  86
ENDBRANCH  64  78
BRANCH  65  90
ATOM     90  C   UNL A   1      39.681  33.079  37.978  1.00  0.00     0.058 A 
ATOM     91  C   UNL A   1      38.376  33.065  37.433  1.00  0.00     0.135 A 
ATOM     92  C   UNL A   1      39.758  33.097  39.377  1.00  0.00     0.135 A 
ATOM     93  F   UNL A   1      38.192  33.194  36.109  1.00  0.00    -0.206 F 
ATOM     94  C   UNL A   1      37.237  32.908  38.216  1.00  0.00     0.059 A 
ATOM     95  C   UNL A   1      38.634  32.912  40.186  1.00  0.00     0.059 A 
ATOM     96  F   UNL A   1      40.927  33.282  40.005  1.00  0.00    -0.206 F 
ATOM     97  C   UNL A   1      37.381  32.784  39.594  1.00  0.00     0.060 A 
BRANCH  97  98
ATOM     98  S   UNL A   1      35.925  32.389  40.580  1.00  0.00     0.124 S 
ATOM     99  O   UNL A   1      34.939  32.076  39.550  1.00  0.00    -0.237 OA
ATOM    100  O   UNL A   1      36.398  31.255  41.370  1.00  0.00    -0.237 OA
ATOM    101  O   UNL A   1      35.685  33.614  41.334  1.00  0.00    -0.744 OA
ENDBRANCH  97  98
ENDBRANCH  65  90
BRANCH  77 102
ATOM    102  C   UNL A   1      45.857  33.335  35.533  1.00  0.00     0.058 A 
ATOM    103  C   UNL A   1      45.302  33.663  34.285  1.00  0.00     0.135 A 
ATOM    104  C   UNL A   1      46.794  34.210  36.091  1.00  0.00     0.135 A 
ATOM    105  F   UNL A   1      44.373  32.871  33.725  1.00  0.00    -0.206 F 
ATOM    106  C   UNL A   1      45.651  34.829  33.619  1.00  0.00     0.059 A 
ATOM    107  C   UNL A   1      47.152  35.387  35.441  1.00  0.00     0.059 A 
ATOM    108  F   UNL A   1      47.360  33.946  37.280  1.00  0.00    -0.206 F 
ATOM    109  C   UNL A   1      46.568  35.692  34.212  1.00  0.00     0.060 A 
BRANCH 109 110
ATOM    110  S   UNL A   1      46.913  37.269  33.408  1.00  0.00     0.124 S 
ATOM    111  O   UNL A   1      45.646  37.972  33.570  1.00  0.00    -0.237 OA
ATOM    112  O   UNL A   1      48.029  37.782  34.199  1.00  0.00    -0.237 OA
ATOM    113  O   UNL A   1      47.255  36.880  32.044  1.00  0.00    -0.744 OA
ENDBRANCH 109 110
ENDBRANCH  77 102
ENDBRANCH  51  52
ENDBRANCH  44  46
ENDBRANCH  43  44
ENDBRANCH  42  43
ENDBRANCH  41  42
ENDBRANCH  40  41
ENDBRANCH  39  40
ENDBRANCH  38  39
ENDBRANCH  37  38
ENDBRANCH   1  37
TORSDOF 27
ENDMDL
