MODEL 1
REMARK VINA RESULT:      -8.1      0.000      0.000
REMARK SMILES O=C(C[NH+]1CCN(C(=O)c2ccc(F)c(F)c2F)CC1)OCCOCCOCCOCCOC(=O)c1ccc(-c2c3nc(c(-c4c(F)cc(S(=O)(=O)[O-])cc4F)c4ccc([nH]4)c(-c4c(F)cc(S(=O)(=O)[O-])cc4F)c4nc(c(-c5c(F)cc(S(=O)(=O)[O-])cc5F)c5ccc2[nH]5)C=C4)C=C3)cc1
REMARK SMILES IDX 28 1 27 2 26 3 25 4 24 5 23 6 22 7 21 8 2 9 1 10 3 11 4 12
REMARK SMILES IDX 5 13 20 14 6 16 19 17 7 18 8 19 9 20 10 21 11 22 17 23 12 24
REMARK SMILES IDX 15 25 18 26 13 27 16 28 14 29 29 30 30 31 31 32 32 33 33 34
REMARK SMILES IDX 34 35 35 36 36 37 37 38 101 39 38 40 100 41 39 42 40 43
REMARK SMILES IDX 41 44 94 45 42 46 99 47 93 48 95 49 43 50 98 51 92 52 91 53
REMARK SMILES IDX 44 55 78 56 57 57 77 58 58 59 61 60 76 61 96 62 59 63 60 64
REMARK SMILES IDX 75 66 97 67 62 68 45 69 46 70 55 71 47 72 48 73 54 74 56 75
REMARK SMILES IDX 49 76 50 77 51 78 52 79 53 80 79 81 80 82 89 83 81 84 82 85
REMARK SMILES IDX 88 86 90 87 83 88 84 89 85 90 86 91 87 92 63 93 64 94 73 95
REMARK SMILES IDX 65 96 66 97 72 98 74 99 67 100 68 101 69 102 70 103 71 104
REMARK H PARENT 4 15 95 54 61 65
REMARK Flexibility Score: inf
ROOT
ATOM      1  C   UNL A   1      40.836  27.502  29.471  1.00  0.00     0.188 C 
ENDROOT
BRANCH   1   2
ATOM      2  O   UNL A   1      39.523  27.056  29.766  1.00  0.00    -0.377 OA
BRANCH   2   3
ATOM      3  C   UNL A   1      38.575  28.063  30.076  1.00  0.00     0.188 C 
BRANCH   3   4
ATOM      4  C   UNL A   1      38.181  28.927  28.882  1.00  0.00     0.188 C 
BRANCH   4   5
ATOM      5  O   UNL A   1      36.899  29.558  28.878  1.00  0.00    -0.376 OA
BRANCH   5   6
ATOM      6  C   UNL A   1      36.334  30.029  27.666  1.00  0.00     0.202 C 
BRANCH   6   7
ATOM      7  C   UNL A   1      34.988  29.485  27.219  1.00  0.00     0.261 C 
BRANCH   7   8
ATOM      8  O   UNL A   1      33.863  30.326  27.460  1.00  0.00    -0.459 OA
BRANCH   8   9
ATOM      9  C   UNL A   1      32.823  30.278  26.578  1.00  0.00     0.361 C 
ATOM     10  O   UNL A   1      31.797  30.919  26.792  1.00  0.00    -0.245 OA
BRANCH   9  11
ATOM     11  C   UNL A   1      32.952  29.268  25.439  1.00  0.00     0.386 C 
BRANCH  11  12
ATOM     12  N   UNL A   1      31.729  28.695  24.858  1.00  0.00    -0.323 N 
ATOM     13  C   UNL A   1      31.545  28.711  23.410  1.00  0.00     0.284 C 
ATOM     14  C   UNL A   1      31.452  27.355  25.392  1.00  0.00     0.284 C 
ATOM     15  H   UNL A   1      31.036  29.377  25.169  1.00  0.00     0.348 HD
ATOM     16  C   UNL A   1      31.916  27.452  22.588  1.00  0.00     0.181 C 
ATOM     17  C   UNL A   1      32.254  26.197  24.758  1.00  0.00     0.181 C 
ATOM     18  N   UNL A   1      32.479  26.300  23.311  1.00  0.00    -0.327 N 
ATOM     19  C   UNL A   1      33.236  25.402  22.540  1.00  0.00     0.257 C 
ATOM     20  O   UNL A   1      33.552  25.656  21.379  1.00  0.00    -0.269 OA
BRANCH  19  21
ATOM     21  C   UNL A   1      33.668  24.086  23.066  1.00  0.00     0.079 A 
ATOM     22  C   UNL A   1      34.975  23.889  23.532  1.00  0.00     0.020 A 
ATOM     23  C   UNL A   1      32.708  23.086  23.276  1.00  0.00     0.174 A 
ATOM     24  C   UNL A   1      35.327  22.684  24.147  1.00  0.00     0.043 A 
ATOM     25  C   UNL A   1      33.055  21.901  23.917  1.00  0.00     0.195 A 
ATOM     26  F   UNL A   1      31.446  23.245  22.848  1.00  0.00    -0.203 F 
ATOM     27  C   UNL A   1      34.361  21.700  24.342  1.00  0.00     0.161 A 
ATOM     28  F   UNL A   1      32.131  20.951  24.125  1.00  0.00    -0.200 F 
ATOM     29  F   UNL A   1      34.708  20.561  24.956  1.00  0.00    -0.204 F 
ENDBRANCH  19  21
ENDBRANCH  11  12
ENDBRANCH   9  11
ENDBRANCH   8   9
ENDBRANCH   7   8
ENDBRANCH   6   7
ENDBRANCH   5   6
ENDBRANCH   4   5
ENDBRANCH   3   4
ENDBRANCH   2   3
ENDBRANCH   1   2
BRANCH   1  30
ATOM     30  C   UNL A   1      41.465  26.923  28.183  1.00  0.00     0.188 C 
BRANCH  30  31
ATOM     31  O   UNL A   1      42.769  26.347  28.181  1.00  0.00    -0.376 OA
BRANCH  31  32
ATOM     32  C   UNL A   1      42.977  25.078  28.772  1.00  0.00     0.202 C 
BRANCH  32  33
ATOM     33  C   UNL A   1      43.918  24.104  28.044  1.00  0.00     0.261 C 
BRANCH  33  34
ATOM     34  O   UNL A   1      45.256  24.039  28.562  1.00  0.00    -0.460 OA
BRANCH  34  35
ATOM     35  C   UNL A   1      46.237  24.398  27.697  1.00  0.00     0.338 C 
ATOM     36  O   UNL A   1      46.767  23.673  26.868  1.00  0.00    -0.246 OA
BRANCH  35  37
ATOM     37  C   UNL A   1      46.457  25.872  27.740  1.00  0.00     0.060 A 
ATOM     38  C   UNL A   1      47.146  26.390  28.848  1.00  0.00     0.016 A 
ATOM     39  C   UNL A   1      46.014  26.741  26.734  1.00  0.00     0.016 A 
ATOM     40  C   UNL A   1      47.310  27.764  29.007  1.00  0.00     0.010 A 
ATOM     41  C   UNL A   1      46.155  28.128  26.905  1.00  0.00     0.010 A 
ATOM     42  C   UNL A   1      46.735  28.641  28.082  1.00  0.00    -0.014 A 
BRANCH  42  43
ATOM     43  C   UNL A   1      46.399  30.015  28.551  1.00  0.00     0.031 A 
ATOM     44  C   UNL A   1      47.291  31.134  28.066  1.00  0.00     0.074 A 
ATOM     45  C   UNL A   1      45.306  30.294  29.283  1.00  0.00     0.049 A 
ATOM     46  N   UNL A   1      47.213  32.421  28.281  1.00  0.00    -0.248 NA
ATOM     47  C   UNL A   1      48.430  30.741  27.217  1.00  0.00     0.031 C 
ATOM     48  C   UNL A   1      44.326  29.319  29.760  1.00  0.00     0.029 A 
ATOM     49  N   UNL A   1      44.832  31.498  29.745  1.00  0.00    -0.354 N 
ATOM     50  C   UNL A   1      48.292  32.982  27.604  1.00  0.00     0.074 A 
ATOM     51  C   UNL A   1      49.033  31.898  27.005  1.00  0.00     0.031 C 
ATOM     52  C   UNL A   1      43.368  29.966  30.451  1.00  0.00     0.029 A 
ATOM     53  C   UNL A   1      43.675  31.396  30.481  1.00  0.00     0.049 A 
ATOM     54  H   UNL A   1      45.280  32.356  29.565  1.00  0.00     0.167 HD
ATOM     55  C   UNL A   1      48.633  34.285  27.475  1.00  0.00     0.037 A 
ATOM     56  C   UNL A   1      42.954  32.350  31.107  1.00  0.00     0.037 A 
ATOM     57  C   UNL A   1      47.890  35.368  28.058  1.00  0.00     0.049 A 
ATOM     58  C   UNL A   1      43.388  33.794  31.005  1.00  0.00     0.074 A 
ATOM     59  C   UNL A   1      48.144  36.725  27.980  1.00  0.00     0.029 A 
ATOM     60  N   UNL A   1      46.749  35.215  28.832  1.00  0.00    -0.354 N 
ATOM     61  N   UNL A   1      44.403  34.310  30.351  1.00  0.00    -0.248 NA
ATOM     62  C   UNL A   1      42.570  34.787  31.717  1.00  0.00     0.031 C 
ATOM     63  C   UNL A   1      47.187  37.391  28.750  1.00  0.00     0.029 A 
ATOM     64  C   UNL A   1      46.300  36.453  29.256  1.00  0.00     0.049 A 
ATOM     65  H   UNL A   1      46.323  34.354  29.046  1.00  0.00     0.167 HD
ATOM     66  C   UNL A   1      44.319  35.689  30.538  1.00  0.00     0.074 A 
ATOM     67  C   UNL A   1      43.152  35.924  31.364  1.00  0.00     0.031 C 
ATOM     68  C   UNL A   1      45.127  36.671  30.066  1.00  0.00     0.037 A 
BRANCH  55  69
ATOM     69  C   UNL A   1      49.887  34.600  26.706  1.00  0.00     0.058 A 
ATOM     70  C   UNL A   1      51.151  34.623  27.319  1.00  0.00     0.135 A 
ATOM     71  C   UNL A   1      49.820  34.880  25.333  1.00  0.00     0.135 A 
ATOM     72  F   UNL A   1      51.270  34.391  28.636  1.00  0.00    -0.206 F 
ATOM     73  C   UNL A   1      52.300  34.942  26.602  1.00  0.00     0.059 A 
ATOM     74  C   UNL A   1      50.961  35.170  24.590  1.00  0.00     0.059 A 
ATOM     75  F   UNL A   1      48.637  34.881  24.699  1.00  0.00    -0.206 F 
ATOM     76  C   UNL A   1      52.193  35.213  25.237  1.00  0.00     0.060 A 
BRANCH  76  77
ATOM     77  S   UNL A   1      53.693  35.618  24.316  1.00  0.00     0.124 S 
ATOM     78  O   UNL A   1      53.395  35.045  23.007  1.00  0.00    -0.237 OA
ATOM     79  O   UNL A   1      53.714  37.075  24.379  1.00  0.00    -0.237 OA
ATOM     80  O   UNL A   1      54.747  34.946  25.069  1.00  0.00    -0.744 OA
ENDBRANCH  76  77
ENDBRANCH  55  69
BRANCH  56  81
ATOM     81  C   UNL A   1      41.739  31.983  31.889  1.00  0.00     0.058 A 
ATOM     82  C   UNL A   1      41.828  31.571  33.227  1.00  0.00     0.135 A 
ATOM     83  C   UNL A   1      40.463  32.015  31.303  1.00  0.00     0.135 A 
ATOM     84  F   UNL A   1      43.025  31.505  33.830  1.00  0.00    -0.206 F 
ATOM     85  C   UNL A   1      40.703  31.185  33.951  1.00  0.00     0.059 A 
ATOM     86  C   UNL A   1      39.320  31.660  32.014  1.00  0.00     0.059 A 
ATOM     87  F   UNL A   1      40.318  32.403  30.027  1.00  0.00    -0.206 F 
ATOM     88  C   UNL A   1      39.451  31.237  33.335  1.00  0.00     0.060 A 
BRANCH  88  89
ATOM     89  S   UNL A   1      37.992  30.773  34.296  1.00  0.00     0.124 S 
ATOM     90  O   UNL A   1      37.348  29.811  33.409  1.00  0.00    -0.237 OA
ATOM     91  O   UNL A   1      38.587  30.223  35.511  1.00  0.00    -0.237 OA
ATOM     92  O   UNL A   1      37.288  32.040  34.470  1.00  0.00    -0.744 OA
ENDBRANCH  88  89
ENDBRANCH  56  81
BRANCH  68  93
ATOM     93  C   UNL A   1      44.749  38.096  30.373  1.00  0.00     0.058 A 
ATOM     94  C   UNL A   1      45.270  38.783  31.480  1.00  0.00     0.135 A 
ATOM     95  C   UNL A   1      43.888  38.798  29.514  1.00  0.00     0.135 A 
ATOM     96  F   UNL A   1      46.100  38.162  32.333  1.00  0.00    -0.206 F 
ATOM     97  C   UNL A   1      44.917  40.103  31.749  1.00  0.00     0.059 A 
ATOM     98  C   UNL A   1      43.546  40.127  29.743  1.00  0.00     0.059 A 
ATOM     99  F   UNL A   1      43.376  38.196  28.428  1.00  0.00    -0.206 F 
ATOM    100  C   UNL A   1      44.052  40.765  30.875  1.00  0.00     0.060 A 
BRANCH 100 101
ATOM    101  S   UNL A   1      43.607  42.479  31.228  1.00  0.00     0.124 S 
ATOM    102  O   UNL A   1      44.064  42.622  32.607  1.00  0.00    -0.237 OA
ATOM    103  O   UNL A   1      44.371  43.215  30.227  1.00  0.00    -0.237 OA
ATOM    104  O   UNL A   1      42.158  42.500  31.043  1.00  0.00    -0.744 OA
ENDBRANCH 100 101
ENDBRANCH  68  93
ENDBRANCH  42  43
ENDBRANCH  35  37
ENDBRANCH  34  35
ENDBRANCH  33  34
ENDBRANCH  32  33
ENDBRANCH  31  32
ENDBRANCH  30  31
ENDBRANCH   1  30
TORSDOF 25
ENDMDL
MODEL 2
REMARK VINA RESULT:      -8.0      6.043     11.947
REMARK SMILES O=C(C[NH+]1CCN(C(=O)c2ccc(F)c(F)c2F)CC1)OCCOCCOCCOCCOC(=O)c1ccc(-c2c3nc(c(-c4c(F)cc(S(=O)(=O)[O-])cc4F)c4ccc([nH]4)c(-c4c(F)cc(S(=O)(=O)[O-])cc4F)c4nc(c(-c5c(F)cc(S(=O)(=O)[O-])cc5F)c5ccc2[nH]5)C=C4)C=C3)cc1
REMARK SMILES IDX 28 1 27 2 26 3 25 4 24 5 23 6 22 7 21 8 2 9 1 10 3 11 4 12
REMARK SMILES IDX 5 13 20 14 6 16 19 17 7 18 8 19 9 20 10 21 11 22 17 23 12 24
REMARK SMILES IDX 15 25 18 26 13 27 16 28 14 29 29 30 30 31 31 32 32 33 33 34
REMARK SMILES IDX 34 35 35 36 36 37 37 38 101 39 38 40 100 41 39 42 40 43
REMARK SMILES IDX 41 44 94 45 42 46 99 47 93 48 95 49 43 50 98 51 92 52 91 53
REMARK SMILES IDX 44 55 78 56 57 57 77 58 58 59 61 60 76 61 96 62 59 63 60 64
REMARK SMILES IDX 75 66 97 67 62 68 45 69 46 70 55 71 47 72 48 73 54 74 56 75
REMARK SMILES IDX 49 76 50 77 51 78 52 79 53 80 79 81 80 82 89 83 81 84 82 85
REMARK SMILES IDX 88 86 90 87 83 88 84 89 85 90 86 91 87 92 63 93 64 94 73 95
REMARK SMILES IDX 65 96 66 97 72 98 74 99 67 100 68 101 69 102 70 103 71 104
REMARK H PARENT 4 15 95 54 61 65
REMARK Flexibility Score: inf
ROOT
ATOM      1  C   UNL A   1      47.268  27.536  26.292  1.00  0.00     0.188 C 
ENDROOT
BRANCH   1   2
ATOM      2  O   UNL A   1      47.237  28.571  27.259  1.00  0.00    -0.377 OA
BRANCH   2   3
ATOM      3  C   UNL A   1      45.980  28.829  27.860  1.00  0.00     0.188 C 
BRANCH   3   4
ATOM      4  C   UNL A   1      45.619  30.311  27.923  1.00  0.00     0.188 C 
BRANCH   4   5
ATOM      5  O   UNL A   1      46.668  31.272  28.059  1.00  0.00    -0.376 OA
BRANCH   5   6
ATOM      6  C   UNL A   1      47.361  31.744  26.916  1.00  0.00     0.202 C 
BRANCH   6   7
ATOM      7  C   UNL A   1      48.372  32.867  27.077  1.00  0.00     0.261 C 
BRANCH   7   8
ATOM      8  O   UNL A   1      47.832  34.181  27.195  1.00  0.00    -0.459 OA
BRANCH   8   9
ATOM      9  C   UNL A   1      47.454  34.826  26.054  1.00  0.00     0.361 C 
ATOM     10  O   UNL A   1      48.117  34.708  25.026  1.00  0.00    -0.245 OA
BRANCH   9  11
ATOM     11  C   UNL A   1      46.292  35.808  26.188  1.00  0.00     0.386 C 
BRANCH  11  12
ATOM     12  N   UNL A   1      44.955  35.390  25.742  1.00  0.00    -0.323 N 
ATOM     13  C   UNL A   1      44.636  33.967  25.664  1.00  0.00     0.284 C 
ATOM     14  C   UNL A   1      43.895  36.111  26.458  1.00  0.00     0.284 C 
ATOM     15  H   UNL A   1      44.995  35.654  24.757  1.00  0.00     0.348 HD
ATOM     16  C   UNL A   1      43.896  33.295  26.847  1.00  0.00     0.181 C 
ATOM     17  C   UNL A   1      43.553  35.583  27.868  1.00  0.00     0.181 C 
ATOM     18  N   UNL A   1      43.580  34.124  28.021  1.00  0.00    -0.327 N 
ATOM     19  C   UNL A   1      43.370  33.428  29.224  1.00  0.00     0.257 C 
ATOM     20  O   UNL A   1      43.606  32.225  29.325  1.00  0.00    -0.269 OA
BRANCH  19  21
ATOM     21  C   UNL A   1      42.820  34.092  30.429  1.00  0.00     0.079 A 
ATOM     22  C   UNL A   1      41.460  33.987  30.755  1.00  0.00     0.020 A 
ATOM     23  C   UNL A   1      43.702  34.669  31.353  1.00  0.00     0.174 A 
ATOM     24  C   UNL A   1      40.985  34.505  31.963  1.00  0.00     0.043 A 
ATOM     25  C   UNL A   1      43.230  35.155  32.569  1.00  0.00     0.195 A 
ATOM     26  F   UNL A   1      45.010  34.779  31.077  1.00  0.00    -0.203 F 
ATOM     27  C   UNL A   1      41.876  35.079  32.866  1.00  0.00     0.161 A 
ATOM     28  F   UNL A   1      44.079  35.697  33.454  1.00  0.00    -0.200 F 
ATOM     29  F   UNL A   1      41.409  35.549  34.030  1.00  0.00    -0.204 F 
ENDBRANCH  19  21
ENDBRANCH  11  12
ENDBRANCH   9  11
ENDBRANCH   8   9
ENDBRANCH   7   8
ENDBRANCH   6   7
ENDBRANCH   5   6
ENDBRANCH   4   5
ENDBRANCH   3   4
ENDBRANCH   2   3
ENDBRANCH   1   2
BRANCH   1  30
ATOM     30  C   UNL A   1      48.144  26.313  26.649  1.00  0.00     0.188 C 
BRANCH  30  31
ATOM     31  O   UNL A   1      47.586  25.137  27.230  1.00  0.00    -0.376 OA
BRANCH  31  32
ATOM     32  C   UNL A   1      46.485  24.501  26.609  1.00  0.00     0.202 C 
BRANCH  32  33
ATOM     33  C   UNL A   1      45.112  24.646  27.286  1.00  0.00     0.261 C 
BRANCH  33  34
ATOM     34  O   UNL A   1      44.095  25.270  26.487  1.00  0.00    -0.460 OA
BRANCH  34  35
ATOM     35  C   UNL A   1      42.817  24.934  26.797  1.00  0.00     0.338 C 
ATOM     36  O   UNL A   1      42.286  23.854  26.586  1.00  0.00    -0.246 OA
BRANCH  35  37
ATOM     37  C   UNL A   1      42.186  25.998  27.630  1.00  0.00     0.060 A 
ATOM     38  C   UNL A   1      42.787  27.267  27.619  1.00  0.00     0.016 A 
ATOM     39  C   UNL A   1      41.037  25.784  28.402  1.00  0.00     0.016 A 
ATOM     40  C   UNL A   1      42.312  28.287  28.441  1.00  0.00     0.010 A 
ATOM     41  C   UNL A   1      40.573  26.802  29.250  1.00  0.00     0.010 A 
ATOM     42  C   UNL A   1      41.260  28.029  29.326  1.00  0.00    -0.014 A 
BRANCH  42  43
ATOM     43  C   UNL A   1      41.171  28.869  30.553  1.00  0.00     0.031 A 
ATOM     44  C   UNL A   1      40.056  29.889  30.597  1.00  0.00     0.074 A 
ATOM     45  C   UNL A   1      41.959  28.685  31.628  1.00  0.00     0.049 A 
ATOM     46  N   UNL A   1      39.718  30.720  31.548  1.00  0.00    -0.248 NA
ATOM     47  C   UNL A   1      39.202  29.977  29.399  1.00  0.00     0.031 C 
ATOM     48  C   UNL A   1      43.027  27.694  31.743  1.00  0.00     0.029 A 
ATOM     49  N   UNL A   1      41.969  29.331  32.841  1.00  0.00    -0.354 N 
ATOM     50  C   UNL A   1      38.626  31.430  31.057  1.00  0.00     0.074 A 
ATOM     51  C   UNL A   1      38.381  30.963  29.713  1.00  0.00     0.031 C 
ATOM     52  C   UNL A   1      43.590  27.800  32.961  1.00  0.00     0.029 A 
ATOM     53  C   UNL A   1      42.937  28.877  33.705  1.00  0.00     0.049 A 
ATOM     54  H   UNL A   1      41.339  30.052  33.070  1.00  0.00     0.167 HD
ATOM     55  C   UNL A   1      37.880  32.377  31.670  1.00  0.00     0.037 A 
ATOM     56  C   UNL A   1      43.257  29.291  34.949  1.00  0.00     0.037 A 
ATOM     57  C   UNL A   1      38.112  32.834  33.012  1.00  0.00     0.049 A 
ATOM     58  C   UNL A   1      42.451  30.395  35.593  1.00  0.00     0.074 A 
ATOM     59  C   UNL A   1      37.408  33.782  33.732  1.00  0.00     0.029 A 
ATOM     60  N   UNL A   1      39.131  32.378  33.835  1.00  0.00    -0.354 N 
ATOM     61  N   UNL A   1      41.413  31.048  35.122  1.00  0.00    -0.248 NA
ATOM     62  C   UNL A   1      42.852  30.811  36.945  1.00  0.00     0.031 C 
ATOM     63  C   UNL A   1      38.033  33.938  34.972  1.00  0.00     0.029 A 
ATOM     64  C   UNL A   1      39.088  33.042  35.049  1.00  0.00     0.049 A 
ATOM     65  H   UNL A   1      39.787  31.685  33.592  1.00  0.00     0.167 HD
ATOM     66  C   UNL A   1      41.015  31.918  36.135  1.00  0.00     0.074 A 
ATOM     67  C   UNL A   1      41.920  31.705  37.244  1.00  0.00     0.031 C 
ATOM     68  C   UNL A   1      39.989  32.807  36.149  1.00  0.00     0.037 A 
BRANCH  55  69
ATOM     69  C   UNL A   1      36.769  33.006  30.875  1.00  0.00     0.058 A 
ATOM     70  C   UNL A   1      36.997  34.074  29.991  1.00  0.00     0.135 A 
ATOM     71  C   UNL A   1      35.455  32.528  30.998  1.00  0.00     0.135 A 
ATOM     72  F   UNL A   1      38.229  34.590  29.855  1.00  0.00    -0.206 F 
ATOM     73  C   UNL A   1      35.956  34.665  29.280  1.00  0.00     0.059 A 
ATOM     74  C   UNL A   1      34.405  33.083  30.273  1.00  0.00     0.059 A 
ATOM     75  F   UNL A   1      35.179  31.516  31.835  1.00  0.00    -0.206 F 
ATOM     76  C   UNL A   1      34.663  34.160  29.429  1.00  0.00     0.060 A 
BRANCH  76  77
ATOM     77  S   UNL A   1      33.323  34.930  28.496  1.00  0.00     0.124 S 
ATOM     78  O   UNL A   1      32.629  33.761  27.964  1.00  0.00    -0.237 OA
ATOM     79  O   UNL A   1      32.610  35.673  29.529  1.00  0.00    -0.237 OA
ATOM     80  O   UNL A   1      34.021  35.748  27.509  1.00  0.00    -0.744 OA
ENDBRANCH  76  77
ENDBRANCH  55  69
BRANCH  56  81
ATOM     81  C   UNL A   1      44.391  28.661  35.684  1.00  0.00     0.058 A 
ATOM     82  C   UNL A   1      44.186  27.583  36.558  1.00  0.00     0.135 A 
ATOM     83  C   UNL A   1      45.702  29.143  35.544  1.00  0.00     0.135 A 
ATOM     84  F   UNL A   1      42.950  27.095  36.742  1.00  0.00    -0.206 F 
ATOM     85  C   UNL A   1      45.233  27.018  37.281  1.00  0.00     0.059 A 
ATOM     86  C   UNL A   1      46.770  28.578  36.235  1.00  0.00     0.059 A 
ATOM     87  F   UNL A   1      45.956  30.172  34.720  1.00  0.00    -0.206 F 
ATOM     88  C   UNL A   1      46.524  27.521  37.110  1.00  0.00     0.060 A 
BRANCH  88  89
ATOM     89  S   UNL A   1      47.882  26.753  38.021  1.00  0.00     0.124 S 
ATOM     90  O   UNL A   1      47.481  26.991  39.404  1.00  0.00    -0.237 OA
ATOM     91  O   UNL A   1      47.814  25.368  37.566  1.00  0.00    -0.237 OA
ATOM     92  O   UNL A   1      49.054  27.498  37.568  1.00  0.00    -0.744 OA
ENDBRANCH  88  89
ENDBRANCH  56  81
BRANCH  68  93
ATOM     93  C   UNL A   1      39.747  33.574  37.422  1.00  0.00     0.058 A 
ATOM     94  C   UNL A   1      40.394  34.790  37.694  1.00  0.00     0.135 A 
ATOM     95  C   UNL A   1      38.814  33.105  38.361  1.00  0.00     0.135 A 
ATOM     96  F   UNL A   1      41.293  35.286  36.830  1.00  0.00    -0.206 F 
ATOM     97  C   UNL A   1      40.155  35.492  38.872  1.00  0.00     0.059 A 
ATOM     98  C   UNL A   1      38.535  33.806  39.531  1.00  0.00     0.059 A 
ATOM     99  F   UNL A   1      38.151  31.959  38.143  1.00  0.00    -0.206 F 
ATOM    100  C   UNL A   1      39.226  34.990  39.786  1.00  0.00     0.060 A 
BRANCH 100 101
ATOM    101  S   UNL A   1      38.919  35.913  41.307  1.00  0.00     0.124 S 
ATOM    102  O   UNL A   1      40.135  35.640  42.066  1.00  0.00    -0.237 OA
ATOM    103  O   UNL A   1      38.768  37.280  40.820  1.00  0.00    -0.237 OA
ATOM    104  O   UNL A   1      37.700  35.304  41.835  1.00  0.00    -0.744 OA
ENDBRANCH 100 101
ENDBRANCH  68  93
ENDBRANCH  42  43
ENDBRANCH  35  37
ENDBRANCH  34  35
ENDBRANCH  33  34
ENDBRANCH  32  33
ENDBRANCH  31  32
ENDBRANCH  30  31
ENDBRANCH   1  30
TORSDOF 25
ENDMDL
MODEL 3
REMARK VINA RESULT:      -7.9      5.583     11.099
REMARK SMILES O=C(C[NH+]1CCN(C(=O)c2ccc(F)c(F)c2F)CC1)OCCOCCOCCOCCOC(=O)c1ccc(-c2c3nc(c(-c4c(F)cc(S(=O)(=O)[O-])cc4F)c4ccc([nH]4)c(-c4c(F)cc(S(=O)(=O)[O-])cc4F)c4nc(c(-c5c(F)cc(S(=O)(=O)[O-])cc5F)c5ccc2[nH]5)C=C4)C=C3)cc1
REMARK SMILES IDX 28 1 27 2 26 3 25 4 24 5 23 6 22 7 21 8 2 9 1 10 3 11 4 12
REMARK SMILES IDX 5 13 20 14 6 16 19 17 7 18 8 19 9 20 10 21 11 22 17 23 12 24
REMARK SMILES IDX 15 25 18 26 13 27 16 28 14 29 29 30 30 31 31 32 32 33 33 34
REMARK SMILES IDX 34 35 35 36 36 37 37 38 101 39 38 40 100 41 39 42 40 43
REMARK SMILES IDX 41 44 94 45 42 46 99 47 93 48 95 49 43 50 98 51 92 52 91 53
REMARK SMILES IDX 44 55 78 56 57 57 77 58 58 59 61 60 76 61 96 62 59 63 60 64
REMARK SMILES IDX 75 66 97 67 62 68 45 69 46 70 55 71 47 72 48 73 54 74 56 75
REMARK SMILES IDX 49 76 50 77 51 78 52 79 53 80 79 81 80 82 89 83 81 84 82 85
REMARK SMILES IDX 88 86 90 87 83 88 84 89 85 90 86 91 87 92 63 93 64 94 73 95
REMARK SMILES IDX 65 96 66 97 72 98 74 99 67 100 68 101 69 102 70 103 71 104
REMARK H PARENT 4 15 95 54 61 65
REMARK Flexibility Score: inf
ROOT
ATOM      1  C   UNL A   1      41.548  34.749  32.939  1.00  0.00     0.188 C 
ENDROOT
BRANCH   1   2
ATOM      2  O   UNL A   1      40.172  34.920  33.230  1.00  0.00    -0.377 OA
BRANCH   2   3
ATOM      3  C   UNL A   1      39.283  34.006  32.612  1.00  0.00     0.188 C 
BRANCH   3   4
ATOM      4  C   UNL A   1      39.830  32.585  32.512  1.00  0.00     0.188 C 
BRANCH   4   5
ATOM      5  O   UNL A   1      39.161  31.536  33.215  1.00  0.00    -0.376 OA
BRANCH   5   6
ATOM      6  C   UNL A   1      39.305  31.408  34.620  1.00  0.00     0.202 C 
BRANCH   6   7
ATOM      7  C   UNL A   1      38.250  32.017  35.528  1.00  0.00     0.261 C 
BRANCH   7   8
ATOM      8  O   UNL A   1      37.015  32.366  34.905  1.00  0.00    -0.459 OA
BRANCH   8   9
ATOM      9  C   UNL A   1      36.400  33.518  35.298  1.00  0.00     0.361 C 
ATOM     10  O   UNL A   1      36.091  33.687  36.475  1.00  0.00    -0.245 OA
BRANCH   9  11
ATOM     11  C   UNL A   1      35.978  34.472  34.181  1.00  0.00     0.386 C 
BRANCH  11  12
ATOM     12  N   UNL A   1      34.573  34.480  33.750  1.00  0.00    -0.323 N 
ATOM     13  C   UNL A   1      34.098  35.541  32.866  1.00  0.00     0.284 C 
ATOM     14  C   UNL A   1      34.155  33.167  33.241  1.00  0.00     0.284 C 
ATOM     15  H   UNL A   1      34.108  34.711  34.629  1.00  0.00     0.348 HD
ATOM     16  C   UNL A   1      34.035  35.279  31.341  1.00  0.00     0.181 C 
ATOM     17  C   UNL A   1      34.564  32.846  31.787  1.00  0.00     0.181 C 
ATOM     18  N   UNL A   1      34.498  33.972  30.847  1.00  0.00    -0.327 N 
ATOM     19  C   UNL A   1      34.886  33.929  29.497  1.00  0.00     0.257 C 
ATOM     20  O   UNL A   1      34.997  34.952  28.824  1.00  0.00    -0.269 OA
BRANCH  19  21
ATOM     21  C   UNL A   1      35.151  32.650  28.797  1.00  0.00     0.079 A 
ATOM     22  C   UNL A   1      36.320  31.918  29.047  1.00  0.00     0.020 A 
ATOM     23  C   UNL A   1      34.135  32.073  28.022  1.00  0.00     0.174 A 
ATOM     24  C   UNL A   1      36.491  30.652  28.480  1.00  0.00     0.043 A 
ATOM     25  C   UNL A   1      34.295  30.799  27.486  1.00  0.00     0.195 A 
ATOM     26  F   UNL A   1      33.000  32.743  27.769  1.00  0.00    -0.203 F 
ATOM     27  C   UNL A   1      35.473  30.097  27.709  1.00  0.00     0.161 A 
ATOM     28  F   UNL A   1      33.317  30.247  26.754  1.00  0.00    -0.200 F 
ATOM     29  F   UNL A   1      35.641  28.873  27.194  1.00  0.00    -0.204 F 
ENDBRANCH  19  21
ENDBRANCH  11  12
ENDBRANCH   9  11
ENDBRANCH   8   9
ENDBRANCH   7   8
ENDBRANCH   6   7
ENDBRANCH   5   6
ENDBRANCH   4   5
ENDBRANCH   3   4
ENDBRANCH   2   3
ENDBRANCH   1   2
BRANCH   1  30
ATOM     30  C   UNL A   1      42.524  35.093  34.088  1.00  0.00     0.188 C 
BRANCH  30  31
ATOM     31  O   UNL A   1      42.618  36.412  34.620  1.00  0.00    -0.376 OA
BRANCH  31  32
ATOM     32  C   UNL A   1      42.894  36.596  35.995  1.00  0.00     0.202 C 
BRANCH  32  33
ATOM     33  C   UNL A   1      44.325  36.304  36.476  1.00  0.00     0.261 C 
BRANCH  33  34
ATOM     34  O   UNL A   1      44.440  35.876  37.842  1.00  0.00    -0.460 OA
BRANCH  34  35
ATOM     35  C   UNL A   1      45.559  35.170  38.142  1.00  0.00     0.338 C 
ATOM     36  O   UNL A   1      46.448  35.520  38.903  1.00  0.00    -0.246 OA
BRANCH  35  37
ATOM     37  C   UNL A   1      45.474  33.793  37.576  1.00  0.00     0.060 A 
ATOM     38  C   UNL A   1      46.624  33.277  36.958  1.00  0.00     0.016 A 
ATOM     39  C   UNL A   1      44.314  33.010  37.641  1.00  0.00     0.016 A 
ATOM     40  C   UNL A   1      46.597  32.036  36.324  1.00  0.00     0.010 A 
ATOM     41  C   UNL A   1      44.277  31.771  36.981  1.00  0.00     0.010 A 
ATOM     42  C   UNL A   1      45.398  31.321  36.255  1.00  0.00    -0.014 A 
BRANCH  42  43
ATOM     43  C   UNL A   1      45.230  30.364  35.126  1.00  0.00     0.031 A 
ATOM     44  C   UNL A   1      44.976  30.964  33.761  1.00  0.00     0.074 A 
ATOM     45  C   UNL A   1      45.394  29.036  35.258  1.00  0.00     0.049 A 
ATOM     46  N   UNL A   1      44.832  30.377  32.602  1.00  0.00    -0.248 NA
ATOM     47  C   UNL A   1      44.873  32.433  33.701  1.00  0.00     0.031 C 
ATOM     48  C   UNL A   1      45.708  28.334  36.501  1.00  0.00     0.029 A 
ATOM     49  N   UNL A   1      45.328  28.036  34.317  1.00  0.00    -0.354 N 
ATOM     50  C   UNL A   1      44.614  31.402  31.686  1.00  0.00     0.074 A 
ATOM     51  C   UNL A   1      44.604  32.642  32.425  1.00  0.00     0.031 C 
ATOM     52  C   UNL A   1      45.803  27.016  36.245  1.00  0.00     0.029 A 
ATOM     53  C   UNL A   1      45.541  26.776  34.826  1.00  0.00     0.049 A 
ATOM     54  H   UNL A   1      45.145  28.207  33.365  1.00  0.00     0.167 HD
ATOM     55  C   UNL A   1      44.452  31.326  30.345  1.00  0.00     0.037 A 
ATOM     56  C   UNL A   1      45.520  25.575  34.214  1.00  0.00     0.037 A 
ATOM     57  C   UNL A   1      44.475  30.095  29.605  1.00  0.00     0.049 A 
ATOM     58  C   UNL A   1      45.273  25.506  32.725  1.00  0.00     0.074 A 
ATOM     59  C   UNL A   1      44.330  29.909  28.242  1.00  0.00     0.029 A 
ATOM     60  N   UNL A   1      44.650  28.840  30.167  1.00  0.00    -0.354 N 
ATOM     61  N   UNL A   1      45.081  26.484  31.870  1.00  0.00    -0.248 NA
ATOM     62  C   UNL A   1      45.251  24.168  32.114  1.00  0.00     0.031 C 
ATOM     63  C   UNL A   1      44.365  28.535  27.986  1.00  0.00     0.029 A 
ATOM     64  C   UNL A   1      44.595  27.871  29.180  1.00  0.00     0.049 A 
ATOM     65  H   UNL A   1      44.793  28.665  31.125  1.00  0.00     0.167 HD
ATOM     66  C   UNL A   1      44.959  25.882  30.618  1.00  0.00     0.074 A 
ATOM     67  C   UNL A   1      45.102  24.457  30.829  1.00  0.00     0.031 C 
ATOM     68  C   UNL A   1      44.754  26.456  29.406  1.00  0.00     0.037 A 
BRANCH  55  69
ATOM     69  C   UNL A   1      44.194  32.610  29.605  1.00  0.00     0.058 A 
ATOM     70  C   UNL A   1      42.901  33.140  29.460  1.00  0.00     0.135 A 
ATOM     71  C   UNL A   1      45.261  33.322  29.035  1.00  0.00     0.135 A 
ATOM     72  F   UNL A   1      41.840  32.487  29.961  1.00  0.00    -0.206 F 
ATOM     73  C   UNL A   1      42.672  34.315  28.750  1.00  0.00     0.059 A 
ATOM     74  C   UNL A   1      45.059  34.515  28.348  1.00  0.00     0.059 A 
ATOM     75  F   UNL A   1      46.515  32.855  29.135  1.00  0.00    -0.206 F 
ATOM     76  C   UNL A   1      43.760  34.995  28.199  1.00  0.00     0.060 A 
BRANCH  76  77
ATOM     77  S   UNL A   1      43.451  36.523  27.287  1.00  0.00     0.124 S 
ATOM     78  O   UNL A   1      42.767  36.020  26.099  1.00  0.00    -0.237 OA
ATOM     79  O   UNL A   1      42.625  37.281  28.219  1.00  0.00    -0.237 OA
ATOM     80  O   UNL A   1      44.789  37.059  27.059  1.00  0.00    -0.744 OA
ENDBRANCH  76  77
ENDBRANCH  55  69
BRANCH  56  81
ATOM     81  C   UNL A   1      45.744  24.326  34.997  1.00  0.00     0.058 A 
ATOM     82  C   UNL A   1      44.669  23.565  35.481  1.00  0.00     0.135 A 
ATOM     83  C   UNL A   1      47.042  23.883  35.299  1.00  0.00     0.135 A 
ATOM     84  F   UNL A   1      43.409  23.954  35.237  1.00  0.00    -0.206 F 
ATOM     85  C   UNL A   1      44.870  22.422  36.251  1.00  0.00     0.059 A 
ATOM     86  C   UNL A   1      47.268  22.729  36.044  1.00  0.00     0.059 A 
ATOM     87  F   UNL A   1      48.107  24.571  34.860  1.00  0.00    -0.206 F 
ATOM     88  C   UNL A   1      46.176  22.010  36.524  1.00  0.00     0.060 A 
BRANCH  88  89
ATOM     89  S   UNL A   1      46.425  20.502  37.489  1.00  0.00     0.124 S 
ATOM     90  O   UNL A   1      47.832  20.215  37.228  1.00  0.00    -0.237 OA
ATOM     91  O   UNL A   1      46.105  20.947  38.842  1.00  0.00    -0.237 OA
ATOM     92  O   UNL A   1      45.471  19.566  36.901  1.00  0.00    -0.744 OA
ENDBRANCH  88  89
ENDBRANCH  56  81
BRANCH  68  93
ATOM     93  C   UNL A   1      44.735  25.554  28.200  1.00  0.00     0.058 A 
ATOM     94  C   UNL A   1      45.895  25.270  27.463  1.00  0.00     0.135 A 
ATOM     95  C   UNL A   1      43.541  24.927  27.807  1.00  0.00     0.135 A 
ATOM     96  F   UNL A   1      47.064  25.840  27.796  1.00  0.00    -0.206 F 
ATOM     97  C   UNL A   1      45.864  24.429  26.354  1.00  0.00     0.059 A 
ATOM     98  C   UNL A   1      43.492  24.057  26.722  1.00  0.00     0.059 A 
ATOM     99  F   UNL A   1      42.405  25.146  28.488  1.00  0.00    -0.206 F 
ATOM    100  C   UNL A   1      44.656  23.829  25.990  1.00  0.00     0.060 A 
BRANCH 100 101
ATOM    101  S   UNL A   1      44.629  22.734  24.555  1.00  0.00     0.124 S 
ATOM    102  O   UNL A   1      45.648  23.341  23.704  1.00  0.00    -0.237 OA
ATOM    103  O   UNL A   1      44.977  21.443  25.138  1.00  0.00    -0.237 OA
ATOM    104  O   UNL A   1      43.257  22.847  24.067  1.00  0.00    -0.744 OA
ENDBRANCH 100 101
ENDBRANCH  68  93
ENDBRANCH  42  43
ENDBRANCH  35  37
ENDBRANCH  34  35
ENDBRANCH  33  34
ENDBRANCH  32  33
ENDBRANCH  31  32
ENDBRANCH  30  31
ENDBRANCH   1  30
TORSDOF 25
ENDMDL
