MODEL 1
REMARK VINA RESULT:     -10.7      0.000      0.000
REMARK SMILES O=C(COc1ccc(Br)cc1/C=C1\C(=O)Nc2ccc(Br)cc21)OCCOCCOCCOCCOC(=O)c1ccc(-c2c3nc(c(-c4c(F)cc(S(=O)(=O)[O-])cc4F)c4ccc([nH]4)c(-c4c(F)cc(S(=O)(=O)[O-])cc4F)c4nc(c(-c5c(F)cc(S(=O)(=O)[O-])cc5F)c5ccc2[nH]5)C=C4)C=C3)cc1
REMARK SMILES IDX 30 1 29 2 28 3 27 4 26 5 25 6 24 7 2 8 1 9 3 10 4 11 5 12
REMARK SMILES IDX 6 13 11 14 7 15 10 16 8 17 9 18 12 19 13 20 14 21 23 22
REMARK SMILES IDX 15 23 16 24 17 25 22 26 18 28 20 29 19 30 21 31 31 32 32 33
REMARK SMILES IDX 33 34 34 35 35 36 36 37 37 38 38 39 39 40 40 41 104 42 41 43
REMARK SMILES IDX 103 44 42 45 43 46 44 47 97 48 45 49 102 50 96 51 98 52
REMARK SMILES IDX 46 53 101 54 95 55 94 56 47 58 81 59 60 60 80 61 61 62 64 63
REMARK SMILES IDX 79 64 99 65 62 66 63 67 78 69 100 70 65 71 48 72 49 73 58 74
REMARK SMILES IDX 50 75 51 76 57 77 59 78 52 79 53 80 54 81 55 82 56 83 82 84
REMARK SMILES IDX 83 85 92 86 84 87 85 88 91 89 93 90 86 91 87 92 88 93 89 94
REMARK SMILES IDX 90 95 66 96 67 97 76 98 68 99 69 100 75 101 77 102 70 103
REMARK SMILES IDX 71 104 72 105 73 106 74 107
REMARK H PARENT 16 27 98 57 64 68
REMARK Flexibility Score: inf
ROOT
ATOM      1  O   UNL A   1      42.623  20.123  27.254  1.00  0.00    -0.377 OA
ENDROOT
BRANCH   1   2
ATOM      2  C   UNL A   1      41.328  20.701  27.428  1.00  0.00     0.188 C 
BRANCH   2   3
ATOM      3  C   UNL A   1      40.365  20.385  26.277  1.00  0.00     0.188 C 
BRANCH   3   4
ATOM      4  O   UNL A   1      39.170  21.152  26.313  1.00  0.00    -0.376 OA
BRANCH   4   5
ATOM      5  C   UNL A   1      39.169  22.565  26.410  1.00  0.00     0.202 C 
BRANCH   5   6
ATOM      6  C   UNL A   1      38.073  23.385  25.729  1.00  0.00     0.261 C 
BRANCH   6   7
ATOM      7  O   UNL A   1      37.262  22.692  24.755  1.00  0.00    -0.461 OA
BRANCH   7   8
ATOM      8  C   UNL A   1      36.358  23.236  23.914  1.00  0.00     0.344 C 
ATOM      9  O   UNL A   1      36.523  23.143  22.698  1.00  0.00    -0.248 OA
BRANCH   8  10
ATOM     10  C   UNL A   1      35.184  24.016  24.496  1.00  0.00     0.351 C 
BRANCH  10  11
ATOM     11  O   UNL A   1      34.624  23.525  25.721  1.00  0.00    -0.481 OA
BRANCH  11  12
ATOM     12  C   UNL A   1      33.808  22.459  25.394  1.00  0.00     0.127 A 
ATOM     13  C   UNL A   1      34.199  21.197  25.878  1.00  0.00     0.048 A 
ATOM     14  C   UNL A   1      32.788  22.622  24.435  1.00  0.00     0.018 A 
ATOM     15  C   UNL A   1      33.739  20.049  25.255  1.00  0.00     0.019 A 
ATOM     16  C   UNL A   1      32.386  21.440  23.806  1.00  0.00     0.027 A 
ATOM     17  C   UNL A   1      32.872  20.181  24.186  1.00  0.00     0.018 A 
ATOM     18  Br  UNL A   1      32.364  18.652  23.195  1.00  0.00    -0.051 Br
BRANCH  14  19
ATOM     19  C   UNL A   1      32.278  23.988  24.090  1.00  0.00     0.026 C 
ATOM     20  C   UNL A   1      31.423  24.812  24.730  1.00  0.00     0.050 C 
ATOM     21  C   UNL A   1      30.657  24.556  26.000  1.00  0.00     0.256 C 
ATOM     22  C   UNL A   1      30.728  25.952  24.097  1.00  0.00     0.012 A 
ATOM     23  O   UNL A   1      31.044  24.116  27.063  1.00  0.00    -0.269 OA
ATOM     24  N   UNL A   1      29.406  25.091  25.763  1.00  0.00    -0.321 N 
ATOM     25  C   UNL A   1      29.447  25.951  24.673  1.00  0.00     0.049 A 
ATOM     26  C   UNL A   1      31.085  26.971  23.232  1.00  0.00     0.026 A 
ATOM     27  H   UNL A   1      28.600  24.891  26.291  1.00  0.00     0.170 HD
ATOM     28  C   UNL A   1      28.443  26.816  24.302  1.00  0.00     0.028 A 
ATOM     29  C   UNL A   1      30.100  27.922  22.914  1.00  0.00     0.018 A 
ATOM     30  C   UNL A   1      28.781  27.820  23.399  1.00  0.00     0.018 A 
ATOM     31  Br  UNL A   1      30.557  29.435  21.869  1.00  0.00    -0.051 Br
ENDBRANCH  14  19
ENDBRANCH  11  12
ENDBRANCH  10  11
ENDBRANCH   8  10
ENDBRANCH   7   8
ENDBRANCH   6   7
ENDBRANCH   5   6
ENDBRANCH   4   5
ENDBRANCH   3   4
ENDBRANCH   2   3
ENDBRANCH   1   2
BRANCH   1  32
ATOM     32  C   UNL A   1      42.899  19.693  25.929  1.00  0.00     0.188 C 
BRANCH  32  33
ATOM     33  C   UNL A   1      44.189  20.245  25.276  1.00  0.00     0.188 C 
BRANCH  33  34
ATOM     34  O   UNL A   1      44.197  21.400  24.444  1.00  0.00    -0.376 OA
BRANCH  34  35
ATOM     35  C   UNL A   1      43.388  22.525  24.745  1.00  0.00     0.202 C 
BRANCH  35  36
ATOM     36  C   UNL A   1      43.683  23.337  26.007  1.00  0.00     0.261 C 
BRANCH  36  37
ATOM     37  O   UNL A   1      42.559  24.076  26.491  1.00  0.00    -0.460 OA
BRANCH  37  38
ATOM     38  C   UNL A   1      42.433  25.329  25.993  1.00  0.00     0.338 C 
ATOM     39  O   UNL A   1      42.537  25.673  24.826  1.00  0.00    -0.246 OA
BRANCH  38  40
ATOM     40  C   UNL A   1      41.942  26.220  27.065  1.00  0.00     0.060 A 
ATOM     41  C   UNL A   1      40.958  25.804  27.966  1.00  0.00     0.016 A 
ATOM     42  C   UNL A   1      42.472  27.517  27.136  1.00  0.00     0.016 A 
ATOM     43  C   UNL A   1      40.543  26.674  28.973  1.00  0.00     0.010 A 
ATOM     44  C   UNL A   1      42.046  28.389  28.135  1.00  0.00     0.010 A 
ATOM     45  C   UNL A   1      41.109  27.957  29.081  1.00  0.00    -0.014 A 
BRANCH  45  46
ATOM     46  C   UNL A   1      40.909  28.731  30.325  1.00  0.00     0.031 A 
ATOM     47  C   UNL A   1      41.779  28.559  31.525  1.00  0.00     0.074 A 
ATOM     48  C   UNL A   1      39.891  29.612  30.331  1.00  0.00     0.049 A 
ATOM     49  N   UNL A   1      41.809  29.278  32.617  1.00  0.00    -0.248 NA
ATOM     50  C   UNL A   1      42.727  27.438  31.509  1.00  0.00     0.031 C 
ATOM     51  C   UNL A   1      38.953  29.810  29.221  1.00  0.00     0.029 A 
ATOM     52  N   UNL A   1      39.482  30.510  31.278  1.00  0.00    -0.354 N 
ATOM     53  C   UNL A   1      42.801  28.720  33.412  1.00  0.00     0.074 A 
ATOM     54  C   UNL A   1      43.310  27.567  32.696  1.00  0.00     0.031 C 
ATOM     55  C   UNL A   1      38.101  30.794  29.538  1.00  0.00     0.029 A 
ATOM     56  C   UNL A   1      38.427  31.290  30.871  1.00  0.00     0.049 A 
ATOM     57  H   UNL A   1      39.903  30.590  32.165  1.00  0.00     0.167 HD
ATOM     58  C   UNL A   1      43.247  29.151  34.616  1.00  0.00     0.037 A 
ATOM     59  C   UNL A   1      37.806  32.308  31.490  1.00  0.00     0.037 A 
ATOM     60  C   UNL A   1      42.702  30.286  35.319  1.00  0.00     0.049 A 
ATOM     61  C   UNL A   1      38.307  32.753  32.832  1.00  0.00     0.074 A 
ATOM     62  C   UNL A   1      43.119  30.840  36.518  1.00  0.00     0.029 A 
ATOM     63  N   UNL A   1      41.606  31.029  34.900  1.00  0.00    -0.354 N 
ATOM     64  N   UNL A   1      39.316  32.287  33.526  1.00  0.00    -0.248 NA
ATOM     65  C   UNL A   1      37.593  33.864  33.471  1.00  0.00     0.031 C 
ATOM     66  C   UNL A   1      42.247  31.884  36.846  1.00  0.00     0.029 A 
ATOM     67  C   UNL A   1      41.311  32.012  35.831  1.00  0.00     0.049 A 
ATOM     68  H   UNL A   1      41.111  30.879  34.062  1.00  0.00     0.167 HD
ATOM     69  C   UNL A   1      39.368  33.053  34.683  1.00  0.00     0.074 A 
ATOM     70  C   UNL A   1      38.296  34.024  34.585  1.00  0.00     0.031 C 
ATOM     71  C   UNL A   1      40.226  32.958  35.728  1.00  0.00     0.037 A 
BRANCH  58  72
ATOM     72  C   UNL A   1      44.388  28.400  35.247  1.00  0.00     0.058 A 
ATOM     73  C   UNL A   1      44.158  27.320  36.114  1.00  0.00     0.135 A 
ATOM     74  C   UNL A   1      45.720  28.726  34.948  1.00  0.00     0.135 A 
ATOM     75  F   UNL A   1      42.904  26.968  36.439  1.00  0.00    -0.206 F 
ATOM     76  C   UNL A   1      45.208  26.608  36.685  1.00  0.00     0.059 A 
ATOM     77  C   UNL A   1      46.787  28.014  35.491  1.00  0.00     0.059 A 
ATOM     78  F   UNL A   1      45.998  29.747  34.122  1.00  0.00    -0.206 F 
ATOM     79  C   UNL A   1      46.520  26.966  36.370  1.00  0.00     0.060 A 
BRANCH  79  80
ATOM     80  S   UNL A   1      47.869  26.043  37.139  1.00  0.00     0.124 S 
ATOM     81  O   UNL A   1      48.801  25.912  36.022  1.00  0.00    -0.237 OA
ATOM     82  O   UNL A   1      48.288  26.938  38.211  1.00  0.00    -0.237 OA
ATOM     83  O   UNL A   1      47.231  24.804  37.572  1.00  0.00    -0.744 OA
ENDBRANCH  79  80
ENDBRANCH  58  72
BRANCH  59  84
ATOM     84  C   UNL A   1      36.694  33.002  30.796  1.00  0.00     0.058 A 
ATOM     85  C   UNL A   1      35.363  32.758  31.158  1.00  0.00     0.135 A 
ATOM     86  C   UNL A   1      36.945  33.989  29.830  1.00  0.00     0.135 A 
ATOM     87  F   UNL A   1      35.078  31.826  32.080  1.00  0.00    -0.206 F 
ATOM     88  C   UNL A   1      34.314  33.473  30.589  1.00  0.00     0.059 A 
ATOM     89  C   UNL A   1      35.915  34.730  29.262  1.00  0.00     0.059 A 
ATOM     90  F   UNL A   1      38.206  34.273  29.471  1.00  0.00    -0.206 F 
ATOM     91  C   UNL A   1      34.602  34.464  29.649  1.00  0.00     0.060 A 
BRANCH  91  92
ATOM     92  S   UNL A   1      33.237  35.442  28.983  1.00  0.00     0.124 S 
ATOM     93  O   UNL A   1      32.482  34.431  28.252  1.00  0.00    -0.237 OA
ATOM     94  O   UNL A   1      32.610  35.955  30.198  1.00  0.00    -0.237 OA
ATOM     95  O   UNL A   1      33.911  36.445  28.163  1.00  0.00    -0.744 OA
ENDBRANCH  91  92
ENDBRANCH  59  84
BRANCH  71  96
ATOM     96  C   UNL A   1      40.030  33.919  36.866  1.00  0.00     0.058 A 
ATOM     97  C   UNL A   1      40.610  35.197  36.848  1.00  0.00     0.135 A 
ATOM     98  C   UNL A   1      39.198  33.589  37.948  1.00  0.00     0.135 A 
ATOM     99  F   UNL A   1      41.422  35.555  35.841  1.00  0.00    -0.206 F 
ATOM    100  C   UNL A   1      40.373  36.115  37.864  1.00  0.00     0.059 A 
ATOM    101  C   UNL A   1      38.930  34.500  38.964  1.00  0.00     0.059 A 
ATOM    102  F   UNL A   1      38.618  32.380  38.010  1.00  0.00    -0.206 F 
ATOM    103  C   UNL A   1      39.525  35.760  38.915  1.00  0.00     0.060 A 
BRANCH 103 104
ATOM    104  S   UNL A   1      39.178  36.987  40.192  1.00  0.00     0.124 S 
ATOM    105  O   UNL A   1      40.515  37.259  40.712  1.00  0.00    -0.237 OA
ATOM    106  O   UNL A   1      38.563  38.067  39.428  1.00  0.00    -0.237 OA
ATOM    107  O   UNL A   1      38.281  36.284  41.106  1.00  0.00    -0.744 OA
ENDBRANCH 103 104
ENDBRANCH  71  96
ENDBRANCH  45  46
ENDBRANCH  38  40
ENDBRANCH  37  38
ENDBRANCH  36  37
ENDBRANCH  35  36
ENDBRANCH  34  35
ENDBRANCH  33  34
ENDBRANCH  32  33
ENDBRANCH   1  32
TORSDOF 26
ENDMDL
MODEL 2
REMARK VINA RESULT:     -10.5      1.550      2.945
REMARK SMILES O=C(COc1ccc(Br)cc1/C=C1\C(=O)Nc2ccc(Br)cc21)OCCOCCOCCOCCOC(=O)c1ccc(-c2c3nc(c(-c4c(F)cc(S(=O)(=O)[O-])cc4F)c4ccc([nH]4)c(-c4c(F)cc(S(=O)(=O)[O-])cc4F)c4nc(c(-c5c(F)cc(S(=O)(=O)[O-])cc5F)c5ccc2[nH]5)C=C4)C=C3)cc1
REMARK SMILES IDX 30 1 29 2 28 3 27 4 26 5 25 6 24 7 2 8 1 9 3 10 4 11 5 12
REMARK SMILES IDX 6 13 11 14 7 15 10 16 8 17 9 18 12 19 13 20 14 21 23 22
REMARK SMILES IDX 15 23 16 24 17 25 22 26 18 28 20 29 19 30 21 31 31 32 32 33
REMARK SMILES IDX 33 34 34 35 35 36 36 37 37 38 38 39 39 40 40 41 104 42 41 43
REMARK SMILES IDX 103 44 42 45 43 46 44 47 97 48 45 49 102 50 96 51 98 52
REMARK SMILES IDX 46 53 101 54 95 55 94 56 47 58 81 59 60 60 80 61 61 62 64 63
REMARK SMILES IDX 79 64 99 65 62 66 63 67 78 69 100 70 65 71 48 72 49 73 58 74
REMARK SMILES IDX 50 75 51 76 57 77 59 78 52 79 53 80 54 81 55 82 56 83 82 84
REMARK SMILES IDX 83 85 92 86 84 87 85 88 91 89 93 90 86 91 87 92 88 93 89 94
REMARK SMILES IDX 90 95 66 96 67 97 76 98 68 99 69 100 75 101 77 102 70 103
REMARK SMILES IDX 71 104 72 105 73 106 74 107
REMARK H PARENT 16 27 98 57 64 68
REMARK Flexibility Score: inf
ROOT
ATOM      1  O   UNL A   1      37.727  22.868  26.183  1.00  0.00    -0.377 OA
ENDROOT
BRANCH   1   2
ATOM      2  C   UNL A   1      36.813  23.966  26.162  1.00  0.00     0.188 C 
BRANCH   2   3
ATOM      3  C   UNL A   1      35.344  23.531  26.249  1.00  0.00     0.188 C 
BRANCH   3   4
ATOM      4  O   UNL A   1      35.168  22.247  26.830  1.00  0.00    -0.376 OA
BRANCH   4   5
ATOM      5  C   UNL A   1      33.892  21.717  27.143  1.00  0.00     0.202 C 
BRANCH   5   6
ATOM      6  C   UNL A   1      33.016  22.388  28.201  1.00  0.00     0.261 C 
BRANCH   6   7
ATOM      7  O   UNL A   1      31.683  22.760  27.790  1.00  0.00    -0.461 OA
BRANCH   7   8
ATOM      8  C   UNL A   1      31.343  23.606  26.795  1.00  0.00     0.344 C 
ATOM      9  O   UNL A   1      31.542  24.814  26.927  1.00  0.00    -0.248 OA
BRANCH   8  10
ATOM     10  C   UNL A   1      30.655  23.049  25.554  1.00  0.00     0.351 C 
BRANCH  10  11
ATOM     11  O   UNL A   1      30.611  23.901  24.401  1.00  0.00    -0.481 OA
BRANCH  11  12
ATOM     12  C   UNL A   1      31.746  23.633  23.658  1.00  0.00     0.127 A 
ATOM     13  C   UNL A   1      32.298  22.346  23.796  1.00  0.00     0.048 A 
ATOM     14  C   UNL A   1      32.418  24.681  22.998  1.00  0.00     0.018 A 
ATOM     15  C   UNL A   1      33.628  22.131  23.477  1.00  0.00     0.019 A 
ATOM     16  C   UNL A   1      33.768  24.432  22.734  1.00  0.00     0.027 A 
ATOM     17  C   UNL A   1      34.370  23.193  22.994  1.00  0.00     0.018 A 
ATOM     18  Br  UNL A   1      36.231  22.989  22.719  1.00  0.00    -0.051 Br
BRANCH  14  19
ATOM     19  C   UNL A   1      31.718  25.975  22.711  1.00  0.00     0.026 C 
ATOM     20  C   UNL A   1      31.975  27.238  23.108  1.00  0.00     0.050 C 
ATOM     21  C   UNL A   1      33.053  27.720  24.042  1.00  0.00     0.256 C 
ATOM     22  C   UNL A   1      30.998  28.346  23.060  1.00  0.00     0.012 A 
ATOM     23  O   UNL A   1      34.239  27.464  24.055  1.00  0.00    -0.269 OA
ATOM     24  N   UNL A   1      32.432  28.678  24.820  1.00  0.00    -0.321 N 
ATOM     25  C   UNL A   1      31.245  29.087  24.227  1.00  0.00     0.049 A 
ATOM     26  C   UNL A   1      30.071  28.807  22.144  1.00  0.00     0.026 A 
ATOM     27  H   UNL A   1      32.781  29.021  25.673  1.00  0.00     0.170 HD
ATOM     28  C   UNL A   1      30.495  30.174  24.613  1.00  0.00     0.028 A 
ATOM     29  C   UNL A   1      29.360  29.973  22.476  1.00  0.00     0.018 A 
ATOM     30  C   UNL A   1      29.530  30.621  23.715  1.00  0.00     0.018 A 
ATOM     31  Br  UNL A   1      28.195  30.758  21.204  1.00  0.00    -0.051 Br
ENDBRANCH  14  19
ENDBRANCH  11  12
ENDBRANCH  10  11
ENDBRANCH   8  10
ENDBRANCH   7   8
ENDBRANCH   6   7
ENDBRANCH   5   6
ENDBRANCH   4   5
ENDBRANCH   3   4
ENDBRANCH   2   3
ENDBRANCH   1   2
BRANCH   1  32
ATOM     32  C   UNL A   1      39.090  23.244  26.314  1.00  0.00     0.188 C 
BRANCH  32  33
ATOM     33  C   UNL A   1      40.099  22.104  26.598  1.00  0.00     0.188 C 
BRANCH  33  34
ATOM     34  O   UNL A   1      41.270  22.290  27.386  1.00  0.00    -0.376 OA
BRANCH  34  35
ATOM     35  C   UNL A   1      42.535  22.492  26.779  1.00  0.00     0.202 C 
BRANCH  35  36
ATOM     36  C   UNL A   1      42.661  23.502  25.637  1.00  0.00     0.261 C 
BRANCH  36  37
ATOM     37  O   UNL A   1      43.035  24.813  26.065  1.00  0.00    -0.460 OA
BRANCH  37  38
ATOM     38  C   UNL A   1      42.043  25.733  26.042  1.00  0.00     0.338 C 
ATOM     39  O   UNL A   1      41.210  25.898  25.164  1.00  0.00    -0.246 OA
BRANCH  38  40
ATOM     40  C   UNL A   1      41.983  26.404  27.357  1.00  0.00     0.060 A 
ATOM     41  C   UNL A   1      42.862  27.440  27.688  1.00  0.00     0.016 A 
ATOM     42  C   UNL A   1      41.035  25.950  28.285  1.00  0.00     0.016 A 
ATOM     43  C   UNL A   1      42.752  28.055  28.934  1.00  0.00     0.010 A 
ATOM     44  C   UNL A   1      40.935  26.557  29.534  1.00  0.00     0.010 A 
ATOM     45  C   UNL A   1      41.767  27.639  29.848  1.00  0.00    -0.014 A 
BRANCH  45  46
ATOM     46  C   UNL A   1      41.449  28.500  31.007  1.00  0.00     0.031 A 
ATOM     47  C   UNL A   1      42.245  28.473  32.269  1.00  0.00     0.074 A 
ATOM     48  C   UNL A   1      40.393  29.324  30.875  1.00  0.00     0.049 A 
ATOM     49  N   UNL A   1      42.170  29.279  33.296  1.00  0.00    -0.248 NA
ATOM     50  C   UNL A   1      43.245  27.406  32.407  1.00  0.00     0.031 C 
ATOM     51  C   UNL A   1      39.522  29.381  29.696  1.00  0.00     0.029 A 
ATOM     52  N   UNL A   1      39.881  30.274  31.716  1.00  0.00    -0.354 N 
ATOM     53  C   UNL A   1      43.132  28.841  34.195  1.00  0.00     0.074 A 
ATOM     54  C   UNL A   1      43.741  27.662  33.612  1.00  0.00     0.031 C 
ATOM     55  C   UNL A   1      38.606  30.342  29.876  1.00  0.00     0.029 A 
ATOM     56  C   UNL A   1      38.819  30.961  31.179  1.00  0.00     0.049 A 
ATOM     57  H   UNL A   1      40.238  30.448  32.617  1.00  0.00     0.167 HD
ATOM     58  C   UNL A   1      43.477  29.392  35.384  1.00  0.00     0.037 A 
ATOM     59  C   UNL A   1      38.111  31.993  31.670  1.00  0.00     0.037 A 
ATOM     60  C   UNL A   1      42.833  30.551  35.952  1.00  0.00     0.049 A 
ATOM     61  C   UNL A   1      38.501  32.572  32.997  1.00  0.00     0.074 A 
ATOM     62  C   UNL A   1      43.144  31.222  37.123  1.00  0.00     0.029 A 
ATOM     63  N   UNL A   1      41.734  31.199  35.404  1.00  0.00    -0.354 N 
ATOM     64  N   UNL A   1      39.483  32.218  33.789  1.00  0.00    -0.248 NA
ATOM     65  C   UNL A   1      37.695  33.693  33.494  1.00  0.00     0.031 C 
ATOM     66  C   UNL A   1      42.204  32.243  37.306  1.00  0.00     0.029 A 
ATOM     67  C   UNL A   1      41.332  32.238  36.228  1.00  0.00     0.049 A 
ATOM     68  H   UNL A   1      41.303  30.955  34.553  1.00  0.00     0.167 HD
ATOM     69  C   UNL A   1      39.422  33.077  34.878  1.00  0.00     0.074 A 
ATOM     70  C   UNL A   1      38.314  33.980  34.632  1.00  0.00     0.031 C 
ATOM     71  C   UNL A   1      40.213  33.114  35.978  1.00  0.00     0.037 A 
BRANCH  58  72
ATOM     72  C   UNL A   1      44.607  28.757  36.145  1.00  0.00     0.058 A 
ATOM     73  C   UNL A   1      45.928  29.212  36.002  1.00  0.00     0.135 A 
ATOM     74  C   UNL A   1      44.370  27.720  37.061  1.00  0.00     0.135 A 
ATOM     75  F   UNL A   1      46.214  30.198  35.136  1.00  0.00    -0.206 F 
ATOM     76  C   UNL A   1      46.977  28.643  36.718  1.00  0.00     0.059 A 
ATOM     77  C   UNL A   1      45.400  27.149  37.804  1.00  0.00     0.059 A 
ATOM     78  F   UNL A   1      43.126  27.248  37.241  1.00  0.00    -0.206 F 
ATOM     79  C   UNL A   1      46.703  27.608  37.614  1.00  0.00     0.060 A 
BRANCH  79  80
ATOM     80  S   UNL A   1      48.080  26.869  38.517  1.00  0.00     0.124 S 
ATOM     81  O   UNL A   1      47.734  27.204  39.896  1.00  0.00    -0.237 OA
ATOM     82  O   UNL A   1      47.967  25.459  38.160  1.00  0.00    -0.237 OA
ATOM     83  O   UNL A   1      49.249  27.558  37.980  1.00  0.00    -0.744 OA
ENDBRANCH  79  80
ENDBRANCH  58  72
BRANCH  59  84
ATOM     84  C   UNL A   1      37.016  32.568  30.852  1.00  0.00     0.058 A 
ATOM     85  C   UNL A   1      35.687  32.181  31.063  1.00  0.00     0.135 A 
ATOM     86  C   UNL A   1      37.267  33.583  29.914  1.00  0.00     0.135 A 
ATOM     87  F   UNL A   1      35.402  31.219  31.953  1.00  0.00    -0.206 F 
ATOM     88  C   UNL A   1      34.638  32.783  30.377  1.00  0.00     0.059 A 
ATOM     89  C   UNL A   1      36.233  34.213  29.230  1.00  0.00     0.059 A 
ATOM     90  F   UNL A   1      38.523  34.003  29.697  1.00  0.00    -0.206 F 
ATOM     91  C   UNL A   1      34.921  33.806  29.469  1.00  0.00     0.060 A 
BRANCH  91  92
ATOM     92  S   UNL A   1      33.543  34.636  28.649  1.00  0.00     0.124 S 
ATOM     93  O   UNL A   1      32.664  34.928  29.776  1.00  0.00    -0.237 OA
ATOM     94  O   UNL A   1      34.202  35.787  28.038  1.00  0.00    -0.237 OA
ATOM     95  O   UNL A   1      33.054  33.631  27.710  1.00  0.00    -0.744 OA
ENDBRANCH  91  92
ENDBRANCH  59  84
BRANCH  71  96
ATOM     96  C   UNL A   1      39.897  34.153  37.016  1.00  0.00     0.058 A 
ATOM     97  C   UNL A   1      39.045  33.868  38.094  1.00  0.00     0.135 A 
ATOM     98  C   UNL A   1      40.507  35.417  36.975  1.00  0.00     0.135 A 
ATOM     99  F   UNL A   1      38.429  32.678  38.171  1.00  0.00    -0.206 F 
ATOM    100  C   UNL A   1      38.805  34.802  39.095  1.00  0.00     0.059 A 
ATOM    101  C   UNL A   1      40.299  36.359  37.978  1.00  0.00     0.059 A 
ATOM    102  F   UNL A   1      41.333  35.736  35.966  1.00  0.00    -0.206 F 
ATOM    103  C   UNL A   1      39.443  36.043  39.033  1.00  0.00     0.060 A 
BRANCH 103 104
ATOM    104  S   UNL A   1      39.172  37.219  40.374  1.00  0.00     0.124 S 
ATOM    105  O   UNL A   1      40.526  37.709  40.615  1.00  0.00    -0.237 OA
ATOM    106  O   UNL A   1      38.250  38.174  39.770  1.00  0.00    -0.237 OA
ATOM    107  O   UNL A   1      38.605  36.396  41.440  1.00  0.00    -0.744 OA
ENDBRANCH 103 104
ENDBRANCH  71  96
ENDBRANCH  45  46
ENDBRANCH  38  40
ENDBRANCH  37  38
ENDBRANCH  36  37
ENDBRANCH  35  36
ENDBRANCH  34  35
ENDBRANCH  33  34
ENDBRANCH  32  33
ENDBRANCH   1  32
TORSDOF 26
ENDMDL
MODEL 3
REMARK VINA RESULT:      -9.9      5.384     10.403
REMARK SMILES O=C(COc1ccc(Br)cc1/C=C1\C(=O)Nc2ccc(Br)cc21)OCCOCCOCCOCCOC(=O)c1ccc(-c2c3nc(c(-c4c(F)cc(S(=O)(=O)[O-])cc4F)c4ccc([nH]4)c(-c4c(F)cc(S(=O)(=O)[O-])cc4F)c4nc(c(-c5c(F)cc(S(=O)(=O)[O-])cc5F)c5ccc2[nH]5)C=C4)C=C3)cc1
REMARK SMILES IDX 30 1 29 2 28 3 27 4 26 5 25 6 24 7 2 8 1 9 3 10 4 11 5 12
REMARK SMILES IDX 6 13 11 14 7 15 10 16 8 17 9 18 12 19 13 20 14 21 23 22
REMARK SMILES IDX 15 23 16 24 17 25 22 26 18 28 20 29 19 30 21 31 31 32 32 33
REMARK SMILES IDX 33 34 34 35 35 36 36 37 37 38 38 39 39 40 40 41 104 42 41 43
REMARK SMILES IDX 103 44 42 45 43 46 44 47 97 48 45 49 102 50 96 51 98 52
REMARK SMILES IDX 46 53 101 54 95 55 94 56 47 58 81 59 60 60 80 61 61 62 64 63
REMARK SMILES IDX 79 64 99 65 62 66 63 67 78 69 100 70 65 71 48 72 49 73 58 74
REMARK SMILES IDX 50 75 51 76 57 77 59 78 52 79 53 80 54 81 55 82 56 83 82 84
REMARK SMILES IDX 83 85 92 86 84 87 85 88 91 89 93 90 86 91 87 92 88 93 89 94
REMARK SMILES IDX 90 95 66 96 67 97 76 98 68 99 69 100 75 101 77 102 70 103
REMARK SMILES IDX 71 104 72 105 73 106 74 107
REMARK H PARENT 16 27 98 57 64 68
REMARK Flexibility Score: inf
ROOT
ATOM      1  O   UNL A   1      34.765  21.706  26.354  1.00  0.00    -0.377 OA
ENDROOT
BRANCH   1   2
ATOM      2  C   UNL A   1      34.653  23.119  26.179  1.00  0.00     0.188 C 
BRANCH   2   3
ATOM      3  C   UNL A   1      33.243  23.654  26.460  1.00  0.00     0.188 C 
BRANCH   3   4
ATOM      4  O   UNL A   1      32.210  22.783  26.021  1.00  0.00    -0.376 OA
BRANCH   4   5
ATOM      5  C   UNL A   1      31.238  23.168  25.066  1.00  0.00     0.202 C 
BRANCH   5   6
ATOM      6  C   UNL A   1      31.507  22.982  23.573  1.00  0.00     0.261 C 
BRANCH   6   7
ATOM      7  O   UNL A   1      32.880  22.743  23.192  1.00  0.00    -0.461 OA
BRANCH   7   8
ATOM      8  C   UNL A   1      33.758  23.645  22.705  1.00  0.00     0.344 C 
ATOM      9  O   UNL A   1      34.905  23.292  22.431  1.00  0.00    -0.248 OA
BRANCH   8  10
ATOM     10  C   UNL A   1      33.325  25.100  22.572  1.00  0.00     0.351 C 
BRANCH  10  11
ATOM     11  O   UNL A   1      33.441  25.920  23.743  1.00  0.00    -0.481 OA
BRANCH  11  12
ATOM     12  C   UNL A   1      32.385  26.812  23.717  1.00  0.00     0.127 A 
ATOM     13  C   UNL A   1      31.253  26.425  22.976  1.00  0.00     0.048 A 
ATOM     14  C   UNL A   1      32.557  28.120  24.214  1.00  0.00     0.018 A 
ATOM     15  C   UNL A   1      30.369  27.387  22.518  1.00  0.00     0.019 A 
ATOM     16  C   UNL A   1      31.666  29.062  23.692  1.00  0.00     0.027 A 
ATOM     17  C   UNL A   1      30.611  28.710  22.838  1.00  0.00     0.018 A 
ATOM     18  Br  UNL A   1      29.534  30.070  22.084  1.00  0.00    -0.051 Br
BRANCH  14  19
ATOM     19  C   UNL A   1      33.681  28.437  25.153  1.00  0.00     0.026 C 
ATOM     20  C   UNL A   1      33.693  29.030  26.365  1.00  0.00     0.050 C 
ATOM     21  C   UNL A   1      32.536  29.621  27.125  1.00  0.00     0.256 C 
ATOM     22  C   UNL A   1      34.895  29.611  27.000  1.00  0.00     0.012 A 
ATOM     23  O   UNL A   1      31.440  29.154  27.355  1.00  0.00    -0.269 OA
ATOM     24  N   UNL A   1      33.042  30.784  27.673  1.00  0.00    -0.321 N 
ATOM     25  C   UNL A   1      34.430  30.767  27.646  1.00  0.00     0.049 A 
ATOM     26  C   UNL A   1      36.213  29.225  27.158  1.00  0.00     0.026 A 
ATOM     27  H   UNL A   1      32.495  31.520  28.030  1.00  0.00     0.170 HD
ATOM     28  C   UNL A   1      35.251  31.655  28.304  1.00  0.00     0.028 A 
ATOM     29  C   UNL A   1      37.048  30.071  27.909  1.00  0.00     0.018 A 
ATOM     30  C   UNL A   1      36.589  31.296  28.432  1.00  0.00     0.018 A 
ATOM     31  Br  UNL A   1      38.819  29.531  28.309  1.00  0.00    -0.051 Br
ENDBRANCH  14  19
ENDBRANCH  11  12
ENDBRANCH  10  11
ENDBRANCH   8  10
ENDBRANCH   7   8
ENDBRANCH   6   7
ENDBRANCH   5   6
ENDBRANCH   4   5
ENDBRANCH   3   4
ENDBRANCH   2   3
ENDBRANCH   1   2
BRANCH   1  32
ATOM     32  C   UNL A   1      35.106  20.995  25.174  1.00  0.00     0.188 C 
BRANCH  32  33
ATOM     33  C   UNL A   1      36.587  20.569  25.025  1.00  0.00     0.188 C 
BRANCH  33  34
ATOM     34  O   UNL A   1      37.654  21.507  24.946  1.00  0.00    -0.376 OA
BRANCH  34  35
ATOM     35  C   UNL A   1      38.760  21.434  25.830  1.00  0.00     0.202 C 
BRANCH  35  36
ATOM     36  C   UNL A   1      39.642  20.185  25.818  1.00  0.00     0.261 C 
BRANCH  36  37
ATOM     37  O   UNL A   1      40.684  20.206  26.796  1.00  0.00    -0.460 OA
BRANCH  37  38
ATOM     38  C   UNL A   1      41.914  20.513  26.323  1.00  0.00     0.338 C 
ATOM     39  O   UNL A   1      42.556  19.902  25.482  1.00  0.00    -0.246 OA
BRANCH  38  40
ATOM     40  C   UNL A   1      42.304  21.843  26.835  1.00  0.00     0.060 A 
ATOM     41  C   UNL A   1      42.621  22.041  28.182  1.00  0.00     0.016 A 
ATOM     42  C   UNL A   1      42.317  22.917  25.934  1.00  0.00     0.016 A 
ATOM     43  C   UNL A   1      43.004  23.311  28.613  1.00  0.00     0.010 A 
ATOM     44  C   UNL A   1      42.687  24.188  26.370  1.00  0.00     0.010 A 
ATOM     45  C   UNL A   1      43.070  24.380  27.703  1.00  0.00    -0.014 A 
BRANCH  45  46
ATOM     46  C   UNL A   1      43.782  25.616  28.093  1.00  0.00     0.031 A 
ATOM     47  C   UNL A   1      43.128  26.705  28.876  1.00  0.00     0.074 A 
ATOM     48  C   UNL A   1      45.067  25.720  27.706  1.00  0.00     0.049 A 
ATOM     49  N   UNL A   1      43.677  27.764  29.413  1.00  0.00    -0.248 NA
ATOM     50  C   UNL A   1      41.676  26.607  29.076  1.00  0.00     0.031 C 
ATOM     51  C   UNL A   1      45.775  24.728  26.891  1.00  0.00     0.029 A 
ATOM     52  N   UNL A   1      46.006  26.684  27.952  1.00  0.00    -0.354 N 
ATOM     53  C   UNL A   1      42.648  28.447  30.044  1.00  0.00     0.074 A 
ATOM     54  C   UNL A   1      41.429  27.708  29.776  1.00  0.00     0.031 C 
ATOM     55  C   UNL A   1      47.048  25.118  26.735  1.00  0.00     0.029 A 
ATOM     56  C   UNL A   1      47.242  26.386  27.431  1.00  0.00     0.049 A 
ATOM     57  H   UNL A   1      45.816  27.510  28.453  1.00  0.00     0.167 HD
ATOM     58  C   UNL A   1      42.728  29.575  30.791  1.00  0.00     0.037 A 
ATOM     59  C   UNL A   1      48.409  27.046  27.523  1.00  0.00     0.037 A 
ATOM     60  C   UNL A   1      43.951  30.305  31.018  1.00  0.00     0.049 A 
ATOM     61  C   UNL A   1      48.467  28.303  28.339  1.00  0.00     0.074 A 
ATOM     62  C   UNL A   1      44.152  31.427  31.805  1.00  0.00     0.029 A 
ATOM     63  N   UNL A   1      45.178  30.001  30.442  1.00  0.00    -0.354 N 
ATOM     64  N   UNL A   1      47.510  28.882  29.022  1.00  0.00    -0.248 NA
ATOM     65  C   UNL A   1      49.761  28.991  28.405  1.00  0.00     0.031 C 
ATOM     66  C   UNL A   1      45.485  31.828  31.666  1.00  0.00     0.029 A 
ATOM     67  C   UNL A   1      46.129  30.932  30.827  1.00  0.00     0.049 A 
ATOM     68  H   UNL A   1      45.346  29.235  29.847  1.00  0.00     0.167 HD
ATOM     69  C   UNL A   1      48.086  30.000  29.609  1.00  0.00     0.074 A 
ATOM     70  C   UNL A   1      49.480  30.006  29.213  1.00  0.00     0.031 C 
ATOM     71  C   UNL A   1      47.510  30.935  30.405  1.00  0.00     0.037 A 
BRANCH  58  72
ATOM     72  C   UNL A   1      41.464  30.083  31.426  1.00  0.00     0.058 A 
ATOM     73  C   UNL A   1      40.771  31.182  30.893  1.00  0.00     0.135 A 
ATOM     74  C   UNL A   1      40.908  29.442  32.545  1.00  0.00     0.135 A 
ATOM     75  F   UNL A   1      41.260  31.837  29.828  1.00  0.00    -0.206 F 
ATOM     76  C   UNL A   1      39.590  31.645  31.463  1.00  0.00     0.059 A 
ATOM     77  C   UNL A   1      39.716  29.874  33.119  1.00  0.00     0.059 A 
ATOM     78  F   UNL A   1      41.526  28.383  33.093  1.00  0.00    -0.206 F 
ATOM     79  C   UNL A   1      39.072  30.987  32.580  1.00  0.00     0.060 A 
BRANCH  79  80
ATOM     80  S   UNL A   1      37.549  31.617  33.318  1.00  0.00     0.124 S 
ATOM     81  O   UNL A   1      37.518  32.980  32.794  1.00  0.00    -0.237 OA
ATOM     82  O   UNL A   1      36.542  30.709  32.780  1.00  0.00    -0.237 OA
ATOM     83  O   UNL A   1      37.792  31.501  34.752  1.00  0.00    -0.744 OA
ENDBRANCH  79  80
ENDBRANCH  58  72
BRANCH  59  84
ATOM     84  C   UNL A   1      49.613  26.473  26.874  1.00  0.00     0.058 A 
ATOM     85  C   UNL A   1      49.945  26.813  25.556  1.00  0.00     0.135 A 
ATOM     86  C   UNL A   1      50.502  25.655  27.588  1.00  0.00     0.135 A 
ATOM     87  F   UNL A   1      49.127  27.597  24.839  1.00  0.00    -0.206 F 
ATOM     88  C   UNL A   1      51.124  26.367  24.967  1.00  0.00     0.059 A 
ATOM     89  C   UNL A   1      51.695  25.212  27.027  1.00  0.00     0.059 A 
ATOM     90  F   UNL A   1      50.237  25.324  28.861  1.00  0.00    -0.206 F 
ATOM     91  C   UNL A   1      51.997  25.574  25.714  1.00  0.00     0.060 A 
BRANCH  91  92
ATOM     92  S   UNL A   1      53.561  25.073  24.965  1.00  0.00     0.124 S 
ATOM     93  O   UNL A   1      53.437  25.633  23.624  1.00  0.00    -0.237 OA
ATOM     94  O   UNL A   1      54.537  25.718  25.839  1.00  0.00    -0.237 OA
ATOM     95  O   UNL A   1      53.523  23.616  25.047  1.00  0.00    -0.744 OA
ENDBRANCH  91  92
ENDBRANCH  59  84
BRANCH  71  96
ATOM     96  C   UNL A   1      48.382  32.060  30.885  1.00  0.00     0.058 A 
ATOM     97  C   UNL A   1      49.220  31.905  32.000  1.00  0.00     0.135 A 
ATOM     98  C   UNL A   1      48.437  33.275  30.184  1.00  0.00     0.135 A 
ATOM     99  F   UNL A   1      49.196  30.766  32.710  1.00  0.00    -0.206 F 
ATOM    100  C   UNL A   1      50.082  32.918  32.405  1.00  0.00     0.059 A 
ATOM    101  C   UNL A   1      49.307  34.293  30.559  1.00  0.00     0.059 A 
ATOM    102  F   UNL A   1      47.656  33.470  29.109  1.00  0.00    -0.206 F 
ATOM    103  C   UNL A   1      50.124  34.106  31.674  1.00  0.00     0.060 A 
BRANCH 103 104
ATOM    104  S   UNL A   1      51.294  35.385  32.175  1.00  0.00     0.124 S 
ATOM    105  O   UNL A   1      51.652  35.978  30.890  1.00  0.00    -0.237 OA
ATOM    106  O   UNL A   1      50.485  36.220  33.056  1.00  0.00    -0.237 OA
ATOM    107  O   UNL A   1      52.358  34.633  32.836  1.00  0.00    -0.744 OA
ENDBRANCH 103 104
ENDBRANCH  71  96
ENDBRANCH  45  46
ENDBRANCH  38  40
ENDBRANCH  37  38
ENDBRANCH  36  37
ENDBRANCH  35  36
ENDBRANCH  34  35
ENDBRANCH  33  34
ENDBRANCH  32  33
ENDBRANCH   1  32
TORSDOF 26
ENDMDL
