MODEL 1
REMARK VINA RESULT:      -8.8      0.000      0.000
REMARK SMILES O=C(C#Cc1ccncc1Cl)OCCOCCOCCOCCOC(=O)c1ccc(-c2c3nc(c(-c4c(F)cc(S(=O)(=O)[O-])cc4F)c4ccc([nH]4)c(-c4c(F)cc(S(=O)(=O)[O-])cc4F)c4nc(c(-c5c(F)cc(S(=O)(=O)[O-])cc5F)c5ccc2[nH]5)C=C4)C=C3)cc1
REMARK SMILES IDX 19 1 18 2 17 3 16 4 15 5 14 6 13 7 12 8 2 9 1 10 3 11 4 12
REMARK SMILES IDX 5 13 6 14 10 15 7 16 9 17 11 18 8 19 20 20 21 21 22 22 23 23
REMARK SMILES IDX 24 24 25 25 26 26 27 27 28 28 92 29 29 30 91 31 30 32 31 33
REMARK SMILES IDX 32 34 85 35 33 36 90 37 84 38 86 39 34 40 89 41 83 42 82 43
REMARK SMILES IDX 35 45 69 46 48 47 68 48 49 49 52 50 67 51 87 52 50 53 51 54
REMARK SMILES IDX 66 56 88 57 53 58 36 59 37 60 46 61 38 62 39 63 45 64 47 65
REMARK SMILES IDX 40 66 41 67 42 68 43 69 44 70 70 71 71 72 80 73 72 74 73 75
REMARK SMILES IDX 79 76 81 77 74 78 75 79 76 80 77 81 78 82 54 83 55 84 64 85
REMARK SMILES IDX 56 86 57 87 63 88 65 89 58 90 59 91 60 92 61 93 62 94
REMARK H PARENT 86 44 52 55
REMARK Flexibility Score: inf
ROOT
ATOM      1  C   UNL A   1      42.828  18.590  25.832  1.00  0.00     0.188 C 
ENDROOT
BRANCH   1   2
ATOM      2  O   UNL A   1      44.154  18.174  26.144  1.00  0.00    -0.377 OA
BRANCH   2   3
ATOM      3  C   UNL A   1      45.229  18.611  25.317  1.00  0.00     0.188 C 
BRANCH   3   4
ATOM      4  C   UNL A   1      44.948  19.193  23.914  1.00  0.00     0.188 C 
BRANCH   4   5
ATOM      5  O   UNL A   1      44.527  20.537  23.958  1.00  0.00    -0.376 OA
BRANCH   5   6
ATOM      6  C   UNL A   1      45.143  21.516  24.760  1.00  0.00     0.202 C 
BRANCH   6   7
ATOM      7  C   UNL A   1      45.148  22.936  24.215  1.00  0.00     0.262 C 
BRANCH   7   8
ATOM      8  O   UNL A   1      45.847  23.969  24.953  1.00  0.00    -0.454 OA
BRANCH   8   9
ATOM      9  C   UNL A   1      45.345  25.041  25.615  1.00  0.00     0.384 C 
ATOM     10  O   UNL A   1      45.056  26.079  25.034  1.00  0.00    -0.236 OA
BRANCH   9  11
ATOM     11  C   UNL A   1      45.214  25.002  27.047  1.00  0.00     0.022 C 
ATOM     12  C   UNL A   1      45.196  24.940  28.256  1.00  0.00    -0.053 C 
BRANCH  12  13
ATOM     13  C   UNL A   1      45.234  24.921  29.685  1.00  0.00     0.047 A 
ATOM     14  C   UNL A   1      46.191  25.730  30.300  1.00  0.00     0.039 A 
ATOM     15  C   UNL A   1      44.384  24.154  30.485  1.00  0.00     0.075 A 
ATOM     16  C   UNL A   1      46.262  25.747  31.682  1.00  0.00     0.112 A 
ATOM     17  C   UNL A   1      44.533  24.243  31.863  1.00  0.00     0.132 A 
ATOM     18  Cl  UNL A   1      43.172  23.103  29.866  1.00  0.00    -0.081 Cl
ATOM     19  N   UNL A   1      45.454  25.022  32.481  1.00  0.00    -0.263 NA
ENDBRANCH  12  13
ENDBRANCH   9  11
ENDBRANCH   8   9
ENDBRANCH   7   8
ENDBRANCH   6   7
ENDBRANCH   5   6
ENDBRANCH   4   5
ENDBRANCH   3   4
ENDBRANCH   2   3
ENDBRANCH   1   2
BRANCH   1  20
ATOM     20  C   UNL A   1      42.162  19.690  26.698  1.00  0.00     0.188 C 
BRANCH  20  21
ATOM     21  O   UNL A   1      41.054  20.325  26.069  1.00  0.00    -0.376 OA
BRANCH  21  22
ATOM     22  C   UNL A   1      40.768  21.646  26.504  1.00  0.00     0.202 C 
BRANCH  22  23
ATOM     23  C   UNL A   1      41.762  22.742  26.089  1.00  0.00     0.261 C 
BRANCH  23  24
ATOM     24  O   UNL A   1      41.838  23.886  26.951  1.00  0.00    -0.460 OA
BRANCH  24  25
ATOM     25  C   UNL A   1      41.787  25.118  26.394  1.00  0.00     0.338 C 
ATOM     26  O   UNL A   1      41.804  25.381  25.205  1.00  0.00    -0.246 OA
BRANCH  25  27
ATOM     27  C   UNL A   1      41.464  26.074  27.485  1.00  0.00     0.060 A 
ATOM     28  C   UNL A   1      40.447  25.793  28.403  1.00  0.00     0.016 A 
ATOM     29  C   UNL A   1      42.120  27.314  27.522  1.00  0.00     0.016 A 
ATOM     30  C   UNL A   1      40.111  26.734  29.379  1.00  0.00     0.010 A 
ATOM     31  C   UNL A   1      41.779  28.259  28.497  1.00  0.00     0.010 A 
ATOM     32  C   UNL A   1      40.796  27.962  29.453  1.00  0.00    -0.014 A 
BRANCH  32  33
ATOM     33  C   UNL A   1      40.666  28.783  30.682  1.00  0.00     0.031 A 
ATOM     34  C   UNL A   1      41.557  28.623  31.875  1.00  0.00     0.074 A 
ATOM     35  C   UNL A   1      39.693  29.715  30.680  1.00  0.00     0.049 A 
ATOM     36  N   UNL A   1      41.624  29.372  32.947  1.00  0.00    -0.248 NA
ATOM     37  C   UNL A   1      42.478  27.478  31.884  1.00  0.00     0.031 C 
ATOM     38  C   UNL A   1      38.739  29.918  29.585  1.00  0.00     0.029 A 
ATOM     39  N   UNL A   1      39.350  30.669  31.601  1.00  0.00    -0.354 N 
ATOM     40  C   UNL A   1      42.611  28.813  33.748  1.00  0.00     0.074 A 
ATOM     41  C   UNL A   1      43.081  27.627  33.060  1.00  0.00     0.031 C 
ATOM     42  C   UNL A   1      37.944  30.955  29.881  1.00  0.00     0.029 A 
ATOM     43  C   UNL A   1      38.320  31.480  31.188  1.00  0.00     0.049 A 
ATOM     44  H   UNL A   1      39.797  30.765  32.472  1.00  0.00     0.167 HD
ATOM     45  C   UNL A   1      43.085  29.264  34.935  1.00  0.00     0.037 A 
ATOM     46  C   UNL A   1      37.749  32.543  31.784  1.00  0.00     0.037 A 
ATOM     47  C   UNL A   1      42.593  30.443  35.608  1.00  0.00     0.049 A 
ATOM     48  C   UNL A   1      38.285  33.014  33.105  1.00  0.00     0.074 A 
ATOM     49  C   UNL A   1      43.049  31.014  36.786  1.00  0.00     0.029 A 
ATOM     50  N   UNL A   1      41.531  31.226  35.175  1.00  0.00    -0.354 N 
ATOM     51  N   UNL A   1      39.289  32.533  33.799  1.00  0.00    -0.248 NA
ATOM     52  C   UNL A   1      37.624  34.171  33.720  1.00  0.00     0.031 C 
ATOM     53  C   UNL A   1      42.233  32.107  37.090  1.00  0.00     0.029 A 
ATOM     54  C   UNL A   1      41.298  32.252  36.077  1.00  0.00     0.049 A 
ATOM     55  H   UNL A   1      41.018  31.074  34.349  1.00  0.00     0.167 HD
ATOM     56  C   UNL A   1      39.392  33.341  34.924  1.00  0.00     0.074 A 
ATOM     57  C   UNL A   1      38.356  34.348  34.812  1.00  0.00     0.031 C 
ATOM     58  C   UNL A   1      40.266  33.252  35.954  1.00  0.00     0.037 A 
BRANCH  45  59
ATOM     59  C   UNL A   1      44.215  28.516  35.590  1.00  0.00     0.058 A 
ATOM     60  C   UNL A   1      45.546  28.934  35.438  1.00  0.00     0.135 A 
ATOM     61  C   UNL A   1      43.961  27.453  36.474  1.00  0.00     0.135 A 
ATOM     62  F   UNL A   1      45.847  29.942  34.605  1.00  0.00    -0.206 F 
ATOM     63  C   UNL A   1      46.586  28.322  36.133  1.00  0.00     0.059 A 
ATOM     64  C   UNL A   1      44.984  26.840  37.196  1.00  0.00     0.059 A 
ATOM     65  F   UNL A   1      42.706  27.016  36.663  1.00  0.00    -0.206 F 
ATOM     66  C   UNL A   1      46.295  27.280  37.014  1.00  0.00     0.060 A 
BRANCH  66  67
ATOM     67  S   UNL A   1      47.656  26.523  37.929  1.00  0.00     0.124 S 
ATOM     68  O   UNL A   1      48.743  26.609  36.957  1.00  0.00    -0.237 OA
ATOM     69  O   UNL A   1      47.774  27.397  39.091  1.00  0.00    -0.237 OA
ATOM     70  O   UNL A   1      47.172  25.175  38.208  1.00  0.00    -0.744 OA
ENDBRANCH  66  67
ENDBRANCH  45  59
BRANCH  46  71
ATOM     71  C   UNL A   1      36.643  33.257  31.099  1.00  0.00     0.058 A 
ATOM     72  C   UNL A   1      36.891  34.056  29.974  1.00  0.00     0.135 A 
ATOM     73  C   UNL A   1      35.312  33.112  31.521  1.00  0.00     0.135 A 
ATOM     74  F   UNL A   1      38.148  34.220  29.532  1.00  0.00    -0.206 F 
ATOM     75  C   UNL A   1      35.861  34.700  29.299  1.00  0.00     0.059 A 
ATOM     76  C   UNL A   1      34.261  33.726  30.847  1.00  0.00     0.059 A 
ATOM     77  F   UNL A   1      35.021  32.336  32.577  1.00  0.00    -0.206 F 
ATOM     78  C   UNL A   1      34.548  34.526  29.742  1.00  0.00     0.060 A 
BRANCH  78  79
ATOM     79  S   UNL A   1      33.216  35.333  28.830  1.00  0.00     0.124 S 
ATOM     80  O   UNL A   1      32.684  34.223  28.046  1.00  0.00    -0.237 OA
ATOM     81  O   UNL A   1      32.360  35.822  29.907  1.00  0.00    -0.237 OA
ATOM     82  O   UNL A   1      33.908  36.368  28.068  1.00  0.00    -0.744 OA
ENDBRANCH  78  79
ENDBRANCH  46  71
BRANCH  58  83
ATOM     83  C   UNL A   1      40.156  34.269  37.054  1.00  0.00     0.058 A 
ATOM     84  C   UNL A   1      40.935  35.437  37.046  1.00  0.00     0.135 A 
ATOM     85  C   UNL A   1      39.189  34.131  38.063  1.00  0.00     0.135 A 
ATOM     86  F   UNL A   1      41.883  35.610  36.112  1.00  0.00    -0.206 F 
ATOM     87  C   UNL A   1      40.752  36.436  37.996  1.00  0.00     0.059 A 
ATOM     88  C   UNL A   1      38.973  35.128  39.008  1.00  0.00     0.059 A 
ATOM     89  F   UNL A   1      38.418  33.033  38.112  1.00  0.00    -0.206 F 
ATOM     90  C   UNL A   1      39.757  36.280  38.963  1.00  0.00     0.060 A 
BRANCH  90  91
ATOM     91  S   UNL A   1      39.471  37.630  40.127  1.00  0.00     0.124 S 
ATOM     92  O   UNL A   1      40.767  38.303  40.126  1.00  0.00    -0.237 OA
ATOM     93  O   UNL A   1      38.378  38.359  39.492  1.00  0.00    -0.237 OA
ATOM     94  O   UNL A   1      39.123  36.943  41.367  1.00  0.00    -0.744 OA
ENDBRANCH  90  91
ENDBRANCH  58  83
ENDBRANCH  32  33
ENDBRANCH  25  27
ENDBRANCH  24  25
ENDBRANCH  23  24
ENDBRANCH  22  23
ENDBRANCH  21  22
ENDBRANCH  20  21
ENDBRANCH   1  20
TORSDOF 24
ENDMDL
MODEL 2
REMARK VINA RESULT:      -8.5      4.457     10.528
REMARK SMILES O=C(C#Cc1ccncc1Cl)OCCOCCOCCOCCOC(=O)c1ccc(-c2c3nc(c(-c4c(F)cc(S(=O)(=O)[O-])cc4F)c4ccc([nH]4)c(-c4c(F)cc(S(=O)(=O)[O-])cc4F)c4nc(c(-c5c(F)cc(S(=O)(=O)[O-])cc5F)c5ccc2[nH]5)C=C4)C=C3)cc1
REMARK SMILES IDX 19 1 18 2 17 3 16 4 15 5 14 6 13 7 12 8 2 9 1 10 3 11 4 12
REMARK SMILES IDX 5 13 6 14 10 15 7 16 9 17 11 18 8 19 20 20 21 21 22 22 23 23
REMARK SMILES IDX 24 24 25 25 26 26 27 27 28 28 92 29 29 30 91 31 30 32 31 33
REMARK SMILES IDX 32 34 85 35 33 36 90 37 84 38 86 39 34 40 89 41 83 42 82 43
REMARK SMILES IDX 35 45 69 46 48 47 68 48 49 49 52 50 67 51 87 52 50 53 51 54
REMARK SMILES IDX 66 56 88 57 53 58 36 59 37 60 46 61 38 62 39 63 45 64 47 65
REMARK SMILES IDX 40 66 41 67 42 68 43 69 44 70 70 71 71 72 80 73 72 74 73 75
REMARK SMILES IDX 79 76 81 77 74 78 75 79 76 80 77 81 78 82 54 83 55 84 64 85
REMARK SMILES IDX 56 86 57 87 63 88 65 89 58 90 59 91 60 92 61 93 62 94
REMARK H PARENT 86 44 52 55
REMARK Flexibility Score: inf
ROOT
ATOM      1  C   UNL A   1      35.012  24.352  25.368  1.00  0.00     0.188 C 
ENDROOT
BRANCH   1   2
ATOM      2  O   UNL A   1      34.340  25.583  25.116  1.00  0.00    -0.377 OA
BRANCH   2   3
ATOM      3  C   UNL A   1      33.320  25.623  24.122  1.00  0.00     0.188 C 
BRANCH   3   4
ATOM      4  C   UNL A   1      31.838  25.784  24.528  1.00  0.00     0.188 C 
BRANCH   4   5
ATOM      5  O   UNL A   1      31.571  25.277  25.815  1.00  0.00    -0.376 OA
BRANCH   5   6
ATOM      6  C   UNL A   1      30.475  24.445  26.109  1.00  0.00     0.202 C 
BRANCH   6   7
ATOM      7  C   UNL A   1      30.790  22.991  26.424  1.00  0.00     0.262 C 
BRANCH   7   8
ATOM      8  O   UNL A   1      32.004  22.404  25.892  1.00  0.00    -0.454 OA
BRANCH   8   9
ATOM      9  C   UNL A   1      32.193  21.721  24.736  1.00  0.00     0.384 C 
ATOM     10  O   UNL A   1      31.881  22.193  23.651  1.00  0.00    -0.236 OA
BRANCH   9  11
ATOM     11  C   UNL A   1      32.704  20.377  24.774  1.00  0.00     0.022 C 
ATOM     12  C   UNL A   1      33.081  19.232  24.886  1.00  0.00    -0.053 C 
BRANCH  12  13
ATOM     13  C   UNL A   1      33.450  17.856  25.013  1.00  0.00     0.047 A 
ATOM     14  C   UNL A   1      32.418  16.947  25.256  1.00  0.00     0.039 A 
ATOM     15  C   UNL A   1      34.759  17.379  24.909  1.00  0.00     0.075 A 
ATOM     16  C   UNL A   1      32.727  15.605  25.382  1.00  0.00     0.112 A 
ATOM     17  C   UNL A   1      34.964  16.012  25.047  1.00  0.00     0.132 A 
ATOM     18  Cl  UNL A   1      36.127  18.382  24.627  1.00  0.00    -0.081 Cl
ATOM     19  N   UNL A   1      33.979  15.113  25.282  1.00  0.00    -0.263 NA
ENDBRANCH  12  13
ENDBRANCH   9  11
ENDBRANCH   8   9
ENDBRANCH   7   8
ENDBRANCH   6   7
ENDBRANCH   5   6
ENDBRANCH   4   5
ENDBRANCH   3   4
ENDBRANCH   2   3
ENDBRANCH   1   2
BRANCH   1  20
ATOM     20  C   UNL A   1      35.590  23.553  24.172  1.00  0.00     0.188 C 
BRANCH  20  21
ATOM     21  O   UNL A   1      36.754  22.799  24.493  1.00  0.00    -0.376 OA
BRANCH  21  22
ATOM     22  C   UNL A   1      37.159  22.834  25.854  1.00  0.00     0.202 C 
BRANCH  22  23
ATOM     23  C   UNL A   1      38.633  23.170  26.131  1.00  0.00     0.261 C 
BRANCH  23  24
ATOM     24  O   UNL A   1      38.909  24.518  26.535  1.00  0.00    -0.460 OA
BRANCH  24  25
ATOM     25  C   UNL A   1      40.199  24.916  26.613  1.00  0.00     0.338 C 
ATOM     26  O   UNL A   1      41.078  24.700  25.799  1.00  0.00    -0.246 OA
BRANCH  25  27
ATOM     27  C   UNL A   1      40.291  25.868  27.751  1.00  0.00     0.060 A 
ATOM     28  C   UNL A   1      41.391  26.722  27.881  1.00  0.00     0.016 A 
ATOM     29  C   UNL A   1      39.311  25.827  28.755  1.00  0.00     0.016 A 
ATOM     30  C   UNL A   1      41.493  27.560  28.994  1.00  0.00     0.010 A 
ATOM     31  C   UNL A   1      39.417  26.664  29.873  1.00  0.00     0.010 A 
ATOM     32  C   UNL A   1      40.491  27.559  29.983  1.00  0.00    -0.014 A 
BRANCH  32  33
ATOM     33  C   UNL A   1      40.443  28.679  30.957  1.00  0.00     0.031 A 
ATOM     34  C   UNL A   1      39.463  29.807  30.863  1.00  0.00     0.074 A 
ATOM     35  C   UNL A   1      41.335  28.634  31.965  1.00  0.00     0.049 A 
ATOM     36  N   UNL A   1      39.239  30.764  31.728  1.00  0.00    -0.248 NA
ATOM     37  C   UNL A   1      38.639  29.890  29.649  1.00  0.00     0.031 C 
ATOM     38  C   UNL A   1      42.366  27.602  32.119  1.00  0.00     0.029 A 
ATOM     39  N   UNL A   1      41.516  29.448  33.051  1.00  0.00    -0.354 N 
ATOM     40  C   UNL A   1      38.231  31.549  31.184  1.00  0.00     0.074 A 
ATOM     41  C   UNL A   1      37.922  30.984  29.886  1.00  0.00     0.031 C 
ATOM     42  C   UNL A   1      43.046  27.824  33.251  1.00  0.00     0.029 A 
ATOM     43  C   UNL A   1      42.512  29.018  33.896  1.00  0.00     0.049 A 
ATOM     44  H   UNL A   1      40.986  30.261  33.212  1.00  0.00     0.167 HD
ATOM     45  C   UNL A   1      37.618  32.626  31.732  1.00  0.00     0.037 A 
ATOM     46  C   UNL A   1      42.940  29.515  35.071  1.00  0.00     0.037 A 
ATOM     47  C   UNL A   1      37.951  33.179  33.024  1.00  0.00     0.049 A 
ATOM     48  C   UNL A   1      42.251  30.717  35.648  1.00  0.00     0.074 A 
ATOM     49  C   UNL A   1      37.346  34.232  33.691  1.00  0.00     0.029 A 
ATOM     50  N   UNL A   1      38.982  32.734  33.841  1.00  0.00    -0.354 N 
ATOM     51  N   UNL A   1      41.230  31.385  35.167  1.00  0.00    -0.248 NA
ATOM     52  C   UNL A   1      42.759  31.228  36.927  1.00  0.00     0.031 C 
ATOM     53  C   UNL A   1      38.042  34.457  34.882  1.00  0.00     0.029 A 
ATOM     54  C   UNL A   1      39.051  33.512  34.986  1.00  0.00     0.049 A 
ATOM     55  H   UNL A   1      39.579  31.979  33.636  1.00  0.00     0.167 HD
ATOM     56  C   UNL A   1      40.961  32.384  36.094  1.00  0.00     0.074 A 
ATOM     57  C   UNL A   1      41.919  32.226  37.169  1.00  0.00     0.031 C 
ATOM     58  C   UNL A   1      40.007  33.344  36.052  1.00  0.00     0.037 A 
BRANCH  45  59
ATOM     59  C   UNL A   1      36.495  33.280  30.971  1.00  0.00     0.058 A 
ATOM     60  C   UNL A   1      35.164  33.164  31.398  1.00  0.00     0.135 A 
ATOM     61  C   UNL A   1      36.760  34.129  29.882  1.00  0.00     0.135 A 
ATOM     62  F   UNL A   1      34.853  32.365  32.431  1.00  0.00    -0.206 F 
ATOM     63  C   UNL A   1      34.133  33.859  30.772  1.00  0.00     0.059 A 
ATOM     64  C   UNL A   1      35.747  34.851  29.253  1.00  0.00     0.059 A 
ATOM     65  F   UNL A   1      38.016  34.283  29.435  1.00  0.00    -0.206 F 
ATOM     66  C   UNL A   1      34.435  34.705  29.704  1.00  0.00     0.060 A 
BRANCH  66  67
ATOM     67  S   UNL A   1      33.087  35.622  28.927  1.00  0.00     0.124 S 
ATOM     68  O   UNL A   1      32.436  34.575  28.145  1.00  0.00    -0.237 OA
ATOM     69  O   UNL A   1      32.338  36.110  30.079  1.00  0.00    -0.237 OA
ATOM     70  O   UNL A   1      33.774  36.648  28.149  1.00  0.00    -0.744 OA
ENDBRANCH  66  67
ENDBRANCH  45  59
BRANCH  46  71
ATOM     71  C   UNL A   1      44.044  28.834  35.792  1.00  0.00     0.058 A 
ATOM     72  C   UNL A   1      45.369  29.271  35.655  1.00  0.00     0.135 A 
ATOM     73  C   UNL A   1      43.791  27.770  36.673  1.00  0.00     0.135 A 
ATOM     74  F   UNL A   1      45.658  30.288  34.828  1.00  0.00    -0.206 F 
ATOM     75  C   UNL A   1      46.408  28.668  36.353  1.00  0.00     0.059 A 
ATOM     76  C   UNL A   1      44.810  27.167  37.401  1.00  0.00     0.059 A 
ATOM     77  F   UNL A   1      42.535  27.334  36.858  1.00  0.00    -0.206 F 
ATOM     78  C   UNL A   1      46.118  27.618  37.227  1.00  0.00     0.060 A 
BRANCH  78  79
ATOM     79  S   UNL A   1      47.471  26.873  38.160  1.00  0.00     0.124 S 
ATOM     80  O   UNL A   1      46.947  26.916  39.521  1.00  0.00    -0.237 OA
ATOM     81  O   UNL A   1      47.568  25.548  37.555  1.00  0.00    -0.237 OA
ATOM     82  O   UNL A   1      48.596  27.763  37.890  1.00  0.00    -0.744 OA
ENDBRANCH  78  79
ENDBRANCH  46  71
BRANCH  58  83
ATOM     83  C   UNL A   1      39.935  34.308  37.202  1.00  0.00     0.058 A 
ATOM     84  C   UNL A   1      40.548  35.569  37.135  1.00  0.00     0.135 A 
ATOM     85  C   UNL A   1      39.155  34.015  38.333  1.00  0.00     0.135 A 
ATOM     86  F   UNL A   1      41.315  35.892  36.082  1.00  0.00    -0.206 F 
ATOM     87  C   UNL A   1      40.382  36.509  38.146  1.00  0.00     0.059 A 
ATOM     88  C   UNL A   1      38.956  34.949  39.344  1.00  0.00     0.059 A 
ATOM     89  F   UNL A   1      38.546  32.824  38.443  1.00  0.00    -0.206 F 
ATOM     90  C   UNL A   1      39.572  36.196  39.240  1.00  0.00     0.060 A 
BRANCH  90  91
ATOM     91  S   UNL A   1      39.293  37.464  40.494  1.00  0.00     0.124 S 
ATOM     92  O   UNL A   1      38.232  38.258  39.882  1.00  0.00    -0.237 OA
ATOM     93  O   UNL A   1      38.900  36.670  41.655  1.00  0.00    -0.237 OA
ATOM     94  O   UNL A   1      40.588  38.126  40.604  1.00  0.00    -0.744 OA
ENDBRANCH  90  91
ENDBRANCH  58  83
ENDBRANCH  32  33
ENDBRANCH  25  27
ENDBRANCH  24  25
ENDBRANCH  23  24
ENDBRANCH  22  23
ENDBRANCH  21  22
ENDBRANCH  20  21
ENDBRANCH   1  20
TORSDOF 24
ENDMDL
MODEL 3
REMARK VINA RESULT:      -8.4      5.220     11.184
REMARK SMILES O=C(C#Cc1ccncc1Cl)OCCOCCOCCOCCOC(=O)c1ccc(-c2c3nc(c(-c4c(F)cc(S(=O)(=O)[O-])cc4F)c4ccc([nH]4)c(-c4c(F)cc(S(=O)(=O)[O-])cc4F)c4nc(c(-c5c(F)cc(S(=O)(=O)[O-])cc5F)c5ccc2[nH]5)C=C4)C=C3)cc1
REMARK SMILES IDX 19 1 18 2 17 3 16 4 15 5 14 6 13 7 12 8 2 9 1 10 3 11 4 12
REMARK SMILES IDX 5 13 6 14 10 15 7 16 9 17 11 18 8 19 20 20 21 21 22 22 23 23
REMARK SMILES IDX 24 24 25 25 26 26 27 27 28 28 92 29 29 30 91 31 30 32 31 33
REMARK SMILES IDX 32 34 85 35 33 36 90 37 84 38 86 39 34 40 89 41 83 42 82 43
REMARK SMILES IDX 35 45 69 46 48 47 68 48 49 49 52 50 67 51 87 52 50 53 51 54
REMARK SMILES IDX 66 56 88 57 53 58 36 59 37 60 46 61 38 62 39 63 45 64 47 65
REMARK SMILES IDX 40 66 41 67 42 68 43 69 44 70 70 71 71 72 80 73 72 74 73 75
REMARK SMILES IDX 79 76 81 77 74 78 75 79 76 80 77 81 78 82 54 83 55 84 64 85
REMARK SMILES IDX 56 86 57 87 63 88 65 89 58 90 59 91 60 92 61 93 62 94
REMARK H PARENT 86 44 52 55
REMARK Flexibility Score: inf
ROOT
ATOM      1  C   UNL A   1      31.817  27.875  26.044  1.00  0.00     0.188 C 
ENDROOT
BRANCH   1   2
ATOM      2  O   UNL A   1      31.415  26.751  26.823  1.00  0.00    -0.377 OA
BRANCH   2   3
ATOM      3  C   UNL A   1      31.323  25.474  26.197  1.00  0.00     0.188 C 
BRANCH   3   4
ATOM      4  C   UNL A   1      32.442  24.426  26.392  1.00  0.00     0.188 C 
BRANCH   4   5
ATOM      5  O   UNL A   1      32.521  23.513  25.322  1.00  0.00    -0.376 OA
BRANCH   5   6
ATOM      6  C   UNL A   1      31.416  23.147  24.531  1.00  0.00     0.202 C 
BRANCH   6   7
ATOM      7  C   UNL A   1      31.411  23.649  23.096  1.00  0.00     0.262 C 
BRANCH   7   8
ATOM      8  O   UNL A   1      32.585  24.329  22.585  1.00  0.00    -0.454 OA
BRANCH   8   9
ATOM      9  C   UNL A   1      32.717  25.608  22.155  1.00  0.00     0.384 C 
ATOM     10  O   UNL A   1      33.758  26.015  21.653  1.00  0.00    -0.236 OA
BRANCH   9  11
ATOM     11  C   UNL A   1      31.644  26.546  22.353  1.00  0.00     0.022 C 
ATOM     12  C   UNL A   1      30.795  27.400  22.472  1.00  0.00    -0.053 C 
BRANCH  12  13
ATOM     13  C   UNL A   1      29.788  28.414  22.533  1.00  0.00     0.047 A 
ATOM     14  C   UNL A   1      30.113  29.658  21.988  1.00  0.00     0.039 A 
ATOM     15  C   UNL A   1      28.522  28.232  23.095  1.00  0.00     0.075 A 
ATOM     16  C   UNL A   1      29.168  30.668  22.021  1.00  0.00     0.112 A 
ATOM     17  C   UNL A   1      27.643  29.308  23.076  1.00  0.00     0.132 A 
ATOM     18  Cl  UNL A   1      27.991  26.763  23.814  1.00  0.00    -0.081 Cl
ATOM     19  N   UNL A   1      27.937  30.523  22.552  1.00  0.00    -0.263 NA
ENDBRANCH  12  13
ENDBRANCH   9  11
ENDBRANCH   8   9
ENDBRANCH   7   8
ENDBRANCH   6   7
ENDBRANCH   5   6
ENDBRANCH   4   5
ENDBRANCH   3   4
ENDBRANCH   2   3
ENDBRANCH   1   2
BRANCH   1  20
ATOM     20  C   UNL A   1      32.917  28.817  26.598  1.00  0.00     0.188 C 
BRANCH  20  21
ATOM     21  O   UNL A   1      32.428  29.803  27.501  1.00  0.00    -0.376 OA
BRANCH  21  22
ATOM     22  C   UNL A   1      32.493  31.147  27.045  1.00  0.00     0.202 C 
BRANCH  22  23
ATOM     23  C   UNL A   1      33.586  32.035  27.662  1.00  0.00     0.261 C 
BRANCH  23  24
ATOM     24  O   UNL A   1      33.462  33.444  27.428  1.00  0.00    -0.460 OA
BRANCH  24  25
ATOM     25  C   UNL A   1      33.414  34.273  28.496  1.00  0.00     0.338 C 
ATOM     26  O   UNL A   1      32.499  35.017  28.800  1.00  0.00    -0.246 OA
BRANCH  25  27
ATOM     27  C   UNL A   1      34.574  33.933  29.361  1.00  0.00     0.060 A 
ATOM     28  C   UNL A   1      34.381  33.438  30.655  1.00  0.00     0.016 A 
ATOM     29  C   UNL A   1      35.871  34.215  28.904  1.00  0.00     0.016 A 
ATOM     30  C   UNL A   1      35.483  33.191  31.476  1.00  0.00     0.010 A 
ATOM     31  C   UNL A   1      36.975  33.972  29.730  1.00  0.00     0.010 A 
ATOM     32  C   UNL A   1      36.790  33.426  31.009  1.00  0.00    -0.014 A 
BRANCH  32  33
ATOM     33  C   UNL A   1      37.934  32.843  31.753  1.00  0.00     0.031 A 
ATOM     34  C   UNL A   1      38.443  33.401  33.046  1.00  0.00     0.074 A 
ATOM     35  C   UNL A   1      38.508  31.752  31.209  1.00  0.00     0.049 A 
ATOM     36  N   UNL A   1      39.344  32.896  33.851  1.00  0.00    -0.248 NA
ATOM     37  C   UNL A   1      37.892  34.687  33.492  1.00  0.00     0.031 C 
ATOM     38  C   UNL A   1      38.118  31.159  29.926  1.00  0.00     0.029 A 
ATOM     39  N   UNL A   1      39.516  30.940  31.658  1.00  0.00    -0.354 N 
ATOM     40  C   UNL A   1      39.452  33.782  34.914  1.00  0.00     0.074 A 
ATOM     41  C   UNL A   1      38.558  34.887  34.626  1.00  0.00     0.031 C 
ATOM     42  C   UNL A   1      38.851  30.058  29.708  1.00  0.00     0.029 A 
ATOM     43  C   UNL A   1      39.770  29.876  30.825  1.00  0.00     0.049 A 
ATOM     44  H   UNL A   1      40.009  31.102  32.494  1.00  0.00     0.167 HD
ATOM     45  C   UNL A   1      40.214  33.668  36.029  1.00  0.00     0.037 A 
ATOM     46  C   UNL A   1      40.634  28.852  30.951  1.00  0.00     0.037 A 
ATOM     47  C   UNL A   1      41.106  32.563  36.291  1.00  0.00     0.049 A 
ATOM     48  C   UNL A   1      41.476  28.757  32.191  1.00  0.00     0.074 A 
ATOM     49  C   UNL A   1      41.876  32.327  37.418  1.00  0.00     0.029 A 
ATOM     50  N   UNL A   1      41.359  31.516  35.414  1.00  0.00    -0.354 N 
ATOM     51  N   UNL A   1      41.489  29.550  33.234  1.00  0.00    -0.248 NA
ATOM     52  C   UNL A   1      42.410  27.627  32.278  1.00  0.00     0.031 C 
ATOM     53  C   UNL A   1      42.631  31.170  37.203  1.00  0.00     0.029 A 
ATOM     54  C   UNL A   1      42.296  30.653  35.962  1.00  0.00     0.049 A 
ATOM     55  H   UNL A   1      40.937  31.404  34.532  1.00  0.00     0.167 HD
ATOM     56  C   UNL A   1      42.418  29.006  34.112  1.00  0.00     0.074 A 
ATOM     57  C   UNL A   1      42.938  27.810  33.481  1.00  0.00     0.031 C 
ATOM     58  C   UNL A   1      42.804  29.462  35.327  1.00  0.00     0.037 A 
BRANCH  45  59
ATOM     59  C   UNL A   1      40.112  34.737  37.084  1.00  0.00     0.058 A 
ATOM     60  C   UNL A   1      39.199  34.625  38.145  1.00  0.00     0.135 A 
ATOM     61  C   UNL A   1      41.012  35.816  37.109  1.00  0.00     0.135 A 
ATOM     62  F   UNL A   1      38.315  33.616  38.171  1.00  0.00    -0.206 F 
ATOM     63  C   UNL A   1      39.177  35.546  39.188  1.00  0.00     0.059 A 
ATOM     64  C   UNL A   1      41.022  36.738  38.153  1.00  0.00     0.059 A 
ATOM     65  F   UNL A   1      41.911  35.968  36.124  1.00  0.00    -0.206 F 
ATOM     66  C   UNL A   1      40.096  36.597  39.187  1.00  0.00     0.060 A 
BRANCH  66  67
ATOM     67  S   UNL A   1      40.071  37.762  40.567  1.00  0.00     0.124 S 
ATOM     68  O   UNL A   1      40.671  36.964  41.632  1.00  0.00    -0.237 OA
ATOM     69  O   UNL A   1      40.888  38.860  40.061  1.00  0.00    -0.237 OA
ATOM     70  O   UNL A   1      38.653  38.064  40.734  1.00  0.00    -0.744 OA
ENDBRANCH  66  67
ENDBRANCH  45  59
BRANCH  46  71
ATOM     71  C   UNL A   1      40.697  27.815  29.891  1.00  0.00     0.058 A 
ATOM     72  C   UNL A   1      39.705  26.830  29.791  1.00  0.00     0.135 A 
ATOM     73  C   UNL A   1      41.718  27.820  28.928  1.00  0.00     0.135 A 
ATOM     74  F   UNL A   1      38.707  26.789  30.687  1.00  0.00    -0.206 F 
ATOM     75  C   UNL A   1      39.728  25.875  28.781  1.00  0.00     0.059 A 
ATOM     76  C   UNL A   1      41.749  26.891  27.893  1.00  0.00     0.059 A 
ATOM     77  F   UNL A   1      42.675  28.760  28.967  1.00  0.00    -0.206 F 
ATOM     78  C   UNL A   1      40.755  25.916  27.834  1.00  0.00     0.060 A 
BRANCH  78  79
ATOM     79  S   UNL A   1      40.749  24.698  26.503  1.00  0.00     0.124 S 
ATOM     80  O   UNL A   1      41.746  25.253  25.594  1.00  0.00    -0.237 OA
ATOM     81  O   UNL A   1      41.135  23.476  27.204  1.00  0.00    -0.237 OA
ATOM     82  O   UNL A   1      39.371  24.729  26.024  1.00  0.00    -0.744 OA
ENDBRANCH  78  79
ENDBRANCH  46  71
BRANCH  58  83
ATOM     83  C   UNL A   1      43.838  28.669  36.075  1.00  0.00     0.058 A 
ATOM     84  C   UNL A   1      43.487  27.533  36.820  1.00  0.00     0.135 A 
ATOM     85  C   UNL A   1      45.203  28.982  35.956  1.00  0.00     0.135 A 
ATOM     86  F   UNL A   1      42.196  27.200  36.976  1.00  0.00    -0.206 F 
ATOM     87  C   UNL A   1      44.454  26.729  37.414  1.00  0.00     0.059 A 
ATOM     88  C   UNL A   1      46.187  28.178  36.521  1.00  0.00     0.059 A 
ATOM     89  F   UNL A   1      45.590  30.057  35.252  1.00  0.00    -0.206 F 
ATOM     90  C   UNL A   1      45.802  27.051  37.246  1.00  0.00     0.060 A 
BRANCH  90  91
ATOM     91  S   UNL A   1      47.044  25.942  37.943  1.00  0.00     0.124 S 
ATOM     92  O   UNL A   1      48.274  26.470  37.361  1.00  0.00    -0.237 OA
ATOM     93  O   UNL A   1      46.880  26.157  39.378  1.00  0.00    -0.237 OA
ATOM     94  O   UNL A   1      46.636  24.627  37.461  1.00  0.00    -0.744 OA
ENDBRANCH  90  91
ENDBRANCH  58  83
ENDBRANCH  32  33
ENDBRANCH  25  27
ENDBRANCH  24  25
ENDBRANCH  23  24
ENDBRANCH  22  23
ENDBRANCH  21  22
ENDBRANCH  20  21
ENDBRANCH   1  20
TORSDOF 24
ENDMDL
