MODEL 1
REMARK VINA RESULT:     -10.2      0.000      0.000
REMARK SMILES Cc1noc(C)c1CCC(=O)N1CCC2(CC1)NC(=O)C[C@@H]2C(=O)OCCOCCOCCOCCOC(=O)c1ccc(-c2c3nc(c(-c4c(F)cc(S(=O)(=O)[O-])cc4F)c4ccc([nH]4)c(-c4c(F)cc(S(=O)(=O)[O-])cc4F)c4nc(c(-c5c(F)cc(S(=O)(=O)[O-])cc5F)c5ccc2[nH]5)C=C4)C=C3)cc1
REMARK SMILES IDX 31 1 30 2 29 3 28 4 27 5 26 6 25 7 23 8 24 9 22 10 10 11
REMARK SMILES IDX 11 12 12 13 13 14 17 15 14 16 16 17 15 18 18 19 19 20 21 22
REMARK SMILES IDX 20 23 9 24 8 25 7 26 1 27 2 28 3 29 4 30 5 31 6 32 32 33
REMARK SMILES IDX 33 34 34 35 35 36 36 37 37 38 38 39 39 40 40 41 41 42 105 43
REMARK SMILES IDX 42 44 104 45 43 46 44 47 45 48 98 49 46 50 103 51 97 52
REMARK SMILES IDX 99 53 47 54 102 55 96 56 95 57 48 59 82 60 61 61 81 62 62 63
REMARK SMILES IDX 65 64 80 65 100 66 63 67 64 68 79 70 101 71 66 72 49 73
REMARK SMILES IDX 50 74 59 75 51 76 52 77 58 78 60 79 53 80 54 81 55 82 56 83
REMARK SMILES IDX 57 84 83 85 84 86 93 87 85 88 86 89 92 90 94 91 87 92 88 93
REMARK SMILES IDX 89 94 90 95 91 96 67 97 68 98 77 99 69 100 70 101 76 102
REMARK SMILES IDX 78 103 71 104 72 105 73 106 74 107 75 108
REMARK H PARENT 18 21 99 58 65 69
REMARK Flexibility Score: inf
ROOT
ATOM      1  O   UNL A   1      32.911  28.746  27.197  1.00  0.00    -0.377 OA
ENDROOT
BRANCH   1   2
ATOM      2  C   UNL A   1      33.214  27.461  26.698  1.00  0.00     0.188 C 
BRANCH   2   3
ATOM      3  C   UNL A   1      34.182  27.458  25.505  1.00  0.00     0.188 C 
BRANCH   3   4
ATOM      4  O   UNL A   1      33.957  26.570  24.417  1.00  0.00    -0.376 OA
BRANCH   4   5
ATOM      5  C   UNL A   1      34.312  25.198  24.538  1.00  0.00     0.202 C 
BRANCH   5   6
ATOM      6  C   UNL A   1      35.339  24.735  25.592  1.00  0.00     0.261 C 
BRANCH   6   7
ATOM      7  O   UNL A   1      35.583  23.313  25.687  1.00  0.00    -0.463 OA
BRANCH   7   8
ATOM      8  C   UNL A   1      34.538  22.522  26.001  1.00  0.00     0.311 C 
ATOM      9  O   UNL A   1      33.959  22.571  27.083  1.00  0.00    -0.252 OA
BRANCH   8  10
ATOM     10  C   UNL A   1      34.026  21.605  24.890  1.00  0.00     0.134 C 
ATOM     11  C   UNL A   1      30.814  25.013  24.480  1.00  0.00     0.222 C 
ATOM     12  O   UNL A   1      30.662  25.616  25.542  1.00  0.00    -0.275 OA
ATOM     13  N   UNL A   1      31.058  23.633  24.438  1.00  0.00    -0.343 N 
ATOM     14  C   UNL A   1      31.006  22.912  25.707  1.00  0.00     0.122 C 
ATOM     15  C   UNL A   1      31.836  23.090  23.350  1.00  0.00     0.122 C 
ATOM     16  C   UNL A   1      31.395  21.438  25.631  1.00  0.00     0.051 C 
ATOM     17  C   UNL A   1      32.041  21.602  23.305  1.00  0.00     0.051 C 
ATOM     18  C   UNL A   1      32.550  21.112  24.669  1.00  0.00     0.057 C 
ATOM     19  N   UNL A   1      32.691  19.668  24.542  1.00  0.00    -0.350 N 
ATOM     20  C   UNL A   1      33.980  19.214  24.505  1.00  0.00     0.221 C 
ATOM     21  H   UNL A   1      31.915  19.064  24.487  1.00  0.00     0.164 HD
ATOM     22  C   UNL A   1      34.903  20.333  24.857  1.00  0.00     0.117 C 
ATOM     23  O   UNL A   1      34.305  18.066  24.252  1.00  0.00    -0.275 OA
BRANCH  11  24
ATOM     24  C   UNL A   1      30.714  25.757  23.151  1.00  0.00     0.105 C 
BRANCH  24  25
ATOM     25  C   UNL A   1      30.687  27.287  23.209  1.00  0.00     0.051 C 
BRANCH  25  26
ATOM     26  C   UNL A   1      29.360  27.974  23.096  1.00  0.00     0.018 A 
ATOM     27  C   UNL A   1      30.015  30.074  21.664  1.00  0.00     0.071 C 
ATOM     28  C   UNL A   1      29.086  29.215  22.436  1.00  0.00     0.084 A 
ATOM     29  N   UNL A   1      27.787  29.526  22.497  1.00  0.00    -0.085 NA
ATOM     30  O   UNL A   1      27.182  28.500  23.185  1.00  0.00    -0.361 OA
ATOM     31  C   UNL A   1      28.109  27.569  23.535  1.00  0.00     0.137 A 
ATOM     32  C   UNL A   1      27.562  26.364  24.187  1.00  0.00     0.091 C 
ENDBRANCH  25  26
ENDBRANCH  24  25
ENDBRANCH  11  24
ENDBRANCH   8  10
ENDBRANCH   7   8
ENDBRANCH   6   7
ENDBRANCH   5   6
ENDBRANCH   4   5
ENDBRANCH   3   4
ENDBRANCH   2   3
ENDBRANCH   1   2
BRANCH   1  33
ATOM     33  C   UNL A   1      32.981  29.823  26.278  1.00  0.00     0.188 C 
BRANCH  33  34
ATOM     34  C   UNL A   1      31.760  30.117  25.386  1.00  0.00     0.188 C 
BRANCH  34  35
ATOM     35  O   UNL A   1      31.072  31.324  25.695  1.00  0.00    -0.376 OA
BRANCH  35  36
ATOM     36  C   UNL A   1      31.308  31.979  26.932  1.00  0.00     0.202 C 
BRANCH  36  37
ATOM     37  C   UNL A   1      32.188  33.243  26.944  1.00  0.00     0.261 C 
BRANCH  37  38
ATOM     38  O   UNL A   1      33.297  33.241  27.849  1.00  0.00    -0.460 OA
BRANCH  38  39
ATOM     39  C   UNL A   1      33.410  34.303  28.679  1.00  0.00     0.338 C 
ATOM     40  O   UNL A   1      32.655  35.246  28.768  1.00  0.00    -0.246 OA
BRANCH  39  41
ATOM     41  C   UNL A   1      34.528  34.018  29.604  1.00  0.00     0.060 A 
ATOM     42  C   UNL A   1      35.840  34.208  29.152  1.00  0.00     0.016 A 
ATOM     43  C   UNL A   1      34.278  33.597  30.913  1.00  0.00     0.016 A 
ATOM     44  C   UNL A   1      36.912  33.948  30.003  1.00  0.00     0.010 A 
ATOM     45  C   UNL A   1      35.354  33.303  31.753  1.00  0.00     0.010 A 
ATOM     46  C   UNL A   1      36.673  33.445  31.288  1.00  0.00    -0.014 A 
BRANCH  46  47
ATOM     47  C   UNL A   1      37.791  32.839  32.045  1.00  0.00     0.031 A 
ATOM     48  C   UNL A   1      38.462  31.631  31.450  1.00  0.00     0.074 A 
ATOM     49  C   UNL A   1      38.217  33.359  33.210  1.00  0.00     0.049 A 
ATOM     50  N   UNL A   1      39.427  30.895  31.932  1.00  0.00    -0.248 NA
ATOM     51  C   UNL A   1      37.974  31.198  30.129  1.00  0.00     0.031 C 
ATOM     52  C   UNL A   1      37.676  34.554  33.852  1.00  0.00     0.029 A 
ATOM     53  N   UNL A   1      39.204  32.934  34.063  1.00  0.00    -0.354 N 
ATOM     54  C   UNL A   1      39.659  29.911  30.977  1.00  0.00     0.074 A 
ATOM     55  C   UNL A   1      38.715  30.125  29.904  1.00  0.00     0.031 C 
ATOM     56  C   UNL A   1      38.330  34.759  35.010  1.00  0.00     0.029 A 
ATOM     57  C   UNL A   1      39.310  33.691  35.204  1.00  0.00     0.049 A 
ATOM     58  H   UNL A   1      39.782  32.159  33.874  1.00  0.00     0.167 HD
ATOM     59  C   UNL A   1      40.583  28.923  30.991  1.00  0.00     0.037 A 
ATOM     60  C   UNL A   1      40.094  33.522  36.288  1.00  0.00     0.037 A 
ATOM     61  C   UNL A   1      41.509  28.712  32.072  1.00  0.00     0.049 A 
ATOM     62  C   UNL A   1      41.058  32.362  36.321  1.00  0.00     0.074 A 
ATOM     63  C   UNL A   1      42.488  27.742  32.189  1.00  0.00     0.029 A 
ATOM     64  N   UNL A   1      41.563  29.479  33.227  1.00  0.00    -0.354 N 
ATOM     65  N   UNL A   1      41.282  31.445  35.408  1.00  0.00    -0.248 NA
ATOM     66  C   UNL A   1      41.879  32.212  37.532  1.00  0.00     0.031 C 
ATOM     67  C   UNL A   1      43.095  27.886  33.440  1.00  0.00     0.029 A 
ATOM     68  C   UNL A   1      42.541  28.987  34.075  1.00  0.00     0.049 A 
ATOM     69  H   UNL A   1      40.991  30.258  33.416  1.00  0.00     0.167 HD
ATOM     70  C   UNL A   1      42.292  30.634  35.918  1.00  0.00     0.074 A 
ATOM     71  C   UNL A   1      42.640  31.171  37.217  1.00  0.00     0.031 C 
ATOM     72  C   UNL A   1      42.881  29.544  35.361  1.00  0.00     0.037 A 
BRANCH  59  73
ATOM     73  C   UNL A   1      40.609  27.979  29.823  1.00  0.00     0.058 A 
ATOM     74  C   UNL A   1      39.651  26.963  29.668  1.00  0.00     0.135 A 
ATOM     75  C   UNL A   1      41.594  28.103  28.831  1.00  0.00     0.135 A 
ATOM     76  F   UNL A   1      38.702  26.781  30.601  1.00  0.00    -0.206 F 
ATOM     77  C   UNL A   1      39.685  26.090  28.586  1.00  0.00     0.059 A 
ATOM     78  C   UNL A   1      41.630  27.261  27.724  1.00  0.00     0.059 A 
ATOM     79  F   UNL A   1      42.540  29.050  28.933  1.00  0.00    -0.206 F 
ATOM     80  C   UNL A   1      40.677  26.248  27.617  1.00  0.00     0.060 A 
BRANCH  80  81
ATOM     81  S   UNL A   1      40.700  25.114  26.214  1.00  0.00     0.124 S 
ATOM     82  O   UNL A   1      41.669  24.116  26.662  1.00  0.00    -0.237 OA
ATOM     83  O   UNL A   1      39.313  24.667  26.153  1.00  0.00    -0.237 OA
ATOM     84  O   UNL A   1      41.136  25.954  25.103  1.00  0.00    -0.744 OA
ENDBRANCH  80  81
ENDBRANCH  59  73
BRANCH  60  85
ATOM     85  C   UNL A   1      39.993  34.462  37.439  1.00  0.00     0.058 A 
ATOM     86  C   UNL A   1      39.071  34.249  38.474  1.00  0.00     0.135 A 
ATOM     87  C   UNL A   1      40.812  35.599  37.520  1.00  0.00     0.135 A 
ATOM     88  F   UNL A   1      38.257  33.183  38.438  1.00  0.00    -0.206 F 
ATOM     89  C   UNL A   1      38.952  35.137  39.539  1.00  0.00     0.059 A 
ATOM     90  C   UNL A   1      40.731  36.486  38.590  1.00  0.00     0.059 A 
ATOM     91  F   UNL A   1      41.715  35.849  36.559  1.00  0.00    -0.206 F 
ATOM     92  C   UNL A   1      39.789  36.253  39.589  1.00  0.00     0.060 A 
BRANCH  92  93
ATOM     93  S   UNL A   1      39.648  37.379  40.995  1.00  0.00     0.124 S 
ATOM     94  O   UNL A   1      41.019  37.861  41.123  1.00  0.00    -0.237 OA
ATOM     95  O   UNL A   1      38.673  38.351  40.510  1.00  0.00    -0.237 OA
ATOM     96  O   UNL A   1      39.181  36.515  42.074  1.00  0.00    -0.744 OA
ENDBRANCH  92  93
ENDBRANCH  60  85
BRANCH  72  97
ATOM     97  C   UNL A   1      43.995  28.885  36.129  1.00  0.00     0.058 A 
ATOM     98  C   UNL A   1      45.309  29.378  36.103  1.00  0.00     0.135 A 
ATOM     99  C   UNL A   1      43.728  27.780  36.955  1.00  0.00     0.135 A 
ATOM    100  F   UNL A   1      45.622  30.429  35.328  1.00  0.00    -0.206 F 
ATOM    101  C   UNL A   1      46.323  28.784  36.850  1.00  0.00     0.059 A 
ATOM    102  C   UNL A   1      44.718  27.192  37.735  1.00  0.00     0.059 A 
ATOM    103  F   UNL A   1      42.485  27.276  37.029  1.00  0.00    -0.206 F 
ATOM    104  C   UNL A   1      46.016  27.694  37.666  1.00  0.00     0.060 A 
BRANCH 104 105
ATOM    105  S   UNL A   1      47.333  26.958  38.655  1.00  0.00     0.124 S 
ATOM    106  O   UNL A   1      48.050  28.141  39.118  1.00  0.00    -0.237 OA
ATOM    107  O   UNL A   1      46.586  26.229  39.676  1.00  0.00    -0.237 OA
ATOM    108  O   UNL A   1      48.054  26.122  37.698  1.00  0.00    -0.744 OA
ENDBRANCH 104 105
ENDBRANCH  72  97
ENDBRANCH  46  47
ENDBRANCH  39  41
ENDBRANCH  38  39
ENDBRANCH  37  38
ENDBRANCH  36  37
ENDBRANCH  35  36
ENDBRANCH  34  35
ENDBRANCH  33  34
ENDBRANCH   1  33
TORSDOF 26
ENDMDL
MODEL 2
REMARK VINA RESULT:      -9.8      5.494      9.083
REMARK SMILES Cc1noc(C)c1CCC(=O)N1CCC2(CC1)NC(=O)C[C@@H]2C(=O)OCCOCCOCCOCCOC(=O)c1ccc(-c2c3nc(c(-c4c(F)cc(S(=O)(=O)[O-])cc4F)c4ccc([nH]4)c(-c4c(F)cc(S(=O)(=O)[O-])cc4F)c4nc(c(-c5c(F)cc(S(=O)(=O)[O-])cc5F)c5ccc2[nH]5)C=C4)C=C3)cc1
REMARK SMILES IDX 31 1 30 2 29 3 28 4 27 5 26 6 25 7 23 8 24 9 22 10 10 11
REMARK SMILES IDX 11 12 12 13 13 14 17 15 14 16 16 17 15 18 18 19 19 20 21 22
REMARK SMILES IDX 20 23 9 24 8 25 7 26 1 27 2 28 3 29 4 30 5 31 6 32 32 33
REMARK SMILES IDX 33 34 34 35 35 36 36 37 37 38 38 39 39 40 40 41 41 42 105 43
REMARK SMILES IDX 42 44 104 45 43 46 44 47 45 48 98 49 46 50 103 51 97 52
REMARK SMILES IDX 99 53 47 54 102 55 96 56 95 57 48 59 82 60 61 61 81 62 62 63
REMARK SMILES IDX 65 64 80 65 100 66 63 67 64 68 79 70 101 71 66 72 49 73
REMARK SMILES IDX 50 74 59 75 51 76 52 77 58 78 60 79 53 80 54 81 55 82 56 83
REMARK SMILES IDX 57 84 83 85 84 86 93 87 85 88 86 89 92 90 94 91 87 92 88 93
REMARK SMILES IDX 89 94 90 95 91 96 67 97 68 98 77 99 69 100 70 101 76 102
REMARK SMILES IDX 78 103 71 104 72 105 73 106 74 107 75 108
REMARK H PARENT 18 21 99 58 65 69
REMARK Flexibility Score: inf
ROOT
ATOM      1  O   UNL A   1      33.321  29.771  26.677  1.00  0.00    -0.377 OA
ENDROOT
BRANCH   1   2
ATOM      2  C   UNL A   1      32.002  29.695  26.181  1.00  0.00     0.188 C 
BRANCH   2   3
ATOM      3  C   UNL A   1      31.875  28.977  24.829  1.00  0.00     0.188 C 
BRANCH   3   4
ATOM      4  O   UNL A   1      30.634  28.393  24.454  1.00  0.00    -0.376 OA
BRANCH   4   5
ATOM      5  C   UNL A   1      30.463  27.875  23.141  1.00  0.00     0.202 C 
BRANCH   5   6
ATOM      6  C   UNL A   1      31.094  26.528  22.732  1.00  0.00     0.261 C 
BRANCH   6   7
ATOM      7  O   UNL A   1      31.075  25.470  23.719  1.00  0.00    -0.463 OA
BRANCH   7   8
ATOM      8  C   UNL A   1      32.243  25.145  24.306  1.00  0.00     0.311 C 
ATOM      9  O   UNL A   1      33.332  25.545  23.902  1.00  0.00    -0.252 OA
BRANCH   8  10
ATOM     10  C   UNL A   1      32.149  24.319  25.588  1.00  0.00     0.134 C 
ATOM     11  C   UNL A   1      36.374  22.843  24.150  1.00  0.00     0.222 C 
ATOM     12  O   UNL A   1      36.490  22.935  22.929  1.00  0.00    -0.275 OA
ATOM     13  N   UNL A   1      35.161  22.486  24.757  1.00  0.00    -0.343 N 
ATOM     14  C   UNL A   1      34.063  22.110  23.870  1.00  0.00     0.122 C 
ATOM     15  C   UNL A   1      34.862  22.986  26.077  1.00  0.00     0.122 C 
ATOM     16  C   UNL A   1      32.731  21.846  24.566  1.00  0.00     0.051 C 
ATOM     17  C   UNL A   1      33.577  22.549  26.721  1.00  0.00     0.051 C 
ATOM     18  C   UNL A   1      32.410  22.777  25.748  1.00  0.00     0.057 C 
ATOM     19  N   UNL A   1      31.220  22.302  26.439  1.00  0.00    -0.350 N 
ATOM     20  C   UNL A   1      30.360  23.281  26.849  1.00  0.00     0.221 C 
ATOM     21  H   UNL A   1      31.049  21.345  26.599  1.00  0.00     0.164 HD
ATOM     22  C   UNL A   1      30.775  24.581  26.244  1.00  0.00     0.117 C 
ATOM     23  O   UNL A   1      29.394  23.100  27.571  1.00  0.00    -0.275 OA
BRANCH  11  24
ATOM     24  C   UNL A   1      37.575  23.092  25.058  1.00  0.00     0.105 C 
BRANCH  24  25
ATOM     25  C   UNL A   1      38.193  21.872  25.747  1.00  0.00     0.051 C 
BRANCH  25  26
ATOM     26  C   UNL A   1      39.517  22.041  26.429  1.00  0.00     0.018 A 
ATOM     27  C   UNL A   1      39.210  24.409  27.517  1.00  0.00     0.071 C 
ATOM     28  C   UNL A   1      39.960  23.175  27.181  1.00  0.00     0.084 A 
ATOM     29  N   UNL A   1      41.185  22.985  27.682  1.00  0.00    -0.085 NA
ATOM     30  O   UNL A   1      41.568  21.726  27.280  1.00  0.00    -0.361 OA
ATOM     31  C   UNL A   1      40.577  21.155  26.545  1.00  0.00     0.137 A 
ATOM     32  C   UNL A   1      40.829  19.756  26.146  1.00  0.00     0.091 C 
ENDBRANCH  25  26
ENDBRANCH  24  25
ENDBRANCH  11  24
ENDBRANCH   8  10
ENDBRANCH   7   8
ENDBRANCH   6   7
ENDBRANCH   5   6
ENDBRANCH   4   5
ENDBRANCH   3   4
ENDBRANCH   2   3
ENDBRANCH   1   2
BRANCH   1  33
ATOM     33  C   UNL A   1      33.616  30.845  27.554  1.00  0.00     0.188 C 
BRANCH  33  34
ATOM     34  C   UNL A   1      35.064  31.365  27.631  1.00  0.00     0.188 C 
BRANCH  34  35
ATOM     35  O   UNL A   1      35.187  32.781  27.692  1.00  0.00    -0.376 OA
BRANCH  35  36
ATOM     36  C   UNL A   1      34.207  33.551  28.370  1.00  0.00     0.202 C 
BRANCH  36  37
ATOM     37  C   UNL A   1      34.344  33.749  29.891  1.00  0.00     0.261 C 
BRANCH  37  38
ATOM     38  O   UNL A   1      34.299  32.568  30.697  1.00  0.00    -0.460 OA
BRANCH  38  39
ATOM     39  C   UNL A   1      34.806  32.662  31.949  1.00  0.00     0.338 C 
ATOM     40  O   UNL A   1      34.190  32.842  32.976  1.00  0.00    -0.246 OA
BRANCH  39  41
ATOM     41  C   UNL A   1      36.240  32.311  31.867  1.00  0.00     0.060 A 
ATOM     42  C   UNL A   1      37.116  32.837  32.825  1.00  0.00     0.016 A 
ATOM     43  C   UNL A   1      36.706  31.447  30.872  1.00  0.00     0.016 A 
ATOM     44  C   UNL A   1      38.473  32.522  32.773  1.00  0.00     0.010 A 
ATOM     45  C   UNL A   1      38.071  31.161  30.800  1.00  0.00     0.010 A 
ATOM     46  C   UNL A   1      38.961  31.726  31.730  1.00  0.00    -0.014 A 
BRANCH  46  47
ATOM     47  C   UNL A   1      40.418  31.689  31.471  1.00  0.00     0.031 A 
ATOM     48  C   UNL A   1      41.020  32.844  30.717  1.00  0.00     0.074 A 
ATOM     49  C   UNL A   1      41.188  30.680  31.913  1.00  0.00     0.049 A 
ATOM     50  N   UNL A   1      42.253  33.028  30.327  1.00  0.00    -0.248 NA
ATOM     51  C   UNL A   1      40.102  33.938  30.356  1.00  0.00     0.031 C 
ATOM     52  C   UNL A   1      40.720  29.538  32.696  1.00  0.00     0.029 A 
ATOM     53  N   UNL A   1      42.532  30.453  31.754  1.00  0.00    -0.354 N 
ATOM     54  C   UNL A   1      42.258  34.255  29.672  1.00  0.00     0.074 A 
ATOM     55  C   UNL A   1      40.903  34.755  29.690  1.00  0.00     0.031 C 
ATOM     56  C   UNL A   1      41.761  28.721  32.938  1.00  0.00     0.029 A 
ATOM     57  C   UNL A   1      42.958  29.266  32.298  1.00  0.00     0.049 A 
ATOM     58  H   UNL A   1      43.133  31.083  31.295  1.00  0.00     0.167 HD
ATOM     59  C   UNL A   1      43.303  34.909  29.114  1.00  0.00     0.037 A 
ATOM     60  C   UNL A   1      44.172  28.680  32.258  1.00  0.00     0.037 A 
ATOM     61  C   UNL A   1      44.646  34.395  29.091  1.00  0.00     0.049 A 
ATOM     62  C   UNL A   1      45.305  29.387  31.555  1.00  0.00     0.074 A 
ATOM     63  C   UNL A   1      45.780  34.975  28.553  1.00  0.00     0.029 A 
ATOM     64  N   UNL A   1      45.033  33.172  29.621  1.00  0.00    -0.354 N 
ATOM     65  N   UNL A   1      45.305  30.554  30.952  1.00  0.00    -0.248 NA
ATOM     66  C   UNL A   1      46.604  28.700  31.527  1.00  0.00     0.031 C 
ATOM     67  C   UNL A   1      46.842  34.078  28.706  1.00  0.00     0.029 A 
ATOM     68  C   UNL A   1      46.385  32.967  29.399  1.00  0.00     0.049 A 
ATOM     69  H   UNL A   1      44.436  32.543  30.087  1.00  0.00     0.167 HD
ATOM     70  C   UNL A   1      46.608  30.755  30.506  1.00  0.00     0.074 A 
ATOM     71  C   UNL A   1      47.370  29.594  30.913  1.00  0.00     0.031 C 
ATOM     72  C   UNL A   1      47.129  31.807  29.823  1.00  0.00     0.037 A 
BRANCH  59  73
ATOM     73  C   UNL A   1      43.023  36.230  28.454  1.00  0.00     0.058 A 
ATOM     74  C   UNL A   1      42.507  36.313  27.150  1.00  0.00     0.135 A 
ATOM     75  C   UNL A   1      43.256  37.431  29.142  1.00  0.00     0.135 A 
ATOM     76  F   UNL A   1      42.291  35.196  26.436  1.00  0.00    -0.206 F 
ATOM     77  C   UNL A   1      42.256  37.540  26.544  1.00  0.00     0.059 A 
ATOM     78  C   UNL A   1      42.982  38.669  28.568  1.00  0.00     0.059 A 
ATOM     79  F   UNL A   1      43.756  37.411  30.387  1.00  0.00    -0.206 F 
ATOM     80  C   UNL A   1      42.495  38.713  27.262  1.00  0.00     0.060 A 
BRANCH  80  81
ATOM     81  S   UNL A   1      42.153  40.295  26.466  1.00  0.00     0.124 S 
ATOM     82  O   UNL A   1      42.048  41.185  27.619  1.00  0.00    -0.237 OA
ATOM     83  O   UNL A   1      43.332  40.482  25.627  1.00  0.00    -0.237 OA
ATOM     84  O   UNL A   1      40.907  40.053  25.746  1.00  0.00    -0.744 OA
ENDBRANCH  80  81
ENDBRANCH  59  73
BRANCH  60  85
ATOM     85  C   UNL A   1      44.381  27.348  32.890  1.00  0.00     0.058 A 
ATOM     86  C   UNL A   1      44.776  27.231  34.230  1.00  0.00     0.135 A 
ATOM     87  C   UNL A   1      44.199  26.162  32.159  1.00  0.00     0.135 A 
ATOM     88  F   UNL A   1      44.977  28.334  34.968  1.00  0.00    -0.206 F 
ATOM     89  C   UNL A   1      45.000  25.990  34.820  1.00  0.00     0.059 A 
ATOM     90  C   UNL A   1      44.388  24.909  32.735  1.00  0.00     0.059 A 
ATOM     91  F   UNL A   1      43.816  26.215  30.874  1.00  0.00    -0.206 F 
ATOM     92  C   UNL A   1      44.801  24.834  34.064  1.00  0.00     0.060 A 
BRANCH  92  93
ATOM     93  S   UNL A   1      45.061  23.229  34.851  1.00  0.00     0.124 S 
ATOM     94  O   UNL A   1      44.867  22.317  33.729  1.00  0.00    -0.237 OA
ATOM     95  O   UNL A   1      46.428  23.349  35.347  1.00  0.00    -0.237 OA
ATOM     96  O   UNL A   1      44.028  23.187  35.882  1.00  0.00    -0.744 OA
ENDBRANCH  92  93
ENDBRANCH  60  85
BRANCH  72  97
ATOM     97  C   UNL A   1      48.601  31.778  29.513  1.00  0.00     0.058 A 
ATOM     98  C   UNL A   1      49.561  32.267  30.412  1.00  0.00     0.135 A 
ATOM     99  C   UNL A   1      49.061  31.189  28.322  1.00  0.00     0.135 A 
ATOM    100  F   UNL A   1      49.178  32.842  31.564  1.00  0.00    -0.206 F 
ATOM    101  C   UNL A   1      50.923  32.196  30.132  1.00  0.00     0.059 A 
ATOM    102  C   UNL A   1      50.417  31.079  28.037  1.00  0.00     0.059 A 
ATOM    103  F   UNL A   1      48.187  30.692  27.432  1.00  0.00    -0.206 F 
ATOM    104  C   UNL A   1      51.341  31.597  28.943  1.00  0.00     0.060 A 
BRANCH 104 105
ATOM    105  S   UNL A   1      53.110  31.480  28.610  1.00  0.00     0.124 S 
ATOM    106  O   UNL A   1      53.492  30.342  29.440  1.00  0.00    -0.237 OA
ATOM    107  O   UNL A   1      53.143  31.253  27.168  1.00  0.00    -0.237 OA
ATOM    108  O   UNL A   1      53.626  32.775  29.047  1.00  0.00    -0.744 OA
ENDBRANCH 104 105
ENDBRANCH  72  97
ENDBRANCH  46  47
ENDBRANCH  39  41
ENDBRANCH  38  39
ENDBRANCH  37  38
ENDBRANCH  36  37
ENDBRANCH  35  36
ENDBRANCH  34  35
ENDBRANCH  33  34
ENDBRANCH   1  33
TORSDOF 26
ENDMDL
MODEL 3
REMARK VINA RESULT:      -9.3      2.262      8.610
REMARK SMILES Cc1noc(C)c1CCC(=O)N1CCC2(CC1)NC(=O)C[C@@H]2C(=O)OCCOCCOCCOCCOC(=O)c1ccc(-c2c3nc(c(-c4c(F)cc(S(=O)(=O)[O-])cc4F)c4ccc([nH]4)c(-c4c(F)cc(S(=O)(=O)[O-])cc4F)c4nc(c(-c5c(F)cc(S(=O)(=O)[O-])cc5F)c5ccc2[nH]5)C=C4)C=C3)cc1
REMARK SMILES IDX 31 1 30 2 29 3 28 4 27 5 26 6 25 7 23 8 24 9 22 10 10 11
REMARK SMILES IDX 11 12 12 13 13 14 17 15 14 16 16 17 15 18 18 19 19 20 21 22
REMARK SMILES IDX 20 23 9 24 8 25 7 26 1 27 2 28 3 29 4 30 5 31 6 32 32 33
REMARK SMILES IDX 33 34 34 35 35 36 36 37 37 38 38 39 39 40 40 41 41 42 105 43
REMARK SMILES IDX 42 44 104 45 43 46 44 47 45 48 98 49 46 50 103 51 97 52
REMARK SMILES IDX 99 53 47 54 102 55 96 56 95 57 48 59 82 60 61 61 81 62 62 63
REMARK SMILES IDX 65 64 80 65 100 66 63 67 64 68 79 70 101 71 66 72 49 73
REMARK SMILES IDX 50 74 59 75 51 76 52 77 58 78 60 79 53 80 54 81 55 82 56 83
REMARK SMILES IDX 57 84 83 85 84 86 93 87 85 88 86 89 92 90 94 91 87 92 88 93
REMARK SMILES IDX 89 94 90 95 91 96 67 97 68 98 77 99 69 100 70 101 76 102
REMARK SMILES IDX 78 103 71 104 72 105 73 106 74 107 75 108
REMARK H PARENT 18 21 99 58 65 69
REMARK Flexibility Score: inf
ROOT
ATOM      1  O   UNL A   1      37.662  22.866  25.720  1.00  0.00    -0.377 OA
ENDROOT
BRANCH   1   2
ATOM      2  C   UNL A   1      36.639  23.201  24.808  1.00  0.00     0.188 C 
BRANCH   2   3
ATOM      3  C   UNL A   1      35.241  23.306  25.438  1.00  0.00     0.188 C 
BRANCH   3   4
ATOM      4  O   UNL A   1      34.856  24.501  26.104  1.00  0.00    -0.376 OA
BRANCH   4   5
ATOM      5  C   UNL A   1      34.237  25.552  25.373  1.00  0.00     0.202 C 
BRANCH   5   6
ATOM      6  C   UNL A   1      33.628  26.770  26.098  1.00  0.00     0.261 C 
BRANCH   6   7
ATOM      7  O   UNL A   1      33.802  28.060  25.469  1.00  0.00    -0.463 OA
BRANCH   7   8
ATOM      8  C   UNL A   1      33.268  28.234  24.244  1.00  0.00     0.311 C 
ATOM      9  O   UNL A   1      33.946  28.381  23.230  1.00  0.00    -0.252 OA
BRANCH   8  10
ATOM     10  C   UNL A   1      31.746  28.137  24.150  1.00  0.00     0.134 C 
ATOM     11  C   UNL A   1      32.783  23.789  22.696  1.00  0.00     0.222 C 
ATOM     12  O   UNL A   1      33.904  23.741  22.189  1.00  0.00    -0.275 OA
ATOM     13  N   UNL A   1      31.943  24.900  22.535  1.00  0.00    -0.343 N 
ATOM     14  C   UNL A   1      32.406  25.956  21.639  1.00  0.00     0.122 C 
ATOM     15  C   UNL A   1      30.999  25.224  23.578  1.00  0.00     0.122 C 
ATOM     16  C   UNL A   1      31.518  27.197  21.588  1.00  0.00     0.051 C 
ATOM     17  C   UNL A   1      30.079  26.391  23.358  1.00  0.00     0.051 C 
ATOM     18  C   UNL A   1      30.899  27.618  22.932  1.00  0.00     0.057 C 
ATOM     19  N   UNL A   1      29.930  28.683  22.714  1.00  0.00    -0.350 N 
ATOM     20  C   UNL A   1      29.942  29.676  23.653  1.00  0.00     0.221 C 
ATOM     21  H   UNL A   1      29.312  28.687  21.948  1.00  0.00     0.164 HD
ATOM     22  C   UNL A   1      31.140  29.507  24.528  1.00  0.00     0.117 C 
ATOM     23  O   UNL A   1      29.115  30.568  23.732  1.00  0.00    -0.275 OA
BRANCH  11  24
ATOM     24  C   UNL A   1      32.253  22.609  23.506  1.00  0.00     0.105 C 
BRANCH  24  25
ATOM     25  C   UNL A   1      32.509  21.207  22.945  1.00  0.00     0.051 C 
BRANCH  25  26
ATOM     26  C   UNL A   1      32.436  20.045  23.889  1.00  0.00     0.018 A 
ATOM     27  C   UNL A   1      32.262  18.047  22.196  1.00  0.00     0.071 C 
ATOM     28  C   UNL A   1      32.300  18.663  23.544  1.00  0.00     0.084 A 
ATOM     29  N   UNL A   1      32.299  17.884  24.631  1.00  0.00    -0.085 NA
ATOM     30  O   UNL A   1      32.442  18.731  25.706  1.00  0.00    -0.361 OA
ATOM     31  C   UNL A   1      32.536  20.016  25.271  1.00  0.00     0.137 A 
ATOM     32  C   UNL A   1      32.801  21.010  26.330  1.00  0.00     0.091 C 
ENDBRANCH  25  26
ENDBRANCH  24  25
ENDBRANCH  11  24
ENDBRANCH   8  10
ENDBRANCH   7   8
ENDBRANCH   6   7
ENDBRANCH   5   6
ENDBRANCH   4   5
ENDBRANCH   3   4
ENDBRANCH   2   3
ENDBRANCH   1   2
BRANCH   1  33
ATOM     33  C   UNL A   1      38.614  23.874  26.015  1.00  0.00     0.188 C 
BRANCH  33  34
ATOM     34  C   UNL A   1      38.602  24.519  27.414  1.00  0.00     0.188 C 
BRANCH  34  35
ATOM     35  O   UNL A   1      39.758  25.288  27.726  1.00  0.00    -0.376 OA
BRANCH  35  36
ATOM     36  C   UNL A   1      40.167  26.338  26.864  1.00  0.00     0.202 C 
BRANCH  36  37
ATOM     37  C   UNL A   1      41.409  26.127  25.979  1.00  0.00     0.261 C 
BRANCH  37  38
ATOM     38  O   UNL A   1      42.485  25.380  26.554  1.00  0.00    -0.460 OA
BRANCH  38  39
ATOM     39  C   UNL A   1      43.681  26.005  26.652  1.00  0.00     0.338 C 
ATOM     40  O   UNL A   1      44.568  26.020  25.827  1.00  0.00    -0.246 OA
BRANCH  39  41
ATOM     41  C   UNL A   1      43.642  26.834  27.875  1.00  0.00     0.060 A 
ATOM     42  C   UNL A   1      43.160  26.262  29.060  1.00  0.00     0.016 A 
ATOM     43  C   UNL A   1      44.105  28.152  27.856  1.00  0.00     0.016 A 
ATOM     44  C   UNL A   1      43.114  27.020  30.228  1.00  0.00     0.010 A 
ATOM     45  C   UNL A   1      44.024  28.922  29.018  1.00  0.00     0.010 A 
ATOM     46  C   UNL A   1      43.496  28.367  30.198  1.00  0.00    -0.014 A 
BRANCH  46  47
ATOM     47  C   UNL A   1      43.114  29.251  31.321  1.00  0.00     0.031 A 
ATOM     48  C   UNL A   1      41.834  30.031  31.189  1.00  0.00     0.074 A 
ATOM     49  C   UNL A   1      43.862  29.340  32.435  1.00  0.00     0.049 A 
ATOM     50  N   UNL A   1      41.304  30.902  32.006  1.00  0.00    -0.248 NA
ATOM     51  C   UNL A   1      41.047  29.793  29.967  1.00  0.00     0.031 C 
ATOM     52  C   UNL A   1      45.091  28.593  32.691  1.00  0.00     0.029 A 
ATOM     53  N   UNL A   1      43.695  30.111  33.557  1.00  0.00    -0.354 N 
ATOM     54  C   UNL A   1      40.126  31.317  31.396  1.00  0.00     0.074 A 
ATOM     55  C   UNL A   1      40.034  30.629  30.129  1.00  0.00     0.031 C 
ATOM     56  C   UNL A   1      45.577  28.954  33.893  1.00  0.00     0.029 A 
ATOM     57  C   UNL A   1      44.711  29.981  34.472  1.00  0.00     0.049 A 
ATOM     58  H   UNL A   1      42.918  30.701  33.694  1.00  0.00     0.167 HD
ATOM     59  C   UNL A   1      39.199  32.189  31.857  1.00  0.00     0.037 A 
ATOM     60  C   UNL A   1      44.926  30.637  35.630  1.00  0.00     0.037 A 
ATOM     61  C   UNL A   1      39.308  32.879  33.114  1.00  0.00     0.049 A 
ATOM     62  C   UNL A   1      43.923  31.669  36.085  1.00  0.00     0.074 A 
ATOM     63  C   UNL A   1      38.427  33.783  33.679  1.00  0.00     0.029 A 
ATOM     64  N   UNL A   1      40.370  32.747  33.998  1.00  0.00    -0.354 N 
ATOM     65  N   UNL A   1      42.804  32.045  35.509  1.00  0.00    -0.248 NA
ATOM     66  C   UNL A   1      44.209  32.367  37.346  1.00  0.00     0.031 C 
ATOM     67  C   UNL A   1      38.983  34.242  34.876  1.00  0.00     0.029 A 
ATOM     68  C   UNL A   1      40.179  33.575  35.092  1.00  0.00     0.049 A 
ATOM     69  H   UNL A   1      41.144  32.154  33.867  1.00  0.00     0.167 HD
ATOM     70  C   UNL A   1      42.237  32.994  36.355  1.00  0.00     0.074 A 
ATOM     71  C   UNL A   1      43.133  33.131  37.484  1.00  0.00     0.031 C 
ATOM     72  C   UNL A   1      41.079  33.689  36.213  1.00  0.00     0.037 A 
BRANCH  59  73
ATOM     73  C   UNL A   1      38.012  32.470  30.979  1.00  0.00     0.058 A 
ATOM     74  C   UNL A   1      38.043  33.462  29.984  1.00  0.00     0.135 A 
ATOM     75  C   UNL A   1      36.832  31.724  31.120  1.00  0.00     0.135 A 
ATOM     76  F   UNL A   1      39.137  34.223  29.823  1.00  0.00    -0.206 F 
ATOM     77  C   UNL A   1      36.939  33.718  29.178  1.00  0.00     0.059 A 
ATOM     78  C   UNL A   1      35.725  31.942  30.305  1.00  0.00     0.059 A 
ATOM     79  F   UNL A   1      36.744  30.770  32.060  1.00  0.00    -0.206 F 
ATOM     80  C   UNL A   1      35.784  32.952  29.346  1.00  0.00     0.060 A 
BRANCH  80  81
ATOM     81  S   UNL A   1      34.364  33.291  28.286  1.00  0.00     0.124 S 
ATOM     82  O   UNL A   1      34.105  31.972  27.714  1.00  0.00    -0.237 OA
ATOM     83  O   UNL A   1      33.372  33.773  29.240  1.00  0.00    -0.237 OA
ATOM     84  O   UNL A   1      34.868  34.291  27.349  1.00  0.00    -0.744 OA
ENDBRANCH  80  81
ENDBRANCH  59  73
BRANCH  60  85
ATOM     85  C   UNL A   1      46.144  30.352  36.438  1.00  0.00     0.058 A 
ATOM     86  C   UNL A   1      46.134  29.385  37.453  1.00  0.00     0.135 A 
ATOM     87  C   UNL A   1      47.342  31.050  36.215  1.00  0.00     0.135 A 
ATOM     88  F   UNL A   1      45.011  28.698  37.715  1.00  0.00    -0.206 F 
ATOM     89  C   UNL A   1      47.261  29.132  38.230  1.00  0.00     0.059 A 
ATOM     90  C   UNL A   1      48.490  30.794  36.960  1.00  0.00     0.059 A 
ATOM     91  F   UNL A   1      47.408  31.983  35.252  1.00  0.00    -0.206 F 
ATOM     92  C   UNL A   1      48.435  29.840  37.974  1.00  0.00     0.060 A 
BRANCH  92  93
ATOM     93  S   UNL A   1      49.901  29.477  38.967  1.00  0.00     0.124 S 
ATOM     94  O   UNL A   1      50.080  30.729  39.695  1.00  0.00    -0.237 OA
ATOM     95  O   UNL A   1      49.457  28.336  39.760  1.00  0.00    -0.237 OA
ATOM     96  O   UNL A   1      50.921  29.179  37.966  1.00  0.00    -0.744 OA
ENDBRANCH  92  93
ENDBRANCH  60  85
BRANCH  72  97
ATOM     97  C   UNL A   1      40.686  34.625  37.324  1.00  0.00     0.058 A 
ATOM     98  C   UNL A   1      40.979  35.996  37.280  1.00  0.00     0.135 A 
ATOM     99  C   UNL A   1      39.944  34.150  38.419  1.00  0.00     0.135 A 
ATOM    100  F   UNL A   1      41.689  36.504  36.259  1.00  0.00    -0.206 F 
ATOM    101  C   UNL A   1      40.574  36.860  38.294  1.00  0.00     0.059 A 
ATOM    102  C   UNL A   1      39.500  34.999  39.427  1.00  0.00     0.059 A 
ATOM    103  F   UNL A   1      39.623  32.849  38.505  1.00  0.00    -0.206 F 
ATOM    104  C   UNL A   1      39.831  36.351  39.362  1.00  0.00     0.060 A 
BRANCH 104 105
ATOM    105  S   UNL A   1      39.282  37.489  40.650  1.00  0.00     0.124 S 
ATOM    106  O   UNL A   1      38.844  36.565  41.692  1.00  0.00    -0.237 OA
ATOM    107  O   UNL A   1      40.498  38.243  40.941  1.00  0.00    -0.237 OA
ATOM    108  O   UNL A   1      38.218  38.251  40.001  1.00  0.00    -0.744 OA
ENDBRANCH 104 105
ENDBRANCH  72  97
ENDBRANCH  46  47
ENDBRANCH  39  41
ENDBRANCH  38  39
ENDBRANCH  37  38
ENDBRANCH  36  37
ENDBRANCH  35  36
ENDBRANCH  34  35
ENDBRANCH  33  34
ENDBRANCH   1  33
TORSDOF 26
ENDMDL
