MODEL 1
REMARK VINA RESULT:      -9.9      0.000      0.000
REMARK SMILES C[C@H](Nc1ncccc1C(=O)OCCOCCOCCOCCOC(=O)c1ccc(-c2c3nc(c(-c4c(F)cc(S(=O)(=O)[O-])cc4F)c4ccc([nH]4)c(-c4c(F)cc(S(=O)(=O)[O-])cc4F)c4nc(c(-c5c(F)cc(S(=O)(=O)[O-])cc5F)c5ccc2[nH]5)C=C4)C=C3)cc1)c1ccc(Cl)cc1
REMARK SMILES IDX 18 1 17 2 16 3 15 4 14 5 13 6 12 7 10 8 11 9 9 10 4 11 5 12
REMARK SMILES IDX 6 13 8 14 7 15 3 16 2 18 1 19 93 20 94 21 99 22 95 23 98 24
REMARK SMILES IDX 96 25 97 26 19 27 20 28 21 29 22 30 23 31 24 32 25 33 26 34
REMARK SMILES IDX 27 35 28 36 92 37 29 38 91 39 30 40 31 41 32 42 85 43 33 44
REMARK SMILES IDX 90 45 84 46 86 47 34 48 89 49 83 50 82 51 35 53 69 54 48 55
REMARK SMILES IDX 68 56 49 57 52 58 67 59 87 60 50 61 51 62 66 64 88 65 53 66
REMARK SMILES IDX 36 67 37 68 46 69 38 70 39 71 45 72 47 73 40 74 41 75 42 76
REMARK SMILES IDX 43 77 44 78 70 79 71 80 80 81 72 82 73 83 79 84 81 85 74 86
REMARK SMILES IDX 75 87 76 88 77 89 78 90 54 91 55 92 64 93 56 94 57 95 63 96
REMARK SMILES IDX 65 97 58 98 59 99 60 100 61 101 62 102
REMARK H PARENT 3 17 86 52 52 63
REMARK Flexibility Score: inf
ROOT
ATOM      1  O   UNL A   1      41.232  20.653  27.301  1.00  0.00    -0.377 OA
ENDROOT
BRANCH   1   2
ATOM      2  C   UNL A   1      40.136  20.458  26.420  1.00  0.00     0.188 C 
BRANCH   2   3
ATOM      3  C   UNL A   1      39.351  21.662  25.870  1.00  0.00     0.188 C 
BRANCH   3   4
ATOM      4  O   UNL A   1      37.943  21.485  25.813  1.00  0.00    -0.376 OA
BRANCH   4   5
ATOM      5  C   UNL A   1      37.328  22.180  24.730  1.00  0.00     0.202 C 
BRANCH   5   6
ATOM      6  C   UNL A   1      37.217  23.678  25.021  1.00  0.00     0.261 C 
BRANCH   6   7
ATOM      7  O   UNL A   1      35.878  24.131  25.321  1.00  0.00    -0.460 OA
BRANCH   7   8
ATOM      8  C   UNL A   1      34.901  24.015  24.382  1.00  0.00     0.341 C 
ATOM      9  O   UNL A   1      35.062  24.155  23.185  1.00  0.00    -0.246 OA
BRANCH   8  10
ATOM     10  C   UNL A   1      33.645  23.596  25.077  1.00  0.00     0.102 A 
ATOM     11  C   UNL A   1      32.927  22.431  24.763  1.00  0.00     0.141 A 
ATOM     12  N   UNL A   1      31.746  22.146  25.369  1.00  0.00    -0.239 NA
ATOM     13  C   UNL A   1      31.297  22.969  26.343  1.00  0.00     0.113 A 
ATOM     14  C   UNL A   1      33.136  24.434  26.090  1.00  0.00     0.021 A 
ATOM     15  C   UNL A   1      31.959  24.106  26.748  1.00  0.00     0.021 A 
BRANCH  11  16
ATOM     16  N   UNL A   1      33.336  21.398  23.925  1.00  0.00    -0.363 N 
ATOM     17  H   UNL A   1      34.267  21.327  23.613  1.00  0.00     0.162 HD
BRANCH  16  18
ATOM     18  C   UNL A   1      32.321  20.425  23.530  1.00  0.00     0.108 C 
ATOM     19  C   UNL A   1      32.018  20.476  22.029  1.00  0.00     0.036 C 
BRANCH  18  20
ATOM     20  C   UNL A   1      32.674  19.016  23.975  1.00  0.00    -0.026 A 
ATOM     21  C   UNL A   1      32.544  18.664  25.333  1.00  0.00     0.007 A 
ATOM     22  C   UNL A   1      33.062  18.020  23.066  1.00  0.00     0.007 A 
ATOM     23  C   UNL A   1      32.769  17.356  25.767  1.00  0.00     0.021 A 
ATOM     24  C   UNL A   1      33.292  16.710  23.502  1.00  0.00     0.021 A 
ATOM     25  C   UNL A   1      33.139  16.383  24.848  1.00  0.00     0.041 A 
ATOM     26  Cl  UNL A   1      33.399  14.765  25.374  1.00  0.00    -0.084 Cl
ENDBRANCH  18  20
ENDBRANCH  16  18
ENDBRANCH  11  16
ENDBRANCH   8  10
ENDBRANCH   7   8
ENDBRANCH   6   7
ENDBRANCH   5   6
ENDBRANCH   4   5
ENDBRANCH   3   4
ENDBRANCH   2   3
ENDBRANCH   1   2
BRANCH   1  27
ATOM     27  C   UNL A   1      41.292  21.880  28.007  1.00  0.00     0.188 C 
BRANCH  27  28
ATOM     28  C   UNL A   1      42.559  22.717  27.754  1.00  0.00     0.188 C 
BRANCH  28  29
ATOM     29  O   UNL A   1      43.150  22.478  26.474  1.00  0.00    -0.376 OA
BRANCH  29  30
ATOM     30  C   UNL A   1      44.082  23.448  26.015  1.00  0.00     0.202 C 
BRANCH  30  31
ATOM     31  C   UNL A   1      43.505  24.550  25.116  1.00  0.00     0.261 C 
BRANCH  31  32
ATOM     32  O   UNL A   1      43.256  25.810  25.756  1.00  0.00    -0.460 OA
BRANCH  32  33
ATOM     33  C   UNL A   1      41.977  26.230  25.872  1.00  0.00     0.338 C 
ATOM     34  O   UNL A   1      41.041  25.954  25.142  1.00  0.00    -0.246 OA
BRANCH  33  35
ATOM     35  C   UNL A   1      41.865  26.890  27.191  1.00  0.00     0.060 A 
ATOM     36  C   UNL A   1      41.036  26.317  28.167  1.00  0.00     0.016 A 
ATOM     37  C   UNL A   1      42.671  27.990  27.501  1.00  0.00     0.016 A 
ATOM     38  C   UNL A   1      41.009  26.849  29.456  1.00  0.00     0.010 A 
ATOM     39  C   UNL A   1      42.616  28.542  28.781  1.00  0.00     0.010 A 
ATOM     40  C   UNL A   1      41.766  27.990  29.753  1.00  0.00    -0.014 A 
BRANCH  40  41
ATOM     41  C   UNL A   1      41.473  28.761  30.981  1.00  0.00     0.031 A 
ATOM     42  C   UNL A   1      40.315  29.719  30.928  1.00  0.00     0.074 A 
ATOM     43  C   UNL A   1      42.207  28.634  32.100  1.00  0.00     0.049 A 
ATOM     44  N   UNL A   1      39.875  30.544  31.837  1.00  0.00    -0.248 NA
ATOM     45  C   UNL A   1      39.556  29.748  29.665  1.00  0.00     0.031 C 
ATOM     46  C   UNL A   1      43.335  27.722  32.275  1.00  0.00     0.029 A 
ATOM     47  N   UNL A   1      42.116  29.294  33.299  1.00  0.00    -0.354 N 
ATOM     48  C   UNL A   1      38.792  31.194  31.258  1.00  0.00     0.074 A 
ATOM     49  C   UNL A   1      38.658  30.689  29.910  1.00  0.00     0.031 C 
ATOM     50  C   UNL A   1      43.847  27.896  33.507  1.00  0.00     0.029 A 
ATOM     51  C   UNL A   1      43.099  28.949  34.195  1.00  0.00     0.049 A 
ATOM     52  H   UNL A   1      41.413  29.953  33.499  1.00  0.00     0.167 HD
ATOM     53  C   UNL A   1      37.978  32.127  31.802  1.00  0.00     0.037 A 
ATOM     54  C   UNL A   1      43.373  29.446  35.419  1.00  0.00     0.037 A 
ATOM     55  C   UNL A   1      38.132  32.640  33.134  1.00  0.00     0.049 A 
ATOM     56  C   UNL A   1      42.492  30.532  35.986  1.00  0.00     0.074 A 
ATOM     57  C   UNL A   1      37.351  33.572  33.794  1.00  0.00     0.029 A 
ATOM     58  N   UNL A   1      39.150  32.280  34.006  1.00  0.00    -0.354 N 
ATOM     59  N   UNL A   1      41.443  31.109  35.448  1.00  0.00    -0.248 NA
ATOM     60  C   UNL A   1      42.831  31.034  37.325  1.00  0.00     0.031 C 
ATOM     61  C   UNL A   1      37.928  33.815  35.044  1.00  0.00     0.029 A 
ATOM     62  C   UNL A   1      39.036  32.994  35.187  1.00  0.00     0.049 A 
ATOM     63  H   UNL A   1      39.850  31.616  33.813  1.00  0.00     0.167 HD
ATOM     64  C   UNL A   1      40.983  32.025  36.389  1.00  0.00     0.074 A 
ATOM     65  C   UNL A   1      41.863  31.917  37.535  1.00  0.00     0.031 C 
ATOM     66  C   UNL A   1      39.927  32.874  36.316  1.00  0.00     0.037 A 
BRANCH  53  67
ATOM     67  C   UNL A   1      36.884  32.672  30.929  1.00  0.00     0.058 A 
ATOM     68  C   UNL A   1      37.125  33.679  29.980  1.00  0.00     0.135 A 
ATOM     69  C   UNL A   1      35.570  32.194  31.057  1.00  0.00     0.135 A 
ATOM     70  F   UNL A   1      38.358  34.192  29.836  1.00  0.00    -0.206 F 
ATOM     71  C   UNL A   1      36.096  34.218  29.215  1.00  0.00     0.059 A 
ATOM     72  C   UNL A   1      34.531  32.698  30.281  1.00  0.00     0.059 A 
ATOM     73  F   UNL A   1      35.282  31.238  31.955  1.00  0.00    -0.206 F 
ATOM     74  C   UNL A   1      34.801  33.723  29.376  1.00  0.00     0.060 A 
BRANCH  74  75
ATOM     75  S   UNL A   1      33.472  34.444  28.389  1.00  0.00     0.124 S 
ATOM     76  O   UNL A   1      34.190  35.474  27.645  1.00  0.00    -0.237 OA
ATOM     77  O   UNL A   1      33.013  33.302  27.605  1.00  0.00    -0.237 OA
ATOM     78  O   UNL A   1      32.531  34.933  29.391  1.00  0.00    -0.744 OA
ENDBRANCH  74  75
ENDBRANCH  53  67
BRANCH  54  79
ATOM     79  C   UNL A   1      44.541  28.930  36.183  1.00  0.00     0.058 A 
ATOM     80  C   UNL A   1      45.810  29.511  36.054  1.00  0.00     0.135 A 
ATOM     81  C   UNL A   1      44.402  27.858  37.079  1.00  0.00     0.135 A 
ATOM     82  F   UNL A   1      45.998  30.526  35.198  1.00  0.00    -0.206 F 
ATOM     83  C   UNL A   1      46.901  29.052  36.789  1.00  0.00     0.059 A 
ATOM     84  C   UNL A   1      45.471  27.396  37.841  1.00  0.00     0.059 A 
ATOM     85  F   UNL A   1      43.207  27.267  37.243  1.00  0.00    -0.206 F 
ATOM     86  C   UNL A   1      46.718  28.000  37.687  1.00  0.00     0.060 A 
BRANCH  86  87
ATOM     87  S   UNL A   1      48.120  27.471  38.699  1.00  0.00     0.124 S 
ATOM     88  O   UNL A   1      49.151  28.417  38.291  1.00  0.00    -0.237 OA
ATOM     89  O   UNL A   1      47.599  27.636  40.052  1.00  0.00    -0.237 OA
ATOM     90  O   UNL A   1      48.330  26.087  38.283  1.00  0.00    -0.744 OA
ENDBRANCH  86  87
ENDBRANCH  54  79
BRANCH  66  91
ATOM     91  C   UNL A   1      39.645  33.742  37.512  1.00  0.00     0.058 A 
ATOM     92  C   UNL A   1      38.807  33.313  38.553  1.00  0.00     0.135 A 
ATOM     93  C   UNL A   1      40.278  34.988  37.651  1.00  0.00     0.135 A 
ATOM     94  F   UNL A   1      38.176  32.131  38.469  1.00  0.00    -0.206 F 
ATOM     95  C   UNL A   1      38.591  34.098  39.681  1.00  0.00     0.059 A 
ATOM     96  C   UNL A   1      40.098  35.777  38.781  1.00  0.00     0.059 A 
ATOM     97  F   UNL A   1      41.100  35.439  36.690  1.00  0.00    -0.206 F 
ATOM     98  C   UNL A   1      39.243  35.329  39.787  1.00  0.00     0.060 A 
BRANCH  98  99
ATOM     99  S   UNL A   1      38.983  36.322  41.271  1.00  0.00     0.124 S 
ATOM    100  O   UNL A   1      38.541  37.591  40.702  1.00  0.00    -0.237 OA
ATOM    101  O   UNL A   1      37.964  35.559  41.985  1.00  0.00    -0.237 OA
ATOM    102  O   UNL A   1      40.299  36.342  41.903  1.00  0.00    -0.744 OA
ENDBRANCH  98  99
ENDBRANCH  66  91
ENDBRANCH  40  41
ENDBRANCH  33  35
ENDBRANCH  32  33
ENDBRANCH  31  32
ENDBRANCH  30  31
ENDBRANCH  29  30
ENDBRANCH  28  29
ENDBRANCH  27  28
ENDBRANCH   1  27
TORSDOF 26
ENDMDL
MODEL 2
REMARK VINA RESULT:      -9.8      6.573     12.541
REMARK SMILES C[C@H](Nc1ncccc1C(=O)OCCOCCOCCOCCOC(=O)c1ccc(-c2c3nc(c(-c4c(F)cc(S(=O)(=O)[O-])cc4F)c4ccc([nH]4)c(-c4c(F)cc(S(=O)(=O)[O-])cc4F)c4nc(c(-c5c(F)cc(S(=O)(=O)[O-])cc5F)c5ccc2[nH]5)C=C4)C=C3)cc1)c1ccc(Cl)cc1
REMARK SMILES IDX 18 1 17 2 16 3 15 4 14 5 13 6 12 7 10 8 11 9 9 10 4 11 5 12
REMARK SMILES IDX 6 13 8 14 7 15 3 16 2 18 1 19 93 20 94 21 99 22 95 23 98 24
REMARK SMILES IDX 96 25 97 26 19 27 20 28 21 29 22 30 23 31 24 32 25 33 26 34
REMARK SMILES IDX 27 35 28 36 92 37 29 38 91 39 30 40 31 41 32 42 85 43 33 44
REMARK SMILES IDX 90 45 84 46 86 47 34 48 89 49 83 50 82 51 35 53 69 54 48 55
REMARK SMILES IDX 68 56 49 57 52 58 67 59 87 60 50 61 51 62 66 64 88 65 53 66
REMARK SMILES IDX 36 67 37 68 46 69 38 70 39 71 45 72 47 73 40 74 41 75 42 76
REMARK SMILES IDX 43 77 44 78 70 79 71 80 80 81 72 82 73 83 79 84 81 85 74 86
REMARK SMILES IDX 75 87 76 88 77 89 78 90 54 91 55 92 64 93 56 94 57 95 63 96
REMARK SMILES IDX 65 97 58 98 59 99 60 100 61 101 62 102
REMARK H PARENT 3 17 86 52 52 63
REMARK Flexibility Score: inf
ROOT
ATOM      1  O   UNL A   1      32.703  34.812  29.109  1.00  0.00    -0.377 OA
ENDROOT
BRANCH   1   2
ATOM      2  C   UNL A   1      33.382  34.159  28.047  1.00  0.00     0.188 C 
BRANCH   2   3
ATOM      3  C   UNL A   1      34.056  32.795  28.270  1.00  0.00     0.188 C 
BRANCH   3   4
ATOM      4  O   UNL A   1      34.088  31.947  27.131  1.00  0.00    -0.376 OA
BRANCH   4   5
ATOM      5  C   UNL A   1      33.208  30.829  27.231  1.00  0.00     0.202 C 
BRANCH   5   6
ATOM      6  C   UNL A   1      33.814  29.584  26.579  1.00  0.00     0.261 C 
BRANCH   6   7
ATOM      7  O   UNL A   1      33.649  28.369  27.343  1.00  0.00    -0.460 OA
BRANCH   7   8
ATOM      8  C   UNL A   1      32.547  27.596  27.150  1.00  0.00     0.341 C 
ATOM      9  O   UNL A   1      31.553  27.606  27.851  1.00  0.00    -0.246 OA
BRANCH   8  10
ATOM     10  C   UNL A   1      32.746  26.823  25.885  1.00  0.00     0.102 A 
ATOM     11  C   UNL A   1      31.814  26.781  24.837  1.00  0.00     0.141 A 
ATOM     12  N   UNL A   1      32.009  25.991  23.749  1.00  0.00    -0.239 NA
ATOM     13  C   UNL A   1      33.163  25.292  23.651  1.00  0.00     0.113 A 
ATOM     14  C   UNL A   1      33.929  26.068  25.749  1.00  0.00     0.021 A 
ATOM     15  C   UNL A   1      34.152  25.310  24.608  1.00  0.00     0.021 A 
BRANCH  11  16
ATOM     16  N   UNL A   1      30.676  27.570  24.699  1.00  0.00    -0.363 N 
ATOM     17  H   UNL A   1      30.492  28.318  25.312  1.00  0.00     0.162 HD
BRANCH  16  18
ATOM     18  C   UNL A   1      29.769  27.238  23.603  1.00  0.00     0.108 C 
ATOM     19  C   UNL A   1      28.574  26.399  24.070  1.00  0.00     0.036 C 
BRANCH  18  20
ATOM     20  C   UNL A   1      29.314  28.471  22.842  1.00  0.00    -0.026 A 
ATOM     21  C   UNL A   1      27.964  28.870  22.910  1.00  0.00     0.007 A 
ATOM     22  C   UNL A   1      30.208  29.277  22.121  1.00  0.00     0.007 A 
ATOM     23  C   UNL A   1      27.525  30.048  22.302  1.00  0.00     0.021 A 
ATOM     24  C   UNL A   1      29.767  30.455  21.507  1.00  0.00     0.021 A 
ATOM     25  C   UNL A   1      28.431  30.838  21.605  1.00  0.00     0.041 A 
ATOM     26  Cl  UNL A   1      27.899  32.300  20.869  1.00  0.00    -0.084 Cl
ENDBRANCH  18  20
ENDBRANCH  16  18
ENDBRANCH  11  16
ENDBRANCH   8  10
ENDBRANCH   7   8
ENDBRANCH   6   7
ENDBRANCH   5   6
ENDBRANCH   4   5
ENDBRANCH   3   4
ENDBRANCH   2   3
ENDBRANCH   1   2
BRANCH   1  27
ATOM     27  C   UNL A   1      33.481  35.601  29.994  1.00  0.00     0.188 C 
BRANCH  27  28
ATOM     28  C   UNL A   1      33.139  35.437  31.486  1.00  0.00     0.188 C 
BRANCH  28  29
ATOM     29  O   UNL A   1      34.182  34.816  32.242  1.00  0.00    -0.376 OA
BRANCH  29  30
ATOM     30  C   UNL A   1      35.212  34.180  31.497  1.00  0.00     0.202 C 
BRANCH  30  31
ATOM     31  C   UNL A   1      35.301  32.657  31.654  1.00  0.00     0.261 C 
BRANCH  31  32
ATOM     32  O   UNL A   1      36.537  32.058  31.235  1.00  0.00    -0.460 OA
BRANCH  32  33
ATOM     33  C   UNL A   1      37.404  31.640  32.184  1.00  0.00     0.338 C 
ATOM     34  O   UNL A   1      37.184  31.507  33.375  1.00  0.00    -0.246 OA
BRANCH  33  35
ATOM     35  C   UNL A   1      38.599  31.137  31.473  1.00  0.00     0.060 A 
ATOM     36  C   UNL A   1      39.618  30.520  32.214  1.00  0.00     0.016 A 
ATOM     37  C   UNL A   1      38.653  31.160  30.076  1.00  0.00     0.016 A 
ATOM     38  C   UNL A   1      40.697  29.929  31.556  1.00  0.00     0.010 A 
ATOM     39  C   UNL A   1      39.749  30.600  29.421  1.00  0.00     0.010 A 
ATOM     40  C   UNL A   1      40.785  30.006  30.159  1.00  0.00    -0.014 A 
BRANCH  40  41
ATOM     41  C   UNL A   1      42.073  29.712  29.493  1.00  0.00     0.031 A 
ATOM     42  C   UNL A   1      42.265  28.320  28.958  1.00  0.00     0.074 A 
ATOM     43  C   UNL A   1      43.045  30.633  29.374  1.00  0.00     0.049 A 
ATOM     44  N   UNL A   1      43.306  27.787  28.379  1.00  0.00    -0.248 NA
ATOM     45  C   UNL A   1      41.120  27.404  29.108  1.00  0.00     0.031 C 
ATOM     46  C   UNL A   1      42.961  32.018  29.832  1.00  0.00     0.029 A 
ATOM     47  N   UNL A   1      44.305  30.528  28.841  1.00  0.00    -0.354 N 
ATOM     48  C   UNL A   1      42.945  26.474  28.099  1.00  0.00     0.074 A 
ATOM     49  C   UNL A   1      41.602  26.283  28.596  1.00  0.00     0.031 C 
ATOM     50  C   UNL A   1      44.132  32.631  29.579  1.00  0.00     0.029 A 
ATOM     51  C   UNL A   1      45.054  31.673  28.966  1.00  0.00     0.049 A 
ATOM     52  H   UNL A   1      44.640  29.709  28.409  1.00  0.00     0.167 HD
ATOM     53  C   UNL A   1      43.668  25.515  27.478  1.00  0.00     0.037 A 
ATOM     54  C   UNL A   1      46.342  31.907  28.642  1.00  0.00     0.037 A 
ATOM     55  C   UNL A   1      45.011  25.707  27.007  1.00  0.00     0.049 A 
ATOM     56  C   UNL A   1      47.154  30.806  28.008  1.00  0.00     0.074 A 
ATOM     57  C   UNL A   1      45.829  24.809  26.345  1.00  0.00     0.029 A 
ATOM     58  N   UNL A   1      45.744  26.875  27.167  1.00  0.00    -0.354 N 
ATOM     59  N   UNL A   1      46.790  29.581  27.706  1.00  0.00    -0.248 NA
ATOM     60  C   UNL A   1      48.550  31.116  27.669  1.00  0.00     0.031 C 
ATOM     61  C   UNL A   1      47.074  25.415  26.154  1.00  0.00     0.029 A 
ATOM     62  C   UNL A   1      47.015  26.711  26.645  1.00  0.00     0.049 A 
ATOM     63  H   UNL A   1      45.409  27.698  27.590  1.00  0.00     0.167 HD
ATOM     64  C   UNL A   1      47.903  28.982  27.123  1.00  0.00     0.074 A 
ATOM     65  C   UNL A   1      48.950  29.984  27.105  1.00  0.00     0.031 C 
ATOM     66  C   UNL A   1      48.046  27.722  26.641  1.00  0.00     0.037 A 
BRANCH  53  67
ATOM     67  C   UNL A   1      43.023  24.167  27.321  1.00  0.00     0.058 A 
ATOM     68  C   UNL A   1      43.025  23.220  28.358  1.00  0.00     0.135 A 
ATOM     69  C   UNL A   1      42.411  23.811  26.109  1.00  0.00     0.135 A 
ATOM     70  F   UNL A   1      43.621  23.499  29.528  1.00  0.00    -0.206 F 
ATOM     71  C   UNL A   1      42.476  21.954  28.186  1.00  0.00     0.059 A 
ATOM     72  C   UNL A   1      41.828  22.561  25.925  1.00  0.00     0.059 A 
ATOM     73  F   UNL A   1      42.389  24.676  25.082  1.00  0.00    -0.206 F 
ATOM     74  C   UNL A   1      41.883  21.632  26.964  1.00  0.00     0.060 A 
BRANCH  74  75
ATOM     75  S   UNL A   1      41.188  19.980  26.749  1.00  0.00     0.124 S 
ATOM     76  O   UNL A   1      40.914  19.599  28.130  1.00  0.00    -0.237 OA
ATOM     77  O   UNL A   1      40.016  20.241  25.920  1.00  0.00    -0.237 OA
ATOM     78  O   UNL A   1      42.264  19.242  26.095  1.00  0.00    -0.744 OA
ENDBRANCH  74  75
ENDBRANCH  53  67
BRANCH  54  79
ATOM     79  C   UNL A   1      46.946  33.238  28.925  1.00  0.00     0.058 A 
ATOM     80  C   UNL A   1      46.924  34.265  27.972  1.00  0.00     0.135 A 
ATOM     81  C   UNL A   1      47.535  33.516  30.170  1.00  0.00     0.135 A 
ATOM     82  F   UNL A   1      46.388  34.045  26.761  1.00  0.00    -0.206 F 
ATOM     83  C   UNL A   1      47.460  35.523  28.241  1.00  0.00     0.059 A 
ATOM     84  C   UNL A   1      48.056  34.770  30.471  1.00  0.00     0.059 A 
ATOM     85  F   UNL A   1      47.579  32.568  31.120  1.00  0.00    -0.206 F 
ATOM     86  C   UNL A   1      48.016  35.767  29.497  1.00  0.00     0.060 A 
BRANCH  86  87
ATOM     87  S   UNL A   1      48.629  37.428  29.866  1.00  0.00     0.124 S 
ATOM     88  O   UNL A   1      49.246  37.801  28.598  1.00  0.00    -0.237 OA
ATOM     89  O   UNL A   1      47.401  38.136  30.212  1.00  0.00    -0.237 OA
ATOM     90  O   UNL A   1      49.549  37.206  30.977  1.00  0.00    -0.744 OA
ENDBRANCH  86  87
ENDBRANCH  54  79
BRANCH  66  91
ATOM     91  C   UNL A   1      49.371  27.353  26.033  1.00  0.00     0.058 A 
ATOM     92  C   UNL A   1      50.447  26.913  26.820  1.00  0.00     0.135 A 
ATOM     93  C   UNL A   1      49.543  27.371  24.640  1.00  0.00     0.135 A 
ATOM     94  F   UNL A   1      50.337  26.879  28.158  1.00  0.00    -0.206 F 
ATOM     95  C   UNL A   1      51.654  26.525  26.248  1.00  0.00     0.059 A 
ATOM     96  C   UNL A   1      50.731  26.961  24.044  1.00  0.00     0.059 A 
ATOM     97  F   UNL A   1      48.541  27.770  23.841  1.00  0.00    -0.206 F 
ATOM     98  C   UNL A   1      51.786  26.550  24.857  1.00  0.00     0.060 A 
BRANCH  98  99
ATOM     99  S   UNL A   1      53.343  26.008  24.124  1.00  0.00     0.124 S 
ATOM    100  O   UNL A   1      53.084  26.209  22.702  1.00  0.00    -0.237 OA
ATOM    101  O   UNL A   1      54.309  26.921  24.728  1.00  0.00    -0.237 OA
ATOM    102  O   UNL A   1      53.455  24.616  24.551  1.00  0.00    -0.744 OA
ENDBRANCH  98  99
ENDBRANCH  66  91
ENDBRANCH  40  41
ENDBRANCH  33  35
ENDBRANCH  32  33
ENDBRANCH  31  32
ENDBRANCH  30  31
ENDBRANCH  29  30
ENDBRANCH  28  29
ENDBRANCH  27  28
ENDBRANCH   1  27
TORSDOF 26
ENDMDL
MODEL 3
REMARK VINA RESULT:      -9.6      1.489      8.075
REMARK SMILES C[C@H](Nc1ncccc1C(=O)OCCOCCOCCOCCOC(=O)c1ccc(-c2c3nc(c(-c4c(F)cc(S(=O)(=O)[O-])cc4F)c4ccc([nH]4)c(-c4c(F)cc(S(=O)(=O)[O-])cc4F)c4nc(c(-c5c(F)cc(S(=O)(=O)[O-])cc5F)c5ccc2[nH]5)C=C4)C=C3)cc1)c1ccc(Cl)cc1
REMARK SMILES IDX 18 1 17 2 16 3 15 4 14 5 13 6 12 7 10 8 11 9 9 10 4 11 5 12
REMARK SMILES IDX 6 13 8 14 7 15 3 16 2 18 1 19 93 20 94 21 99 22 95 23 98 24
REMARK SMILES IDX 96 25 97 26 19 27 20 28 21 29 22 30 23 31 24 32 25 33 26 34
REMARK SMILES IDX 27 35 28 36 92 37 29 38 91 39 30 40 31 41 32 42 85 43 33 44
REMARK SMILES IDX 90 45 84 46 86 47 34 48 89 49 83 50 82 51 35 53 69 54 48 55
REMARK SMILES IDX 68 56 49 57 52 58 67 59 87 60 50 61 51 62 66 64 88 65 53 66
REMARK SMILES IDX 36 67 37 68 46 69 38 70 39 71 45 72 47 73 40 74 41 75 42 76
REMARK SMILES IDX 43 77 44 78 70 79 71 80 80 81 72 82 73 83 79 84 81 85 74 86
REMARK SMILES IDX 75 87 76 88 77 89 78 90 54 91 55 92 64 93 56 94 57 95 63 96
REMARK SMILES IDX 65 97 58 98 59 99 60 100 61 101 62 102
REMARK H PARENT 3 17 86 52 52 63
REMARK Flexibility Score: inf
ROOT
ATOM      1  O   UNL A   1      41.838  20.525  27.077  1.00  0.00    -0.377 OA
ENDROOT
BRANCH   1   2
ATOM      2  C   UNL A   1      40.608  21.211  27.251  1.00  0.00     0.188 C 
BRANCH   2   3
ATOM      3  C   UNL A   1      39.670  21.451  26.055  1.00  0.00     0.188 C 
BRANCH   3   4
ATOM      4  O   UNL A   1      38.922  22.657  26.110  1.00  0.00    -0.376 OA
BRANCH   4   5
ATOM      5  C   UNL A   1      37.554  22.493  25.745  1.00  0.00     0.202 C 
BRANCH   5   6
ATOM      6  C   UNL A   1      37.079  23.634  24.842  1.00  0.00     0.261 C 
BRANCH   6   7
ATOM      7  O   UNL A   1      35.854  24.267  25.275  1.00  0.00    -0.460 OA
BRANCH   7   8
ATOM      8  C   UNL A   1      34.819  24.400  24.402  1.00  0.00     0.341 C 
ATOM      9  O   UNL A   1      34.835  24.043  23.239  1.00  0.00    -0.246 OA
BRANCH   8  10
ATOM     10  C   UNL A   1      33.656  24.964  25.153  1.00  0.00     0.102 A 
ATOM     11  C   UNL A   1      32.555  24.204  25.579  1.00  0.00     0.141 A 
ATOM     12  N   UNL A   1      31.486  24.786  26.181  1.00  0.00    -0.239 NA
ATOM     13  C   UNL A   1      31.525  26.114  26.437  1.00  0.00     0.113 A 
ATOM     14  C   UNL A   1      33.651  26.347  25.428  1.00  0.00     0.021 A 
ATOM     15  C   UNL A   1      32.583  26.927  26.098  1.00  0.00     0.021 A 
BRANCH  11  16
ATOM     16  N   UNL A   1      32.438  22.817  25.557  1.00  0.00    -0.363 N 
ATOM     17  H   UNL A   1      31.609  22.377  25.258  1.00  0.00     0.162 HD
BRANCH  16  18
ATOM     18  C   UNL A   1      33.598  22.048  25.997  1.00  0.00     0.108 C 
ATOM     19  C   UNL A   1      33.688  21.950  27.524  1.00  0.00     0.036 C 
BRANCH  18  20
ATOM     20  C   UNL A   1      33.653  20.674  25.351  1.00  0.00    -0.026 A 
ATOM     21  C   UNL A   1      32.494  20.141  24.754  1.00  0.00     0.007 A 
ATOM     22  C   UNL A   1      34.843  19.935  25.265  1.00  0.00     0.007 A 
ATOM     23  C   UNL A   1      32.524  18.924  24.070  1.00  0.00     0.021 A 
ATOM     24  C   UNL A   1      34.873  18.713  24.583  1.00  0.00     0.021 A 
ATOM     25  C   UNL A   1      33.716  18.217  23.984  1.00  0.00     0.041 A 
ATOM     26  Cl  UNL A   1      33.765  16.725  23.126  1.00  0.00    -0.084 Cl
ENDBRANCH  18  20
ENDBRANCH  16  18
ENDBRANCH  11  16
ENDBRANCH   8  10
ENDBRANCH   7   8
ENDBRANCH   6   7
ENDBRANCH   5   6
ENDBRANCH   4   5
ENDBRANCH   3   4
ENDBRANCH   2   3
ENDBRANCH   1   2
BRANCH   1  27
ATOM     27  C   UNL A   1      42.101  19.968  25.801  1.00  0.00     0.188 C 
BRANCH  27  28
ATOM     28  C   UNL A   1      43.590  19.736  25.484  1.00  0.00     0.188 C 
BRANCH  28  29
ATOM     29  O   UNL A   1      44.217  20.856  24.855  1.00  0.00    -0.376 OA
BRANCH  29  30
ATOM     30  C   UNL A   1      45.124  21.606  25.652  1.00  0.00     0.202 C 
BRANCH  30  31
ATOM     31  C   UNL A   1      45.095  23.125  25.441  1.00  0.00     0.261 C 
BRANCH  31  32
ATOM     32  O   UNL A   1      44.333  23.873  26.400  1.00  0.00    -0.460 OA
BRANCH  32  33
ATOM     33  C   UNL A   1      43.039  24.146  26.123  1.00  0.00     0.338 C 
ATOM     34  O   UNL A   1      42.306  23.540  25.361  1.00  0.00    -0.246 OA
BRANCH  33  35
ATOM     35  C   UNL A   1      42.601  25.165  27.101  1.00  0.00     0.060 A 
ATOM     36  C   UNL A   1      43.181  26.442  27.053  1.00  0.00     0.016 A 
ATOM     37  C   UNL A   1      41.540  24.900  27.972  1.00  0.00     0.016 A 
ATOM     38  C   UNL A   1      42.700  27.456  27.882  1.00  0.00     0.010 A 
ATOM     39  C   UNL A   1      41.084  25.905  28.825  1.00  0.00     0.010 A 
ATOM     40  C   UNL A   1      41.679  27.177  28.800  1.00  0.00    -0.014 A 
BRANCH  40  41
ATOM     41  C   UNL A   1      41.418  28.119  29.910  1.00  0.00     0.031 A 
ATOM     42  C   UNL A   1      42.260  27.973  31.146  1.00  0.00     0.074 A 
ATOM     43  C   UNL A   1      40.463  29.063  29.838  1.00  0.00     0.049 A 
ATOM     44  N   UNL A   1      42.207  28.629  32.272  1.00  0.00    -0.248 NA
ATOM     45  C   UNL A   1      43.302  26.931  31.101  1.00  0.00     0.031 C 
ATOM     46  C   UNL A   1      39.604  29.314  28.683  1.00  0.00     0.029 A 
ATOM     47  N   UNL A   1      40.051  29.979  30.773  1.00  0.00    -0.354 N 
ATOM     48  C   UNL A   1      43.204  28.080  33.071  1.00  0.00     0.074 A 
ATOM     49  C   UNL A   1      43.826  27.018  32.313  1.00  0.00     0.031 C 
ATOM     50  C   UNL A   1      38.747  30.307  28.987  1.00  0.00     0.029 A 
ATOM     51  C   UNL A   1      38.982  30.742  30.365  1.00  0.00     0.049 A 
ATOM     52  H   UNL A   1      40.479  30.081  31.653  1.00  0.00     0.167 HD
ATOM     53  C   UNL A   1      43.571  28.432  34.324  1.00  0.00     0.037 A 
ATOM     54  C   UNL A   1      38.267  31.665  31.039  1.00  0.00     0.037 A 
ATOM     55  C   UNL A   1      42.932  29.474  35.079  1.00  0.00     0.049 A 
ATOM     56  C   UNL A   1      38.650  32.001  32.459  1.00  0.00     0.074 A 
ATOM     57  C   UNL A   1      43.237  29.927  36.350  1.00  0.00     0.029 A 
ATOM     58  N   UNL A   1      41.842  30.212  34.640  1.00  0.00    -0.354 N 
ATOM     59  N   UNL A   1      39.622  31.508  33.190  1.00  0.00    -0.248 NA
ATOM     60  C   UNL A   1      37.841  33.018  33.145  1.00  0.00     0.031 C 
ATOM     61  C   UNL A   1      42.298  30.902  36.700  1.00  0.00     0.029 A 
ATOM     62  C   UNL A   1      41.442  31.097  35.626  1.00  0.00     0.049 A 
ATOM     63  H   UNL A   1      41.416  30.119  33.757  1.00  0.00     0.167 HD
ATOM     64  C   UNL A   1      39.556  32.168  34.413  1.00  0.00     0.074 A 
ATOM     65  C   UNL A   1      38.455  33.105  34.318  1.00  0.00     0.031 C 
ATOM     66  C   UNL A   1      40.337  32.019  35.513  1.00  0.00     0.037 A 
BRANCH  53  67
ATOM     67  C   UNL A   1      44.684  27.647  34.957  1.00  0.00     0.058 A 
ATOM     68  C   UNL A   1      46.025  28.055  34.864  1.00  0.00     0.135 A 
ATOM     69  C   UNL A   1      44.407  26.458  35.651  1.00  0.00     0.135 A 
ATOM     70  F   UNL A   1      46.347  29.169  34.189  1.00  0.00    -0.206 F 
ATOM     71  C   UNL A   1      47.055  27.293  35.405  1.00  0.00     0.059 A 
ATOM     72  C   UNL A   1      45.419  25.696  36.225  1.00  0.00     0.059 A 
ATOM     73  F   UNL A   1      43.144  26.018  35.761  1.00  0.00    -0.206 F 
ATOM     74  C   UNL A   1      46.742  26.112  36.081  1.00  0.00     0.060 A 
BRANCH  74  75
ATOM     75  S   UNL A   1      48.090  25.124  36.763  1.00  0.00     0.124 S 
ATOM     76  O   UNL A   1      48.457  24.302  35.615  1.00  0.00    -0.237 OA
ATOM     77  O   UNL A   1      49.060  26.145  37.147  1.00  0.00    -0.237 OA
ATOM     78  O   UNL A   1      47.462  24.411  37.871  1.00  0.00    -0.744 OA
ENDBRANCH  74  75
ENDBRANCH  53  67
BRANCH  54  79
ATOM     79  C   UNL A   1      37.107  32.327  30.381  1.00  0.00     0.058 A 
ATOM     80  C   UNL A   1      37.287  33.402  29.500  1.00  0.00     0.135 A 
ATOM     81  C   UNL A   1      35.796  31.877  30.603  1.00  0.00     0.135 A 
ATOM     82  F   UNL A   1      38.519  33.881  29.269  1.00  0.00    -0.206 F 
ATOM     83  C   UNL A   1      36.209  34.007  28.858  1.00  0.00     0.059 A 
ATOM     84  C   UNL A   1      34.705  32.449  29.955  1.00  0.00     0.059 A 
ATOM     85  F   UNL A   1      35.569  30.848  31.435  1.00  0.00    -0.206 F 
ATOM     86  C   UNL A   1      34.922  33.517  29.086  1.00  0.00     0.060 A 
BRANCH  86  87
ATOM     87  S   UNL A   1      33.542  34.252  28.180  1.00  0.00     0.124 S 
ATOM     88  O   UNL A   1      32.822  34.939  29.246  1.00  0.00    -0.237 OA
ATOM     89  O   UNL A   1      34.229  35.107  27.218  1.00  0.00    -0.237 OA
ATOM     90  O   UNL A   1      32.864  33.094  27.604  1.00  0.00    -0.744 OA
ENDBRANCH  86  87
ENDBRANCH  54  79
BRANCH  66  91
ATOM     91  C   UNL A   1      40.049  32.900  36.698  1.00  0.00     0.058 A 
ATOM     92  C   UNL A   1      39.009  32.611  37.595  1.00  0.00     0.135 A 
ATOM     93  C   UNL A   1      40.870  34.004  36.979  1.00  0.00     0.135 A 
ATOM     94  F   UNL A   1      38.194  31.569  37.373  1.00  0.00    -0.206 F 
ATOM     95  C   UNL A   1      38.780  33.400  38.718  1.00  0.00     0.059 A 
ATOM     96  C   UNL A   1      40.677  34.790  38.109  1.00  0.00     0.059 A 
ATOM     97  F   UNL A   1      41.887  34.315  36.160  1.00  0.00    -0.206 F 
ATOM     98  C   UNL A   1      39.621  34.487  38.968  1.00  0.00     0.060 A 
BRANCH  98  99
ATOM     99  S   UNL A   1      39.336  35.480  40.448  1.00  0.00     0.124 S 
ATOM    100  O   UNL A   1      38.973  36.770  39.870  1.00  0.00    -0.237 OA
ATOM    101  O   UNL A   1      38.256  34.756  41.110  1.00  0.00    -0.237 OA
ATOM    102  O   UNL A   1      40.623  35.441  41.137  1.00  0.00    -0.744 OA
ENDBRANCH  98  99
ENDBRANCH  66  91
ENDBRANCH  40  41
ENDBRANCH  33  35
ENDBRANCH  32  33
ENDBRANCH  31  32
ENDBRANCH  30  31
ENDBRANCH  29  30
ENDBRANCH  28  29
ENDBRANCH  27  28
ENDBRANCH   1  27
TORSDOF 26
ENDMDL
