MODEL 1
REMARK VINA RESULT:      -9.3      0.000      0.000
REMARK SMILES Cc1nc(C(=O)OCCOCCOCCOCCOC(=O)c2ccc(-c3c4nc(c(-c5c(F)cc(S(=O)(=O)[O-])cc5F)c5ccc([nH]5)c(-c5c(F)cc(S(=O)(=O)[O-])cc5F)c5nc(c(-c6c(F)cc(S(=O)(=O)[O-])cc6F)c6ccc3[nH]6)C=C5)C=C4)cc2)nn1-c1cccc(C(F)(F)F)c1
REMARK SMILES IDX 14 1 13 2 12 3 11 4 10 5 9 6 8 7 7 8 5 9 6 10 4 11 1 12 2 13
REMARK SMILES IDX 3 14 89 15 88 16 90 17 91 18 99 19 92 20 94 21 93 22 95 23
REMARK SMILES IDX 96 24 97 25 98 26 15 27 16 28 17 29 18 30 19 31 20 32 21 33
REMARK SMILES IDX 22 34 23 35 87 36 24 37 86 38 25 39 26 40 27 41 80 42 28 43
REMARK SMILES IDX 85 44 79 45 81 46 29 47 84 48 78 49 77 50 30 52 64 53 43 54
REMARK SMILES IDX 63 55 44 56 47 57 62 58 82 59 45 60 46 61 61 63 83 64 48 65
REMARK SMILES IDX 31 66 32 67 41 68 33 69 34 70 40 71 42 72 35 73 36 74 37 75
REMARK SMILES IDX 38 76 39 77 65 78 66 79 75 80 67 81 68 82 74 83 76 84 69 85
REMARK SMILES IDX 70 86 71 87 72 88 73 89 49 90 50 91 59 92 51 93 52 94 58 95
REMARK SMILES IDX 60 96 53 97 54 98 55 99 56 100 57 101
REMARK H PARENT 81 51 47 62
REMARK Flexibility Score: inf
ROOT
ATOM      1  C   UNL A   1      44.432  43.716  30.505  1.00  0.00     0.188 C 
ENDROOT
BRANCH   1   2
ATOM      2  O   UNL A   1      45.235  44.252  29.455  1.00  0.00    -0.377 OA
BRANCH   2   3
ATOM      3  C   UNL A   1      44.921  43.782  28.154  1.00  0.00     0.188 C 
BRANCH   3   4
ATOM      4  C   UNL A   1      45.985  44.096  27.074  1.00  0.00     0.188 C 
BRANCH   4   5
ATOM      5  O   UNL A   1      45.732  43.955  25.677  1.00  0.00    -0.376 OA
BRANCH   5   6
ATOM      6  C   UNL A   1      44.529  43.387  25.190  1.00  0.00     0.202 C 
BRANCH   6   7
ATOM      7  C   UNL A   1      44.388  43.080  23.694  1.00  0.00     0.261 C 
BRANCH   7   8
ATOM      8  O   UNL A   1      43.226  43.612  23.058  1.00  0.00    -0.457 OA
BRANCH   8   9
ATOM      9  C   UNL A   1      42.610  42.790  22.154  1.00  0.00     0.378 C 
ATOM     10  O   UNL A   1      42.145  41.683  22.423  1.00  0.00    -0.242 OA
BRANCH   9  11
ATOM     11  C   UNL A   1      42.470  43.440  20.840  1.00  0.00     0.260 A 
ATOM     12  C   UNL A   1      40.693  44.288  17.860  1.00  0.00     0.090 C 
ATOM     13  C   UNL A   1      41.569  44.157  19.047  1.00  0.00     0.130 A 
ATOM     14  N   UNL A   1      41.332  43.354  20.066  1.00  0.00    -0.206 NA
ATOM     15  N   UNL A   1      42.823  44.728  19.200  1.00  0.00    -0.217 N 
ATOM     16  N   UNL A   1      43.415  44.231  20.310  1.00  0.00    -0.138 NA
BRANCH  15  17
ATOM     17  C   UNL A   1      43.533  45.653  18.390  1.00  0.00     0.067 A 
ATOM     18  C   UNL A   1      44.719  45.213  17.781  1.00  0.00     0.028 A 
ATOM     19  C   UNL A   1      43.109  46.975  18.210  1.00  0.00     0.041 A 
ATOM     20  C   UNL A   1      45.447  46.063  16.955  1.00  0.00     0.003 A 
ATOM     21  C   UNL A   1      43.869  47.854  17.411  1.00  0.00     0.058 A 
ATOM     22  C   UNL A   1      45.025  47.376  16.770  1.00  0.00     0.013 A 
BRANCH  21  23
ATOM     23  C   UNL A   1      43.491  49.309  17.249  1.00  0.00     0.416 C 
ATOM     24  F   UNL A   1      44.542  50.144  17.466  1.00  0.00    -0.166 F 
ATOM     25  F   UNL A   1      43.040  49.585  15.994  1.00  0.00    -0.166 F 
ATOM     26  F   UNL A   1      42.505  49.708  18.098  1.00  0.00    -0.166 F 
ENDBRANCH  21  23
ENDBRANCH  15  17
ENDBRANCH   9  11
ENDBRANCH   8   9
ENDBRANCH   7   8
ENDBRANCH   6   7
ENDBRANCH   5   6
ENDBRANCH   4   5
ENDBRANCH   3   4
ENDBRANCH   2   3
ENDBRANCH   1   2
BRANCH   1  27
ATOM     27  C   UNL A   1      44.851  42.347  31.089  1.00  0.00     0.188 C 
BRANCH  27  28
ATOM     28  O   UNL A   1      44.205  41.238  30.466  1.00  0.00    -0.376 OA
BRANCH  28  29
ATOM     29  C   UNL A   1      42.897  41.404  29.939  1.00  0.00     0.202 C 
BRANCH  29  30
ATOM     30  C   UNL A   1      42.698  40.732  28.585  1.00  0.00     0.261 C 
BRANCH  30  31
ATOM     31  O   UNL A   1      42.676  39.316  28.672  1.00  0.00    -0.460 OA
BRANCH  31  32
ATOM     32  C   UNL A   1      43.768  38.683  28.220  1.00  0.00     0.338 C 
ATOM     33  O   UNL A   1      44.384  38.915  27.180  1.00  0.00    -0.246 OA
BRANCH  32  34
ATOM     34  C   UNL A   1      44.075  37.581  29.130  1.00  0.00     0.060 A 
ATOM     35  C   UNL A   1      44.149  36.319  28.543  1.00  0.00     0.016 A 
ATOM     36  C   UNL A   1      43.884  37.769  30.510  1.00  0.00     0.016 A 
ATOM     37  C   UNL A   1      43.678  35.264  29.275  1.00  0.00     0.010 A 
ATOM     38  C   UNL A   1      43.400  36.718  31.236  1.00  0.00     0.010 A 
ATOM     39  C   UNL A   1      43.185  35.525  30.557  1.00  0.00    -0.014 A 
BRANCH  39  40
ATOM     40  C   UNL A   1      42.315  34.534  31.131  1.00  0.00     0.031 A 
ATOM     41  C   UNL A   1      42.811  33.972  32.393  1.00  0.00     0.074 A 
ATOM     42  C   UNL A   1      41.138  34.235  30.556  1.00  0.00     0.049 A 
ATOM     43  N   UNL A   1      43.249  32.779  32.612  1.00  0.00    -0.248 NA
ATOM     44  C   UNL A   1      43.009  34.914  33.504  1.00  0.00     0.031 C 
ATOM     45  C   UNL A   1      40.435  34.949  29.483  1.00  0.00     0.029 A 
ATOM     46  N   UNL A   1      40.260  33.263  30.905  1.00  0.00    -0.354 N 
ATOM     47  C   UNL A   1      43.573  32.759  33.960  1.00  0.00     0.074 A 
ATOM     48  C   UNL A   1      43.605  34.130  34.400  1.00  0.00     0.031 C 
ATOM     49  C   UNL A   1      39.154  34.520  29.438  1.00  0.00     0.029 A 
ATOM     50  C   UNL A   1      38.988  33.434  30.389  1.00  0.00     0.049 A 
ATOM     51  H   UNL A   1      40.508  32.501  31.476  1.00  0.00     0.167 HD
ATOM     52  C   UNL A   1      43.537  31.611  34.683  1.00  0.00     0.037 A 
ATOM     53  C   UNL A   1      37.874  32.800  30.831  1.00  0.00     0.037 A 
ATOM     54  C   UNL A   1      43.543  30.443  33.841  1.00  0.00     0.049 A 
ATOM     55  C   UNL A   1      38.328  31.579  31.560  1.00  0.00     0.074 A 
ATOM     56  C   UNL A   1      44.424  29.941  32.901  1.00  0.00     0.029 A 
ATOM     57  N   UNL A   1      42.351  29.795  33.622  1.00  0.00    -0.354 N 
ATOM     58  N   UNL A   1      38.935  30.570  30.990  1.00  0.00    -0.248 NA
ATOM     59  C   UNL A   1      38.521  31.674  33.001  1.00  0.00     0.031 C 
ATOM     60  C   UNL A   1      43.605  29.364  31.889  1.00  0.00     0.029 A 
ATOM     61  C   UNL A   1      42.272  29.517  32.279  1.00  0.00     0.049 A 
ATOM     62  H   UNL A   1      41.677  29.570  34.304  1.00  0.00     0.167 HD
ATOM     63  C   UNL A   1      39.888  30.148  31.909  1.00  0.00     0.074 A 
ATOM     64  C   UNL A   1      39.523  30.804  33.160  1.00  0.00     0.031 C 
ATOM     65  C   UNL A   1      41.044  29.535  31.509  1.00  0.00     0.037 A 
BRANCH  52  66
ATOM     66  C   UNL A   1      43.142  31.582  36.133  1.00  0.00     0.058 A 
ATOM     67  C   UNL A   1      41.877  32.054  36.519  1.00  0.00     0.135 A 
ATOM     68  C   UNL A   1      44.059  31.339  37.183  1.00  0.00     0.135 A 
ATOM     69  F   UNL A   1      40.943  32.338  35.597  1.00  0.00    -0.206 F 
ATOM     70  C   UNL A   1      41.561  32.314  37.852  1.00  0.00     0.059 A 
ATOM     71  C   UNL A   1      43.744  31.528  38.519  1.00  0.00     0.059 A 
ATOM     72  F   UNL A   1      45.337  31.009  36.955  1.00  0.00    -0.206 F 
ATOM     73  C   UNL A   1      42.509  32.062  38.841  1.00  0.00     0.060 A 
BRANCH  73  74
ATOM     74  S   UNL A   1      42.159  32.518  40.546  1.00  0.00     0.124 S 
ATOM     75  O   UNL A   1      42.041  31.206  41.173  1.00  0.00    -0.237 OA
ATOM     76  O   UNL A   1      43.341  33.296  40.903  1.00  0.00    -0.237 OA
ATOM     77  O   UNL A   1      40.920  33.284  40.440  1.00  0.00    -0.744 OA
ENDBRANCH  73  74
ENDBRANCH  52  66
BRANCH  53  78
ATOM     78  C   UNL A   1      36.532  33.417  31.007  1.00  0.00     0.058 A 
ATOM     79  C   UNL A   1      36.260  34.287  32.075  1.00  0.00     0.135 A 
ATOM     80  C   UNL A   1      35.550  33.359  29.992  1.00  0.00     0.135 A 
ATOM     81  F   UNL A   1      37.153  34.436  33.066  1.00  0.00    -0.206 F 
ATOM     82  C   UNL A   1      35.100  35.070  32.123  1.00  0.00     0.059 A 
ATOM     83  C   UNL A   1      34.379  34.112  30.028  1.00  0.00     0.059 A 
ATOM     84  F   UNL A   1      35.735  32.633  28.881  1.00  0.00    -0.206 F 
ATOM     85  C   UNL A   1      34.169  34.983  31.086  1.00  0.00     0.060 A 
BRANCH  85  86
ATOM     86  S   UNL A   1      32.742  36.091  31.067  1.00  0.00     0.124 S 
ATOM     87  O   UNL A   1      33.364  37.387  31.316  1.00  0.00    -0.237 OA
ATOM     88  O   UNL A   1      32.210  35.884  29.725  1.00  0.00    -0.237 OA
ATOM     89  O   UNL A   1      31.904  35.585  32.151  1.00  0.00    -0.744 OA
ENDBRANCH  85  86
ENDBRANCH  53  78
BRANCH  65  90
ATOM     90  C   UNL A   1      41.150  29.084  30.073  1.00  0.00     0.058 A 
ATOM     91  C   UNL A   1      41.645  29.898  29.038  1.00  0.00     0.135 A 
ATOM     92  C   UNL A   1      40.919  27.735  29.767  1.00  0.00     0.135 A 
ATOM     93  F   UNL A   1      41.996  31.169  29.273  1.00  0.00    -0.206 F 
ATOM     94  C   UNL A   1      41.870  29.404  27.752  1.00  0.00     0.059 A 
ATOM     95  C   UNL A   1      41.166  27.211  28.498  1.00  0.00     0.059 A 
ATOM     96  F   UNL A   1      40.511  26.889  30.727  1.00  0.00    -0.206 F 
ATOM     97  C   UNL A   1      41.634  28.055  27.492  1.00  0.00     0.060 A 
BRANCH  97  98
ATOM     98  S   UNL A   1      42.037  27.396  25.859  1.00  0.00     0.124 S 
ATOM     99  O   UNL A   1      42.202  28.611  25.068  1.00  0.00    -0.237 OA
ATOM    100  O   UNL A   1      43.258  26.636  26.115  1.00  0.00    -0.237 OA
ATOM    101  O   UNL A   1      40.870  26.584  25.522  1.00  0.00    -0.744 OA
ENDBRANCH  97  98
ENDBRANCH  65  90
ENDBRANCH  39  40
ENDBRANCH  32  34
ENDBRANCH  31  32
ENDBRANCH  30  31
ENDBRANCH  29  30
ENDBRANCH  28  29
ENDBRANCH  27  28
ENDBRANCH   1  27
TORSDOF 25
ENDMDL
MODEL 2
REMARK VINA RESULT:      -8.8      7.775     14.183
REMARK SMILES Cc1nc(C(=O)OCCOCCOCCOCCOC(=O)c2ccc(-c3c4nc(c(-c5c(F)cc(S(=O)(=O)[O-])cc5F)c5ccc([nH]5)c(-c5c(F)cc(S(=O)(=O)[O-])cc5F)c5nc(c(-c6c(F)cc(S(=O)(=O)[O-])cc6F)c6ccc3[nH]6)C=C5)C=C4)cc2)nn1-c1cccc(C(F)(F)F)c1
REMARK SMILES IDX 14 1 13 2 12 3 11 4 10 5 9 6 8 7 7 8 5 9 6 10 4 11 1 12 2 13
REMARK SMILES IDX 3 14 89 15 88 16 90 17 91 18 99 19 92 20 94 21 93 22 95 23
REMARK SMILES IDX 96 24 97 25 98 26 15 27 16 28 17 29 18 30 19 31 20 32 21 33
REMARK SMILES IDX 22 34 23 35 87 36 24 37 86 38 25 39 26 40 27 41 80 42 28 43
REMARK SMILES IDX 85 44 79 45 81 46 29 47 84 48 78 49 77 50 30 52 64 53 43 54
REMARK SMILES IDX 63 55 44 56 47 57 62 58 82 59 45 60 46 61 61 63 83 64 48 65
REMARK SMILES IDX 31 66 32 67 41 68 33 69 34 70 40 71 42 72 35 73 36 74 37 75
REMARK SMILES IDX 38 76 39 77 65 78 66 79 75 80 67 81 68 82 74 83 76 84 69 85
REMARK SMILES IDX 70 86 71 87 72 88 73 89 49 90 50 91 59 92 51 93 52 94 58 95
REMARK SMILES IDX 60 96 53 97 54 98 55 99 56 100 57 101
REMARK H PARENT 81 51 47 62
REMARK Flexibility Score: inf
ROOT
ATOM      1  C   UNL A   1      33.794  28.431  26.515  1.00  0.00     0.188 C 
ENDROOT
BRANCH   1   2
ATOM      2  O   UNL A   1      32.448  28.671  26.110  1.00  0.00    -0.377 OA
BRANCH   2   3
ATOM      3  C   UNL A   1      32.301  29.352  24.874  1.00  0.00     0.188 C 
BRANCH   3   4
ATOM      4  C   UNL A   1      33.362  28.999  23.806  1.00  0.00     0.188 C 
BRANCH   4   5
ATOM      5  O   UNL A   1      33.228  27.888  22.921  1.00  0.00    -0.376 OA
BRANCH   5   6
ATOM      6  C   UNL A   1      32.055  27.093  22.894  1.00  0.00     0.202 C 
BRANCH   6   7
ATOM      7  C   UNL A   1      31.912  25.921  23.872  1.00  0.00     0.261 C 
BRANCH   7   8
ATOM      8  O   UNL A   1      31.872  24.622  23.283  1.00  0.00    -0.457 OA
BRANCH   8   9
ATOM      9  C   UNL A   1      33.082  24.086  22.934  1.00  0.00     0.378 C 
ATOM     10  O   UNL A   1      33.507  24.019  21.782  1.00  0.00    -0.242 OA
BRANCH   9  11
ATOM     11  C   UNL A   1      33.863  23.699  24.120  1.00  0.00     0.260 A 
ATOM     12  C   UNL A   1      34.238  22.355  27.410  1.00  0.00     0.090 C 
ATOM     13  C   UNL A   1      34.336  22.843  26.014  1.00  0.00     0.130 A 
ATOM     14  N   UNL A   1      33.302  23.146  25.253  1.00  0.00    -0.206 NA
ATOM     15  N   UNL A   1      35.504  23.195  25.356  1.00  0.00    -0.217 N 
ATOM     16  N   UNL A   1      35.199  23.787  24.178  1.00  0.00    -0.138 NA
BRANCH  15  17
ATOM     17  C   UNL A   1      36.865  23.073  25.740  1.00  0.00     0.067 A 
ATOM     18  C   UNL A   1      37.495  21.836  25.530  1.00  0.00     0.028 A 
ATOM     19  C   UNL A   1      37.576  24.121  26.338  1.00  0.00     0.041 A 
ATOM     20  C   UNL A   1      38.836  21.660  25.860  1.00  0.00     0.003 A 
ATOM     21  C   UNL A   1      38.920  23.932  26.717  1.00  0.00     0.058 A 
ATOM     22  C   UNL A   1      39.544  22.701  26.450  1.00  0.00     0.013 A 
BRANCH  21  23
ATOM     23  C   UNL A   1      39.703  25.009  27.434  1.00  0.00     0.416 C 
ATOM     24  F   UNL A   1      40.891  25.276  26.829  1.00  0.00    -0.166 F 
ATOM     25  F   UNL A   1      39.027  26.190  27.480  1.00  0.00    -0.166 F 
ATOM     26  F   UNL A   1      39.994  24.693  28.726  1.00  0.00    -0.166 F 
ENDBRANCH  21  23
ENDBRANCH  15  17
ENDBRANCH   9  11
ENDBRANCH   8   9
ENDBRANCH   7   8
ENDBRANCH   6   7
ENDBRANCH   5   6
ENDBRANCH   4   5
ENDBRANCH   3   4
ENDBRANCH   2   3
ENDBRANCH   1   2
BRANCH   1  27
ATOM     27  C   UNL A   1      34.539  29.587  27.222  1.00  0.00     0.188 C 
BRANCH  27  28
ATOM     28  O   UNL A   1      33.674  30.605  27.721  1.00  0.00    -0.376 OA
BRANCH  28  29
ATOM     29  C   UNL A   1      33.861  31.945  27.290  1.00  0.00     0.202 C 
BRANCH  29  30
ATOM     30  C   UNL A   1      33.585  32.977  28.379  1.00  0.00     0.261 C 
BRANCH  30  31
ATOM     31  O   UNL A   1      34.112  32.600  29.640  1.00  0.00    -0.460 OA
BRANCH  31  32
ATOM     32  C   UNL A   1      35.345  33.050  29.921  1.00  0.00     0.338 C 
ATOM     33  O   UNL A   1      35.704  34.223  30.009  1.00  0.00    -0.246 OA
BRANCH  32  34
ATOM     34  C   UNL A   1      36.245  31.903  30.019  1.00  0.00     0.060 A 
ATOM     35  C   UNL A   1      36.531  31.472  31.313  1.00  0.00     0.016 A 
ATOM     36  C   UNL A   1      37.047  31.574  28.911  1.00  0.00     0.016 A 
ATOM     37  C   UNL A   1      37.800  31.019  31.552  1.00  0.00     0.010 A 
ATOM     38  C   UNL A   1      38.318  31.136  29.152  1.00  0.00     0.010 A 
ATOM     39  C   UNL A   1      38.699  30.999  30.482  1.00  0.00    -0.014 A 
BRANCH  39  40
ATOM     40  C   UNL A   1      40.099  30.950  30.812  1.00  0.00     0.031 A 
ATOM     41  C   UNL A   1      40.758  32.261  30.787  1.00  0.00     0.074 A 
ATOM     42  C   UNL A   1      40.682  29.793  31.167  1.00  0.00     0.049 A 
ATOM     43  N   UNL A   1      41.635  32.692  29.945  1.00  0.00    -0.248 NA
ATOM     44  C   UNL A   1      40.241  33.280  31.712  1.00  0.00     0.031 C 
ATOM     45  C   UNL A   1      40.047  28.514  31.507  1.00  0.00     0.029 A 
ATOM     46  N   UNL A   1      41.995  29.556  31.402  1.00  0.00    -0.354 N 
ATOM     47  C   UNL A   1      41.944  33.973  30.375  1.00  0.00     0.074 A 
ATOM     48  C   UNL A   1      40.924  34.352  31.318  1.00  0.00     0.031 C 
ATOM     49  C   UNL A   1      40.956  27.723  32.121  1.00  0.00     0.029 A 
ATOM     50  C   UNL A   1      42.246  28.393  32.107  1.00  0.00     0.049 A 
ATOM     51  H   UNL A   1      42.709  30.161  31.098  1.00  0.00     0.167 HD
ATOM     52  C   UNL A   1      43.156  34.533  30.127  1.00  0.00     0.037 A 
ATOM     53  C   UNL A   1      43.410  28.094  32.734  1.00  0.00     0.037 A 
ATOM     54  C   UNL A   1      43.859  33.851  29.071  1.00  0.00     0.049 A 
ATOM     55  C   UNL A   1      44.469  28.947  32.116  1.00  0.00     0.074 A 
ATOM     56  C   UNL A   1      43.588  33.606  27.738  1.00  0.00     0.029 A 
ATOM     57  N   UNL A   1      44.856  32.972  29.419  1.00  0.00    -0.354 N 
ATOM     58  N   UNL A   1      44.862  28.838  30.872  1.00  0.00    -0.248 NA
ATOM     59  C   UNL A   1      44.769  30.227  32.743  1.00  0.00     0.031 C 
ATOM     60  C   UNL A   1      44.105  32.304  27.483  1.00  0.00     0.029 A 
ATOM     61  C   UNL A   1      44.690  31.838  28.663  1.00  0.00     0.049 A 
ATOM     62  H   UNL A   1      45.562  33.128  30.089  1.00  0.00     0.167 HD
ATOM     63  C   UNL A   1      45.093  30.140  30.445  1.00  0.00     0.074 A 
ATOM     64  C   UNL A   1      45.108  30.940  31.665  1.00  0.00     0.031 C 
ATOM     65  C   UNL A   1      44.968  30.493  29.130  1.00  0.00     0.037 A 
BRANCH  52  66
ATOM     66  C   UNL A   1      43.822  35.475  31.090  1.00  0.00     0.058 A 
ATOM     67  C   UNL A   1      44.142  35.035  32.384  1.00  0.00     0.135 A 
ATOM     68  C   UNL A   1      43.929  36.867  30.865  1.00  0.00     0.135 A 
ATOM     69  F   UNL A   1      44.048  33.735  32.706  1.00  0.00    -0.206 F 
ATOM     70  C   UNL A   1      44.495  35.923  33.400  1.00  0.00     0.059 A 
ATOM     71  C   UNL A   1      44.343  37.760  31.841  1.00  0.00     0.059 A 
ATOM     72  F   UNL A   1      43.537  37.440  29.720  1.00  0.00    -0.206 F 
ATOM     73  C   UNL A   1      44.577  37.285  33.119  1.00  0.00     0.060 A 
BRANCH  73  74
ATOM     74  S   UNL A   1      44.903  38.450  34.451  1.00  0.00     0.124 S 
ATOM     75  O   UNL A   1      45.471  37.570  35.466  1.00  0.00    -0.237 OA
ATOM     76  O   UNL A   1      45.828  39.385  33.819  1.00  0.00    -0.237 OA
ATOM     77  O   UNL A   1      43.581  38.993  34.751  1.00  0.00    -0.744 OA
ENDBRANCH  73  74
ENDBRANCH  52  66
BRANCH  53  78
ATOM     78  C   UNL A   1      43.542  27.451  34.069  1.00  0.00     0.058 A 
ATOM     79  C   UNL A   1      44.405  26.362  34.275  1.00  0.00     0.135 A 
ATOM     80  C   UNL A   1      43.005  28.043  35.234  1.00  0.00     0.135 A 
ATOM     81  F   UNL A   1      44.991  25.761  33.229  1.00  0.00    -0.206 F 
ATOM     82  C   UNL A   1      44.735  25.905  35.557  1.00  0.00     0.059 A 
ATOM     83  C   UNL A   1      43.302  27.593  36.517  1.00  0.00     0.059 A 
ATOM     84  F   UNL A   1      42.239  29.141  35.171  1.00  0.00    -0.206 F 
ATOM     85  C   UNL A   1      44.186  26.536  36.674  1.00  0.00     0.060 A 
BRANCH  85  86
ATOM     86  S   UNL A   1      44.716  26.047  38.331  1.00  0.00     0.124 S 
ATOM     87  O   UNL A   1      46.002  26.726  38.448  1.00  0.00    -0.237 OA
ATOM     88  O   UNL A   1      43.638  26.568  39.165  1.00  0.00    -0.237 OA
ATOM     89  O   UNL A   1      44.786  24.590  38.249  1.00  0.00    -0.744 OA
ENDBRANCH  85  86
ENDBRANCH  53  78
BRANCH  65  90
ATOM     90  C   UNL A   1      44.834  29.391  28.107  1.00  0.00     0.058 A 
ATOM     91  C   UNL A   1      45.930  28.682  27.582  1.00  0.00     0.135 A 
ATOM     92  C   UNL A   1      43.555  28.913  27.788  1.00  0.00     0.135 A 
ATOM     93  F   UNL A   1      47.184  29.004  27.926  1.00  0.00    -0.206 F 
ATOM     94  C   UNL A   1      45.763  27.572  26.753  1.00  0.00     0.059 A 
ATOM     95  C   UNL A   1      43.364  27.787  26.987  1.00  0.00     0.059 A 
ATOM     96  F   UNL A   1      42.468  29.503  28.312  1.00  0.00    -0.206 F 
ATOM     97  C   UNL A   1      44.475  27.126  26.466  1.00  0.00     0.060 A 
BRANCH  97  98
ATOM     98  S   UNL A   1      44.267  25.620  25.489  1.00  0.00     0.124 S 
ATOM     99  O   UNL A   1      43.063  25.917  24.719  1.00  0.00    -0.237 OA
ATOM    100  O   UNL A   1      45.510  25.563  24.723  1.00  0.00    -0.237 OA
ATOM    101  O   UNL A   1      44.122  24.575  26.499  1.00  0.00    -0.744 OA
ENDBRANCH  97  98
ENDBRANCH  65  90
ENDBRANCH  39  40
ENDBRANCH  32  34
ENDBRANCH  31  32
ENDBRANCH  30  31
ENDBRANCH  29  30
ENDBRANCH  28  29
ENDBRANCH  27  28
ENDBRANCH   1  27
TORSDOF 25
ENDMDL
MODEL 3
REMARK VINA RESULT:      -8.7      2.805      8.233
REMARK SMILES Cc1nc(C(=O)OCCOCCOCCOCCOC(=O)c2ccc(-c3c4nc(c(-c5c(F)cc(S(=O)(=O)[O-])cc5F)c5ccc([nH]5)c(-c5c(F)cc(S(=O)(=O)[O-])cc5F)c5nc(c(-c6c(F)cc(S(=O)(=O)[O-])cc6F)c6ccc3[nH]6)C=C5)C=C4)cc2)nn1-c1cccc(C(F)(F)F)c1
REMARK SMILES IDX 14 1 13 2 12 3 11 4 10 5 9 6 8 7 7 8 5 9 6 10 4 11 1 12 2 13
REMARK SMILES IDX 3 14 89 15 88 16 90 17 91 18 99 19 92 20 94 21 93 22 95 23
REMARK SMILES IDX 96 24 97 25 98 26 15 27 16 28 17 29 18 30 19 31 20 32 21 33
REMARK SMILES IDX 22 34 23 35 87 36 24 37 86 38 25 39 26 40 27 41 80 42 28 43
REMARK SMILES IDX 85 44 79 45 81 46 29 47 84 48 78 49 77 50 30 52 64 53 43 54
REMARK SMILES IDX 63 55 44 56 47 57 62 58 82 59 45 60 46 61 61 63 83 64 48 65
REMARK SMILES IDX 31 66 32 67 41 68 33 69 34 70 40 71 42 72 35 73 36 74 37 75
REMARK SMILES IDX 38 76 39 77 65 78 66 79 75 80 67 81 68 82 74 83 76 84 69 85
REMARK SMILES IDX 70 86 71 87 72 88 73 89 49 90 50 91 59 92 51 93 52 94 58 95
REMARK SMILES IDX 60 96 53 97 54 98 55 99 56 100 57 101
REMARK H PARENT 81 51 47 62
REMARK Flexibility Score: inf
ROOT
ATOM      1  C   UNL A   1      43.799  42.484  31.437  1.00  0.00     0.188 C 
ENDROOT
BRANCH   1   2
ATOM      2  O   UNL A   1      44.178  43.841  31.218  1.00  0.00    -0.377 OA
BRANCH   2   3
ATOM      3  C   UNL A   1      44.370  44.204  29.861  1.00  0.00     0.188 C 
BRANCH   3   4
ATOM      4  C   UNL A   1      45.746  43.811  29.271  1.00  0.00     0.188 C 
BRANCH   4   5
ATOM      5  O   UNL A   1      45.960  43.611  27.875  1.00  0.00    -0.376 OA
BRANCH   5   6
ATOM      6  C   UNL A   1      44.929  43.145  27.021  1.00  0.00     0.202 C 
BRANCH   6   7
ATOM      7  C   UNL A   1      45.183  43.043  25.513  1.00  0.00     0.261 C 
BRANCH   7   8
ATOM      8  O   UNL A   1      44.166  43.588  24.673  1.00  0.00    -0.457 OA
BRANCH   8   9
ATOM      9  C   UNL A   1      43.631  42.733  23.749  1.00  0.00     0.378 C 
ATOM     10  O   UNL A   1      42.904  41.779  24.021  1.00  0.00    -0.242 OA
BRANCH   9  11
ATOM     11  C   UNL A   1      43.942  43.160  22.374  1.00  0.00     0.260 A 
ATOM     12  C   UNL A   1      46.026  43.370  19.480  1.00  0.00     0.090 C 
ATOM     13  C   UNL A   1      44.962  43.320  20.510  1.00  0.00     0.130 A 
ATOM     14  N   UNL A   1      45.131  42.869  21.738  1.00  0.00    -0.206 NA
ATOM     15  N   UNL A   1      43.693  43.866  20.396  1.00  0.00    -0.217 N 
ATOM     16  N   UNL A   1      43.067  43.812  21.595  1.00  0.00    -0.138 NA
BRANCH  15  17
ATOM     17  C   UNL A   1      43.031  44.469  19.295  1.00  0.00     0.067 A 
ATOM     18  C   UNL A   1      42.068  43.708  18.614  1.00  0.00     0.028 A 
ATOM     19  C   UNL A   1      43.328  45.766  18.857  1.00  0.00     0.041 A 
ATOM     20  C   UNL A   1      41.365  44.251  17.542  1.00  0.00     0.003 A 
ATOM     21  C   UNL A   1      42.652  46.303  17.742  1.00  0.00     0.058 A 
ATOM     22  C   UNL A   1      41.655  45.540  17.108  1.00  0.00     0.013 A 
BRANCH  21  23
ATOM     23  C   UNL A   1      42.992  47.667  17.188  1.00  0.00     0.416 C 
ATOM     24  F   UNL A   1      42.564  47.829  15.908  1.00  0.00    -0.166 F 
ATOM     25  F   UNL A   1      42.419  48.671  17.908  1.00  0.00    -0.166 F 
ATOM     26  F   UNL A   1      44.328  47.928  17.179  1.00  0.00    -0.166 F 
ENDBRANCH  21  23
ENDBRANCH  15  17
ENDBRANCH   9  11
ENDBRANCH   8   9
ENDBRANCH   7   8
ENDBRANCH   6   7
ENDBRANCH   5   6
ENDBRANCH   4   5
ENDBRANCH   3   4
ENDBRANCH   2   3
ENDBRANCH   1   2
BRANCH   1  27
ATOM     27  C   UNL A   1      44.836  41.559  32.118  1.00  0.00     0.188 C 
BRANCH  27  28
ATOM     28  O   UNL A   1      44.934  40.269  31.518  1.00  0.00    -0.376 OA
BRANCH  28  29
ATOM     29  C   UNL A   1      43.748  39.528  31.271  1.00  0.00     0.202 C 
BRANCH  29  30
ATOM     30  C   UNL A   1      43.657  38.982  29.851  1.00  0.00     0.261 C 
BRANCH  30  31
ATOM     31  O   UNL A   1      43.878  37.583  29.784  1.00  0.00    -0.460 OA
BRANCH  31  32
ATOM     32  C   UNL A   1      45.055  37.198  29.266  1.00  0.00     0.338 C 
ATOM     33  O   UNL A   1      46.092  37.859  29.208  1.00  0.00    -0.246 OA
BRANCH  32  34
ATOM     34  C   UNL A   1      44.891  35.870  28.681  1.00  0.00     0.060 A 
ATOM     35  C   UNL A   1      43.583  35.512  28.358  1.00  0.00     0.016 A 
ATOM     36  C   UNL A   1      45.921  34.926  28.842  1.00  0.00     0.016 A 
ATOM     37  C   UNL A   1      43.231  34.204  28.548  1.00  0.00     0.010 A 
ATOM     38  C   UNL A   1      45.566  33.623  29.045  1.00  0.00     0.010 A 
ATOM     39  C   UNL A   1      44.209  33.326  29.024  1.00  0.00    -0.014 A 
BRANCH  39  40
ATOM     40  C   UNL A   1      43.745  32.104  29.625  1.00  0.00     0.031 A 
ATOM     41  C   UNL A   1      43.596  30.997  28.673  1.00  0.00     0.074 A 
ATOM     42  C   UNL A   1      43.545  32.021  30.951  1.00  0.00     0.049 A 
ATOM     43  N   UNL A   1      42.505  30.448  28.259  1.00  0.00    -0.248 NA
ATOM     44  C   UNL A   1      44.809  30.569  27.960  1.00  0.00     0.031 C 
ATOM     45  C   UNL A   1      43.950  32.966  31.999  1.00  0.00     0.029 A 
ATOM     46  N   UNL A   1      43.016  30.991  31.654  1.00  0.00    -0.354 N 
ATOM     47  C   UNL A   1      42.915  29.448  27.391  1.00  0.00     0.074 A 
ATOM     48  C   UNL A   1      44.300  29.702  27.088  1.00  0.00     0.031 C 
ATOM     49  C   UNL A   1      43.857  32.353  33.200  1.00  0.00     0.029 A 
ATOM     50  C   UNL A   1      43.282  31.032  33.011  1.00  0.00     0.049 A 
ATOM     51  H   UNL A   1      42.488  30.274  31.234  1.00  0.00     0.167 HD
ATOM     52  C   UNL A   1      42.166  28.334  27.186  1.00  0.00     0.037 A 
ATOM     53  C   UNL A   1      43.147  29.989  33.866  1.00  0.00     0.037 A 
ATOM     54  C   UNL A   1      40.804  28.514  27.613  1.00  0.00     0.049 A 
ATOM     55  C   UNL A   1      42.218  29.014  33.221  1.00  0.00     0.074 A 
ATOM     56  C   UNL A   1      39.790  29.382  27.253  1.00  0.00     0.029 A 
ATOM     57  N   UNL A   1      40.427  27.979  28.822  1.00  0.00    -0.354 N 
ATOM     58  N   UNL A   1      40.955  29.257  32.981  1.00  0.00    -0.248 NA
ATOM     59  C   UNL A   1      42.797  27.941  32.424  1.00  0.00     0.031 C 
ATOM     60  C   UNL A   1      39.091  29.665  28.461  1.00  0.00     0.029 A 
ATOM     61  C   UNL A   1      39.694  28.933  29.486  1.00  0.00     0.049 A 
ATOM     62  H   UNL A   1      40.644  27.077  29.153  1.00  0.00     0.167 HD
ATOM     63  C   UNL A   1      40.692  28.658  31.754  1.00  0.00     0.074 A 
ATOM     64  C   UNL A   1      41.837  27.787  31.508  1.00  0.00     0.031 C 
ATOM     65  C   UNL A   1      39.716  29.132  30.922  1.00  0.00     0.037 A 
BRANCH  52  66
ATOM     66  C   UNL A   1      42.779  26.987  26.923  1.00  0.00     0.058 A 
ATOM     67  C   UNL A   1      42.857  26.504  25.607  1.00  0.00     0.135 A 
ATOM     68  C   UNL A   1      43.063  26.050  27.945  1.00  0.00     0.135 A 
ATOM     69  F   UNL A   1      42.582  27.307  24.567  1.00  0.00    -0.206 F 
ATOM     70  C   UNL A   1      43.149  25.169  25.327  1.00  0.00     0.059 A 
ATOM     71  C   UNL A   1      43.420  24.736  27.686  1.00  0.00     0.059 A 
ATOM     72  F   UNL A   1      42.906  26.337  29.243  1.00  0.00    -0.206 F 
ATOM     73  C   UNL A   1      43.413  24.292  26.376  1.00  0.00     0.060 A 
BRANCH  73  74
ATOM     74  S   UNL A   1      43.660  22.543  26.033  1.00  0.00     0.124 S 
ATOM     75  O   UNL A   1      42.997  22.410  24.741  1.00  0.00    -0.237 OA
ATOM     76  O   UNL A   1      45.116  22.436  26.022  1.00  0.00    -0.237 OA
ATOM     77  O   UNL A   1      42.998  21.885  27.157  1.00  0.00    -0.744 OA
ENDBRANCH  73  74
ENDBRANCH  52  66
BRANCH  53  78
ATOM     78  C   UNL A   1      44.088  29.633  34.962  1.00  0.00     0.058 A 
ATOM     79  C   UNL A   1      43.660  29.555  36.297  1.00  0.00     0.135 A 
ATOM     80  C   UNL A   1      45.379  29.124  34.696  1.00  0.00     0.135 A 
ATOM     81  F   UNL A   1      42.433  29.978  36.637  1.00  0.00    -0.206 F 
ATOM     82  C   UNL A   1      44.452  28.984  37.301  1.00  0.00     0.059 A 
ATOM     83  C   UNL A   1      46.192  28.572  35.681  1.00  0.00     0.059 A 
ATOM     84  F   UNL A   1      45.864  29.065  33.447  1.00  0.00    -0.206 F 
ATOM     85  C   UNL A   1      45.715  28.484  36.980  1.00  0.00     0.060 A 
BRANCH  85  86
ATOM     86  S   UNL A   1      46.683  27.618  38.236  1.00  0.00     0.124 S 
ATOM     87  O   UNL A   1      47.728  28.592  38.534  1.00  0.00    -0.237 OA
ATOM     88  O   UNL A   1      45.696  27.396  39.286  1.00  0.00    -0.237 OA
ATOM     89  O   UNL A   1      47.135  26.413  37.545  1.00  0.00    -0.744 OA
ENDBRANCH  85  86
ENDBRANCH  53  78
BRANCH  65  90
ATOM     90  C   UNL A   1      38.749  30.153  31.469  1.00  0.00     0.058 A 
ATOM     91  C   UNL A   1      38.899  31.540  31.290  1.00  0.00     0.135 A 
ATOM     92  C   UNL A   1      37.541  29.710  32.029  1.00  0.00     0.135 A 
ATOM     93  F   UNL A   1      39.973  32.038  30.663  1.00  0.00    -0.206 F 
ATOM     94  C   UNL A   1      37.912  32.447  31.678  1.00  0.00     0.059 A 
ATOM     95  C   UNL A   1      36.528  30.596  32.396  1.00  0.00     0.059 A 
ATOM     96  F   UNL A   1      37.306  28.395  32.165  1.00  0.00    -0.206 F 
ATOM     97  C   UNL A   1      36.724  31.965  32.225  1.00  0.00     0.060 A 
BRANCH  97  98
ATOM     98  S   UNL A   1      35.404  33.134  32.617  1.00  0.00     0.124 S 
ATOM     99  O   UNL A   1      35.233  32.936  34.053  1.00  0.00    -0.237 OA
ATOM    100  O   UNL A   1      35.984  34.415  32.220  1.00  0.00    -0.237 OA
ATOM    101  O   UNL A   1      34.290  32.682  31.787  1.00  0.00    -0.744 OA
ENDBRANCH  97  98
ENDBRANCH  65  90
ENDBRANCH  39  40
ENDBRANCH  32  34
ENDBRANCH  31  32
ENDBRANCH  30  31
ENDBRANCH  29  30
ENDBRANCH  28  29
ENDBRANCH  27  28
ENDBRANCH   1  27
TORSDOF 25
ENDMDL
