MODEL 1
REMARK VINA RESULT:     -10.0      0.000      0.000
REMARK SMILES C[NH2+][C@]1(C(=O)OCCOCCOCCOCCOC(=O)c2ccc(-c3c4nc(c(-c5c(F)cc(S(=O)(=O)[O-])cc5F)c5ccc([nH]5)c(-c5c(F)cc(S(=O)(=O)[O-])cc5F)c5nc(c(-c6c(F)cc(S(=O)(=O)[O-])cc6F)c6ccc3[nH]6)C=C5)C=C4)cc2)CCC[C@@H]([N@H+]2CC[C@@H](C)C2)C1
REMARK SMILES IDX 13 1 12 2 11 3 10 4 9 5 8 6 7 7 6 8 4 9 5 10 3 11 87 12
REMARK SMILES IDX 97 13 88 14 90 15 89 16 2 17 1 18 91 21 92 22 96 23 93 25
REMARK SMILES IDX 94 26 95 27 14 28 15 29 16 30 17 31 18 32 19 33 20 34 21 35
REMARK SMILES IDX 22 36 86 37 23 38 85 39 24 40 25 41 26 42 79 43 27 44 84 45
REMARK SMILES IDX 78 46 80 47 28 48 83 49 77 50 76 51 29 53 63 54 42 55 62 56
REMARK SMILES IDX 43 57 46 58 61 59 81 60 44 61 45 62 60 64 82 65 47 66 30 67
REMARK SMILES IDX 31 68 40 69 32 70 33 71 39 72 41 73 34 74 35 75 36 76 37 77
REMARK SMILES IDX 38 78 64 79 65 80 74 81 66 82 67 83 73 84 75 85 68 86 69 87
REMARK SMILES IDX 70 88 71 89 72 90 48 91 49 92 58 93 50 94 51 95 57 96 59 97
REMARK SMILES IDX 52 98 53 99 54 100 55 101 56 102
REMARK H PARENT 2 19 2 20 91 24 80 52 46 63
REMARK Flexibility Score: inf
ROOT
ATOM      1  C   UNL A   1      39.056  21.005  25.872  1.00  0.00     0.188 C 
ENDROOT
BRANCH   1   2
ATOM      2  O   UNL A   1      38.212  20.166  25.102  1.00  0.00    -0.377 OA
BRANCH   2   3
ATOM      3  C   UNL A   1      36.876  20.584  24.936  1.00  0.00     0.188 C 
BRANCH   3   4
ATOM      4  C   UNL A   1      36.598  22.067  25.247  1.00  0.00     0.188 C 
BRANCH   4   5
ATOM      5  O   UNL A   1      35.500  22.497  26.048  1.00  0.00    -0.376 OA
BRANCH   5   6
ATOM      6  C   UNL A   1      34.964  23.809  25.986  1.00  0.00     0.202 C 
BRANCH   6   7
ATOM      7  C   UNL A   1      33.483  24.053  26.325  1.00  0.00     0.261 C 
BRANCH   7   8
ATOM      8  O   UNL A   1      32.680  24.688  25.318  1.00  0.00    -0.459 OA
BRANCH   8   9
ATOM      9  C   UNL A   1      31.818  25.612  25.799  1.00  0.00     0.368 C 
ATOM     10  O   UNL A   1      30.823  25.339  26.472  1.00  0.00    -0.245 OA
BRANCH   9  11
ATOM     11  C   UNL A   1      32.118  27.087  25.351  1.00  0.00     0.199 C 
ATOM     12  C   UNL A   1      33.408  27.369  24.554  1.00  0.00     0.081 C 
ATOM     13  C   UNL A   1      30.963  27.208  24.373  1.00  0.00     0.146 C 
ATOM     14  C   UNL A   1      33.372  28.709  23.801  1.00  0.00     0.013 C 
ATOM     15  C   UNL A   1      30.815  28.505  23.611  1.00  0.00     0.190 C 
ATOM     16  C   UNL A   1      32.138  28.870  22.904  1.00  0.00     0.065 C 
BRANCH  11  17
ATOM     17  N   UNL A   1      31.800  27.985  26.504  1.00  0.00    -0.334 N 
ATOM     18  C   UNL A   1      32.868  28.469  27.352  1.00  0.00     0.331 C 
ATOM     19  H   UNL A   1      31.333  28.806  26.120  1.00  0.00     0.347 HD
ATOM     20  H   UNL A   1      31.257  27.388  27.127  1.00  0.00     0.347 HD
ENDBRANCH  11  17
BRANCH  15  21
ATOM     21  N   UNL A   1      29.640  28.412  22.704  1.00  0.00    -0.332 N 
ATOM     22  C   UNL A   1      28.400  27.937  23.344  1.00  0.00     0.262 C 
ATOM     23  C   UNL A   1      29.312  29.689  22.029  1.00  0.00     0.265 C 
ATOM     24  H   UNL A   1      29.955  27.718  22.026  1.00  0.00     0.348 HD
ATOM     25  C   UNL A   1      27.280  28.904  22.972  1.00  0.00     0.070 C 
ATOM     26  C   UNL A   1      27.968  30.198  22.569  1.00  0.00     0.047 C 
ATOM     27  C   UNL A   1      28.010  31.209  23.722  1.00  0.00     0.014 C 
ENDBRANCH  15  21
ENDBRANCH   9  11
ENDBRANCH   8   9
ENDBRANCH   7   8
ENDBRANCH   6   7
ENDBRANCH   5   6
ENDBRANCH   4   5
ENDBRANCH   3   4
ENDBRANCH   2   3
ENDBRANCH   1   2
BRANCH   1  28
ATOM     28  C   UNL A   1      40.409  20.424  26.321  1.00  0.00     0.188 C 
BRANCH  28  29
ATOM     29  O   UNL A   1      40.688  20.600  27.705  1.00  0.00    -0.376 OA
BRANCH  29  30
ATOM     30  C   UNL A   1      41.955  21.085  28.117  1.00  0.00     0.202 C 
BRANCH  30  31
ATOM     31  C   UNL A   1      42.569  22.266  27.345  1.00  0.00     0.261 C 
BRANCH  31  32
ATOM     32  O   UNL A   1      42.241  23.584  27.804  1.00  0.00    -0.460 OA
BRANCH  32  33
ATOM     33  C   UNL A   1      41.259  24.254  27.165  1.00  0.00     0.338 C 
ATOM     34  O   UNL A   1      40.595  23.858  26.223  1.00  0.00    -0.246 OA
BRANCH  33  35
ATOM     35  C   UNL A   1      40.967  25.475  27.948  1.00  0.00     0.060 A 
ATOM     36  C   UNL A   1      41.958  26.460  28.056  1.00  0.00     0.016 A 
ATOM     37  C   UNL A   1      39.720  25.657  28.551  1.00  0.00     0.016 A 
ATOM     38  C   UNL A   1      41.719  27.613  28.801  1.00  0.00     0.010 A 
ATOM     39  C   UNL A   1      39.493  26.796  29.325  1.00  0.00     0.010 A 
ATOM     40  C   UNL A   1      40.506  27.759  29.484  1.00  0.00    -0.014 A 
BRANCH  40  41
ATOM     41  C   UNL A   1      40.390  28.784  30.548  1.00  0.00     0.031 A 
ATOM     42  C   UNL A   1      41.305  28.666  31.738  1.00  0.00     0.074 A 
ATOM     43  C   UNL A   1      39.522  29.807  30.453  1.00  0.00     0.049 A 
ATOM     44  N   UNL A   1      41.363  29.398  32.818  1.00  0.00    -0.248 NA
ATOM     45  C   UNL A   1      42.286  27.568  31.700  1.00  0.00     0.031 C 
ATOM     46  C   UNL A   1      38.623  30.052  29.329  1.00  0.00     0.029 A 
ATOM     47  N   UNL A   1      39.252  30.826  31.332  1.00  0.00    -0.354 N 
ATOM     48  C   UNL A   1      42.379  28.847  33.591  1.00  0.00     0.074 A 
ATOM     49  C   UNL A   1      42.889  27.701  32.871  1.00  0.00     0.031 C 
ATOM     50  C   UNL A   1      37.884  31.144  29.594  1.00  0.00     0.029 A 
ATOM     51  C   UNL A   1      38.235  31.653  30.920  1.00  0.00     0.049 A 
ATOM     52  H   UNL A   1      39.740  30.953  32.177  1.00  0.00     0.167 HD
ATOM     53  C   UNL A   1      42.851  29.265  34.788  1.00  0.00     0.037 A 
ATOM     54  C   UNL A   1      37.640  32.683  31.556  1.00  0.00     0.037 A 
ATOM     55  C   UNL A   1      42.332  30.403  35.500  1.00  0.00     0.049 A 
ATOM     56  C   UNL A   1      38.128  33.084  32.926  1.00  0.00     0.074 A 
ATOM     57  C   UNL A   1      42.743  30.914  36.718  1.00  0.00     0.029 A 
ATOM     58  N   UNL A   1      41.283  31.199  35.064  1.00  0.00    -0.354 N 
ATOM     59  N   UNL A   1      39.101  32.567  33.640  1.00  0.00    -0.248 NA
ATOM     60  C   UNL A   1      37.442  34.209  33.576  1.00  0.00     0.031 C 
ATOM     61  C   UNL A   1      41.905  31.985  37.045  1.00  0.00     0.029 A 
ATOM     62  C   UNL A   1      41.015  32.182  36.001  1.00  0.00     0.049 A 
ATOM     63  H   UNL A   1      40.801  31.082  34.214  1.00  0.00     0.167 HD
ATOM     64  C   UNL A   1      39.162  33.324  34.808  1.00  0.00     0.074 A 
ATOM     65  C   UNL A   1      38.136  34.340  34.698  1.00  0.00     0.031 C 
ATOM     66  C   UNL A   1      39.994  33.193  35.872  1.00  0.00     0.037 A 
BRANCH  53  67
ATOM     67  C   UNL A   1      43.961  28.467  35.415  1.00  0.00     0.058 A 
ATOM     68  C   UNL A   1      43.706  27.431  36.327  1.00  0.00     0.135 A 
ATOM     69  C   UNL A   1      45.299  28.730  35.080  1.00  0.00     0.135 A 
ATOM     70  F   UNL A   1      42.447  27.153  36.701  1.00  0.00    -0.206 F 
ATOM     71  C   UNL A   1      44.739  26.699  36.904  1.00  0.00     0.059 A 
ATOM     72  C   UNL A   1      46.347  27.991  35.621  1.00  0.00     0.059 A 
ATOM     73  F   UNL A   1      45.601  29.716  34.220  1.00  0.00    -0.206 F 
ATOM     74  C   UNL A   1      46.057  26.985  36.543  1.00  0.00     0.060 A 
BRANCH  74  75
ATOM     75  S   UNL A   1      47.385  26.022  37.294  1.00  0.00     0.124 S 
ATOM     76  O   UNL A   1      48.011  27.015  38.161  1.00  0.00    -0.237 OA
ATOM     77  O   UNL A   1      46.651  24.960  37.975  1.00  0.00    -0.237 OA
ATOM     78  O   UNL A   1      48.185  25.594  36.151  1.00  0.00    -0.744 OA
ENDBRANCH  74  75
ENDBRANCH  53  67
BRANCH  54  79
ATOM     79  C   UNL A   1      36.503  33.398  30.914  1.00  0.00     0.058 A 
ATOM     80  C   UNL A   1      35.186  33.224  31.365  1.00  0.00     0.135 A 
ATOM     81  C   UNL A   1      36.710  34.266  29.829  1.00  0.00     0.135 A 
ATOM     82  F   UNL A   1      34.931  32.395  32.389  1.00  0.00    -0.206 F 
ATOM     83  C   UNL A   1      34.114  33.872  30.757  1.00  0.00     0.059 A 
ATOM     84  C   UNL A   1      35.659  34.949  29.224  1.00  0.00     0.059 A 
ATOM     85  F   UNL A   1      37.951  34.474  29.363  1.00  0.00    -0.206 F 
ATOM     86  C   UNL A   1      34.362  34.736  29.689  1.00  0.00     0.060 A 
BRANCH  86  87
ATOM     87  S   UNL A   1      32.971  35.612  28.942  1.00  0.00     0.124 S 
ATOM     88  O   UNL A   1      32.208  36.012  30.119  1.00  0.00    -0.237 OA
ATOM     89  O   UNL A   1      33.642  36.688  28.219  1.00  0.00    -0.237 OA
ATOM     90  O   UNL A   1      32.348  34.596  28.100  1.00  0.00    -0.744 OA
ENDBRANCH  86  87
ENDBRANCH  54  79
BRANCH  66  91
ATOM     91  C   UNL A   1      39.866  34.196  36.988  1.00  0.00     0.058 A 
ATOM     92  C   UNL A   1      40.432  35.477  36.905  1.00  0.00     0.135 A 
ATOM     93  C   UNL A   1      39.108  33.887  38.131  1.00  0.00     0.135 A 
ATOM     94  F   UNL A   1      41.169  35.823  35.838  1.00  0.00    -0.206 F 
ATOM     95  C   UNL A   1      40.274  36.408  37.928  1.00  0.00     0.059 A 
ATOM     96  C   UNL A   1      38.910  34.814  39.150  1.00  0.00     0.059 A 
ATOM     97  F   UNL A   1      38.532  32.681  38.256  1.00  0.00    -0.206 F 
ATOM     98  C   UNL A   1      39.508  36.068  39.045  1.00  0.00     0.060 A 
BRANCH  98  99
ATOM     99  S   UNL A   1      39.282  37.299  40.346  1.00  0.00     0.124 S 
ATOM    100  O   UNL A   1      40.664  37.606  40.702  1.00  0.00    -0.237 OA
ATOM    101  O   UNL A   1      38.556  38.358  39.651  1.00  0.00    -0.237 OA
ATOM    102  O   UNL A   1      38.517  36.585  41.362  1.00  0.00    -0.744 OA
ENDBRANCH  98  99
ENDBRANCH  66  91
ENDBRANCH  40  41
ENDBRANCH  33  35
ENDBRANCH  32  33
ENDBRANCH  31  32
ENDBRANCH  30  31
ENDBRANCH  29  30
ENDBRANCH  28  29
ENDBRANCH   1  28
TORSDOF 25
ENDMDL
MODEL 2
REMARK VINA RESULT:      -9.9      6.137     10.752
REMARK SMILES C[NH2+][C@]1(C(=O)OCCOCCOCCOCCOC(=O)c2ccc(-c3c4nc(c(-c5c(F)cc(S(=O)(=O)[O-])cc5F)c5ccc([nH]5)c(-c5c(F)cc(S(=O)(=O)[O-])cc5F)c5nc(c(-c6c(F)cc(S(=O)(=O)[O-])cc6F)c6ccc3[nH]6)C=C5)C=C4)cc2)CCC[C@@H]([N@H+]2CC[C@@H](C)C2)C1
REMARK SMILES IDX 13 1 12 2 11 3 10 4 9 5 8 6 7 7 6 8 4 9 5 10 3 11 87 12
REMARK SMILES IDX 97 13 88 14 90 15 89 16 2 17 1 18 91 21 92 22 96 23 93 25
REMARK SMILES IDX 94 26 95 27 14 28 15 29 16 30 17 31 18 32 19 33 20 34 21 35
REMARK SMILES IDX 22 36 86 37 23 38 85 39 24 40 25 41 26 42 79 43 27 44 84 45
REMARK SMILES IDX 78 46 80 47 28 48 83 49 77 50 76 51 29 53 63 54 42 55 62 56
REMARK SMILES IDX 43 57 46 58 61 59 81 60 44 61 45 62 60 64 82 65 47 66 30 67
REMARK SMILES IDX 31 68 40 69 32 70 33 71 39 72 41 73 34 74 35 75 36 76 37 77
REMARK SMILES IDX 38 78 64 79 65 80 74 81 66 82 67 83 73 84 75 85 68 86 69 87
REMARK SMILES IDX 70 88 71 89 72 90 48 91 49 92 58 93 50 94 51 95 57 96 59 97
REMARK SMILES IDX 52 98 53 99 54 100 55 101 56 102
REMARK H PARENT 2 19 2 20 91 24 80 52 46 63
REMARK Flexibility Score: inf
ROOT
ATOM      1  C   UNL A   1      35.276  19.739  24.637  1.00  0.00     0.188 C 
ENDROOT
BRANCH   1   2
ATOM      2  O   UNL A   1      34.094  19.096  25.080  1.00  0.00    -0.377 OA
BRANCH   2   3
ATOM      3  C   UNL A   1      32.947  19.244  24.274  1.00  0.00     0.188 C 
BRANCH   3   4
ATOM      4  C   UNL A   1      32.314  20.648  24.264  1.00  0.00     0.188 C 
BRANCH   4   5
ATOM      5  O   UNL A   1      32.301  21.499  25.407  1.00  0.00    -0.376 OA
BRANCH   5   6
ATOM      6  C   UNL A   1      31.322  22.506  25.612  1.00  0.00     0.202 C 
BRANCH   6   7
ATOM      7  C   UNL A   1      31.538  23.917  25.037  1.00  0.00     0.261 C 
BRANCH   7   8
ATOM      8  O   UNL A   1      31.937  24.943  25.960  1.00  0.00    -0.459 OA
BRANCH   8   9
ATOM      9  C   UNL A   1      31.106  26.009  25.995  1.00  0.00     0.368 C 
ATOM     10  O   UNL A   1      29.926  25.949  26.347  1.00  0.00    -0.245 OA
BRANCH   9  11
ATOM     11  C   UNL A   1      31.727  27.345  25.453  1.00  0.00     0.199 C 
ATOM     12  C   UNL A   1      33.091  27.287  24.734  1.00  0.00     0.081 C 
ATOM     13  C   UNL A   1      30.679  27.600  24.385  1.00  0.00     0.146 C 
ATOM     14  C   UNL A   1      33.374  28.529  23.874  1.00  0.00     0.013 C 
ATOM     15  C   UNL A   1      30.844  28.823  23.511  1.00  0.00     0.190 C 
ATOM     16  C   UNL A   1      32.252  28.848  22.877  1.00  0.00     0.065 C 
BRANCH  11  17
ATOM     17  N   UNL A   1      31.536  28.394  26.502  1.00  0.00    -0.334 N 
ATOM     18  C   UNL A   1      32.446  28.459  27.626  1.00  0.00     0.331 C 
ATOM     19  H   UNL A   1      31.585  29.297  26.030  1.00  0.00     0.347 HD
ATOM     20  H   UNL A   1      30.647  28.140  26.932  1.00  0.00     0.347 HD
ENDBRANCH  11  17
BRANCH  15  21
ATOM     21  N   UNL A   1      29.728  28.880  22.529  1.00  0.00    -0.332 N 
ATOM     22  C   UNL A   1      28.381  28.791  23.118  1.00  0.00     0.262 C 
ATOM     23  C   UNL A   1      29.747  30.096  21.684  1.00  0.00     0.265 C 
ATOM     24  H   UNL A   1      29.904  28.048  21.965  1.00  0.00     0.348 HD
ATOM     25  C   UNL A   1      27.541  29.930  22.546  1.00  0.00     0.070 C 
ATOM     26  C   UNL A   1      28.536  30.967  22.050  1.00  0.00     0.047 C 
ATOM     27  C   UNL A   1      28.757  32.086  23.075  1.00  0.00     0.014 C 
ENDBRANCH  15  21
ENDBRANCH   9  11
ENDBRANCH   8   9
ENDBRANCH   7   8
ENDBRANCH   6   7
ENDBRANCH   5   6
ENDBRANCH   4   5
ENDBRANCH   3   4
ENDBRANCH   2   3
ENDBRANCH   1   2
BRANCH   1  28
ATOM     28  C   UNL A   1      35.768  20.951  25.448  1.00  0.00     0.188 C 
BRANCH  28  29
ATOM     29  O   UNL A   1      36.999  21.498  24.990  1.00  0.00    -0.376 OA
BRANCH  29  30
ATOM     30  C   UNL A   1      38.194  20.744  25.103  1.00  0.00     0.202 C 
BRANCH  30  31
ATOM     31  C   UNL A   1      39.279  21.237  26.075  1.00  0.00     0.261 C 
BRANCH  31  32
ATOM     32  O   UNL A   1      39.997  20.237  26.810  1.00  0.00    -0.460 OA
BRANCH  32  33
ATOM     33  C   UNL A   1      41.229  19.893  26.381  1.00  0.00     0.338 C 
ATOM     34  O   UNL A   1      41.534  18.894  25.752  1.00  0.00    -0.246 OA
BRANCH  33  35
ATOM     35  C   UNL A   1      42.122  21.050  26.609  1.00  0.00     0.060 A 
ATOM     36  C   UNL A   1      42.278  21.535  27.915  1.00  0.00     0.016 A 
ATOM     37  C   UNL A   1      42.817  21.637  25.549  1.00  0.00     0.016 A 
ATOM     38  C   UNL A   1      43.098  22.634  28.160  1.00  0.00     0.010 A 
ATOM     39  C   UNL A   1      43.613  22.759  25.790  1.00  0.00     0.010 A 
ATOM     40  C   UNL A   1      43.724  23.284  27.090  1.00  0.00    -0.014 A 
BRANCH  40  41
ATOM     41  C   UNL A   1      44.288  24.640  27.293  1.00  0.00     0.031 A 
ATOM     42  C   UNL A   1      43.339  25.744  27.677  1.00  0.00     0.074 A 
ATOM     43  C   UNL A   1      45.604  24.883  27.170  1.00  0.00     0.049 A 
ATOM     44  N   UNL A   1      43.572  27.016  27.857  1.00  0.00    -0.248 NA
ATOM     45  C   UNL A   1      41.934  25.353  27.882  1.00  0.00     0.031 C 
ATOM     46  C   UNL A   1      46.624  23.887  26.851  1.00  0.00     0.029 A 
ATOM     47  N   UNL A   1      46.304  26.058  27.291  1.00  0.00    -0.354 N 
ATOM     48  C   UNL A   1      42.346  27.579  28.190  1.00  0.00     0.074 A 
ATOM     49  C   UNL A   1      41.365  26.517  28.156  1.00  0.00     0.031 C 
ATOM     50  C   UNL A   1      47.821  24.497  26.782  1.00  0.00     0.029 A 
ATOM     51  C   UNL A   1      47.646  25.930  27.019  1.00  0.00     0.049 A 
ATOM     52  H   UNL A   1      45.887  26.911  27.547  1.00  0.00     0.167 HD
ATOM     53  C   UNL A   1      42.064  28.865  28.506  1.00  0.00     0.037 A 
ATOM     54  C   UNL A   1      48.611  26.869  26.943  1.00  0.00     0.037 A 
ATOM     55  C   UNL A   1      43.046  29.916  28.530  1.00  0.00     0.049 A 
ATOM     56  C   UNL A   1      48.261  28.310  27.219  1.00  0.00     0.074 A 
ATOM     57  C   UNL A   1      42.866  31.252  28.842  1.00  0.00     0.029 A 
ATOM     58  N   UNL A   1      44.389  29.753  28.222  1.00  0.00    -0.354 N 
ATOM     59  N   UNL A   1      47.101  28.829  27.550  1.00  0.00    -0.248 NA
ATOM     60  C   UNL A   1      49.349  29.292  27.118  1.00  0.00     0.031 C 
ATOM     61  C   UNL A   1      44.089  31.908  28.667  1.00  0.00     0.029 A 
ATOM     62  C   UNL A   1      45.045  30.969  28.311  1.00  0.00     0.049 A 
ATOM     63  H   UNL A   1      44.812  28.899  27.977  1.00  0.00     0.167 HD
ATOM     64  C   UNL A   1      47.329  30.192  27.725  1.00  0.00     0.074 A 
ATOM     65  C   UNL A   1      48.738  30.414  27.475  1.00  0.00     0.031 C 
ATOM     66  C   UNL A   1      46.452  31.171  28.067  1.00  0.00     0.037 A 
BRANCH  53  67
ATOM     67  C   UNL A   1      40.633  29.208  28.816  1.00  0.00     0.058 A 
ATOM     68  C   UNL A   1      40.181  29.386  30.133  1.00  0.00     0.135 A 
ATOM     69  C   UNL A   1      39.705  29.382  27.776  1.00  0.00     0.135 A 
ATOM     70  F   UNL A   1      41.021  29.207  31.166  1.00  0.00    -0.206 F 
ATOM     71  C   UNL A   1      38.855  29.700  30.410  1.00  0.00     0.059 A 
ATOM     72  C   UNL A   1      38.381  29.728  28.029  1.00  0.00     0.059 A 
ATOM     73  F   UNL A   1      40.081  29.216  26.498  1.00  0.00    -0.206 F 
ATOM     74  C   UNL A   1      37.962  29.872  29.351  1.00  0.00     0.060 A 
BRANCH  74  75
ATOM     75  S   UNL A   1      36.248  30.288  29.728  1.00  0.00     0.124 S 
ATOM     76  O   UNL A   1      36.318  31.741  29.841  1.00  0.00    -0.237 OA
ATOM     77  O   UNL A   1      35.539  29.777  28.559  1.00  0.00    -0.237 OA
ATOM     78  O   UNL A   1      35.990  29.574  30.975  1.00  0.00    -0.744 OA
ENDBRANCH  74  75
ENDBRANCH  53  67
BRANCH  54  79
ATOM     79  C   UNL A   1      49.999  26.482  26.569  1.00  0.00     0.058 A 
ATOM     80  C   UNL A   1      50.387  26.366  25.226  1.00  0.00     0.135 A 
ATOM     81  C   UNL A   1      50.966  26.212  27.551  1.00  0.00     0.135 A 
ATOM     82  F   UNL A   1      49.497  26.600  24.248  1.00  0.00    -0.206 F 
ATOM     83  C   UNL A   1      51.677  25.984  24.868  1.00  0.00     0.059 A 
ATOM     84  C   UNL A   1      52.271  25.857  27.219  1.00  0.00     0.059 A 
ATOM     85  F   UNL A   1      50.651  26.314  28.851  1.00  0.00    -0.206 F 
ATOM     86  C   UNL A   1      52.613  25.736  25.873  1.00  0.00     0.060 A 
BRANCH  86  87
ATOM     87  S   UNL A   1      54.297  25.292  25.397  1.00  0.00     0.124 S 
ATOM     88  O   UNL A   1      54.554  26.232  24.312  1.00  0.00    -0.237 OA
ATOM     89  O   UNL A   1      55.035  25.527  26.635  1.00  0.00    -0.237 OA
ATOM     90  O   UNL A   1      54.177  23.891  25.005  1.00  0.00    -0.744 OA
ENDBRANCH  86  87
ENDBRANCH  54  79
BRANCH  66  91
ATOM     91  C   UNL A   1      46.993  32.567  28.235  1.00  0.00     0.058 A 
ATOM     92  C   UNL A   1      46.976  33.501  27.188  1.00  0.00     0.135 A 
ATOM     93  C   UNL A   1      47.477  32.991  29.484  1.00  0.00     0.135 A 
ATOM     94  F   UNL A   1      46.528  33.147  25.973  1.00  0.00    -0.206 F 
ATOM     95  C   UNL A   1      47.444  34.799  27.366  1.00  0.00     0.059 A 
ATOM     96  C   UNL A   1      47.919  34.294  29.693  1.00  0.00     0.059 A 
ATOM     97  F   UNL A   1      47.503  32.142  30.524  1.00  0.00    -0.206 F 
ATOM     98  C   UNL A   1      47.910  35.187  28.624  1.00  0.00     0.060 A 
BRANCH  98  99
ATOM     99  S   UNL A   1      48.481  36.886  28.849  1.00  0.00     0.124 S 
ATOM    100  O   UNL A   1      47.376  37.645  28.272  1.00  0.00    -0.237 OA
ATOM    101  O   UNL A   1      48.622  36.977  30.300  1.00  0.00    -0.237 OA
ATOM    102  O   UNL A   1      49.731  36.928  28.099  1.00  0.00    -0.744 OA
ENDBRANCH  98  99
ENDBRANCH  66  91
ENDBRANCH  40  41
ENDBRANCH  33  35
ENDBRANCH  32  33
ENDBRANCH  31  32
ENDBRANCH  30  31
ENDBRANCH  29  30
ENDBRANCH  28  29
ENDBRANCH   1  28
TORSDOF 25
ENDMDL
MODEL 3
REMARK VINA RESULT:      -9.9      6.166     10.850
REMARK SMILES C[NH2+][C@]1(C(=O)OCCOCCOCCOCCOC(=O)c2ccc(-c3c4nc(c(-c5c(F)cc(S(=O)(=O)[O-])cc5F)c5ccc([nH]5)c(-c5c(F)cc(S(=O)(=O)[O-])cc5F)c5nc(c(-c6c(F)cc(S(=O)(=O)[O-])cc6F)c6ccc3[nH]6)C=C5)C=C4)cc2)CCC[C@@H]([N@H+]2CC[C@@H](C)C2)C1
REMARK SMILES IDX 13 1 12 2 11 3 10 4 9 5 8 6 7 7 6 8 4 9 5 10 3 11 87 12
REMARK SMILES IDX 97 13 88 14 90 15 89 16 2 17 1 18 91 21 92 22 96 23 93 25
REMARK SMILES IDX 94 26 95 27 14 28 15 29 16 30 17 31 18 32 19 33 20 34 21 35
REMARK SMILES IDX 22 36 86 37 23 38 85 39 24 40 25 41 26 42 79 43 27 44 84 45
REMARK SMILES IDX 78 46 80 47 28 48 83 49 77 50 76 51 29 53 63 54 42 55 62 56
REMARK SMILES IDX 43 57 46 58 61 59 81 60 44 61 45 62 60 64 82 65 47 66 30 67
REMARK SMILES IDX 31 68 40 69 32 70 33 71 39 72 41 73 34 74 35 75 36 76 37 77
REMARK SMILES IDX 38 78 64 79 65 80 74 81 66 82 67 83 73 84 75 85 68 86 69 87
REMARK SMILES IDX 70 88 71 89 72 90 48 91 49 92 58 93 50 94 51 95 57 96 59 97
REMARK SMILES IDX 52 98 53 99 54 100 55 101 56 102
REMARK H PARENT 2 19 2 20 91 24 80 52 46 63
REMARK Flexibility Score: inf
ROOT
ATOM      1  C   UNL A   1      34.948  21.026  24.760  1.00  0.00     0.188 C 
ENDROOT
BRANCH   1   2
ATOM      2  O   UNL A   1      34.955  19.615  24.630  1.00  0.00    -0.377 OA
BRANCH   2   3
ATOM      3  C   UNL A   1      33.736  18.946  24.865  1.00  0.00     0.188 C 
BRANCH   3   4
ATOM      4  C   UNL A   1      32.464  19.721  24.476  1.00  0.00     0.188 C 
BRANCH   4   5
ATOM      5  O   UNL A   1      31.779  20.589  25.375  1.00  0.00    -0.376 OA
BRANCH   5   6
ATOM      6  C   UNL A   1      31.435  21.926  25.050  1.00  0.00     0.202 C 
BRANCH   6   7
ATOM      7  C   UNL A   1      30.838  22.852  26.126  1.00  0.00     0.261 C 
BRANCH   7   8
ATOM      8  O   UNL A   1      30.956  24.266  25.907  1.00  0.00    -0.459 OA
BRANCH   8   9
ATOM      9  C   UNL A   1      32.195  24.669  25.545  1.00  0.00     0.368 C 
ATOM     10  O   UNL A   1      33.205  24.474  26.223  1.00  0.00    -0.245 OA
BRANCH   9  11
ATOM     11  C   UNL A   1      32.253  25.509  24.220  1.00  0.00     0.199 C 
ATOM     12  C   UNL A   1      30.952  25.703  23.412  1.00  0.00     0.081 C 
ATOM     13  C   UNL A   1      32.564  26.842  24.875  1.00  0.00     0.146 C 
ATOM     14  C   UNL A   1      31.027  26.876  22.422  1.00  0.00     0.013 C 
ATOM     15  C   UNL A   1      32.699  28.054  23.982  1.00  0.00     0.190 C 
ATOM     16  C   UNL A   1      31.458  28.196  23.074  1.00  0.00     0.065 C 
BRANCH  11  17
ATOM     17  N   UNL A   1      33.482  25.098  23.475  1.00  0.00    -0.334 N 
ATOM     18  C   UNL A   1      33.499  23.842  22.756  1.00  0.00     0.331 C 
ATOM     19  H   UNL A   1      33.674  25.831  22.792  1.00  0.00     0.347 HD
ATOM     20  H   UNL A   1      34.171  24.956  24.213  1.00  0.00     0.347 HD
ENDBRANCH  11  17
BRANCH  15  21
ATOM     21  N   UNL A   1      32.989  29.251  24.816  1.00  0.00    -0.332 N 
ATOM     22  C   UNL A   1      31.828  30.119  25.078  1.00  0.00     0.262 C 
ATOM     23  C   UNL A   1      33.585  28.923  26.132  1.00  0.00     0.265 C 
ATOM     24  H   UNL A   1      33.660  29.753  24.234  1.00  0.00     0.348 HD
ATOM     25  C   UNL A   1      31.773  30.393  26.578  1.00  0.00     0.070 C 
ATOM     26  C   UNL A   1      32.570  29.274  27.230  1.00  0.00     0.047 C 
ATOM     27  C   UNL A   1      31.663  28.146  27.739  1.00  0.00     0.014 C 
ENDBRANCH  15  21
ENDBRANCH   9  11
ENDBRANCH   8   9
ENDBRANCH   7   8
ENDBRANCH   6   7
ENDBRANCH   5   6
ENDBRANCH   4   5
ENDBRANCH   3   4
ENDBRANCH   2   3
ENDBRANCH   1   2
BRANCH   1  28
ATOM     28  C   UNL A   1      35.627  21.623  26.006  1.00  0.00     0.188 C 
BRANCH  28  29
ATOM     29  O   UNL A   1      36.884  22.238  25.746  1.00  0.00    -0.376 OA
BRANCH  29  30
ATOM     30  C   UNL A   1      37.997  21.444  25.371  1.00  0.00     0.202 C 
BRANCH  30  31
ATOM     31  C   UNL A   1      39.311  21.616  26.151  1.00  0.00     0.261 C 
BRANCH  31  32
ATOM     32  O   UNL A   1      39.874  20.438  26.745  1.00  0.00    -0.460 OA
BRANCH  32  33
ATOM     33  C   UNL A   1      41.108  20.056  26.358  1.00  0.00     0.338 C 
ATOM     34  O   UNL A   1      41.406  19.039  25.754  1.00  0.00    -0.246 OA
BRANCH  33  35
ATOM     35  C   UNL A   1      42.023  21.195  26.592  1.00  0.00     0.060 A 
ATOM     36  C   UNL A   1      42.271  21.601  27.910  1.00  0.00     0.016 A 
ATOM     37  C   UNL A   1      42.649  21.841  25.523  1.00  0.00     0.016 A 
ATOM     38  C   UNL A   1      43.113  22.682  28.162  1.00  0.00     0.010 A 
ATOM     39  C   UNL A   1      43.468  22.944  25.774  1.00  0.00     0.010 A 
ATOM     40  C   UNL A   1      43.671  23.391  27.092  1.00  0.00    -0.014 A 
BRANCH  40  41
ATOM     41  C   UNL A   1      44.257  24.731  27.335  1.00  0.00     0.031 A 
ATOM     42  C   UNL A   1      43.325  25.840  27.746  1.00  0.00     0.074 A 
ATOM     43  C   UNL A   1      45.578  24.955  27.225  1.00  0.00     0.049 A 
ATOM     44  N   UNL A   1      43.580  27.102  27.963  1.00  0.00    -0.248 NA
ATOM     45  C   UNL A   1      41.912  25.468  27.935  1.00  0.00     0.031 C 
ATOM     46  C   UNL A   1      46.582  23.950  26.883  1.00  0.00     0.029 A 
ATOM     47  N   UNL A   1      46.298  26.113  27.382  1.00  0.00    -0.354 N 
ATOM     48  C   UNL A   1      42.362  27.677  28.306  1.00  0.00     0.074 A 
ATOM     49  C   UNL A   1      41.363  26.634  28.238  1.00  0.00     0.031 C 
ATOM     50  C   UNL A   1      47.789  24.541  26.836  1.00  0.00     0.029 A 
ATOM     51  C   UNL A   1      47.638  25.969  27.112  1.00  0.00     0.049 A 
ATOM     52  H   UNL A   1      45.893  26.966  27.660  1.00  0.00     0.167 HD
ATOM     53  C   UNL A   1      42.101  28.959  28.656  1.00  0.00     0.037 A 
ATOM     54  C   UNL A   1      48.620  26.893  27.067  1.00  0.00     0.037 A 
ATOM     55  C   UNL A   1      43.101  29.991  28.714  1.00  0.00     0.049 A 
ATOM     56  C   UNL A   1      48.293  28.331  27.382  1.00  0.00     0.074 A 
ATOM     57  C   UNL A   1      42.943  31.321  29.063  1.00  0.00     0.029 A 
ATOM     58  N   UNL A   1      44.442  29.814  28.408  1.00  0.00    -0.354 N 
ATOM     59  N   UNL A   1      47.141  28.862  27.722  1.00  0.00    -0.248 NA
ATOM     60  C   UNL A   1      49.398  29.297  27.313  1.00  0.00     0.031 C 
ATOM     61  C   UNL A   1      44.178  31.960  28.912  1.00  0.00     0.029 A 
ATOM     62  C   UNL A   1      45.118  31.015  28.533  1.00  0.00     0.049 A 
ATOM     63  H   UNL A   1      44.852  28.959  28.141  1.00  0.00     0.167 HD
ATOM     64  C   UNL A   1      47.391  30.215  27.936  1.00  0.00     0.074 A 
ATOM     65  C   UNL A   1      48.805  30.419  27.699  1.00  0.00     0.031 C 
ATOM     66  C   UNL A   1      46.531  31.199  28.302  1.00  0.00     0.037 A 
BRANCH  53  67
ATOM     67  C   UNL A   1      40.674  29.317  28.970  1.00  0.00     0.058 A 
ATOM     68  C   UNL A   1      40.228  29.501  30.288  1.00  0.00     0.135 A 
ATOM     69  C   UNL A   1      39.746  29.503  27.932  1.00  0.00     0.135 A 
ATOM     70  F   UNL A   1      41.067  29.312  31.319  1.00  0.00    -0.206 F 
ATOM     71  C   UNL A   1      38.906  29.831  30.568  1.00  0.00     0.059 A 
ATOM     72  C   UNL A   1      38.426  29.863  28.188  1.00  0.00     0.059 A 
ATOM     73  F   UNL A   1      40.117  29.332  26.653  1.00  0.00    -0.206 F 
ATOM     74  C   UNL A   1      38.012  30.012  29.511  1.00  0.00     0.060 A 
BRANCH  74  75
ATOM     75  S   UNL A   1      36.304  30.447  29.892  1.00  0.00     0.124 S 
ATOM     76  O   UNL A   1      35.598  29.888  28.743  1.00  0.00    -0.237 OA
ATOM     77  O   UNL A   1      36.085  29.764  31.163  1.00  0.00    -0.237 OA
ATOM     78  O   UNL A   1      36.330  31.905  29.963  1.00  0.00    -0.744 OA
ENDBRANCH  74  75
ENDBRANCH  53  67
BRANCH  54  79
ATOM     79  C   UNL A   1      50.003  26.492  26.688  1.00  0.00     0.058 A 
ATOM     80  C   UNL A   1      50.958  26.163  27.662  1.00  0.00     0.135 A 
ATOM     81  C   UNL A   1      50.400  26.439  25.342  1.00  0.00     0.135 A 
ATOM     82  F   UNL A   1      50.634  26.212  28.963  1.00  0.00    -0.206 F 
ATOM     83  C   UNL A   1      52.259  25.808  27.318  1.00  0.00     0.059 A 
ATOM     84  C   UNL A   1      51.686  26.058  24.971  1.00  0.00     0.059 A 
ATOM     85  F   UNL A   1      49.524  26.738  24.370  1.00  0.00    -0.206 F 
ATOM     86  C   UNL A   1      52.612  25.754  25.968  1.00  0.00     0.060 A 
BRANCH  86  87
ATOM     87  S   UNL A   1      54.287  25.242  25.531  1.00  0.00     0.124 S 
ATOM     88  O   UNL A   1      54.028  24.122  24.633  1.00  0.00    -0.237 OA
ATOM     89  O   UNL A   1      54.822  26.449  24.910  1.00  0.00    -0.237 OA
ATOM     90  O   UNL A   1      54.879  24.894  26.819  1.00  0.00    -0.744 OA
ENDBRANCH  86  87
ENDBRANCH  54  79
BRANCH  66  91
ATOM     91  C   UNL A   1      47.094  32.580  28.511  1.00  0.00     0.058 A 
ATOM     92  C   UNL A   1      47.620  32.989  29.746  1.00  0.00     0.135 A 
ATOM     93  C   UNL A   1      47.165  33.484  27.437  1.00  0.00     0.135 A 
ATOM     94  F   UNL A   1      47.575  32.166  30.805  1.00  0.00    -0.206 F 
ATOM     95  C   UNL A   1      48.172  34.255  29.916  1.00  0.00     0.059 A 
ATOM     96  C   UNL A   1      47.743  34.742  27.577  1.00  0.00     0.059 A 
ATOM     97  F   UNL A   1      46.689  33.140  26.230  1.00  0.00    -0.206 F 
ATOM     98  C   UNL A   1      48.232  35.123  28.824  1.00  0.00     0.060 A 
BRANCH  98  99
ATOM     99  S   UNL A   1      48.985  36.749  29.052  1.00  0.00     0.124 S 
ATOM    100  O   UNL A   1      49.194  36.775  30.496  1.00  0.00    -0.237 OA
ATOM    101  O   UNL A   1      50.193  36.649  28.237  1.00  0.00    -0.237 OA
ATOM    102  O   UNL A   1      47.970  37.668  28.548  1.00  0.00    -0.744 OA
ENDBRANCH  98  99
ENDBRANCH  66  91
ENDBRANCH  40  41
ENDBRANCH  33  35
ENDBRANCH  32  33
ENDBRANCH  31  32
ENDBRANCH  30  31
ENDBRANCH  29  30
ENDBRANCH  28  29
ENDBRANCH   1  28
TORSDOF 25
ENDMDL
