MODEL 1
REMARK VINA RESULT:     -10.5      0.000      0.000
REMARK SMILES Cc1cc2c(c(C)c1Cl)C=C(C(=O)OCCOCCOCCOCCOC(=O)c1ccc(-c3c4nc(c(-c5c(F)cc(S(=O)(=O)[O-])cc5F)c5ccc([nH]5)c(-c5c(F)cc(S(=O)(=O)[O-])cc5F)c5nc(c(-c6c(F)cc(S(=O)(=O)[O-])cc6F)c6ccc3[nH]6)C=C5)C=C4)cc1)[C@@H](C(F)(F)F)O2
REMARK SMILES IDX 21 1 20 2 19 3 18 4 17 5 16 6 15 7 14 8 12 9 13 10 11 11
REMARK SMILES IDX 1 12 2 13 3 14 8 15 4 16 6 17 9 18 5 19 100 20 7 21 10 22
REMARK SMILES IDX 95 23 96 24 97 25 98 26 99 27 22 28 23 29 24 30 25 31 26 32
REMARK SMILES IDX 27 33 28 34 29 35 30 36 94 37 31 38 93 39 32 40 33 41 34 42
REMARK SMILES IDX 87 43 35 44 92 45 86 46 88 47 36 48 91 49 85 50 84 51 37 53
REMARK SMILES IDX 71 54 50 55 70 56 51 57 54 58 69 59 89 60 52 61 53 62 68 64
REMARK SMILES IDX 90 65 55 66 38 67 39 68 48 69 40 70 41 71 47 72 49 73 42 74
REMARK SMILES IDX 43 75 44 76 45 77 46 78 72 79 73 80 82 81 74 82 75 83 81 84
REMARK SMILES IDX 83 85 76 86 77 87 78 88 79 89 80 90 56 91 57 92 66 93 58 94
REMARK SMILES IDX 59 95 65 96 67 97 60 98 61 99 62 100 63 101 64 102
REMARK H PARENT 88 52 54 63
REMARK Flexibility Score: inf
ROOT
ATOM      1  C   UNL A   1      42.105  19.926  26.450  1.00  0.00     0.188 C 
ENDROOT
BRANCH   1   2
ATOM      2  O   UNL A   1      41.553  20.521  27.626  1.00  0.00    -0.377 OA
BRANCH   2   3
ATOM      3  C   UNL A   1      40.770  21.693  27.476  1.00  0.00     0.188 C 
BRANCH   3   4
ATOM      4  C   UNL A   1      39.998  21.738  26.143  1.00  0.00     0.188 C 
BRANCH   4   5
ATOM      5  O   UNL A   1      38.646  22.134  26.295  1.00  0.00    -0.376 OA
BRANCH   5   6
ATOM      6  C   UNL A   1      38.301  23.505  26.424  1.00  0.00     0.202 C 
BRANCH   6   7
ATOM      7  C   UNL A   1      37.068  24.138  25.751  1.00  0.00     0.261 C 
BRANCH   7   8
ATOM      8  O   UNL A   1      36.024  23.254  25.337  1.00  0.00    -0.460 OA
BRANCH   8   9
ATOM      9  C   UNL A   1      35.772  23.148  24.021  1.00  0.00     0.338 C 
ATOM     10  O   UNL A   1      36.484  22.636  23.176  1.00  0.00    -0.246 OA
BRANCH   9  11
ATOM     11  C   UNL A   1      34.376  23.589  23.802  1.00  0.00     0.087 C 
ATOM     12  C   UNL A   1      28.610  26.485  23.882  1.00  0.00     0.046 C 
ATOM     13  C   UNL A   1      30.072  26.160  23.743  1.00  0.00    -0.028 A 
ATOM     14  C   UNL A   1      30.434  24.826  23.525  1.00  0.00     0.052 A 
ATOM     15  C   UNL A   1      31.084  27.137  23.798  1.00  0.00     0.047 A 
ATOM     16  C   UNL A   1      31.772  24.445  23.501  1.00  0.00     0.128 A 
ATOM     17  C   UNL A   1      32.450  26.771  23.755  1.00  0.00    -0.021 A 
ATOM     18  Cl  UNL A   1      30.621  28.807  23.940  1.00  0.00    -0.084 Cl
ATOM     19  C   UNL A   1      32.781  25.395  23.681  1.00  0.00     0.022 A 
ATOM     20  O   UNL A   1      31.986  23.111  23.309  1.00  0.00    -0.475 OA
ATOM     21  C   UNL A   1      33.555  27.803  23.772  1.00  0.00     0.047 C 
ATOM     22  C   UNL A   1      34.146  24.907  23.865  1.00  0.00     0.027 C 
ATOM     23  C   UNL A   1      33.327  22.571  23.446  1.00  0.00     0.316 C 
BRANCH  23  24
ATOM     24  C   UNL A   1      33.264  21.417  24.455  1.00  0.00     0.430 C 
ATOM     25  F   UNL A   1      33.470  21.859  25.718  1.00  0.00    -0.167 F 
ATOM     26  F   UNL A   1      32.065  20.794  24.444  1.00  0.00    -0.167 F 
ATOM     27  F   UNL A   1      34.209  20.483  24.194  1.00  0.00    -0.167 F 
ENDBRANCH  23  24
ENDBRANCH   9  11
ENDBRANCH   8   9
ENDBRANCH   7   8
ENDBRANCH   6   7
ENDBRANCH   5   6
ENDBRANCH   4   5
ENDBRANCH   3   4
ENDBRANCH   2   3
ENDBRANCH   1   2
BRANCH   1  28
ATOM     28  C   UNL A   1      43.388  20.473  25.776  1.00  0.00     0.188 C 
BRANCH  28  29
ATOM     29  O   UNL A   1      43.186  21.638  24.985  1.00  0.00    -0.376 OA
BRANCH  29  30
ATOM     30  C   UNL A   1      43.996  22.770  25.259  1.00  0.00     0.202 C 
BRANCH  30  31
ATOM     31  C   UNL A   1      43.293  24.128  25.138  1.00  0.00     0.261 C 
BRANCH  31  32
ATOM     32  O   UNL A   1      42.533  24.538  26.283  1.00  0.00    -0.460 OA
BRANCH  32  33
ATOM     33  C   UNL A   1      41.687  25.581  26.130  1.00  0.00     0.338 C 
ATOM     34  O   UNL A   1      40.963  25.807  25.177  1.00  0.00    -0.246 OA
BRANCH  33  35
ATOM     35  C   UNL A   1      41.651  26.306  27.416  1.00  0.00     0.060 A 
ATOM     36  C   UNL A   1      40.591  26.076  28.303  1.00  0.00     0.016 A 
ATOM     37  C   UNL A   1      42.681  27.187  27.755  1.00  0.00     0.016 A 
ATOM     38  C   UNL A   1      40.551  26.748  29.526  1.00  0.00     0.010 A 
ATOM     39  C   UNL A   1      42.629  27.872  28.969  1.00  0.00     0.010 A 
ATOM     40  C   UNL A   1      41.550  27.675  29.849  1.00  0.00    -0.014 A 
BRANCH  40  41
ATOM     41  C   UNL A   1      41.374  28.576  31.013  1.00  0.00     0.031 A 
ATOM     42  C   UNL A   1      40.297  29.625  30.943  1.00  0.00     0.074 A 
ATOM     43  C   UNL A   1      42.133  28.451  32.117  1.00  0.00     0.049 A 
ATOM     44  N   UNL A   1      39.972  30.538  31.819  1.00  0.00    -0.248 NA
ATOM     45  C   UNL A   1      39.475  29.643  29.720  1.00  0.00     0.031 C 
ATOM     46  C   UNL A   1      43.175  27.447  32.318  1.00  0.00     0.029 A 
ATOM     47  N   UNL A   1      42.139  29.180  33.281  1.00  0.00    -0.354 N 
ATOM     48  C   UNL A   1      38.903  31.230  31.261  1.00  0.00     0.074 A 
ATOM     49  C   UNL A   1      38.662  30.662  29.954  1.00  0.00     0.031 C 
ATOM     50  C   UNL A   1      43.721  27.622  33.535  1.00  0.00     0.029 A 
ATOM     51  C   UNL A   1      43.088  28.768  34.188  1.00  0.00     0.049 A 
ATOM     52  H   UNL A   1      41.521  29.928  33.451  1.00  0.00     0.167 HD
ATOM     53  C   UNL A   1      38.175  32.236  31.800  1.00  0.00     0.037 A 
ATOM     54  C   UNL A   1      43.413  29.269  35.397  1.00  0.00     0.037 A 
ATOM     55  C   UNL A   1      38.425  32.804  33.096  1.00  0.00     0.049 A 
ATOM     56  C   UNL A   1      42.652  30.458  35.933  1.00  0.00     0.074 A 
ATOM     57  C   UNL A   1      37.750  33.835  33.725  1.00  0.00     0.029 A 
ATOM     58  N   UNL A   1      39.428  32.394  33.962  1.00  0.00    -0.354 N 
ATOM     59  N   UNL A   1      41.638  31.098  35.399  1.00  0.00    -0.248 NA
ATOM     60  C   UNL A   1      43.078  30.995  37.234  1.00  0.00     0.031 C 
ATOM     61  C   UNL A   1      38.375  34.081  34.951  1.00  0.00     0.029 A 
ATOM     62  C   UNL A   1      39.403  33.165  35.111  1.00  0.00     0.049 A 
ATOM     63  H   UNL A   1      40.064  31.663  33.785  1.00  0.00     0.167 HD
ATOM     64  C   UNL A   1      41.284  32.085  36.313  1.00  0.00     0.074 A 
ATOM     65  C   UNL A   1      42.189  31.958  37.436  1.00  0.00     0.031 C 
ATOM     66  C   UNL A   1      40.299  33.013  36.231  1.00  0.00     0.037 A 
BRANCH  53  67
ATOM     67  C   UNL A   1      37.039  32.791  30.988  1.00  0.00     0.058 A 
ATOM     68  C   UNL A   1      35.717  32.366  31.194  1.00  0.00     0.135 A 
ATOM     69  C   UNL A   1      37.263  33.806  30.044  1.00  0.00     0.135 A 
ATOM     70  F   UNL A   1      35.451  31.383  32.069  1.00  0.00    -0.206 F 
ATOM     71  C   UNL A   1      34.657  32.923  30.488  1.00  0.00     0.059 A 
ATOM     72  C   UNL A   1      36.215  34.396  29.345  1.00  0.00     0.059 A 
ATOM     73  F   UNL A   1      38.510  34.241  29.803  1.00  0.00    -0.206 F 
ATOM     74  C   UNL A   1      34.915  33.944  29.571  1.00  0.00     0.060 A 
BRANCH  74  75
ATOM     75  S   UNL A   1      33.521  34.678  28.691  1.00  0.00     0.124 S 
ATOM     76  O   UNL A   1      33.141  33.594  27.790  1.00  0.00    -0.237 OA
ATOM     77  O   UNL A   1      32.585  34.958  29.775  1.00  0.00    -0.237 OA
ATOM     78  O   UNL A   1      34.102  35.852  28.047  1.00  0.00    -0.744 OA
ENDBRANCH  74  75
ENDBRANCH  53  67
BRANCH  54  79
ATOM     79  C   UNL A   1      44.506  28.650  36.197  1.00  0.00     0.058 A 
ATOM     80  C   UNL A   1      44.244  27.593  37.080  1.00  0.00     0.135 A 
ATOM     81  C   UNL A   1      45.831  29.107  36.102  1.00  0.00     0.135 A 
ATOM     82  F   UNL A   1      42.994  27.128  37.218  1.00  0.00    -0.206 F 
ATOM     83  C   UNL A   1      45.250  27.019  37.852  1.00  0.00     0.059 A 
ATOM     84  C   UNL A   1      46.859  28.532  36.844  1.00  0.00     0.059 A 
ATOM     85  F   UNL A   1      46.138  30.114  35.269  1.00  0.00    -0.206 F 
ATOM     86  C   UNL A   1      46.557  27.494  37.722  1.00  0.00     0.060 A 
BRANCH  86  87
ATOM     87  S   UNL A   1      47.859  26.713  38.702  1.00  0.00     0.124 S 
ATOM     88  O   UNL A   1      48.266  27.807  39.577  1.00  0.00    -0.237 OA
ATOM     89  O   UNL A   1      47.138  25.617  39.343  1.00  0.00    -0.237 OA
ATOM     90  O   UNL A   1      48.838  26.309  37.699  1.00  0.00    -0.744 OA
ENDBRANCH  86  87
ENDBRANCH  54  79
BRANCH  66  91
ATOM     91  C   UNL A   1      40.105  33.948  37.394  1.00  0.00     0.058 A 
ATOM     92  C   UNL A   1      40.808  35.157  37.494  1.00  0.00     0.135 A 
ATOM     93  C   UNL A   1      39.123  33.678  38.364  1.00  0.00     0.135 A 
ATOM     94  F   UNL A   1      41.760  35.461  36.598  1.00  0.00    -0.206 F 
ATOM     95  C   UNL A   1      40.550  36.064  38.517  1.00  0.00     0.059 A 
ATOM     96  C   UNL A   1      38.829  34.583  39.378  1.00  0.00     0.059 A 
ATOM     97  F   UNL A   1      38.412  32.540  38.307  1.00  0.00    -0.206 F 
ATOM     98  C   UNL A   1      39.551  35.773  39.448  1.00  0.00     0.060 A 
BRANCH  98  99
ATOM     99  S   UNL A   1      39.185  36.992  40.729  1.00  0.00     0.124 S 
ATOM    100  O   UNL A   1      38.585  36.159  41.766  1.00  0.00    -0.237 OA
ATOM    101  O   UNL A   1      40.508  37.528  41.034  1.00  0.00    -0.237 OA
ATOM    102  O   UNL A   1      38.276  37.922  40.067  1.00  0.00    -0.744 OA
ENDBRANCH  98  99
ENDBRANCH  66  91
ENDBRANCH  40  41
ENDBRANCH  33  35
ENDBRANCH  32  33
ENDBRANCH  31  32
ENDBRANCH  30  31
ENDBRANCH  29  30
ENDBRANCH  28  29
ENDBRANCH   1  28
TORSDOF 24
ENDMDL
MODEL 2
REMARK VINA RESULT:     -10.3      1.415      8.149
REMARK SMILES Cc1cc2c(c(C)c1Cl)C=C(C(=O)OCCOCCOCCOCCOC(=O)c1ccc(-c3c4nc(c(-c5c(F)cc(S(=O)(=O)[O-])cc5F)c5ccc([nH]5)c(-c5c(F)cc(S(=O)(=O)[O-])cc5F)c5nc(c(-c6c(F)cc(S(=O)(=O)[O-])cc6F)c6ccc3[nH]6)C=C5)C=C4)cc1)[C@@H](C(F)(F)F)O2
REMARK SMILES IDX 21 1 20 2 19 3 18 4 17 5 16 6 15 7 14 8 12 9 13 10 11 11
REMARK SMILES IDX 1 12 2 13 3 14 8 15 4 16 6 17 9 18 5 19 100 20 7 21 10 22
REMARK SMILES IDX 95 23 96 24 97 25 98 26 99 27 22 28 23 29 24 30 25 31 26 32
REMARK SMILES IDX 27 33 28 34 29 35 30 36 94 37 31 38 93 39 32 40 33 41 34 42
REMARK SMILES IDX 87 43 35 44 92 45 86 46 88 47 36 48 91 49 85 50 84 51 37 53
REMARK SMILES IDX 71 54 50 55 70 56 51 57 54 58 69 59 89 60 52 61 53 62 68 64
REMARK SMILES IDX 90 65 55 66 38 67 39 68 48 69 40 70 41 71 47 72 49 73 42 74
REMARK SMILES IDX 43 75 44 76 45 77 46 78 72 79 73 80 82 81 74 82 75 83 81 84
REMARK SMILES IDX 83 85 76 86 77 87 78 88 79 89 80 90 56 91 57 92 66 93 58 94
REMARK SMILES IDX 59 95 65 96 67 97 60 98 61 99 62 100 63 101 64 102
REMARK H PARENT 88 52 54 63
REMARK Flexibility Score: inf
ROOT
ATOM      1  C   UNL A   1      40.118  21.004  26.479  1.00  0.00     0.188 C 
ENDROOT
BRANCH   1   2
ATOM      2  O   UNL A   1      39.573  22.270  26.855  1.00  0.00    -0.377 OA
BRANCH   2   3
ATOM      3  C   UNL A   1      38.458  22.760  26.129  1.00  0.00     0.188 C 
BRANCH   3   4
ATOM      4  C   UNL A   1      37.778  21.680  25.265  1.00  0.00     0.188 C 
BRANCH   4   5
ATOM      5  O   UNL A   1      36.980  22.219  24.225  1.00  0.00    -0.376 OA
BRANCH   5   6
ATOM      6  C   UNL A   1      35.565  22.127  24.275  1.00  0.00     0.202 C 
BRANCH   6   7
ATOM      7  C   UNL A   1      34.762  22.086  25.590  1.00  0.00     0.261 C 
BRANCH   7   8
ATOM      8  O   UNL A   1      34.451  23.339  26.204  1.00  0.00    -0.460 OA
BRANCH   8   9
ATOM      9  C   UNL A   1      33.180  23.557  26.582  1.00  0.00     0.338 C 
ATOM     10  O   UNL A   1      32.597  23.055  27.526  1.00  0.00    -0.246 OA
BRANCH   9  11
ATOM     11  C   UNL A   1      32.661  24.677  25.763  1.00  0.00     0.087 C 
ATOM     12  C   UNL A   1      29.914  30.049  23.477  1.00  0.00     0.046 C 
ATOM     13  C   UNL A   1      30.780  29.052  24.197  1.00  0.00    -0.028 A 
ATOM     14  C   UNL A   1      30.919  27.777  23.640  1.00  0.00     0.052 A 
ATOM     15  C   UNL A   1      31.472  29.354  25.385  1.00  0.00     0.047 A 
ATOM     16  C   UNL A   1      31.613  26.776  24.314  1.00  0.00     0.128 A 
ATOM     17  C   UNL A   1      32.200  28.355  26.075  1.00  0.00    -0.021 A 
ATOM     18  Cl  UNL A   1      31.399  30.978  26.002  1.00  0.00    -0.084 Cl
ATOM     19  C   UNL A   1      32.197  27.035  25.557  1.00  0.00     0.022 A 
ATOM     20  O   UNL A   1      31.649  25.571  23.675  1.00  0.00    -0.475 OA
ATOM     21  C   UNL A   1      32.984  28.661  27.331  1.00  0.00     0.047 C 
ATOM     22  C   UNL A   1      32.719  25.898  26.312  1.00  0.00     0.027 C 
ATOM     23  C   UNL A   1      32.185  24.409  24.361  1.00  0.00     0.316 C 
BRANCH  23  24
ATOM     24  C   UNL A   1      31.125  23.302  24.304  1.00  0.00     0.430 C 
ATOM     25  F   UNL A   1      31.699  22.077  24.246  1.00  0.00    -0.167 F 
ATOM     26  F   UNL A   1      30.320  23.311  25.390  1.00  0.00    -0.167 F 
ATOM     27  F   UNL A   1      30.335  23.432  23.212  1.00  0.00    -0.167 F 
ENDBRANCH  23  24
ENDBRANCH   9  11
ENDBRANCH   8   9
ENDBRANCH   7   8
ENDBRANCH   6   7
ENDBRANCH   5   6
ENDBRANCH   4   5
ENDBRANCH   3   4
ENDBRANCH   2   3
ENDBRANCH   1   2
BRANCH   1  28
ATOM     28  C   UNL A   1      41.309  20.364  27.235  1.00  0.00     0.188 C 
BRANCH  28  29
ATOM     29  O   UNL A   1      42.590  20.761  26.758  1.00  0.00    -0.376 OA
BRANCH  29  30
ATOM     30  C   UNL A   1      42.717  22.068  26.221  1.00  0.00     0.202 C 
BRANCH  30  31
ATOM     31  C   UNL A   1      44.077  22.741  26.443  1.00  0.00     0.261 C 
BRANCH  31  32
ATOM     32  O   UNL A   1      44.033  24.059  27.007  1.00  0.00    -0.460 OA
BRANCH  32  33
ATOM     33  C   UNL A   1      43.352  25.007  26.326  1.00  0.00     0.338 C 
ATOM     34  O   UNL A   1      43.089  25.013  25.137  1.00  0.00    -0.246 OA
BRANCH  33  35
ATOM     35  C   UNL A   1      42.808  25.954  27.321  1.00  0.00     0.060 A 
ATOM     36  C   UNL A   1      43.343  27.246  27.400  1.00  0.00     0.016 A 
ATOM     37  C   UNL A   1      41.750  25.571  28.149  1.00  0.00     0.016 A 
ATOM     38  C   UNL A   1      42.830  28.154  28.329  1.00  0.00     0.010 A 
ATOM     39  C   UNL A   1      41.253  26.473  29.090  1.00  0.00     0.010 A 
ATOM     40  C   UNL A   1      41.808  27.760  29.203  1.00  0.00    -0.014 A 
BRANCH  40  41
ATOM     41  C   UNL A   1      41.446  28.621  30.353  1.00  0.00     0.031 A 
ATOM     42  C   UNL A   1      42.268  28.509  31.610  1.00  0.00     0.074 A 
ATOM     43  C   UNL A   1      40.431  29.500  30.280  1.00  0.00     0.049 A 
ATOM     44  N   UNL A   1      42.130  29.135  32.748  1.00  0.00    -0.248 NA
ATOM     45  C   UNL A   1      43.399  27.565  31.574  1.00  0.00     0.031 C 
ATOM     46  C   UNL A   1      39.593  29.729  29.104  1.00  0.00     0.029 A 
ATOM     47  N   UNL A   1      39.932  30.368  31.220  1.00  0.00    -0.354 N 
ATOM     48  C   UNL A   1      43.160  28.673  33.558  1.00  0.00     0.074 A 
ATOM     49  C   UNL A   1      43.889  27.682  32.799  1.00  0.00     0.031 C 
ATOM     50  C   UNL A   1      38.684  30.677  29.394  1.00  0.00     0.029 A 
ATOM     51  C   UNL A   1      38.855  31.101  30.783  1.00  0.00     0.049 A 
ATOM     52  H   UNL A   1      40.312  30.456  32.125  1.00  0.00     0.167 HD
ATOM     53  C   UNL A   1      43.481  29.054  34.816  1.00  0.00     0.037 A 
ATOM     54  C   UNL A   1      38.090  32.001  31.435  1.00  0.00     0.037 A 
ATOM     55  C   UNL A   1      42.747  30.033  35.571  1.00  0.00     0.049 A 
ATOM     56  C   UNL A   1      38.407  32.335  32.873  1.00  0.00     0.074 A 
ATOM     57  C   UNL A   1      42.987  30.479  36.859  1.00  0.00     0.029 A 
ATOM     58  N   UNL A   1      41.631  30.716  35.112  1.00  0.00    -0.354 N 
ATOM     59  N   UNL A   1      39.389  31.897  33.625  1.00  0.00    -0.248 NA
ATOM     60  C   UNL A   1      37.514  33.285  33.552  1.00  0.00     0.031 C 
ATOM     61  C   UNL A   1      41.988  31.397  37.195  1.00  0.00     0.029 A 
ATOM     62  C   UNL A   1      41.159  31.564  36.097  1.00  0.00     0.049 A 
ATOM     63  H   UNL A   1      41.233  30.611  34.217  1.00  0.00     0.167 HD
ATOM     64  C   UNL A   1      39.252  32.544  34.850  1.00  0.00     0.074 A 
ATOM     65  C   UNL A   1      38.095  33.406  34.739  1.00  0.00     0.031 C 
ATOM     66  C   UNL A   1      40.016  32.434  35.964  1.00  0.00     0.037 A 
BRANCH  53  67
ATOM     67  C   UNL A   1      44.677  28.412  35.460  1.00  0.00     0.058 A 
ATOM     68  C   UNL A   1      45.952  28.994  35.379  1.00  0.00     0.135 A 
ATOM     69  C   UNL A   1      44.538  27.241  36.222  1.00  0.00     0.135 A 
ATOM     70  F   UNL A   1      46.145  30.101  34.643  1.00  0.00    -0.206 F 
ATOM     71  C   UNL A   1      47.049  28.434  36.025  1.00  0.00     0.059 A 
ATOM     72  C   UNL A   1      45.615  26.678  36.899  1.00  0.00     0.059 A 
ATOM     73  F   UNL A   1      43.341  26.641  36.325  1.00  0.00    -0.206 F 
ATOM     74  C   UNL A   1      46.868  27.280  36.791  1.00  0.00     0.060 A 
BRANCH  74  75
ATOM     75  S   UNL A   1      48.297  26.591  37.651  1.00  0.00     0.124 S 
ATOM     76  O   UNL A   1      49.210  26.336  36.542  1.00  0.00    -0.237 OA
ATOM     77  O   UNL A   1      48.674  27.680  38.545  1.00  0.00    -0.237 OA
ATOM     78  O   UNL A   1      47.760  25.401  38.305  1.00  0.00    -0.744 OA
ENDBRANCH  74  75
ENDBRANCH  53  67
BRANCH  54  79
ATOM     79  C   UNL A   1      36.950  32.661  30.741  1.00  0.00     0.058 A 
ATOM     80  C   UNL A   1      35.638  32.191  30.901  1.00  0.00     0.135 A 
ATOM     81  C   UNL A   1      37.147  33.766  29.896  1.00  0.00     0.135 A 
ATOM     82  F   UNL A   1      35.397  31.131  31.686  1.00  0.00    -0.206 F 
ATOM     83  C   UNL A   1      34.565  32.781  30.240  1.00  0.00     0.059 A 
ATOM     84  C   UNL A   1      36.087  34.389  29.245  1.00  0.00     0.059 A 
ATOM     85  F   UNL A   1      38.382  34.258  29.710  1.00  0.00    -0.206 F 
ATOM     86  C   UNL A   1      34.800  33.884  29.417  1.00  0.00     0.060 A 
BRANCH  86  87
ATOM     87  S   UNL A   1      33.391  34.663  28.597  1.00  0.00     0.124 S 
ATOM     88  O   UNL A   1      32.534  34.991  29.730  1.00  0.00    -0.237 OA
ATOM     89  O   UNL A   1      34.022  35.795  27.924  1.00  0.00    -0.237 OA
ATOM     90  O   UNL A   1      32.895  33.613  27.713  1.00  0.00    -0.744 OA
ENDBRANCH  86  87
ENDBRANCH  54  79
BRANCH  66  91
ATOM     91  C   UNL A   1      39.664  33.289  37.153  1.00  0.00     0.058 A 
ATOM     92  C   UNL A   1      38.710  32.883  38.097  1.00  0.00     0.135 A 
ATOM     93  C   UNL A   1      40.372  34.478  37.403  1.00  0.00     0.135 A 
ATOM     94  F   UNL A   1      38.004  31.759  37.903  1.00  0.00    -0.206 F 
ATOM     95  C   UNL A   1      38.464  33.629  39.246  1.00  0.00     0.059 A 
ATOM     96  C   UNL A   1      40.162  35.223  38.559  1.00  0.00     0.059 A 
ATOM     97  F   UNL A   1      41.305  34.904  36.537  1.00  0.00    -0.206 F 
ATOM     98  C   UNL A   1      39.203  34.792  39.473  1.00  0.00     0.060 A 
BRANCH  98  99
ATOM     99  S   UNL A   1      38.917  35.710  41.001  1.00  0.00     0.124 S 
ATOM    100  O   UNL A   1      40.189  35.534  41.694  1.00  0.00    -0.237 OA
ATOM    101  O   UNL A   1      38.645  37.056  40.507  1.00  0.00    -0.237 OA
ATOM    102  O   UNL A   1      37.776  35.027  41.603  1.00  0.00    -0.744 OA
ENDBRANCH  98  99
ENDBRANCH  66  91
ENDBRANCH  40  41
ENDBRANCH  33  35
ENDBRANCH  32  33
ENDBRANCH  31  32
ENDBRANCH  30  31
ENDBRANCH  29  30
ENDBRANCH  28  29
ENDBRANCH   1  28
TORSDOF 24
ENDMDL
MODEL 3
REMARK VINA RESULT:     -10.0      5.041      7.381
REMARK SMILES Cc1cc2c(c(C)c1Cl)C=C(C(=O)OCCOCCOCCOCCOC(=O)c1ccc(-c3c4nc(c(-c5c(F)cc(S(=O)(=O)[O-])cc5F)c5ccc([nH]5)c(-c5c(F)cc(S(=O)(=O)[O-])cc5F)c5nc(c(-c6c(F)cc(S(=O)(=O)[O-])cc6F)c6ccc3[nH]6)C=C5)C=C4)cc1)[C@@H](C(F)(F)F)O2
REMARK SMILES IDX 21 1 20 2 19 3 18 4 17 5 16 6 15 7 14 8 12 9 13 10 11 11
REMARK SMILES IDX 1 12 2 13 3 14 8 15 4 16 6 17 9 18 5 19 100 20 7 21 10 22
REMARK SMILES IDX 95 23 96 24 97 25 98 26 99 27 22 28 23 29 24 30 25 31 26 32
REMARK SMILES IDX 27 33 28 34 29 35 30 36 94 37 31 38 93 39 32 40 33 41 34 42
REMARK SMILES IDX 87 43 35 44 92 45 86 46 88 47 36 48 91 49 85 50 84 51 37 53
REMARK SMILES IDX 71 54 50 55 70 56 51 57 54 58 69 59 89 60 52 61 53 62 68 64
REMARK SMILES IDX 90 65 55 66 38 67 39 68 48 69 40 70 41 71 47 72 49 73 42 74
REMARK SMILES IDX 43 75 44 76 45 77 46 78 72 79 73 80 82 81 74 82 75 83 81 84
REMARK SMILES IDX 83 85 76 86 77 87 78 88 79 89 80 90 56 91 57 92 66 93 58 94
REMARK SMILES IDX 59 95 65 96 67 97 60 98 61 99 62 100 63 101 64 102
REMARK H PARENT 88 52 54 63
REMARK Flexibility Score: inf
ROOT
ATOM      1  C   UNL A   1      32.328  23.114  24.093  1.00  0.00     0.188 C 
ENDROOT
BRANCH   1   2
ATOM      2  O   UNL A   1      31.923  22.480  25.308  1.00  0.00    -0.377 OA
BRANCH   2   3
ATOM      3  C   UNL A   1      30.906  23.100  26.077  1.00  0.00     0.188 C 
BRANCH   3   4
ATOM      4  C   UNL A   1      31.408  24.321  26.871  1.00  0.00     0.188 C 
BRANCH   4   5
ATOM      5  O   UNL A   1      30.711  25.515  26.559  1.00  0.00    -0.376 OA
BRANCH   5   6
ATOM      6  C   UNL A   1      29.597  25.495  25.680  1.00  0.00     0.202 C 
BRANCH   6   7
ATOM      7  C   UNL A   1      29.679  25.895  24.194  1.00  0.00     0.261 C 
BRANCH   7   8
ATOM      8  O   UNL A   1      29.519  27.280  23.880  1.00  0.00    -0.460 OA
BRANCH   8   9
ATOM      9  C   UNL A   1      30.529  27.905  23.250  1.00  0.00     0.338 C 
ATOM     10  O   UNL A   1      30.536  28.317  22.105  1.00  0.00    -0.246 OA
BRANCH   9  11
ATOM     11  C   UNL A   1      31.574  28.186  24.261  1.00  0.00     0.087 C 
ATOM     12  C   UNL A   1      36.011  30.776  28.164  1.00  0.00     0.046 C 
ATOM     13  C   UNL A   1      34.740  30.411  27.449  1.00  0.00    -0.028 A 
ATOM     14  C   UNL A   1      34.659  29.150  26.850  1.00  0.00     0.052 A 
ATOM     15  C   UNL A   1      33.625  31.269  27.378  1.00  0.00     0.047 A 
ATOM     16  C   UNL A   1      33.556  28.796  26.079  1.00  0.00     0.128 A 
ATOM     17  C   UNL A   1      32.486  30.918  26.615  1.00  0.00    -0.021 A 
ATOM     18  Cl  UNL A   1      33.684  32.782  28.233  1.00  0.00    -0.084 Cl
ATOM     19  C   UNL A   1      32.500  29.693  25.901  1.00  0.00     0.022 A 
ATOM     20  O   UNL A   1      33.617  27.549  25.527  1.00  0.00    -0.475 OA
ATOM     21  C   UNL A   1      31.261  31.801  26.555  1.00  0.00     0.047 C 
ATOM     22  C   UNL A   1      31.480  29.353  24.911  1.00  0.00     0.027 C 
ATOM     23  C   UNL A   1      32.613  27.140  24.560  1.00  0.00     0.316 C 
BRANCH  23  24
ATOM     24  C   UNL A   1      33.346  26.665  23.299  1.00  0.00     0.430 C 
ATOM     25  F   UNL A   1      34.445  25.941  23.616  1.00  0.00    -0.167 F 
ATOM     26  F   UNL A   1      32.566  25.882  22.521  1.00  0.00    -0.167 F 
ATOM     27  F   UNL A   1      33.755  27.710  22.543  1.00  0.00    -0.167 F 
ENDBRANCH  23  24
ENDBRANCH   9  11
ENDBRANCH   8   9
ENDBRANCH   7   8
ENDBRANCH   6   7
ENDBRANCH   5   6
ENDBRANCH   4   5
ENDBRANCH   3   4
ENDBRANCH   2   3
ENDBRANCH   1   2
BRANCH   1  28
ATOM     28  C   UNL A   1      33.596  22.674  23.319  1.00  0.00     0.188 C 
BRANCH  28  29
ATOM     29  O   UNL A   1      34.616  22.109  24.135  1.00  0.00    -0.376 OA
BRANCH  29  30
ATOM     30  C   UNL A   1      35.938  22.598  23.972  1.00  0.00     0.202 C 
BRANCH  30  31
ATOM     31  C   UNL A   1      36.943  22.150  25.040  1.00  0.00     0.261 C 
BRANCH  31  32
ATOM     32  O   UNL A   1      37.664  23.203  25.695  1.00  0.00    -0.460 OA
BRANCH  32  33
ATOM     33  C   UNL A   1      38.810  22.873  26.331  1.00  0.00     0.338 C 
ATOM     34  O   UNL A   1      39.339  21.777  26.371  1.00  0.00    -0.246 OA
BRANCH  33  35
ATOM     35  C   UNL A   1      39.418  24.129  26.815  1.00  0.00     0.060 A 
ATOM     36  C   UNL A   1      39.970  25.024  25.891  1.00  0.00     0.016 A 
ATOM     37  C   UNL A   1      39.410  24.431  28.179  1.00  0.00     0.016 A 
ATOM     38  C   UNL A   1      40.539  26.219  26.335  1.00  0.00     0.010 A 
ATOM     39  C   UNL A   1      39.997  25.618  28.623  1.00  0.00     0.010 A 
ATOM     40  C   UNL A   1      40.587  26.505  27.706  1.00  0.00    -0.014 A 
BRANCH  40  41
ATOM     41  C   UNL A   1      41.415  27.631  28.198  1.00  0.00     0.031 A 
ATOM     42  C   UNL A   1      40.716  28.794  28.851  1.00  0.00     0.074 A 
ATOM     43  C   UNL A   1      42.755  27.615  28.092  1.00  0.00     0.049 A 
ATOM     44  N   UNL A   1      41.220  29.898  29.333  1.00  0.00    -0.248 NA
ATOM     45  C   UNL A   1      39.252  28.693  28.979  1.00  0.00     0.031 C 
ATOM     46  C   UNL A   1      43.546  26.526  27.519  1.00  0.00     0.029 A 
ATOM     47  N   UNL A   1      43.691  28.548  28.466  1.00  0.00    -0.354 N 
ATOM     48  C   UNL A   1      40.141  30.617  29.832  1.00  0.00     0.074 A 
ATOM     49  C   UNL A   1      38.949  29.847  29.556  1.00  0.00     0.031 C 
ATOM     50  C   UNL A   1      44.849  26.854  27.581  1.00  0.00     0.029 A 
ATOM     51  C   UNL A   1      44.985  28.186  28.170  1.00  0.00     0.049 A 
ATOM     52  H   UNL A   1      43.457  29.397  28.906  1.00  0.00     0.167 HD
ATOM     53  C   UNL A   1      40.145  31.805  30.480  1.00  0.00     0.037 A 
ATOM     54  C   UNL A   1      46.140  28.861  28.344  1.00  0.00     0.037 A 
ATOM     55  C   UNL A   1      41.331  32.573  30.744  1.00  0.00     0.049 A 
ATOM     56  C   UNL A   1      46.107  30.230  28.978  1.00  0.00     0.074 A 
ATOM     57  C   UNL A   1      41.437  33.795  31.384  1.00  0.00     0.029 A 
ATOM     58  N   UNL A   1      42.616  32.197  30.382  1.00  0.00    -0.354 N 
ATOM     59  N   UNL A   1      45.080  30.895  29.453  1.00  0.00    -0.248 NA
ATOM     60  C   UNL A   1      47.387  30.942  29.101  1.00  0.00     0.031 C 
ATOM     61  C   UNL A   1      42.780  34.181  31.367  1.00  0.00     0.029 A 
ATOM     62  C   UNL A   1      43.518  33.173  30.767  1.00  0.00     0.049 A 
ATOM     63  H   UNL A   1      42.851  31.360  29.919  1.00  0.00     0.167 HD
ATOM     64  C   UNL A   1      45.596  32.084  29.961  1.00  0.00     0.074 A 
ATOM     65  C   UNL A   1      47.025  32.047  29.739  1.00  0.00     0.031 C 
ATOM     66  C   UNL A   1      44.944  33.112  30.558  1.00  0.00     0.037 A 
BRANCH  53  67
ATOM     67  C   UNL A   1      38.826  32.352  30.949  1.00  0.00     0.058 A 
ATOM     68  C   UNL A   1      38.354  32.109  32.249  1.00  0.00     0.135 A 
ATOM     69  C   UNL A   1      38.059  33.184  30.117  1.00  0.00     0.135 A 
ATOM     70  F   UNL A   1      39.037  31.302  33.077  1.00  0.00    -0.206 F 
ATOM     71  C   UNL A   1      37.164  32.666  32.705  1.00  0.00     0.059 A 
ATOM     72  C   UNL A   1      36.880  33.772  30.561  1.00  0.00     0.059 A 
ATOM     73  F   UNL A   1      38.463  33.441  28.863  1.00  0.00    -0.206 F 
ATOM     74  C   UNL A   1      36.438  33.503  31.856  1.00  0.00     0.060 A 
BRANCH  74  75
ATOM     75  S   UNL A   1      34.915  34.243  32.480  1.00  0.00     0.124 S 
ATOM     76  O   UNL A   1      34.565  33.325  33.559  1.00  0.00    -0.237 OA
ATOM     77  O   UNL A   1      35.364  35.568  32.896  1.00  0.00    -0.237 OA
ATOM     78  O   UNL A   1      34.024  34.218  31.324  1.00  0.00    -0.744 OA
ENDBRANCH  74  75
ENDBRANCH  53  67
BRANCH  54  79
ATOM     79  C   UNL A   1      47.433  28.255  27.920  1.00  0.00     0.058 A 
ATOM     80  C   UNL A   1      48.223  27.533  28.827  1.00  0.00     0.135 A 
ATOM     81  C   UNL A   1      47.910  28.393  26.606  1.00  0.00     0.135 A 
ATOM     82  F   UNL A   1      47.819  27.384  30.097  1.00  0.00    -0.206 F 
ATOM     83  C   UNL A   1      49.445  26.982  28.453  1.00  0.00     0.059 A 
ATOM     84  C   UNL A   1      49.116  27.829  26.202  1.00  0.00     0.059 A 
ATOM     85  F   UNL A   1      47.192  29.071  25.697  1.00  0.00    -0.206 F 
ATOM     86  C   UNL A   1      49.881  27.132  27.135  1.00  0.00     0.060 A 
BRANCH  86  87
ATOM     87  S   UNL A   1      51.451  26.378  26.656  1.00  0.00     0.124 S 
ATOM     88  O   UNL A   1      51.200  24.968  26.936  1.00  0.00    -0.237 OA
ATOM     89  O   UNL A   1      51.542  26.742  25.245  1.00  0.00    -0.237 OA
ATOM     90  O   UNL A   1      52.419  27.032  27.530  1.00  0.00    -0.744 OA
ENDBRANCH  86  87
ENDBRANCH  54  79
BRANCH  66  91
ATOM     91  C   UNL A   1      45.759  34.275  31.057  1.00  0.00     0.058 A 
ATOM     92  C   UNL A   1      45.982  35.413  30.267  1.00  0.00     0.135 A 
ATOM     93  C   UNL A   1      46.231  34.293  32.381  1.00  0.00     0.135 A 
ATOM     94  F   UNL A   1      45.557  35.446  28.995  1.00  0.00    -0.206 F 
ATOM     95  C   UNL A   1      46.649  36.526  30.770  1.00  0.00     0.059 A 
ATOM     96  C   UNL A   1      46.874  35.405  32.913  1.00  0.00     0.059 A 
ATOM     97  F   UNL A   1      46.033  33.234  33.183  1.00  0.00    -0.206 F 
ATOM     98  C   UNL A   1      47.081  36.517  32.098  1.00  0.00     0.060 A 
BRANCH  98  99
ATOM     99  S   UNL A   1      47.885  37.995  32.753  1.00  0.00     0.124 S 
ATOM    100  O   UNL A   1      46.946  38.407  33.790  1.00  0.00    -0.237 OA
ATOM    101  O   UNL A   1      49.162  37.469  33.226  1.00  0.00    -0.237 OA
ATOM    102  O   UNL A   1      47.969  38.880  31.595  1.00  0.00    -0.744 OA
ENDBRANCH  98  99
ENDBRANCH  66  91
ENDBRANCH  40  41
ENDBRANCH  33  35
ENDBRANCH  32  33
ENDBRANCH  31  32
ENDBRANCH  30  31
ENDBRANCH  29  30
ENDBRANCH  28  29
ENDBRANCH   1  28
TORSDOF 24
ENDMDL
