MODEL 1
REMARK VINA RESULT:      -7.1      0.000      0.000
REMARK SMILES Cc1c(C(=O)OCCOCCOCCOCCOC(=O)c2ccc(-c3c4nc(c(-c5c(F)cc(S(=O)(=O)[O-])cc5F)c5ccc([nH]5)c(-c5c(F)cc(S(=O)(=O)[O-])cc5F)c5nc(c(-c6c(F)cc(S(=O)(=O)[O-])cc6F)c6ccc3[nH]6)C=C5)C=C4)cc2)sc2ncnc(NCc3cn4c(n3)SCC4)c12
REMARK SMILES IDX 12 1 11 2 10 3 9 4 8 5 7 6 6 7 4 8 5 9 3 10 1 11 2 12 103 13
REMARK SMILES IDX 87 14 88 15 92 16 89 17 91 18 90 19 93 20 94 22 95 23 96 24
REMARK SMILES IDX 99 25 97 26 98 27 102 28 100 29 101 30 13 31 14 32 15 33
REMARK SMILES IDX 16 34 17 35 18 36 19 37 20 38 21 39 22 40 86 41 23 42 85 43
REMARK SMILES IDX 24 44 25 45 26 46 79 47 27 48 84 49 78 50 80 51 28 52 83 53
REMARK SMILES IDX 77 54 76 55 29 57 63 58 42 59 62 60 43 61 46 62 61 63 81 64
REMARK SMILES IDX 44 65 45 66 60 68 82 69 47 70 30 71 31 72 40 73 32 74 33 75
REMARK SMILES IDX 39 76 41 77 34 78 35 79 36 80 37 81 38 82 64 83 65 84 74 85
REMARK SMILES IDX 66 86 67 87 73 88 75 89 68 90 69 91 70 92 71 93 72 94 48 95
REMARK SMILES IDX 49 96 58 97 50 98 51 99 57 100 59 101 52 102 53 103 54 104
REMARK SMILES IDX 55 105 56 106
REMARK H PARENT 93 21 80 56 46 67
REMARK Flexibility Score: inf
ROOT
ATOM      1  O   UNL A   1      47.064  25.180  28.954  1.00  0.00    -0.377 OA
ENDROOT
BRANCH   1   2
ATOM      2  C   UNL A   1      46.284  24.463  28.012  1.00  0.00     0.188 C 
BRANCH   2   3
ATOM      3  C   UNL A   1      45.300  23.394  28.529  1.00  0.00     0.188 C 
BRANCH   3   4
ATOM      4  O   UNL A   1      43.972  23.861  28.679  1.00  0.00    -0.376 OA
BRANCH   4   5
ATOM      5  C   UNL A   1      43.013  23.020  29.279  1.00  0.00     0.202 C 
BRANCH   5   6
ATOM      6  C   UNL A   1      42.186  22.090  28.381  1.00  0.00     0.261 C 
BRANCH   6   7
ATOM      7  O   UNL A   1      42.241  22.345  26.970  1.00  0.00    -0.459 OA
BRANCH   7   8
ATOM      8  C   UNL A   1      41.343  23.213  26.436  1.00  0.00     0.348 C 
ATOM      9  O   UNL A   1      40.157  22.943  26.235  1.00  0.00    -0.245 OA
BRANCH   8  10
ATOM     10  C   UNL A   1      41.939  24.534  26.322  1.00  0.00     0.118 A 
ATOM     11  C   UNL A   1      43.833  23.988  24.728  1.00  0.00     0.047 C 
ATOM     12  C   UNL A   1      43.079  24.924  25.616  1.00  0.00    -0.012 A 
ATOM     13  C   UNL A   1      43.385  26.349  25.796  1.00  0.00     0.058 A 
ATOM     14  S   UNL A   1      41.167  25.852  27.069  1.00  0.00    -0.108 S 
ATOM     15  C   UNL A   1      42.352  26.937  26.526  1.00  0.00     0.129 A 
ATOM     16  C   UNL A   1      44.415  27.251  25.401  1.00  0.00     0.138 A 
ATOM     17  N   UNL A   1      42.209  28.230  26.854  1.00  0.00    -0.225 NA
ATOM     18  N   UNL A   1      44.262  28.567  25.707  1.00  0.00    -0.219 NA
ATOM     19  C   UNL A   1      43.193  28.983  26.391  1.00  0.00     0.225 A 
BRANCH  16  20
ATOM     20  N   UNL A   1      45.615  27.072  24.777  1.00  0.00    -0.364 N 
ATOM     21  H   UNL A   1      45.735  27.686  24.017  1.00  0.00     0.162 HD
BRANCH  20  22
ATOM     22  C   UNL A   1      46.750  26.204  24.960  1.00  0.00     0.172 C 
BRANCH  22  23
ATOM     23  C   UNL A   1      47.978  26.573  24.181  1.00  0.00     0.079 A 
ATOM     24  C   UNL A   1      49.270  26.754  24.669  1.00  0.00     0.113 A 
ATOM     25  N   UNL A   1      47.919  26.868  22.822  1.00  0.00    -0.226 NA
ATOM     26  N   UNL A   1      49.957  27.227  23.608  1.00  0.00    -0.325 N 
ATOM     27  C   UNL A   1      49.120  27.294  22.544  1.00  0.00     0.168 A 
ATOM     28  C   UNL A   1      51.265  27.825  23.455  1.00  0.00     0.135 C 
ATOM     29  S   UNL A   1      49.798  28.162  21.223  1.00  0.00    -0.086 SA
ATOM     30  C   UNL A   1      51.119  28.839  22.319  1.00  0.00     0.100 C 
ENDBRANCH  22  23
ENDBRANCH  20  22
ENDBRANCH  16  20
ENDBRANCH   8  10
ENDBRANCH   7   8
ENDBRANCH   6   7
ENDBRANCH   5   6
ENDBRANCH   4   5
ENDBRANCH   3   4
ENDBRANCH   2   3
ENDBRANCH   1   2
BRANCH   1  31
ATOM     31  C   UNL A   1      46.519  26.329  29.598  1.00  0.00     0.188 C 
BRANCH  31  32
ATOM     32  C   UNL A   1      45.672  27.402  28.846  1.00  0.00     0.188 C 
BRANCH  32  33
ATOM     33  O   UNL A   1      46.351  28.594  28.484  1.00  0.00    -0.376 OA
BRANCH  33  34
ATOM     34  C   UNL A   1      47.357  28.647  27.493  1.00  0.00     0.202 C 
BRANCH  34  35
ATOM     35  C   UNL A   1      47.464  29.907  26.640  1.00  0.00     0.261 C 
BRANCH  35  36
ATOM     36  O   UNL A   1      46.561  30.914  27.033  1.00  0.00    -0.460 OA
BRANCH  36  37
ATOM     37  C   UNL A   1      47.103  32.143  27.063  1.00  0.00     0.338 C 
ATOM     38  O   UNL A   1      48.200  32.476  26.634  1.00  0.00    -0.246 OA
BRANCH  37  39
ATOM     39  C   UNL A   1      46.184  33.026  27.782  1.00  0.00     0.060 A 
ATOM     40  C   UNL A   1      46.664  33.469  29.010  1.00  0.00     0.016 A 
ATOM     41  C   UNL A   1      44.817  32.891  27.490  1.00  0.00     0.016 A 
ATOM     42  C   UNL A   1      45.806  33.363  30.068  1.00  0.00     0.010 A 
ATOM     43  C   UNL A   1      43.969  32.757  28.550  1.00  0.00     0.010 A 
ATOM     44  C   UNL A   1      44.518  32.873  29.821  1.00  0.00    -0.014 A 
BRANCH  44  45
ATOM     45  C   UNL A   1      43.724  32.520  30.965  1.00  0.00     0.031 A 
ATOM     46  C   UNL A   1      43.857  31.093  31.289  1.00  0.00     0.074 A 
ATOM     47  C   UNL A   1      43.002  33.431  31.639  1.00  0.00     0.049 A 
ATOM     48  N   UNL A   1      42.982  30.168  31.095  1.00  0.00    -0.248 NA
ATOM     49  C   UNL A   1      45.203  30.603  31.626  1.00  0.00     0.031 C 
ATOM     50  C   UNL A   1      43.009  34.890  31.522  1.00  0.00     0.029 A 
ATOM     51  N   UNL A   1      42.147  33.210  32.666  1.00  0.00    -0.354 N 
ATOM     52  C   UNL A   1      43.599  28.999  31.513  1.00  0.00     0.074 A 
ATOM     53  C   UNL A   1      45.005  29.285  31.604  1.00  0.00     0.031 C 
ATOM     54  C   UNL A   1      42.376  35.421  32.595  1.00  0.00     0.029 A 
ATOM     55  C   UNL A   1      41.820  34.344  33.396  1.00  0.00     0.049 A 
ATOM     56  H   UNL A   1      41.787  32.319  32.877  1.00  0.00     0.167 HD
ATOM     57  C   UNL A   1      42.871  27.968  32.013  1.00  0.00     0.037 A 
ATOM     58  C   UNL A   1      41.230  34.335  34.617  1.00  0.00     0.037 A 
ATOM     59  C   UNL A   1      41.479  28.091  31.663  1.00  0.00     0.049 A 
ATOM     60  C   UNL A   1      40.562  33.005  34.758  1.00  0.00     0.074 A 
ATOM     61  C   UNL A   1      40.792  28.120  30.464  1.00  0.00     0.029 A 
ATOM     62  N   UNL A   1      40.626  28.619  32.605  1.00  0.00    -0.354 N 
ATOM     63  N   UNL A   1      39.541  32.632  34.031  1.00  0.00    -0.248 NA
ATOM     64  C   UNL A   1      41.330  31.913  35.345  1.00  0.00     0.031 C 
ATOM     65  C   UNL A   1      39.748  29.070  30.655  1.00  0.00     0.029 A 
ATOM     66  C   UNL A   1      39.815  29.529  31.973  1.00  0.00     0.049 A 
ATOM     67  H   UNL A   1      40.601  28.386  33.562  1.00  0.00     0.167 HD
ATOM     68  C   UNL A   1      39.772  31.293  33.737  1.00  0.00     0.074 A 
ATOM     69  C   UNL A   1      40.850  30.888  34.636  1.00  0.00     0.031 C 
ATOM     70  C   UNL A   1      39.278  30.719  32.599  1.00  0.00     0.037 A 
BRANCH  57  71
ATOM     71  C   UNL A   1      43.365  27.077  33.117  1.00  0.00     0.058 A 
ATOM     72  C   UNL A   1      43.455  27.588  34.423  1.00  0.00     0.135 A 
ATOM     73  C   UNL A   1      44.003  25.834  32.896  1.00  0.00     0.135 A 
ATOM     74  F   UNL A   1      42.894  28.768  34.735  1.00  0.00    -0.206 F 
ATOM     75  C   UNL A   1      44.185  26.945  35.420  1.00  0.00     0.059 A 
ATOM     76  C   UNL A   1      44.681  25.146  33.891  1.00  0.00     0.059 A 
ATOM     77  F   UNL A   1      44.094  25.273  31.684  1.00  0.00    -0.206 F 
ATOM     78  C   UNL A   1      44.807  25.731  35.137  1.00  0.00     0.060 A 
BRANCH  78  79
ATOM     79  S   UNL A   1      45.852  24.960  36.380  1.00  0.00     0.124 S 
ATOM     80  O   UNL A   1      46.014  26.050  37.337  1.00  0.00    -0.237 OA
ATOM     81  O   UNL A   1      45.025  23.841  36.817  1.00  0.00    -0.237 OA
ATOM     82  O   UNL A   1      47.051  24.594  35.632  1.00  0.00    -0.744 OA
ENDBRANCH  78  79
ENDBRANCH  57  71
BRANCH  58  83
ATOM     83  C   UNL A   1      41.531  35.225  35.773  1.00  0.00     0.058 A 
ATOM     84  C   UNL A   1      40.518  35.970  36.402  1.00  0.00     0.135 A 
ATOM     85  C   UNL A   1      42.765  35.169  36.455  1.00  0.00     0.135 A 
ATOM     86  F   UNL A   1      39.302  36.064  35.841  1.00  0.00    -0.206 F 
ATOM     87  C   UNL A   1      40.702  36.580  37.650  1.00  0.00     0.059 A 
ATOM     88  C   UNL A   1      42.975  35.778  37.691  1.00  0.00     0.059 A 
ATOM     89  F   UNL A   1      43.788  34.441  35.985  1.00  0.00    -0.206 F 
ATOM     90  C   UNL A   1      41.931  36.460  38.297  1.00  0.00     0.060 A 
BRANCH  90  91
ATOM     91  S   UNL A   1      42.123  37.097  39.979  1.00  0.00     0.124 S 
ATOM     92  O   UNL A   1      42.000  38.536  39.774  1.00  0.00    -0.237 OA
ATOM     93  O   UNL A   1      41.016  36.455  40.678  1.00  0.00    -0.237 OA
ATOM     94  O   UNL A   1      43.453  36.634  40.368  1.00  0.00    -0.744 OA
ENDBRANCH  90  91
ENDBRANCH  58  83
BRANCH  70  95
ATOM     95  C   UNL A   1      38.266  31.491  31.789  1.00  0.00     0.058 A 
ATOM     96  C   UNL A   1      38.607  32.411  30.780  1.00  0.00     0.135 A 
ATOM     97  C   UNL A   1      36.915  31.128  31.894  1.00  0.00     0.135 A 
ATOM     98  F   UNL A   1      39.885  32.736  30.550  1.00  0.00    -0.206 F 
ATOM     99  C   UNL A   1      37.646  32.956  29.926  1.00  0.00     0.059 A 
ATOM    100  C   UNL A   1      35.945  31.636  31.034  1.00  0.00     0.059 A 
ATOM    101  F   UNL A   1      36.536  30.207  32.796  1.00  0.00    -0.206 F 
ATOM    102  C   UNL A   1      36.316  32.555  30.054  1.00  0.00     0.060 A 
BRANCH 102 103
ATOM    103  S   UNL A   1      35.094  33.170  28.875  1.00  0.00     0.124 S 
ATOM    104  O   UNL A   1      34.713  34.449  29.465  1.00  0.00    -0.237 OA
ATOM    105  O   UNL A   1      35.861  33.247  27.635  1.00  0.00    -0.237 OA
ATOM    106  O   UNL A   1      34.055  32.143  28.891  1.00  0.00    -0.744 OA
ENDBRANCH 102 103
ENDBRANCH  70  95
ENDBRANCH  44  45
ENDBRANCH  37  39
ENDBRANCH  36  37
ENDBRANCH  35  36
ENDBRANCH  34  35
ENDBRANCH  33  34
ENDBRANCH  32  33
ENDBRANCH  31  32
ENDBRANCH   1  31
TORSDOF 26
ENDMDL
MODEL 2
REMARK VINA RESULT:      -6.8      5.293      8.162
REMARK SMILES Cc1c(C(=O)OCCOCCOCCOCCOC(=O)c2ccc(-c3c4nc(c(-c5c(F)cc(S(=O)(=O)[O-])cc5F)c5ccc([nH]5)c(-c5c(F)cc(S(=O)(=O)[O-])cc5F)c5nc(c(-c6c(F)cc(S(=O)(=O)[O-])cc6F)c6ccc3[nH]6)C=C5)C=C4)cc2)sc2ncnc(NCc3cn4c(n3)SCC4)c12
REMARK SMILES IDX 12 1 11 2 10 3 9 4 8 5 7 6 6 7 4 8 5 9 3 10 1 11 2 12 103 13
REMARK SMILES IDX 87 14 88 15 92 16 89 17 91 18 90 19 93 20 94 22 95 23 96 24
REMARK SMILES IDX 99 25 97 26 98 27 102 28 100 29 101 30 13 31 14 32 15 33
REMARK SMILES IDX 16 34 17 35 18 36 19 37 20 38 21 39 22 40 86 41 23 42 85 43
REMARK SMILES IDX 24 44 25 45 26 46 79 47 27 48 84 49 78 50 80 51 28 52 83 53
REMARK SMILES IDX 77 54 76 55 29 57 63 58 42 59 62 60 43 61 46 62 61 63 81 64
REMARK SMILES IDX 44 65 45 66 60 68 82 69 47 70 30 71 31 72 40 73 32 74 33 75
REMARK SMILES IDX 39 76 41 77 34 78 35 79 36 80 37 81 38 82 64 83 65 84 74 85
REMARK SMILES IDX 66 86 67 87 73 88 75 89 68 90 69 91 70 92 71 93 72 94 48 95
REMARK SMILES IDX 49 96 58 97 50 98 51 99 57 100 59 101 52 102 53 103 54 104
REMARK SMILES IDX 55 105 56 106
REMARK H PARENT 93 21 80 56 46 67
REMARK Flexibility Score: inf
ROOT
ATOM      1  O   UNL A   1      46.157  30.526  28.705  1.00  0.00    -0.377 OA
ENDROOT
BRANCH   1   2
ATOM      2  C   UNL A   1      45.067  31.111  28.012  1.00  0.00     0.188 C 
BRANCH   2   3
ATOM      3  C   UNL A   1      43.753  30.313  27.892  1.00  0.00     0.188 C 
BRANCH   3   4
ATOM      4  O   UNL A   1      43.511  29.796  26.597  1.00  0.00    -0.376 OA
BRANCH   4   5
ATOM      5  C   UNL A   1      42.257  29.218  26.312  1.00  0.00     0.202 C 
BRANCH   5   6
ATOM      6  C   UNL A   1      41.312  28.899  27.478  1.00  0.00     0.261 C 
BRANCH   6   7
ATOM      7  O   UNL A   1      41.725  27.853  28.369  1.00  0.00    -0.459 OA
BRANCH   7   8
ATOM      8  C   UNL A   1      41.612  26.566  27.950  1.00  0.00     0.348 C 
ATOM      9  O   UNL A   1      40.539  26.016  27.687  1.00  0.00    -0.245 OA
BRANCH   8  10
ATOM     10  C   UNL A   1      42.930  26.015  27.683  1.00  0.00     0.118 A 
ATOM     11  C   UNL A   1      42.755  25.744  25.169  1.00  0.00     0.047 C 
ATOM     12  C   UNL A   1      43.472  25.583  26.469  1.00  0.00    -0.012 A 
ATOM     13  C   UNL A   1      44.826  25.038  26.627  1.00  0.00     0.058 A 
ATOM     14  S   UNL A   1      44.050  25.906  28.957  1.00  0.00    -0.108 S 
ATOM     15  C   UNL A   1      45.235  25.236  27.946  1.00  0.00     0.129 A 
ATOM     16  C   UNL A   1      45.799  24.411  25.796  1.00  0.00     0.138 A 
ATOM     17  N   UNL A   1      46.425  24.943  28.491  1.00  0.00    -0.225 NA
ATOM     18  N   UNL A   1      47.017  24.136  26.336  1.00  0.00    -0.219 NA
ATOM     19  C   UNL A   1      47.267  24.416  27.618  1.00  0.00     0.225 A 
BRANCH  16  20
ATOM     20  N   UNL A   1      45.768  23.962  24.509  1.00  0.00    -0.364 N 
ATOM     21  H   UNL A   1      46.332  24.503  23.911  1.00  0.00     0.162 HD
BRANCH  20  22
ATOM     22  C   UNL A   1      45.110  22.887  23.809  1.00  0.00     0.172 C 
BRANCH  22  23
ATOM     23  C   UNL A   1      44.486  21.836  24.680  1.00  0.00     0.079 A 
ATOM     24  C   UNL A   1      44.950  20.543  24.913  1.00  0.00     0.113 A 
ATOM     25  N   UNL A   1      43.264  22.042  25.312  1.00  0.00    -0.226 NA
ATOM     26  N   UNL A   1      43.960  19.965  25.626  1.00  0.00    -0.325 N 
ATOM     27  C   UNL A   1      42.978  20.878  25.824  1.00  0.00     0.168 A 
ATOM     28  C   UNL A   1      43.677  18.599  26.010  1.00  0.00     0.135 C 
ATOM     29  S   UNL A   1      41.539  20.176  26.453  1.00  0.00    -0.086 SA
ATOM     30  C   UNL A   1      42.151  18.489  26.024  1.00  0.00     0.100 C 
ENDBRANCH  22  23
ENDBRANCH  20  22
ENDBRANCH  16  20
ENDBRANCH   8  10
ENDBRANCH   7   8
ENDBRANCH   6   7
ENDBRANCH   5   6
ENDBRANCH   4   5
ENDBRANCH   3   4
ENDBRANCH   2   3
ENDBRANCH   1   2
BRANCH   1  31
ATOM     31  C   UNL A   1      47.491  30.785  28.274  1.00  0.00     0.188 C 
BRANCH  31  32
ATOM     32  C   UNL A   1      48.705  29.899  28.692  1.00  0.00     0.188 C 
BRANCH  32  33
ATOM     33  O   UNL A   1      49.882  30.591  29.076  1.00  0.00    -0.376 OA
BRANCH  33  34
ATOM     34  C   UNL A   1      50.728  30.167  30.126  1.00  0.00     0.202 C 
BRANCH  34  35
ATOM     35  C   UNL A   1      50.362  28.891  30.877  1.00  0.00     0.261 C 
BRANCH  35  36
ATOM     36  O   UNL A   1      50.411  27.742  30.063  1.00  0.00    -0.460 OA
BRANCH  36  37
ATOM     37  C   UNL A   1      51.525  27.010  30.229  1.00  0.00     0.338 C 
ATOM     38  O   UNL A   1      52.629  27.226  29.745  1.00  0.00    -0.246 OA
BRANCH  37  39
ATOM     39  C   UNL A   1      51.182  25.839  31.036  1.00  0.00     0.060 A 
ATOM     40  C   UNL A   1      49.905  25.339  30.801  1.00  0.00     0.016 A 
ATOM     41  C   UNL A   1      51.855  25.694  32.259  1.00  0.00     0.016 A 
ATOM     42  C   UNL A   1      49.145  25.081  31.905  1.00  0.00     0.010 A 
ATOM     43  C   UNL A   1      51.087  25.465  33.363  1.00  0.00     0.010 A 
ATOM     44  C   UNL A   1      49.724  25.288  33.163  1.00  0.00    -0.014 A 
BRANCH  44  45
ATOM     45  C   UNL A   1      48.843  25.269  34.298  1.00  0.00     0.031 A 
ATOM     46  C   UNL A   1      48.385  23.905  34.598  1.00  0.00     0.074 A 
ATOM     47  C   UNL A   1      48.543  26.384  34.985  1.00  0.00     0.049 A 
ATOM     48  N   UNL A   1      47.213  23.415  34.384  1.00  0.00    -0.248 NA
ATOM     49  C   UNL A   1      49.415  22.908  34.931  1.00  0.00     0.031 C 
ATOM     50  C   UNL A   1      49.140  27.718  34.893  1.00  0.00     0.029 A 
ATOM     51  N   UNL A   1      47.662  26.513  36.005  1.00  0.00    -0.354 N 
ATOM     52  C   UNL A   1      47.301  22.091  34.784  1.00  0.00     0.074 A 
ATOM     53  C   UNL A   1      48.702  21.783  34.885  1.00  0.00     0.031 C 
ATOM     54  C   UNL A   1      48.764  28.444  35.973  1.00  0.00     0.029 A 
ATOM     55  C   UNL A   1      47.812  27.671  36.753  1.00  0.00     0.049 A 
ATOM     56  H   UNL A   1      46.970  25.840  36.199  1.00  0.00     0.167 HD
ATOM     57  C   UNL A   1      46.214  21.435  35.264  1.00  0.00     0.037 A 
ATOM     58  C   UNL A   1      47.256  27.884  37.972  1.00  0.00     0.037 A 
ATOM     59  C   UNL A   1      44.993  22.114  34.911  1.00  0.00     0.049 A 
ATOM     60  C   UNL A   1      46.106  26.936  38.087  1.00  0.00     0.074 A 
ATOM     61  C   UNL A   1      44.389  22.436  33.710  1.00  0.00     0.029 A 
ATOM     62  N   UNL A   1      44.417  22.928  35.858  1.00  0.00    -0.354 N 
ATOM     63  N   UNL A   1      45.029  27.017  37.349  1.00  0.00    -0.248 NA
ATOM     64  C   UNL A   1      46.362  25.618  38.658  1.00  0.00     0.031 C 
ATOM     65  C   UNL A   1      43.816  23.724  33.913  1.00  0.00     0.029 A 
ATOM     66  C   UNL A   1      44.049  24.097  35.239  1.00  0.00     0.049 A 
ATOM     67  H   UNL A   1      44.290  22.712  36.811  1.00  0.00     0.167 HD
ATOM     68  C   UNL A   1      44.704  25.703  37.033  1.00  0.00     0.074 A 
ATOM     69  C   UNL A   1      45.516  24.884  37.929  1.00  0.00     0.031 C 
ATOM     70  C   UNL A   1      44.031  25.394  35.884  1.00  0.00     0.037 A 
BRANCH  57  71
ATOM     71  C   UNL A   1      46.294  20.404  36.353  1.00  0.00     0.058 A 
ATOM     72  C   UNL A   1      45.676  19.156  36.163  1.00  0.00     0.135 A 
ATOM     73  C   UNL A   1      46.718  20.688  37.673  1.00  0.00     0.135 A 
ATOM     74  F   UNL A   1      45.225  18.795  34.951  1.00  0.00    -0.206 F 
ATOM     75  C   UNL A   1      45.435  18.281  37.221  1.00  0.00     0.059 A 
ATOM     76  C   UNL A   1      46.545  19.805  38.728  1.00  0.00     0.059 A 
ATOM     77  F   UNL A   1      47.225  21.874  38.030  1.00  0.00    -0.206 F 
ATOM     78  C   UNL A   1      45.862  18.625  38.502  1.00  0.00     0.060 A 
BRANCH  78  79
ATOM     79  S   UNL A   1      45.443  17.560  39.889  1.00  0.00     0.124 S 
ATOM     80  O   UNL A   1      46.715  16.886  40.129  1.00  0.00    -0.237 OA
ATOM     81  O   UNL A   1      45.030  18.528  40.898  1.00  0.00    -0.237 OA
ATOM     82  O   UNL A   1      44.374  16.719  39.357  1.00  0.00    -0.744 OA
ENDBRANCH  78  79
ENDBRANCH  57  71
BRANCH  58  83
ATOM     83  C   UNL A   1      47.879  28.560  39.144  1.00  0.00     0.058 A 
ATOM     84  C   UNL A   1      47.306  29.714  39.709  1.00  0.00     0.135 A 
ATOM     85  C   UNL A   1      48.900  27.947  39.902  1.00  0.00     0.135 A 
ATOM     86  F   UNL A   1      46.313  30.354  39.073  1.00  0.00    -0.206 F 
ATOM     87  C   UNL A   1      47.688  30.201  40.966  1.00  0.00     0.059 A 
ATOM     88  C   UNL A   1      49.305  28.421  41.148  1.00  0.00     0.059 A 
ATOM     89  F   UNL A   1      49.480  26.808  39.497  1.00  0.00    -0.206 F 
ATOM     90  C   UNL A   1      48.677  29.533  41.688  1.00  0.00     0.060 A 
BRANCH  90  91
ATOM     91  S   UNL A   1      49.055  30.053  43.378  1.00  0.00     0.124 S 
ATOM     92  O   UNL A   1      48.068  29.308  44.152  1.00  0.00    -0.237 OA
ATOM     93  O   UNL A   1      50.441  29.622  43.529  1.00  0.00    -0.237 OA
ATOM     94  O   UNL A   1      48.856  31.499  43.342  1.00  0.00    -0.744 OA
ENDBRANCH  90  91
ENDBRANCH  58  83
BRANCH  70  95
ATOM     95  C   UNL A   1      43.425  26.520  35.083  1.00  0.00     0.058 A 
ATOM     96  C   UNL A   1      44.138  27.281  34.138  1.00  0.00     0.135 A 
ATOM     97  C   UNL A   1      42.034  26.689  35.123  1.00  0.00     0.135 A 
ATOM     98  F   UNL A   1      45.455  27.109  33.969  1.00  0.00    -0.206 F 
ATOM     99  C   UNL A   1      43.497  28.181  33.283  1.00  0.00     0.059 A 
ATOM    100  C   UNL A   1      41.370  27.558  34.260  1.00  0.00     0.059 A 
ATOM    101  F   UNL A   1      41.291  25.946  35.960  1.00  0.00    -0.206 F 
ATOM    102  C   UNL A   1      42.109  28.305  33.345  1.00  0.00     0.060 A 
BRANCH 102 103
ATOM    103  S   UNL A   1      41.270  29.380  32.160  1.00  0.00     0.124 S 
ATOM    104  O   UNL A   1      40.880  30.512  32.994  1.00  0.00    -0.237 OA
ATOM    105  O   UNL A   1      42.316  29.647  31.177  1.00  0.00    -0.237 OA
ATOM    106  O   UNL A   1      40.166  28.556  31.673  1.00  0.00    -0.744 OA
ENDBRANCH 102 103
ENDBRANCH  70  95
ENDBRANCH  44  45
ENDBRANCH  37  39
ENDBRANCH  36  37
ENDBRANCH  35  36
ENDBRANCH  34  35
ENDBRANCH  33  34
ENDBRANCH  32  33
ENDBRANCH  31  32
ENDBRANCH   1  31
TORSDOF 26
ENDMDL
MODEL 3
REMARK VINA RESULT:      -6.8      5.281     11.551
REMARK SMILES Cc1c(C(=O)OCCOCCOCCOCCOC(=O)c2ccc(-c3c4nc(c(-c5c(F)cc(S(=O)(=O)[O-])cc5F)c5ccc([nH]5)c(-c5c(F)cc(S(=O)(=O)[O-])cc5F)c5nc(c(-c6c(F)cc(S(=O)(=O)[O-])cc6F)c6ccc3[nH]6)C=C5)C=C4)cc2)sc2ncnc(NCc3cn4c(n3)SCC4)c12
REMARK SMILES IDX 12 1 11 2 10 3 9 4 8 5 7 6 6 7 4 8 5 9 3 10 1 11 2 12 103 13
REMARK SMILES IDX 87 14 88 15 92 16 89 17 91 18 90 19 93 20 94 22 95 23 96 24
REMARK SMILES IDX 99 25 97 26 98 27 102 28 100 29 101 30 13 31 14 32 15 33
REMARK SMILES IDX 16 34 17 35 18 36 19 37 20 38 21 39 22 40 86 41 23 42 85 43
REMARK SMILES IDX 24 44 25 45 26 46 79 47 27 48 84 49 78 50 80 51 28 52 83 53
REMARK SMILES IDX 77 54 76 55 29 57 63 58 42 59 62 60 43 61 46 62 61 63 81 64
REMARK SMILES IDX 44 65 45 66 60 68 82 69 47 70 30 71 31 72 40 73 32 74 33 75
REMARK SMILES IDX 39 76 41 77 34 78 35 79 36 80 37 81 38 82 64 83 65 84 74 85
REMARK SMILES IDX 66 86 67 87 73 88 75 89 68 90 69 91 70 92 71 93 72 94 48 95
REMARK SMILES IDX 49 96 58 97 50 98 51 99 57 100 59 101 52 102 53 103 54 104
REMARK SMILES IDX 55 105 56 106
REMARK H PARENT 93 21 80 56 46 67
REMARK Flexibility Score: inf
ROOT
ATOM      1  O   UNL A   1      39.938  32.843  30.117  1.00  0.00    -0.377 OA
ENDROOT
BRANCH   1   2
ATOM      2  C   UNL A   1      41.279  32.985  30.555  1.00  0.00     0.188 C 
BRANCH   2   3
ATOM      3  C   UNL A   1      41.539  33.440  32.005  1.00  0.00     0.188 C 
BRANCH   3   4
ATOM      4  O   UNL A   1      41.795  34.825  32.134  1.00  0.00    -0.376 OA
BRANCH   4   5
ATOM      5  C   UNL A   1      43.128  35.282  32.102  1.00  0.00     0.202 C 
BRANCH   5   6
ATOM      6  C   UNL A   1      44.029  34.842  30.940  1.00  0.00     0.261 C 
BRANCH   6   7
ATOM      7  O   UNL A   1      44.340  35.841  29.957  1.00  0.00    -0.459 OA
BRANCH   7   8
ATOM      8  C   UNL A   1      43.314  36.514  29.374  1.00  0.00     0.348 C 
ATOM      9  O   UNL A   1      42.237  36.000  29.067  1.00  0.00    -0.245 OA
BRANCH   8  10
ATOM     10  C   UNL A   1      43.608  37.938  29.348  1.00  0.00     0.118 A 
ATOM     11  C   UNL A   1      43.273  38.376  26.875  1.00  0.00     0.047 C 
ATOM     12  C   UNL A   1      43.655  38.804  28.254  1.00  0.00    -0.012 A 
ATOM     13  C   UNL A   1      44.044  40.167  28.639  1.00  0.00     0.058 A 
ATOM     14  S   UNL A   1      43.881  38.748  30.818  1.00  0.00    -0.108 S 
ATOM     15  C   UNL A   1      44.125  40.230  30.031  1.00  0.00     0.129 A 
ATOM     16  C   UNL A   1      44.317  41.399  27.976  1.00  0.00     0.138 A 
ATOM     17  N   UNL A   1      44.386  41.303  30.791  1.00  0.00    -0.225 NA
ATOM     18  N   UNL A   1      44.557  42.496  28.743  1.00  0.00    -0.219 NA
ATOM     19  C   UNL A   1      44.571  42.401  30.075  1.00  0.00     0.225 A 
BRANCH  16  20
ATOM     20  N   UNL A   1      44.436  41.736  26.660  1.00  0.00    -0.364 N 
ATOM     21  H   UNL A   1      45.373  41.894  26.400  1.00  0.00     0.162 HD
BRANCH  20  22
ATOM     22  C   UNL A   1      43.527  41.916  25.557  1.00  0.00     0.172 C 
BRANCH  22  23
ATOM     23  C   UNL A   1      44.122  42.524  24.321  1.00  0.00     0.079 A 
ATOM     24  C   UNL A   1      43.612  43.574  23.562  1.00  0.00     0.113 A 
ATOM     25  N   UNL A   1      45.273  42.005  23.735  1.00  0.00    -0.226 NA
ATOM     26  N   UNL A   1      44.426  43.626  22.487  1.00  0.00    -0.325 N 
ATOM     27  C   UNL A   1      45.382  42.674  22.621  1.00  0.00     0.168 A 
ATOM     28  C   UNL A   1      44.355  44.315  21.217  1.00  0.00     0.135 C 
ATOM     29  S   UNL A   1      46.290  42.443  21.178  1.00  0.00    -0.086 SA
ATOM     30  C   UNL A   1      45.031  43.382  20.211  1.00  0.00     0.100 C 
ENDBRANCH  22  23
ENDBRANCH  20  22
ENDBRANCH  16  20
ENDBRANCH   8  10
ENDBRANCH   7   8
ENDBRANCH   6   7
ENDBRANCH   5   6
ENDBRANCH   4   5
ENDBRANCH   3   4
ENDBRANCH   2   3
ENDBRANCH   1   2
BRANCH   1  31
ATOM     31  C   UNL A   1      39.079  33.981  30.084  1.00  0.00     0.188 C 
BRANCH  31  32
ATOM     32  C   UNL A   1      37.647  33.946  29.468  1.00  0.00     0.188 C 
BRANCH  32  33
ATOM     33  O   UNL A   1      37.424  32.976  28.457  1.00  0.00    -0.376 OA
BRANCH  33  34
ATOM     34  C   UNL A   1      36.863  31.703  28.708  1.00  0.00     0.202 C 
BRANCH  34  35
ATOM     35  C   UNL A   1      36.398  31.386  30.126  1.00  0.00     0.261 C 
BRANCH  35  36
ATOM     36  O   UNL A   1      37.390  30.753  30.901  1.00  0.00    -0.460 OA
BRANCH  36  37
ATOM     37  C   UNL A   1      37.075  30.651  32.202  1.00  0.00     0.338 C 
ATOM     38  O   UNL A   1      36.188  31.252  32.795  1.00  0.00    -0.246 OA
BRANCH  37  39
ATOM     39  C   UNL A   1      38.036  29.747  32.832  1.00  0.00     0.060 A 
ATOM     40  C   UNL A   1      39.142  30.386  33.386  1.00  0.00     0.016 A 
ATOM     41  C   UNL A   1      38.065  28.425  32.361  1.00  0.00     0.016 A 
ATOM     42  C   UNL A   1      40.362  29.859  33.075  1.00  0.00     0.010 A 
ATOM     43  C   UNL A   1      39.284  27.914  32.025  1.00  0.00     0.010 A 
ATOM     44  C   UNL A   1      40.396  28.707  32.280  1.00  0.00    -0.014 A 
BRANCH  44  45
ATOM     45  C   UNL A   1      41.672  28.320  31.745  1.00  0.00     0.031 A 
ATOM     46  C   UNL A   1      42.689  28.222  32.803  1.00  0.00     0.074 A 
ATOM     47  C   UNL A   1      41.847  28.055  30.440  1.00  0.00     0.049 A 
ATOM     48  N   UNL A   1      43.657  29.042  33.027  1.00  0.00    -0.248 NA
ATOM     49  C   UNL A   1      42.446  27.250  33.881  1.00  0.00     0.031 C 
ATOM     50  C   UNL A   1      40.844  27.900  29.384  1.00  0.00     0.029 A 
ATOM     51  N   UNL A   1      43.008  27.775  29.803  1.00  0.00    -0.354 N 
ATOM     52  C   UNL A   1      44.293  28.545  34.154  1.00  0.00     0.074 A 
ATOM     53  C   UNL A   1      43.388  27.603  34.756  1.00  0.00     0.031 C 
ATOM     54  C   UNL A   1      41.428  27.329  28.303  1.00  0.00     0.029 A 
ATOM     55  C   UNL A   1      42.853  27.197  28.551  1.00  0.00     0.049 A 
ATOM     56  H   UNL A   1      43.890  27.966  30.195  1.00  0.00     0.167 HD
ATOM     57  C   UNL A   1      45.622  28.744  34.348  1.00  0.00     0.037 A 
ATOM     58  C   UNL A   1      43.838  26.573  27.858  1.00  0.00     0.037 A 
ATOM     59  C   UNL A   1      46.118  29.814  33.522  1.00  0.00     0.049 A 
ATOM     60  C   UNL A   1      45.133  27.073  28.415  1.00  0.00     0.074 A 
ATOM     61  C   UNL A   1      45.831  31.163  33.428  1.00  0.00     0.029 A 
ATOM     62  N   UNL A   1      46.753  29.476  32.349  1.00  0.00    -0.354 N 
ATOM     63  N   UNL A   1      45.541  28.309  28.289  1.00  0.00    -0.248 NA
ATOM     64  C   UNL A   1      45.727  26.339  29.527  1.00  0.00     0.031 C 
ATOM     65  C   UNL A   1      45.897  31.463  32.037  1.00  0.00     0.029 A 
ATOM     66  C   UNL A   1      46.274  30.301  31.361  1.00  0.00     0.049 A 
ATOM     67  H   UNL A   1      47.429  28.770  32.238  1.00  0.00     0.167 HD
ATOM     68  C   UNL A   1      46.114  28.630  29.514  1.00  0.00     0.074 A 
ATOM     69  C   UNL A   1      46.267  27.354  30.208  1.00  0.00     0.031 C 
ATOM     70  C   UNL A   1      46.142  29.919  29.970  1.00  0.00     0.037 A 
BRANCH  57  71
ATOM     71  C   UNL A   1      46.515  27.727  34.999  1.00  0.00     0.058 A 
ATOM     72  C   UNL A   1      47.280  28.103  36.117  1.00  0.00     0.135 A 
ATOM     73  C   UNL A   1      46.852  26.486  34.410  1.00  0.00     0.135 A 
ATOM     74  F   UNL A   1      47.050  29.269  36.742  1.00  0.00    -0.206 F 
ATOM     75  C   UNL A   1      48.348  27.333  36.575  1.00  0.00     0.059 A 
ATOM     76  C   UNL A   1      47.869  25.674  34.889  1.00  0.00     0.059 A 
ATOM     77  F   UNL A   1      46.286  26.044  33.281  1.00  0.00    -0.206 F 
ATOM     78  C   UNL A   1      48.641  26.127  35.942  1.00  0.00     0.060 A 
BRANCH  78  79
ATOM     79  S   UNL A   1      50.092  25.193  36.448  1.00  0.00     0.124 S 
ATOM     80  O   UNL A   1      51.057  25.582  35.425  1.00  0.00    -0.237 OA
ATOM     81  O   UNL A   1      50.333  25.714  37.789  1.00  0.00    -0.237 OA
ATOM     82  O   UNL A   1      49.636  23.807  36.391  1.00  0.00    -0.744 OA
ENDBRANCH  78  79
ENDBRANCH  57  71
BRANCH  58  83
ATOM     83  C   UNL A   1      43.724  25.330  27.045  1.00  0.00     0.058 A 
ATOM     84  C   UNL A   1      44.203  25.278  25.723  1.00  0.00     0.135 A 
ATOM     85  C   UNL A   1      43.383  24.089  27.623  1.00  0.00     0.135 A 
ATOM     86  F   UNL A   1      44.573  26.405  25.095  1.00  0.00    -0.206 F 
ATOM     87  C   UNL A   1      44.377  24.069  25.037  1.00  0.00     0.059 A 
ATOM     88  C   UNL A   1      43.536  22.875  26.956  1.00  0.00     0.059 A 
ATOM     89  F   UNL A   1      42.972  24.004  28.897  1.00  0.00    -0.206 F 
ATOM     90  C   UNL A   1      44.059  22.869  25.672  1.00  0.00     0.060 A 
BRANCH  90  91
ATOM     91  S   UNL A   1      44.439  21.299  24.860  1.00  0.00     0.124 S 
ATOM     92  O   UNL A   1      43.331  20.456  25.294  1.00  0.00    -0.237 OA
ATOM     93  O   UNL A   1      44.440  21.675  23.450  1.00  0.00    -0.237 OA
ATOM     94  O   UNL A   1      45.746  20.941  25.406  1.00  0.00    -0.744 OA
ENDBRANCH  90  91
ENDBRANCH  58  83
BRANCH  70  95
ATOM     95  C   UNL A   1      45.766  31.025  29.015  1.00  0.00     0.058 A 
ATOM     96  C   UNL A   1      46.668  31.623  28.115  1.00  0.00     0.135 A 
ATOM     97  C   UNL A   1      44.408  31.336  28.862  1.00  0.00     0.135 A 
ATOM     98  F   UNL A   1      47.968  31.304  28.130  1.00  0.00    -0.206 F 
ATOM     99  C   UNL A   1      46.238  32.503  27.119  1.00  0.00     0.059 A 
ATOM    100  C   UNL A   1      43.954  32.188  27.858  1.00  0.00     0.059 A 
ATOM    101  F   UNL A   1      43.492  30.749  29.650  1.00  0.00    -0.206 F 
ATOM    102  C   UNL A   1      44.875  32.772  26.991  1.00  0.00     0.060 A 
BRANCH 102 103
ATOM    103  S   UNL A   1      44.309  33.816  25.630  1.00  0.00     0.124 S 
ATOM    104  O   UNL A   1      43.403  34.738  26.307  1.00  0.00    -0.237 OA
ATOM    105  O   UNL A   1      45.555  34.398  25.138  1.00  0.00    -0.237 OA
ATOM    106  O   UNL A   1      43.670  32.871  24.717  1.00  0.00    -0.744 OA
ENDBRANCH 102 103
ENDBRANCH  70  95
ENDBRANCH  44  45
ENDBRANCH  37  39
ENDBRANCH  36  37
ENDBRANCH  35  36
ENDBRANCH  34  35
ENDBRANCH  33  34
ENDBRANCH  32  33
ENDBRANCH  31  32
ENDBRANCH   1  31
TORSDOF 26
ENDMDL
