MODEL 1
REMARK VINA RESULT:      -9.5      0.000      0.000
REMARK SMILES CC(C)N1C(=O)C[C@@H](Sc2csc(C(=O)OCCOCCOCCOCCOC(=O)c3ccc(-c4c5nc(c(-c6c(F)cc(S(=O)(=O)[O-])cc6F)c6ccc([nH]6)c(-c6c(F)cc(S(=O)(=O)[O-])cc6F)c6nc(c(-c7c(F)cc(S(=O)(=O)[O-])cc7F)c7ccc4[nH]7)C=C6)C=C5)cc3)c2)C1=O
REMARK SMILES IDX 22 1 21 2 20 3 19 4 18 5 17 6 16 7 14 8 15 9 13 10 10 11
REMARK SMILES IDX 11 12 97 13 12 14 9 15 8 16 4 17 5 18 98 19 6 20 7 21 99 22
REMARK SMILES IDX 2 23 1 24 3 25 23 26 24 27 25 28 26 29 27 30 28 31 29 32
REMARK SMILES IDX 30 33 31 34 32 35 96 36 33 37 95 38 34 39 35 40 36 41 89 42
REMARK SMILES IDX 37 43 94 44 88 45 90 46 38 47 93 48 87 49 86 50 39 52 73 53
REMARK SMILES IDX 52 54 72 55 53 56 56 57 71 58 91 59 54 60 55 61 70 63 92 64
REMARK SMILES IDX 57 65 40 66 41 67 50 68 42 69 43 70 49 71 51 72 44 73 45 74
REMARK SMILES IDX 46 75 47 76 48 77 74 78 75 79 84 80 76 81 77 82 83 83 85 84
REMARK SMILES IDX 78 85 79 86 80 87 81 88 82 89 58 90 59 91 68 92 60 93 61 94
REMARK SMILES IDX 67 95 69 96 62 97 63 98 64 99 65 100 66 101
REMARK H PARENT 90 51 56 62
REMARK Flexibility Score: inf
ROOT
ATOM      1  O   UNL A   1      34.927  36.441  33.373  1.00  0.00    -0.377 OA
ENDROOT
BRANCH   1   2
ATOM      2  C   UNL A   1      33.980  37.226  32.673  1.00  0.00     0.188 C 
BRANCH   2   3
ATOM      3  C   UNL A   1      32.601  36.554  32.572  1.00  0.00     0.188 C 
BRANCH   3   4
ATOM      4  O   UNL A   1      32.077  36.524  31.243  1.00  0.00    -0.376 OA
BRANCH   4   5
ATOM      5  C   UNL A   1      33.026  36.326  30.198  1.00  0.00     0.202 C 
BRANCH   5   6
ATOM      6  C   UNL A   1      32.856  35.031  29.388  1.00  0.00     0.261 C 
BRANCH   6   7
ATOM      7  O   UNL A   1      34.008  34.174  29.377  1.00  0.00    -0.459 OA
BRANCH   7   8
ATOM      8  C   UNL A   1      34.581  33.898  28.177  1.00  0.00     0.348 C 
ATOM      9  O   UNL A   1      34.893  34.738  27.341  1.00  0.00    -0.245 OA
BRANCH   8  10
ATOM     10  C   UNL A   1      34.913  32.492  28.151  1.00  0.00     0.113 A 
ATOM     11  C   UNL A   1      34.862  30.193  27.723  1.00  0.00     0.020 A 
ATOM     12  C   UNL A   1      35.571  30.247  28.899  1.00  0.00     0.080 A 
ATOM     13  C   UNL A   1      34.444  31.494  27.316  1.00  0.00     0.042 A 
ATOM     14  S   UNL A   1      35.919  31.854  29.378  1.00  0.00    -0.136 S 
BRANCH  11  15
ATOM     15  S   UNL A   1      34.346  28.777  26.822  1.00  0.00    -0.111 SA
BRANCH  15  16
ATOM     16  C   UNL A   1      32.552  28.875  26.603  1.00  0.00     0.150 C 
ATOM     17  N   UNL A   1      31.317  27.507  25.168  1.00  0.00    -0.279 N 
ATOM     18  C   UNL A   1      31.056  27.041  26.428  1.00  0.00     0.231 C 
ATOM     19  C   UNL A   1      32.078  28.647  25.191  1.00  0.00     0.243 C 
ATOM     20  O   UNL A   1      30.335  26.098  26.719  1.00  0.00    -0.274 OA
ATOM     21  C   UNL A   1      31.782  27.871  27.440  1.00  0.00     0.125 C 
ATOM     22  O   UNL A   1      32.318  29.385  24.248  1.00  0.00    -0.273 OA
BRANCH  17  23
ATOM     23  C   UNL A   1      30.715  26.895  23.982  1.00  0.00     0.087 C 
ATOM     24  C   UNL A   1      29.623  27.790  23.400  1.00  0.00     0.031 C 
ATOM     25  C   UNL A   1      31.724  26.500  22.902  1.00  0.00     0.031 C 
ENDBRANCH  17  23
ENDBRANCH  15  16
ENDBRANCH  11  15
ENDBRANCH   8  10
ENDBRANCH   7   8
ENDBRANCH   6   7
ENDBRANCH   5   6
ENDBRANCH   4   5
ENDBRANCH   3   4
ENDBRANCH   2   3
ENDBRANCH   1   2
BRANCH   1  26
ATOM     26  C   UNL A   1      34.947  35.037  33.125  1.00  0.00     0.188 C 
BRANCH  26  27
ATOM     27  C   UNL A   1      35.780  34.443  31.970  1.00  0.00     0.188 C 
BRANCH  27  28
ATOM     28  O   UNL A   1      36.846  33.596  32.408  1.00  0.00    -0.376 OA
BRANCH  28  29
ATOM     29  C   UNL A   1      36.785  33.175  33.767  1.00  0.00     0.202 C 
BRANCH  29  30
ATOM     30  C   UNL A   1      37.132  31.692  33.948  1.00  0.00     0.261 C 
BRANCH  30  31
ATOM     31  O   UNL A   1      37.180  30.942  32.725  1.00  0.00    -0.460 OA
BRANCH  31  32
ATOM     32  C   UNL A   1      37.717  29.704  32.795  1.00  0.00     0.338 C 
ATOM     33  O   UNL A   1      37.181  28.693  33.209  1.00  0.00    -0.246 OA
BRANCH  32  34
ATOM     34  C   UNL A   1      39.026  29.736  32.116  1.00  0.00     0.060 A 
ATOM     35  C   UNL A   1      39.096  30.255  30.818  1.00  0.00     0.016 A 
ATOM     36  C   UNL A   1      40.169  29.242  32.750  1.00  0.00     0.016 A 
ATOM     37  C   UNL A   1      40.310  30.238  30.131  1.00  0.00     0.010 A 
ATOM     38  C   UNL A   1      41.379  29.213  32.057  1.00  0.00     0.010 A 
ATOM     39  C   UNL A   1      41.445  29.679  30.733  1.00  0.00    -0.014 A 
BRANCH  39  40
ATOM     40  C   UNL A   1      42.654  29.402  29.924  1.00  0.00     0.031 A 
ATOM     41  C   UNL A   1      42.779  28.054  29.270  1.00  0.00     0.074 A 
ATOM     42  C   UNL A   1      43.625  30.320  29.787  1.00  0.00     0.049 A 
ATOM     43  N   UNL A   1      43.759  27.565  28.558  1.00  0.00    -0.248 NA
ATOM     44  C   UNL A   1      41.644  27.131  29.450  1.00  0.00     0.031 C 
ATOM     45  C   UNL A   1      43.608  31.665  30.360  1.00  0.00     0.029 A 
ATOM     46  N   UNL A   1      44.827  30.249  29.128  1.00  0.00    -0.354 N 
ATOM     47  C   UNL A   1      43.362  26.282  28.201  1.00  0.00     0.074 A 
ATOM     48  C   UNL A   1      42.063  26.057  28.798  1.00  0.00     0.031 C 
ATOM     49  C   UNL A   1      44.757  32.288  30.041  1.00  0.00     0.029 A 
ATOM     50  C   UNL A   1      45.596  31.379  29.261  1.00  0.00     0.049 A 
ATOM     51  H   UNL A   1      45.111  29.461  28.609  1.00  0.00     0.167 HD
ATOM     52  C   UNL A   1      44.016  25.376  27.439  1.00  0.00     0.037 A 
ATOM     53  C   UNL A   1      46.842  31.638  28.819  1.00  0.00     0.037 A 
ATOM     54  C   UNL A   1      45.313  25.596  26.860  1.00  0.00     0.049 A 
ATOM     55  C   UNL A   1      47.576  30.592  28.020  1.00  0.00     0.074 A 
ATOM     56  C   UNL A   1      46.056  24.743  26.063  1.00  0.00     0.029 A 
ATOM     57  N   UNL A   1      46.065  26.748  27.027  1.00  0.00    -0.354 N 
ATOM     58  N   UNL A   1      47.175  29.395  27.661  1.00  0.00    -0.248 NA
ATOM     59  C   UNL A   1      48.934  30.932  27.567  1.00  0.00     0.031 C 
ATOM     60  C   UNL A   1      47.276  25.369  25.775  1.00  0.00     0.029 A 
ATOM     61  C   UNL A   1      47.273  26.624  26.362  1.00  0.00     0.049 A 
ATOM     62  H   UNL A   1      45.782  27.538  27.541  1.00  0.00     0.167 HD
ATOM     63  C   UNL A   1      48.219  28.850  26.920  1.00  0.00     0.074 A 
ATOM     64  C   UNL A   1      49.267  29.848  26.878  1.00  0.00     0.031 C 
ATOM     65  C   UNL A   1      48.301  27.634  26.327  1.00  0.00     0.037 A 
BRANCH  52  66
ATOM     66  C   UNL A   1      43.338  24.056  27.209  1.00  0.00     0.058 A 
ATOM     67  C   UNL A   1      43.530  22.974  28.082  1.00  0.00     0.135 A 
ATOM     68  C   UNL A   1      42.486  23.874  26.110  1.00  0.00     0.135 A 
ATOM     69  F   UNL A   1      44.354  23.092  29.135  1.00  0.00    -0.206 F 
ATOM     70  C   UNL A   1      42.919  21.745  27.858  1.00  0.00     0.059 A 
ATOM     71  C   UNL A   1      41.848  22.660  25.878  1.00  0.00     0.059 A 
ATOM     72  F   UNL A   1      42.277  24.876  25.242  1.00  0.00    -0.206 F 
ATOM     73  C   UNL A   1      42.082  21.596  26.749  1.00  0.00     0.060 A 
BRANCH  73  74
ATOM     74  S   UNL A   1      41.301  19.994  26.464  1.00  0.00     0.124 S 
ATOM     75  O   UNL A   1      39.924  20.389  26.184  1.00  0.00    -0.237 OA
ATOM     76  O   UNL A   1      42.055  19.474  25.327  1.00  0.00    -0.237 OA
ATOM     77  O   UNL A   1      41.508  19.288  27.725  1.00  0.00    -0.744 OA
ENDBRANCH  73  74
ENDBRANCH  52  66
BRANCH  53  78
ATOM     78  C   UNL A   1      47.481  32.944  29.124  1.00  0.00     0.058 A 
ATOM     79  C   UNL A   1      48.274  33.111  30.268  1.00  0.00     0.135 A 
ATOM     80  C   UNL A   1      47.306  34.052  28.280  1.00  0.00     0.135 A 
ATOM     81  F   UNL A   1      48.459  32.084  31.111  1.00  0.00    -0.206 F 
ATOM     82  C   UNL A   1      48.863  34.333  30.573  1.00  0.00     0.059 A 
ATOM     83  C   UNL A   1      47.901  35.279  28.554  1.00  0.00     0.059 A 
ATOM     84  F   UNL A   1      46.562  33.940  27.169  1.00  0.00    -0.206 F 
ATOM     85  C   UNL A   1      48.671  35.412  29.708  1.00  0.00     0.060 A 
BRANCH  85  86
ATOM     86  S   UNL A   1      49.480  36.983  30.085  1.00  0.00     0.124 S 
ATOM     87  O   UNL A   1      50.490  36.568  31.051  1.00  0.00    -0.237 OA
ATOM     88  O   UNL A   1      49.979  37.396  28.777  1.00  0.00    -0.237 OA
ATOM     89  O   UNL A   1      48.393  37.799  30.618  1.00  0.00    -0.744 OA
ENDBRANCH  85  86
ENDBRANCH  53  78
BRANCH  65  90
ATOM     90  C   UNL A   1      49.552  27.322  25.555  1.00  0.00     0.058 A 
ATOM     91  C   UNL A   1      49.626  27.508  24.167  1.00  0.00     0.135 A 
ATOM     92  C   UNL A   1      50.710  26.889  26.223  1.00  0.00     0.135 A 
ATOM     93  F   UNL A   1      48.546  27.917  23.483  1.00  0.00    -0.206 F 
ATOM     94  C   UNL A   1      50.801  27.263  23.463  1.00  0.00     0.059 A 
ATOM     95  C   UNL A   1      51.899  26.657  25.543  1.00  0.00     0.059 A 
ATOM     96  F   UNL A   1      50.693  26.704  27.554  1.00  0.00    -0.206 F 
ATOM     97  C   UNL A   1      51.932  26.838  24.161  1.00  0.00     0.060 A 
BRANCH  97  98
ATOM     98  S   UNL A   1      53.465  26.562  23.245  1.00  0.00     0.124 S 
ATOM     99  O   UNL A   1      54.117  25.545  24.065  1.00  0.00    -0.237 OA
ATOM    100  O   UNL A   1      52.980  26.111  21.944  1.00  0.00    -0.237 OA
ATOM    101  O   UNL A   1      54.102  27.876  23.249  1.00  0.00    -0.744 OA
ENDBRANCH  97  98
ENDBRANCH  65  90
ENDBRANCH  39  40
ENDBRANCH  32  34
ENDBRANCH  31  32
ENDBRANCH  30  31
ENDBRANCH  29  30
ENDBRANCH  28  29
ENDBRANCH  27  28
ENDBRANCH  26  27
ENDBRANCH   1  26
TORSDOF 26
ENDMDL
MODEL 2
REMARK VINA RESULT:      -9.4      3.873      9.891
REMARK SMILES CC(C)N1C(=O)C[C@@H](Sc2csc(C(=O)OCCOCCOCCOCCOC(=O)c3ccc(-c4c5nc(c(-c6c(F)cc(S(=O)(=O)[O-])cc6F)c6ccc([nH]6)c(-c6c(F)cc(S(=O)(=O)[O-])cc6F)c6nc(c(-c7c(F)cc(S(=O)(=O)[O-])cc7F)c7ccc4[nH]7)C=C6)C=C5)cc3)c2)C1=O
REMARK SMILES IDX 22 1 21 2 20 3 19 4 18 5 17 6 16 7 14 8 15 9 13 10 10 11
REMARK SMILES IDX 11 12 97 13 12 14 9 15 8 16 4 17 5 18 98 19 6 20 7 21 99 22
REMARK SMILES IDX 2 23 1 24 3 25 23 26 24 27 25 28 26 29 27 30 28 31 29 32
REMARK SMILES IDX 30 33 31 34 32 35 96 36 33 37 95 38 34 39 35 40 36 41 89 42
REMARK SMILES IDX 37 43 94 44 88 45 90 46 38 47 93 48 87 49 86 50 39 52 73 53
REMARK SMILES IDX 52 54 72 55 53 56 56 57 71 58 91 59 54 60 55 61 70 63 92 64
REMARK SMILES IDX 57 65 40 66 41 67 50 68 42 69 43 70 49 71 51 72 44 73 45 74
REMARK SMILES IDX 46 75 47 76 48 77 74 78 75 79 84 80 76 81 77 82 83 83 85 84
REMARK SMILES IDX 78 85 79 86 80 87 81 88 82 89 58 90 59 91 68 92 60 93 61 94
REMARK SMILES IDX 67 95 69 96 62 97 63 98 64 99 65 100 66 101
REMARK H PARENT 90 51 56 62
REMARK Flexibility Score: inf
ROOT
ATOM      1  O   UNL A   1      34.326  26.010  24.937  1.00  0.00    -0.377 OA
ENDROOT
BRANCH   1   2
ATOM      2  C   UNL A   1      33.657  27.238  25.158  1.00  0.00     0.188 C 
BRANCH   2   3
ATOM      3  C   UNL A   1      32.477  27.111  26.135  1.00  0.00     0.188 C 
BRANCH   3   4
ATOM      4  O   UNL A   1      31.553  28.198  26.057  1.00  0.00    -0.376 OA
BRANCH   4   5
ATOM      5  C   UNL A   1      31.784  29.146  25.019  1.00  0.00     0.202 C 
BRANCH   5   6
ATOM      6  C   UNL A   1      30.674  29.249  23.960  1.00  0.00     0.261 C 
BRANCH   6   7
ATOM      7  O   UNL A   1      30.596  28.131  23.062  1.00  0.00    -0.459 OA
BRANCH   7   8
ATOM      8  C   UNL A   1      29.773  27.105  23.399  1.00  0.00     0.348 C 
ATOM      9  O   UNL A   1      28.571  27.211  23.611  1.00  0.00    -0.245 OA
BRANCH   8  10
ATOM     10  C   UNL A   1      30.521  25.873  23.281  1.00  0.00     0.113 A 
ATOM     11  C   UNL A   1      31.509  23.807  23.755  1.00  0.00     0.020 A 
ATOM     12  C   UNL A   1      32.334  24.298  22.771  1.00  0.00     0.080 A 
ATOM     13  C   UNL A   1      30.484  24.744  24.080  1.00  0.00     0.042 A 
ATOM     14  S   UNL A   1      31.747  25.757  22.095  1.00  0.00    -0.136 S 
BRANCH  11  15
ATOM     15  S   UNL A   1      31.668  22.319  24.674  1.00  0.00    -0.111 SA
BRANCH  15  16
ATOM     16  C   UNL A   1      32.843  21.248  23.809  1.00  0.00     0.150 C 
ATOM     17  N   UNL A   1      33.145  18.977  24.265  1.00  0.00    -0.279 N 
ATOM     18  C   UNL A   1      32.447  19.021  23.089  1.00  0.00     0.231 C 
ATOM     19  C   UNL A   1      33.522  20.227  24.684  1.00  0.00     0.243 C 
ATOM     20  O   UNL A   1      32.061  18.063  22.436  1.00  0.00    -0.274 OA
ATOM     21  C   UNL A   1      32.218  20.444  22.684  1.00  0.00     0.125 C 
ATOM     22  O   UNL A   1      34.299  20.491  25.589  1.00  0.00    -0.273 OA
BRANCH  17  23
ATOM     23  C   UNL A   1      33.531  17.707  24.883  1.00  0.00     0.087 C 
ATOM     24  C   UNL A   1      32.299  16.887  25.261  1.00  0.00     0.031 C 
ATOM     25  C   UNL A   1      34.501  16.873  24.045  1.00  0.00     0.031 C 
ENDBRANCH  17  23
ENDBRANCH  15  16
ENDBRANCH  11  15
ENDBRANCH   8  10
ENDBRANCH   7   8
ENDBRANCH   6   7
ENDBRANCH   5   6
ENDBRANCH   4   5
ENDBRANCH   3   4
ENDBRANCH   2   3
ENDBRANCH   1   2
BRANCH   1  26
ATOM     26  C   UNL A   1      34.144  24.968  25.892  1.00  0.00     0.188 C 
BRANCH  26  27
ATOM     27  C   UNL A   1      35.054  23.723  25.897  1.00  0.00     0.188 C 
BRANCH  27  28
ATOM     28  O   UNL A   1      36.176  23.829  25.016  1.00  0.00    -0.376 OA
BRANCH  28  29
ATOM     29  C   UNL A   1      36.488  22.660  24.264  1.00  0.00     0.202 C 
BRANCH  29  30
ATOM     30  C   UNL A   1      37.738  21.935  24.778  1.00  0.00     0.261 C 
BRANCH  30  31
ATOM     31  O   UNL A   1      38.108  22.275  26.123  1.00  0.00    -0.460 OA
BRANCH  31  32
ATOM     32  C   UNL A   1      39.426  22.237  26.416  1.00  0.00     0.338 C 
ATOM     33  O   UNL A   1      40.219  21.361  26.120  1.00  0.00    -0.246 OA
BRANCH  32  34
ATOM     34  C   UNL A   1      39.799  23.533  27.012  1.00  0.00     0.060 A 
ATOM     35  C   UNL A   1      39.184  24.694  26.531  1.00  0.00     0.016 A 
ATOM     36  C   UNL A   1      40.760  23.600  28.025  1.00  0.00     0.016 A 
ATOM     37  C   UNL A   1      39.566  25.938  27.036  1.00  0.00     0.010 A 
ATOM     38  C   UNL A   1      41.150  24.845  28.517  1.00  0.00     0.010 A 
ATOM     39  C   UNL A   1      40.579  26.019  28.000  1.00  0.00    -0.014 A 
BRANCH  39  40
ATOM     40  C   UNL A   1      41.182  27.330  28.333  1.00  0.00     0.031 A 
ATOM     41  C   UNL A   1      42.669  27.489  28.178  1.00  0.00     0.074 A 
ATOM     42  C   UNL A   1      40.429  28.349  28.779  1.00  0.00     0.049 A 
ATOM     43  N   UNL A   1      43.427  28.518  28.452  1.00  0.00    -0.248 NA
ATOM     44  C   UNL A   1      43.400  26.325  27.648  1.00  0.00     0.031 C 
ATOM     45  C   UNL A   1      38.978  28.319  28.955  1.00  0.00     0.029 A 
ATOM     46  N   UNL A   1      40.791  29.611  29.180  1.00  0.00    -0.354 N 
ATOM     47  C   UNL A   1      44.720  28.131  28.124  1.00  0.00     0.074 A 
ATOM     48  C   UNL A   1      44.650  26.763  27.659  1.00  0.00     0.031 C 
ATOM     49  C   UNL A   1      38.574  29.504  29.446  1.00  0.00     0.029 A 
ATOM     50  C   UNL A   1      39.740  30.367  29.638  1.00  0.00     0.049 A 
ATOM     51  H   UNL A   1      41.718  29.942  29.143  1.00  0.00     0.167 HD
ATOM     52  C   UNL A   1      45.862  28.852  28.198  1.00  0.00     0.037 A 
ATOM     53  C   UNL A   1      39.727  31.605  30.169  1.00  0.00     0.037 A 
ATOM     54  C   UNL A   1      45.932  30.206  28.676  1.00  0.00     0.049 A 
ATOM     55  C   UNL A   1      41.020  32.369  30.295  1.00  0.00     0.074 A 
ATOM     56  C   UNL A   1      47.040  31.027  28.779  1.00  0.00     0.029 A 
ATOM     57  N   UNL A   1      44.847  30.933  29.141  1.00  0.00    -0.354 N 
ATOM     58  N   UNL A   1      42.232  32.004  29.950  1.00  0.00    -0.248 NA
ATOM     59  C   UNL A   1      40.943  33.715  30.884  1.00  0.00     0.031 C 
ATOM     60  C   UNL A   1      46.631  32.242  29.341  1.00  0.00     0.029 A 
ATOM     61  C   UNL A   1      45.262  32.189  29.551  1.00  0.00     0.049 A 
ATOM     62  H   UNL A   1      43.920  30.606  29.175  1.00  0.00     0.167 HD
ATOM     63  C   UNL A   1      43.057  33.082  30.256  1.00  0.00     0.074 A 
ATOM     64  C   UNL A   1      42.205  34.115  30.809  1.00  0.00     0.031 C 
ATOM     65  C   UNL A   1      44.397  33.206  30.093  1.00  0.00     0.037 A 
BRANCH  52  66
ATOM     66  C   UNL A   1      47.130  28.173  27.767  1.00  0.00     0.058 A 
ATOM     67  C   UNL A   1      47.903  27.426  28.669  1.00  0.00     0.135 A 
ATOM     68  C   UNL A   1      47.575  28.269  26.440  1.00  0.00     0.135 A 
ATOM     69  F   UNL A   1      47.531  27.324  29.955  1.00  0.00    -0.206 F 
ATOM     70  C   UNL A   1      49.088  26.815  28.275  1.00  0.00     0.059 A 
ATOM     71  C   UNL A   1      48.747  27.648  26.019  1.00  0.00     0.059 A 
ATOM     72  F   UNL A   1      46.876  28.979  25.541  1.00  0.00    -0.206 F 
ATOM     73  C   UNL A   1      49.505  26.936  26.948  1.00  0.00     0.060 A 
BRANCH  73  74
ATOM     74  S   UNL A   1      51.050  26.145  26.451  1.00  0.00     0.124 S 
ATOM     75  O   UNL A   1      50.940  24.851  27.118  1.00  0.00    -0.237 OA
ATOM     76  O   UNL A   1      50.936  26.119  24.996  1.00  0.00    -0.237 OA
ATOM     77  O   UNL A   1      52.073  27.040  26.980  1.00  0.00    -0.744 OA
ENDBRANCH  73  74
ENDBRANCH  52  66
BRANCH  53  78
ATOM     78  C   UNL A   1      38.446  32.203  30.626  1.00  0.00     0.058 A 
ATOM     79  C   UNL A   1      37.690  33.027  29.780  1.00  0.00     0.135 A 
ATOM     80  C   UNL A   1      37.957  31.967  31.920  1.00  0.00     0.135 A 
ATOM     81  F   UNL A   1      38.126  33.292  28.539  1.00  0.00    -0.206 F 
ATOM     82  C   UNL A   1      36.499  33.606  30.202  1.00  0.00     0.059 A 
ATOM     83  C   UNL A   1      36.758  32.519  32.358  1.00  0.00     0.059 A 
ATOM     84  F   UNL A   1      38.641  31.179  32.764  1.00  0.00    -0.206 F 
ATOM     85  C   UNL A   1      36.040  33.345  31.495  1.00  0.00     0.060 A 
BRANCH  85  86
ATOM     86  S   UNL A   1      34.467  34.060  32.020  1.00  0.00     0.124 S 
ATOM     87  O   UNL A   1      33.975  33.042  32.940  1.00  0.00    -0.237 OA
ATOM     88  O   UNL A   1      34.886  35.320  32.626  1.00  0.00    -0.237 OA
ATOM     89  O   UNL A   1      33.726  34.193  30.768  1.00  0.00    -0.744 OA
ENDBRANCH  85  86
ENDBRANCH  53  78
BRANCH  65  90
ATOM     90  C   UNL A   1      45.026  34.513  30.487  1.00  0.00     0.058 A 
ATOM     91  C   UNL A   1      45.536  34.723  31.777  1.00  0.00     0.135 A 
ATOM     92  C   UNL A   1      45.173  35.543  29.545  1.00  0.00     0.135 A 
ATOM     93  F   UNL A   1      45.416  33.769  32.714  1.00  0.00    -0.206 F 
ATOM     94  C   UNL A   1      46.160  35.917  32.124  1.00  0.00     0.059 A 
ATOM     95  C   UNL A   1      45.810  36.737  29.864  1.00  0.00     0.059 A 
ATOM     96  F   UNL A   1      44.709  35.387  28.294  1.00  0.00    -0.206 F 
ATOM     97  C   UNL A   1      46.292  36.918  31.161  1.00  0.00     0.060 A 
BRANCH  97  98
ATOM     98  S   UNL A   1      47.140  38.449  31.608  1.00  0.00     0.124 S 
ATOM     99  O   UNL A   1      47.073  38.406  33.065  1.00  0.00    -0.237 OA
ATOM    100  O   UNL A   1      48.466  38.257  31.028  1.00  0.00    -0.237 OA
ATOM    101  O   UNL A   1      46.328  39.483  30.971  1.00  0.00    -0.744 OA
ENDBRANCH  97  98
ENDBRANCH  65  90
ENDBRANCH  39  40
ENDBRANCH  32  34
ENDBRANCH  31  32
ENDBRANCH  30  31
ENDBRANCH  29  30
ENDBRANCH  28  29
ENDBRANCH  27  28
ENDBRANCH  26  27
ENDBRANCH   1  26
TORSDOF 26
ENDMDL
MODEL 3
REMARK VINA RESULT:      -8.9      4.113     10.430
REMARK SMILES CC(C)N1C(=O)C[C@@H](Sc2csc(C(=O)OCCOCCOCCOCCOC(=O)c3ccc(-c4c5nc(c(-c6c(F)cc(S(=O)(=O)[O-])cc6F)c6ccc([nH]6)c(-c6c(F)cc(S(=O)(=O)[O-])cc6F)c6nc(c(-c7c(F)cc(S(=O)(=O)[O-])cc7F)c7ccc4[nH]7)C=C6)C=C5)cc3)c2)C1=O
REMARK SMILES IDX 22 1 21 2 20 3 19 4 18 5 17 6 16 7 14 8 15 9 13 10 10 11
REMARK SMILES IDX 11 12 97 13 12 14 9 15 8 16 4 17 5 18 98 19 6 20 7 21 99 22
REMARK SMILES IDX 2 23 1 24 3 25 23 26 24 27 25 28 26 29 27 30 28 31 29 32
REMARK SMILES IDX 30 33 31 34 32 35 96 36 33 37 95 38 34 39 35 40 36 41 89 42
REMARK SMILES IDX 37 43 94 44 88 45 90 46 38 47 93 48 87 49 86 50 39 52 73 53
REMARK SMILES IDX 52 54 72 55 53 56 56 57 71 58 91 59 54 60 55 61 70 63 92 64
REMARK SMILES IDX 57 65 40 66 41 67 50 68 42 69 43 70 49 71 51 72 44 73 45 74
REMARK SMILES IDX 46 75 47 76 48 77 74 78 75 79 84 80 76 81 77 82 83 83 85 84
REMARK SMILES IDX 78 85 79 86 80 87 81 88 82 89 58 90 59 91 68 92 60 93 61 94
REMARK SMILES IDX 67 95 69 96 62 97 63 98 64 99 65 100 66 101
REMARK H PARENT 90 51 56 62
REMARK Flexibility Score: inf
ROOT
ATOM      1  O   UNL A   1      34.520  25.215  24.316  1.00  0.00    -0.377 OA
ENDROOT
BRANCH   1   2
ATOM      2  C   UNL A   1      33.781  26.274  23.737  1.00  0.00     0.188 C 
BRANCH   2   3
ATOM      3  C   UNL A   1      33.610  27.473  24.682  1.00  0.00     0.188 C 
BRANCH   3   4
ATOM      4  O   UNL A   1      32.378  28.172  24.500  1.00  0.00    -0.376 OA
BRANCH   4   5
ATOM      5  C   UNL A   1      32.024  28.482  23.154  1.00  0.00     0.202 C 
BRANCH   5   6
ATOM      6  C   UNL A   1      30.625  28.022  22.716  1.00  0.00     0.261 C 
BRANCH   6   7
ATOM      7  O   UNL A   1      30.430  26.599  22.729  1.00  0.00    -0.459 OA
BRANCH   7   8
ATOM      8  C   UNL A   1      29.754  26.062  23.777  1.00  0.00     0.348 C 
ATOM      9  O   UNL A   1      28.647  26.424  24.156  1.00  0.00    -0.245 OA
BRANCH   8  10
ATOM     10  C   UNL A   1      30.481  24.897  24.229  1.00  0.00     0.113 A 
ATOM     11  C   UNL A   1      31.497  22.792  24.313  1.00  0.00     0.020 A 
ATOM     12  C   UNL A   1      31.234  23.034  25.640  1.00  0.00     0.080 A 
ATOM     13  C   UNL A   1      31.017  23.856  23.493  1.00  0.00     0.042 A 
ATOM     14  S   UNL A   1      30.631  24.614  25.909  1.00  0.00    -0.136 S 
BRANCH  11  15
ATOM     15  S   UNL A   1      32.183  21.352  23.579  1.00  0.00    -0.111 SA
BRANCH  15  16
ATOM     16  C   UNL A   1      32.931  20.355  24.890  1.00  0.00     0.150 C 
ATOM     17  N   UNL A   1      34.156  18.399  24.530  1.00  0.00    -0.279 N 
ATOM     18  C   UNL A   1      35.083  19.356  24.841  1.00  0.00     0.231 C 
ATOM     19  C   UNL A   1      32.874  18.868  24.658  1.00  0.00     0.243 C 
ATOM     20  O   UNL A   1      36.295  19.201  24.901  1.00  0.00    -0.274 OA
ATOM     21  C   UNL A   1      34.401  20.657  25.121  1.00  0.00     0.125 C 
ATOM     22  O   UNL A   1      31.847  18.207  24.625  1.00  0.00    -0.273 OA
BRANCH  17  23
ATOM     23  C   UNL A   1      34.544  17.018  24.234  1.00  0.00     0.087 C 
ATOM     24  C   UNL A   1      33.996  16.059  25.289  1.00  0.00     0.031 C 
ATOM     25  C   UNL A   1      34.167  16.551  22.828  1.00  0.00     0.031 C 
ENDBRANCH  17  23
ENDBRANCH  15  16
ENDBRANCH  11  15
ENDBRANCH   8  10
ENDBRANCH   7   8
ENDBRANCH   6   7
ENDBRANCH   5   6
ENDBRANCH   4   5
ENDBRANCH   3   4
ENDBRANCH   2   3
ENDBRANCH   1   2
BRANCH   1  26
ATOM     26  C   UNL A   1      34.355  24.968  25.711  1.00  0.00     0.188 C 
BRANCH  26  27
ATOM     27  C   UNL A   1      35.210  23.912  26.440  1.00  0.00     0.188 C 
BRANCH  27  28
ATOM     28  O   UNL A   1      36.517  23.747  25.884  1.00  0.00    -0.376 OA
BRANCH  28  29
ATOM     29  C   UNL A   1      36.956  22.402  25.719  1.00  0.00     0.202 C 
BRANCH  29  30
ATOM     30  C   UNL A   1      38.463  22.294  25.454  1.00  0.00     0.261 C 
BRANCH  30  31
ATOM     31  O   UNL A   1      39.276  22.342  26.636  1.00  0.00    -0.460 OA
BRANCH  31  32
ATOM     32  C   UNL A   1      40.566  22.707  26.468  1.00  0.00     0.338 C 
ATOM     33  O   UNL A   1      41.422  22.112  25.839  1.00  0.00    -0.246 OA
BRANCH  32  34
ATOM     34  C   UNL A   1      40.735  24.058  27.035  1.00  0.00     0.060 A 
ATOM     35  C   UNL A   1      40.427  25.164  26.235  1.00  0.00     0.016 A 
ATOM     36  C   UNL A   1      41.210  24.228  28.338  1.00  0.00     0.016 A 
ATOM     37  C   UNL A   1      40.638  26.452  26.726  1.00  0.00     0.010 A 
ATOM     38  C   UNL A   1      41.434  25.517  28.822  1.00  0.00     0.010 A 
ATOM     39  C   UNL A   1      41.181  26.631  28.005  1.00  0.00    -0.014 A 
BRANCH  39  40
ATOM     40  C   UNL A   1      41.667  27.966  28.425  1.00  0.00     0.031 A 
ATOM     41  C   UNL A   1      43.146  28.233  28.374  1.00  0.00     0.074 A 
ATOM     42  C   UNL A   1      40.817  28.912  28.856  1.00  0.00     0.049 A 
ATOM     43  N   UNL A   1      43.809  29.300  28.734  1.00  0.00    -0.248 NA
ATOM     44  C   UNL A   1      43.990  27.144  27.852  1.00  0.00     0.031 C 
ATOM     45  C   UNL A   1      39.364  28.775  28.934  1.00  0.00     0.029 A 
ATOM     46  N   UNL A   1      41.062  30.178  29.325  1.00  0.00    -0.354 N 
ATOM     47  C   UNL A   1      45.145  29.016  28.479  1.00  0.00     0.074 A 
ATOM     48  C   UNL A   1      45.203  27.666  27.961  1.00  0.00     0.031 C 
ATOM     49  C   UNL A   1      38.846  29.909  29.440  1.00  0.00     0.029 A 
ATOM     50  C   UNL A   1      39.932  30.841  29.740  1.00  0.00     0.049 A 
ATOM     51  H   UNL A   1      41.963  30.574  29.362  1.00  0.00     0.167 HD
ATOM     52  C   UNL A   1      46.226  29.810  28.654  1.00  0.00     0.037 A 
ATOM     53  C   UNL A   1      39.798  32.054  30.312  1.00  0.00     0.037 A 
ATOM     54  C   UNL A   1      46.169  31.145  29.184  1.00  0.00     0.049 A 
ATOM     55  C   UNL A   1      41.022  32.898  30.551  1.00  0.00     0.074 A 
ATOM     56  C   UNL A   1      47.207  32.035  29.390  1.00  0.00     0.029 A 
ATOM     57  N   UNL A   1      45.008  31.777  29.602  1.00  0.00    -0.354 N 
ATOM     58  N   UNL A   1      42.277  32.631  30.275  1.00  0.00    -0.248 NA
ATOM     59  C   UNL A   1      40.812  34.211  31.182  1.00  0.00     0.031 C 
ATOM     60  C   UNL A   1      46.677  33.196  29.967  1.00  0.00     0.029 A 
ATOM     61  C   UNL A   1      45.305  33.041  30.084  1.00  0.00     0.049 A 
ATOM     62  H   UNL A   1      44.106  31.386  29.563  1.00  0.00     0.167 HD
ATOM     63  C   UNL A   1      43.002  33.750  30.673  1.00  0.00     0.074 A 
ATOM     64  C   UNL A   1      42.045  34.699  31.206  1.00  0.00     0.031 C 
ATOM     65  C   UNL A   1      44.337  33.973  30.603  1.00  0.00     0.037 A 
BRANCH  52  66
ATOM     66  C   UNL A   1      47.564  29.238  28.284  1.00  0.00     0.058 A 
ATOM     67  C   UNL A   1      48.032  29.269  26.961  1.00  0.00     0.135 A 
ATOM     68  C   UNL A   1      48.386  28.657  29.261  1.00  0.00     0.135 A 
ATOM     69  F   UNL A   1      47.272  29.794  25.987  1.00  0.00    -0.206 F 
ATOM     70  C   UNL A   1      49.262  28.721  26.615  1.00  0.00     0.059 A 
ATOM     71  C   UNL A   1      49.630  28.121  28.940  1.00  0.00     0.059 A 
ATOM     72  F   UNL A   1      47.980  28.596  30.538  1.00  0.00    -0.206 F 
ATOM     73  C   UNL A   1      50.052  28.144  27.611  1.00  0.00     0.060 A 
BRANCH  73  74
ATOM     74  S   UNL A   1      51.643  27.428  27.148  1.00  0.00     0.124 S 
ATOM     75  O   UNL A   1      51.483  27.277  25.704  1.00  0.00    -0.237 OA
ATOM     76  O   UNL A   1      52.588  28.455  27.576  1.00  0.00    -0.237 OA
ATOM     77  O   UNL A   1      51.688  26.183  27.908  1.00  0.00    -0.744 OA
ENDBRANCH  73  74
ENDBRANCH  52  66
BRANCH  53  78
ATOM     78  C   UNL A   1      38.451  32.543  30.705  1.00  0.00     0.058 A 
ATOM     79  C   UNL A   1      37.905  32.228  31.958  1.00  0.00     0.135 A 
ATOM     80  C   UNL A   1      37.683  33.330  29.834  1.00  0.00     0.135 A 
ATOM     81  F   UNL A   1      38.598  31.467  32.819  1.00  0.00    -0.206 F 
ATOM     82  C   UNL A   1      36.639  32.666  32.331  1.00  0.00     0.059 A 
ATOM     83  C   UNL A   1      36.422  33.796  30.192  1.00  0.00     0.059 A 
ATOM     84  F   UNL A   1      38.165  33.664  28.627  1.00  0.00    -0.206 F 
ATOM     85  C   UNL A   1      35.905  33.450  31.440  1.00  0.00     0.060 A 
BRANCH  85  86
ATOM     86  S   UNL A   1      34.281  34.057  31.950  1.00  0.00     0.124 S 
ATOM     87  O   UNL A   1      33.659  34.345  30.664  1.00  0.00    -0.237 OA
ATOM     88  O   UNL A   1      33.740  32.915  32.680  1.00  0.00    -0.237 OA
ATOM     89  O   UNL A   1      34.603  35.220  32.771  1.00  0.00    -0.744 OA
ENDBRANCH  85  86
ENDBRANCH  53  78
BRANCH  65  90
ATOM     90  C   UNL A   1      44.845  35.303  31.085  1.00  0.00     0.058 A 
ATOM     91  C   UNL A   1      44.897  36.420  30.240  1.00  0.00     0.135 A 
ATOM     92  C   UNL A   1      45.226  35.473  32.427  1.00  0.00     0.135 A 
ATOM     93  F   UNL A   1      44.547  36.307  28.949  1.00  0.00    -0.206 F 
ATOM     94  C   UNL A   1      45.323  37.661  30.703  1.00  0.00     0.059 A 
ATOM     95  C   UNL A   1      45.636  36.708  32.915  1.00  0.00     0.059 A 
ATOM     96  F   UNL A   1      45.185  34.435  33.278  1.00  0.00    -0.206 F 
ATOM     97  C   UNL A   1      45.691  37.795  32.043  1.00  0.00     0.060 A 
BRANCH  97  98
ATOM     98  S   UNL A   1      46.204  39.418  32.646  1.00  0.00     0.124 S 
ATOM     99  O   UNL A   1      47.561  39.512  32.118  1.00  0.00    -0.237 OA
ATOM    100  O   UNL A   1      45.222  40.308  32.033  1.00  0.00    -0.237 OA
ATOM    101  O   UNL A   1      46.101  39.287  34.097  1.00  0.00    -0.744 OA
ENDBRANCH  97  98
ENDBRANCH  65  90
ENDBRANCH  39  40
ENDBRANCH  32  34
ENDBRANCH  31  32
ENDBRANCH  30  31
ENDBRANCH  29  30
ENDBRANCH  28  29
ENDBRANCH  27  28
ENDBRANCH  26  27
ENDBRANCH   1  26
TORSDOF 26
ENDMDL
