MODEL 1
REMARK VINA RESULT:     -10.3      0.000      0.000
REMARK SMILES O=C(OCCOCCOCCOCCOC(=O)C1(C/C=C/c2ccccc2)Cc2ccccc2C1)c1ccc(-c2c3nc(c(-c4c(F)cc(S(=O)(=O)[O-])cc4F)c4ccc([nH]4)c(-c4c(F)cc(S(=O)(=O)[O-])cc4F)c4nc(c(-c5c(F)cc(S(=O)(=O)[O-])cc5F)c5ccc2[nH]5)C=C4)C=C3)cc1
REMARK SMILES IDX 9 1 8 2 7 3 6 4 5 5 4 6 3 7 2 8 1 9 36 10 37 11 101 12 38 13
REMARK SMILES IDX 100 14 39 15 40 16 41 17 94 18 42 19 99 20 93 21 95 22 43 23
REMARK SMILES IDX 98 24 92 25 91 26 44 28 78 29 57 30 77 31 58 32 61 33 76 34
REMARK SMILES IDX 96 35 59 36 60 37 75 39 97 40 62 41 45 42 46 43 55 44 47 45
REMARK SMILES IDX 48 46 54 47 56 48 49 49 50 50 51 51 52 52 53 53 79 54 80 55
REMARK SMILES IDX 89 56 81 57 82 58 88 59 90 60 83 61 84 62 85 63 86 64 87 65
REMARK SMILES IDX 63 66 64 67 73 68 65 69 66 70 72 71 74 72 67 73 68 74 69 75
REMARK SMILES IDX 70 76 71 77 10 78 11 79 12 80 13 81 14 82 15 83 16 84 17 85
REMARK SMILES IDX 18 86 28 87 35 88 29 89 34 90 30 91 33 92 31 93 32 94 19 95
REMARK SMILES IDX 20 96 21 97 22 98 23 99 27 100 24 101 26 102 25 103
REMARK H PARENT 95 27 61 38
REMARK Flexibility Score: inf
ROOT
ATOM      1  O   UNL A   1      38.742  22.976  26.106  1.00  0.00    -0.377 OA
ENDROOT
BRANCH   1   2
ATOM      2  C   UNL A   1      39.404  21.739  26.298  1.00  0.00     0.188 C 
BRANCH   2   3
ATOM      3  C   UNL A   1      40.807  21.874  26.843  1.00  0.00     0.188 C 
BRANCH   3   4
ATOM      4  O   UNL A   1      41.293  20.578  27.108  1.00  0.00    -0.376 OA
BRANCH   4   5
ATOM      5  C   UNL A   1      41.260  19.575  26.124  1.00  0.00     0.202 C 
BRANCH   5   6
ATOM      6  C   UNL A   1      42.394  18.568  26.124  1.00  0.00     0.261 C 
BRANCH   6   7
ATOM      7  O   UNL A   1      43.667  18.967  25.560  1.00  0.00    -0.460 OA
BRANCH   7   8
ATOM      8  C   UNL A   1      44.088  19.979  24.769  1.00  0.00     0.338 C 
ATOM      9  O   UNL A   1      44.345  19.751  23.589  1.00  0.00    -0.246 OA
BRANCH   8  10
ATOM     10  C   UNL A   1      44.213  21.371  25.244  1.00  0.00     0.060 A 
ATOM     11  C   UNL A   1      43.832  22.472  24.492  1.00  0.00     0.016 A 
ATOM     12  C   UNL A   1      44.579  21.586  26.573  1.00  0.00     0.016 A 
ATOM     13  C   UNL A   1      44.122  23.757  24.895  1.00  0.00     0.010 A 
ATOM     14  C   UNL A   1      44.703  22.890  27.062  1.00  0.00     0.010 A 
ATOM     15  C   UNL A   1      44.566  23.979  26.189  1.00  0.00    -0.014 A 
BRANCH  15  16
ATOM     16  C   UNL A   1      45.043  25.331  26.534  1.00  0.00     0.031 A 
ATOM     17  C   UNL A   1      44.079  26.238  27.241  1.00  0.00     0.074 A 
ATOM     18  C   UNL A   1      46.337  25.666  26.360  1.00  0.00     0.049 A 
ATOM     19  N   UNL A   1      44.190  27.503  27.531  1.00  0.00    -0.248 NA
ATOM     20  C   UNL A   1      42.803  25.635  27.675  1.00  0.00     0.031 C 
ATOM     21  C   UNL A   1      47.382  24.780  25.832  1.00  0.00     0.029 A 
ATOM     22  N   UNL A   1      47.008  26.821  26.655  1.00  0.00    -0.354 N 
ATOM     23  C   UNL A   1      42.975  27.862  28.102  1.00  0.00     0.074 A 
ATOM     24  C   UNL A   1      42.140  26.686  28.125  1.00  0.00     0.031 C 
ATOM     25  C   UNL A   1      48.567  25.404  25.897  1.00  0.00     0.029 A 
ATOM     26  C   UNL A   1      48.350  26.768  26.357  1.00  0.00     0.049 A 
ATOM     27  H   UNL A   1      46.572  27.613  27.045  1.00  0.00     0.167 HD
ATOM     28  C   UNL A   1      42.598  29.079  28.552  1.00  0.00     0.037 A 
ATOM     29  C   UNL A   1      49.280  27.740  26.403  1.00  0.00     0.037 A 
ATOM     30  C   UNL A   1      43.488  30.206  28.551  1.00  0.00     0.049 A 
ATOM     31  C   UNL A   1      48.820  29.105  26.835  1.00  0.00     0.074 A 
ATOM     32  C   UNL A   1      43.237  31.512  28.923  1.00  0.00     0.029 A 
ATOM     33  N   UNL A   1      44.823  30.144  28.163  1.00  0.00    -0.354 N 
ATOM     34  N   UNL A   1      47.633  29.477  27.259  1.00  0.00    -0.248 NA
ATOM     35  C   UNL A   1      49.806  30.188  26.768  1.00  0.00     0.031 C 
ATOM     36  C   UNL A   1      44.409  32.248  28.714  1.00  0.00     0.029 A 
ATOM     37  C   UNL A   1      45.406  31.390  28.269  1.00  0.00     0.049 A 
ATOM     38  H   UNL A   1      45.283  29.329  27.857  1.00  0.00     0.167 HD
ATOM     39  C   UNL A   1      47.732  30.836  27.529  1.00  0.00     0.074 A 
ATOM     40  C   UNL A   1      49.104  31.212  27.234  1.00  0.00     0.031 C 
ATOM     41  C   UNL A   1      46.784  31.699  27.974  1.00  0.00     0.037 A 
BRANCH  28  42
ATOM     42  C   UNL A   1      41.163  29.244  28.970  1.00  0.00     0.058 A 
ATOM     43  C   UNL A   1      40.110  29.354  28.047  1.00  0.00     0.135 A 
ATOM     44  C   UNL A   1      40.847  29.365  30.334  1.00  0.00     0.135 A 
ATOM     45  F   UNL A   1      40.357  29.286  26.728  1.00  0.00    -0.206 F 
ATOM     46  C   UNL A   1      38.805  29.616  28.458  1.00  0.00     0.059 A 
ATOM     47  C   UNL A   1      39.546  29.599  30.769  1.00  0.00     0.059 A 
ATOM     48  F   UNL A   1      41.816  29.288  31.260  1.00  0.00    -0.206 F 
ATOM     49  C   UNL A   1      38.535  29.743  29.822  1.00  0.00     0.060 A 
BRANCH  49  50
ATOM     50  S   UNL A   1      36.846  30.114  30.340  1.00  0.00     0.124 S 
ATOM     51  O   UNL A   1      36.076  29.607  29.209  1.00  0.00    -0.237 OA
ATOM     52  O   UNL A   1      36.725  29.355  31.579  1.00  0.00    -0.237 OA
ATOM     53  O   UNL A   1      36.849  31.566  30.495  1.00  0.00    -0.744 OA
ENDBRANCH  49  50
ENDBRANCH  28  42
BRANCH  29  54
ATOM     54  C   UNL A   1      50.683  27.475  25.980  1.00  0.00     0.058 A 
ATOM     55  C   UNL A   1      51.639  26.985  26.882  1.00  0.00     0.135 A 
ATOM     56  C   UNL A   1      51.103  27.698  24.656  1.00  0.00     0.135 A 
ATOM     57  F   UNL A   1      51.298  26.758  28.160  1.00  0.00    -0.206 F 
ATOM     58  C   UNL A   1      52.955  26.741  26.497  1.00  0.00     0.059 A 
ATOM     59  C   UNL A   1      52.404  27.432  24.239  1.00  0.00     0.059 A 
ATOM     60  F   UNL A   1      50.234  28.159  23.742  1.00  0.00    -0.206 F 
ATOM     61  C   UNL A   1      53.327  26.967  25.170  1.00  0.00     0.060 A 
BRANCH  61  62
ATOM     62  S   UNL A   1      55.031  26.625  24.677  1.00  0.00     0.124 S 
ATOM     63  O   UNL A   1      55.774  27.543  25.515  1.00  0.00    -0.237 OA
ATOM     64  O   UNL A   1      55.164  25.204  24.999  1.00  0.00    -0.237 OA
ATOM     65  O   UNL A   1      55.031  26.930  23.242  1.00  0.00    -0.744 OA
ENDBRANCH  61  62
ENDBRANCH  29  54
BRANCH  41  66
ATOM     66  C   UNL A   1      47.226  33.111  28.215  1.00  0.00     0.058 A 
ATOM     67  C   UNL A   1      47.768  33.516  29.443  1.00  0.00     0.135 A 
ATOM     68  C   UNL A   1      47.151  34.053  27.178  1.00  0.00     0.135 A 
ATOM     69  F   UNL A   1      47.851  32.649  30.465  1.00  0.00    -0.206 F 
ATOM     70  C   UNL A   1      48.197  34.820  29.644  1.00  0.00     0.059 A 
ATOM     71  C   UNL A   1      47.605  35.354  27.347  1.00  0.00     0.059 A 
ATOM     72  F   UNL A   1      46.652  33.705  25.981  1.00  0.00    -0.206 F 
ATOM     73  C   UNL A   1      48.114  35.732  28.589  1.00  0.00     0.060 A 
BRANCH  73  74
ATOM     74  S   UNL A   1      48.706  37.414  28.851  1.00  0.00     0.124 S 
ATOM     75  O   UNL A   1      47.458  38.128  29.097  1.00  0.00    -0.237 OA
ATOM     76  O   UNL A   1      49.586  37.259  30.005  1.00  0.00    -0.237 OA
ATOM     77  O   UNL A   1      49.379  37.736  27.597  1.00  0.00    -0.744 OA
ENDBRANCH  73  74
ENDBRANCH  41  66
ENDBRANCH  15  16
ENDBRANCH   8  10
ENDBRANCH   7   8
ENDBRANCH   6   7
ENDBRANCH   5   6
ENDBRANCH   4   5
ENDBRANCH   3   4
ENDBRANCH   2   3
ENDBRANCH   1   2
BRANCH   1  78
ATOM     78  C   UNL A   1      37.346  23.033  25.784  1.00  0.00     0.188 C 
BRANCH  78  79
ATOM     79  C   UNL A   1      36.575  21.727  25.571  1.00  0.00     0.188 C 
BRANCH  79  80
ATOM     80  O   UNL A   1      35.294  21.920  25.021  1.00  0.00    -0.376 OA
BRANCH  80  81
ATOM     81  C   UNL A   1      34.200  21.279  25.666  1.00  0.00     0.202 C 
BRANCH  81  82
ATOM     82  C   UNL A   1      33.106  22.056  26.439  1.00  0.00     0.261 C 
BRANCH  82  83
ATOM     83  O   UNL A   1      32.141  22.826  25.680  1.00  0.00    -0.463 OA
BRANCH  83  84
ATOM     84  C   UNL A   1      31.628  23.920  26.308  1.00  0.00     0.313 C 
ATOM     85  O   UNL A   1      30.859  23.809  27.265  1.00  0.00    -0.252 OA
BRANCH  84  86
ATOM     86  C   UNL A   1      31.933  25.325  25.705  1.00  0.00     0.079 C 
ATOM     87  C   UNL A   1      31.246  26.291  26.746  1.00  0.00     0.055 C 
ATOM     88  C   UNL A   1      33.359  25.951  25.547  1.00  0.00     0.055 C 
ATOM     89  C   UNL A   1      32.030  27.558  26.692  1.00  0.00    -0.044 A 
ATOM     90  C   UNL A   1      33.207  27.383  25.980  1.00  0.00    -0.044 A 
ATOM     91  C   UNL A   1      31.764  28.743  27.358  1.00  0.00     0.004 A 
ATOM     92  C   UNL A   1      34.143  28.404  25.886  1.00  0.00     0.004 A 
ATOM     93  C   UNL A   1      32.693  29.780  27.267  1.00  0.00     0.000 A 
ATOM     94  C   UNL A   1      33.873  29.615  26.527  1.00  0.00     0.000 A 
BRANCH  86  95
ATOM     95  C   UNL A   1      31.219  25.345  24.324  1.00  0.00     0.047 C 
BRANCH  95  96
ATOM     96  C   UNL A   1      30.217  26.478  24.217  1.00  0.00    -0.025 C 
ATOM     97  C   UNL A   1      30.241  27.424  23.265  1.00  0.00     0.004 C 
BRANCH  97  98
ATOM     98  C   UNL A   1      29.399  28.626  23.328  1.00  0.00    -0.026 A 
ATOM     99  C   UNL A   1      28.069  28.571  22.909  1.00  0.00     0.008 A 
ATOM    100  C   UNL A   1      29.936  29.861  23.720  1.00  0.00     0.008 A 
ATOM    101  C   UNL A   1      27.283  29.727  22.900  1.00  0.00     0.001 A 
ATOM    102  C   UNL A   1      29.155  31.019  23.704  1.00  0.00     0.001 A 
ATOM    103  C   UNL A   1      27.827  30.950  23.295  1.00  0.00     0.000 A 
ENDBRANCH  97  98
ENDBRANCH  95  96
ENDBRANCH  86  95
ENDBRANCH  84  86
ENDBRANCH  83  84
ENDBRANCH  82  83
ENDBRANCH  81  82
ENDBRANCH  80  81
ENDBRANCH  79  80
ENDBRANCH  78  79
ENDBRANCH   1  78
TORSDOF 26
ENDMDL
MODEL 2
REMARK VINA RESULT:      -9.9      5.910      9.152
REMARK SMILES O=C(OCCOCCOCCOCCOC(=O)C1(C/C=C/c2ccccc2)Cc2ccccc2C1)c1ccc(-c2c3nc(c(-c4c(F)cc(S(=O)(=O)[O-])cc4F)c4ccc([nH]4)c(-c4c(F)cc(S(=O)(=O)[O-])cc4F)c4nc(c(-c5c(F)cc(S(=O)(=O)[O-])cc5F)c5ccc2[nH]5)C=C4)C=C3)cc1
REMARK SMILES IDX 9 1 8 2 7 3 6 4 5 5 4 6 3 7 2 8 1 9 36 10 37 11 101 12 38 13
REMARK SMILES IDX 100 14 39 15 40 16 41 17 94 18 42 19 99 20 93 21 95 22 43 23
REMARK SMILES IDX 98 24 92 25 91 26 44 28 78 29 57 30 77 31 58 32 61 33 76 34
REMARK SMILES IDX 96 35 59 36 60 37 75 39 97 40 62 41 45 42 46 43 55 44 47 45
REMARK SMILES IDX 48 46 54 47 56 48 49 49 50 50 51 51 52 52 53 53 79 54 80 55
REMARK SMILES IDX 89 56 81 57 82 58 88 59 90 60 83 61 84 62 85 63 86 64 87 65
REMARK SMILES IDX 63 66 64 67 73 68 65 69 66 70 72 71 74 72 67 73 68 74 69 75
REMARK SMILES IDX 70 76 71 77 10 78 11 79 12 80 13 81 14 82 15 83 16 84 17 85
REMARK SMILES IDX 18 86 28 87 35 88 29 89 34 90 30 91 33 92 31 93 32 94 19 95
REMARK SMILES IDX 20 96 21 97 22 98 23 99 27 100 24 101 26 102 25 103
REMARK H PARENT 95 27 61 38
REMARK Flexibility Score: inf
ROOT
ATOM      1  O   UNL A   1      43.153  19.713  25.044  1.00  0.00    -0.377 OA
ENDROOT
BRANCH   1   2
ATOM      2  C   UNL A   1      44.542  19.579  25.288  1.00  0.00     0.188 C 
BRANCH   2   3
ATOM      3  C   UNL A   1      45.382  20.660  24.649  1.00  0.00     0.188 C 
BRANCH   3   4
ATOM      4  O   UNL A   1      45.914  21.459  25.681  1.00  0.00    -0.376 OA
BRANCH   4   5
ATOM      5  C   UNL A   1      45.228  22.595  26.147  1.00  0.00     0.202 C 
BRANCH   5   6
ATOM      6  C   UNL A   1      45.591  23.927  25.520  1.00  0.00     0.261 C 
BRANCH   6   7
ATOM      7  O   UNL A   1      44.652  25.023  25.647  1.00  0.00    -0.460 OA
BRANCH   7   8
ATOM      8  C   UNL A   1      43.339  25.128  25.954  1.00  0.00     0.338 C 
ATOM      9  O   UNL A   1      42.525  24.425  25.360  1.00  0.00    -0.246 OA
BRANCH   8  10
ATOM     10  C   UNL A   1      42.832  26.024  27.012  1.00  0.00     0.060 A 
ATOM     11  C   UNL A   1      43.120  27.379  27.069  1.00  0.00     0.016 A 
ATOM     12  C   UNL A   1      41.889  25.521  27.909  1.00  0.00     0.016 A 
ATOM     13  C   UNL A   1      42.775  28.146  28.161  1.00  0.00     0.010 A 
ATOM     14  C   UNL A   1      41.381  26.339  28.922  1.00  0.00     0.010 A 
ATOM     15  C   UNL A   1      41.902  27.629  29.104  1.00  0.00    -0.014 A 
BRANCH  15  16
ATOM     16  C   UNL A   1      41.696  28.393  30.348  1.00  0.00     0.031 A 
ATOM     17  C   UNL A   1      40.489  29.281  30.417  1.00  0.00     0.074 A 
ATOM     18  C   UNL A   1      42.477  28.172  31.424  1.00  0.00     0.049 A 
ATOM     19  N   UNL A   1      40.150  30.154  31.321  1.00  0.00    -0.248 NA
ATOM     20  C   UNL A   1      39.529  29.176  29.299  1.00  0.00     0.031 C 
ATOM     21  C   UNL A   1      43.574  27.199  31.495  1.00  0.00     0.029 A 
ATOM     22  N   UNL A   1      42.439  28.711  32.681  1.00  0.00    -0.354 N 
ATOM     23  C   UNL A   1      38.991  30.756  30.844  1.00  0.00     0.074 A 
ATOM     24  C   UNL A   1      38.678  30.149  29.573  1.00  0.00     0.031 C 
ATOM     25  C   UNL A   1      44.061  27.170  32.744  1.00  0.00     0.029 A 
ATOM     26  C   UNL A   1      43.396  28.201  33.527  1.00  0.00     0.049 A 
ATOM     27  H   UNL A   1      41.788  29.398  32.954  1.00  0.00     0.167 HD
ATOM     28  C   UNL A   1      38.268  31.739  31.423  1.00  0.00     0.037 A 
ATOM     29  C   UNL A   1      43.725  28.573  34.779  1.00  0.00     0.037 A 
ATOM     30  C   UNL A   1      38.598  32.274  32.715  1.00  0.00     0.049 A 
ATOM     31  C   UNL A   1      42.957  29.721  35.374  1.00  0.00     0.074 A 
ATOM     32  C   UNL A   1      37.997  33.306  33.407  1.00  0.00     0.029 A 
ATOM     33  N   UNL A   1      39.629  31.793  33.516  1.00  0.00    -0.354 N 
ATOM     34  N   UNL A   1      41.936  30.377  34.869  1.00  0.00    -0.248 NA
ATOM     35  C   UNL A   1      43.398  30.203  36.686  1.00  0.00     0.031 C 
ATOM     36  C   UNL A   1      38.696  33.479  34.608  1.00  0.00     0.029 A 
ATOM     37  C   UNL A   1      39.694  32.516  34.690  1.00  0.00     0.049 A 
ATOM     38  H   UNL A   1      40.224  31.045  33.280  1.00  0.00     0.167 HD
ATOM     39  C   UNL A   1      41.597  31.339  35.811  1.00  0.00     0.074 A 
ATOM     40  C   UNL A   1      42.516  31.164  36.922  1.00  0.00     0.031 C 
ATOM     41  C   UNL A   1      40.624  32.284  35.768  1.00  0.00     0.037 A 
BRANCH  28  42
ATOM     42  C   UNL A   1      37.148  32.336  30.618  1.00  0.00     0.058 A 
ATOM     43  C   UNL A   1      37.342  33.390  29.709  1.00  0.00     0.135 A 
ATOM     44  C   UNL A   1      35.833  31.883  30.815  1.00  0.00     0.135 A 
ATOM     45  F   UNL A   1      38.572  33.892  29.508  1.00  0.00    -0.206 F 
ATOM     46  C   UNL A   1      36.271  33.997  29.058  1.00  0.00     0.059 A 
ATOM     47  C   UNL A   1      34.751  32.456  30.153  1.00  0.00     0.059 A 
ATOM     48  F   UNL A   1      35.585  30.891  31.685  1.00  0.00    -0.206 F 
ATOM     49  C   UNL A   1      34.978  33.526  29.292  1.00  0.00     0.060 A 
BRANCH  49  50
ATOM     50  S   UNL A   1      33.595  34.341  28.466  1.00  0.00     0.124 S 
ATOM     51  O   UNL A   1      32.760  34.721  29.601  1.00  0.00    -0.237 OA
ATOM     52  O   UNL A   1      34.252  35.441  27.768  1.00  0.00    -0.237 OA
ATOM     53  O   UNL A   1      33.048  33.295  27.607  1.00  0.00    -0.744 OA
ENDBRANCH  49  50
ENDBRANCH  28  42
BRANCH  29  54
ATOM     54  C   UNL A   1      44.846  27.910  35.503  1.00  0.00     0.058 A 
ATOM     55  C   UNL A   1      46.151  28.420  35.450  1.00  0.00     0.135 A 
ATOM     56  C   UNL A   1      44.637  26.752  36.273  1.00  0.00     0.135 A 
ATOM     57  F   UNL A   1      46.413  29.519  34.727  1.00  0.00    -0.206 F 
ATOM     58  C   UNL A   1      47.207  27.803  36.118  1.00  0.00     0.059 A 
ATOM     59  C   UNL A   1      45.668  26.135  36.974  1.00  0.00     0.059 A 
ATOM     60  F   UNL A   1      43.408  26.220  36.370  1.00  0.00    -0.206 F 
ATOM     61  C   UNL A   1      46.954  26.660  36.880  1.00  0.00     0.060 A 
BRANCH  61  62
ATOM     62  S   UNL A   1      48.326  25.882  37.760  1.00  0.00     0.124 S 
ATOM     63  O   UNL A   1      47.667  25.359  38.938  1.00  0.00    -0.237 OA
ATOM     64  O   UNL A   1      48.791  24.892  36.787  1.00  0.00    -0.237 OA
ATOM     65  O   UNL A   1      49.251  26.996  37.988  1.00  0.00    -0.744 OA
ENDBRANCH  61  62
ENDBRANCH  29  54
BRANCH  41  66
ATOM     66  C   UNL A   1      40.481  33.152  36.981  1.00  0.00     0.058 A 
ATOM     67  C   UNL A   1      41.277  34.291  37.173  1.00  0.00     0.135 A 
ATOM     68  C   UNL A   1      39.494  32.864  37.935  1.00  0.00     0.135 A 
ATOM     69  F   UNL A   1      42.240  34.600  36.288  1.00  0.00    -0.206 F 
ATOM     70  C   UNL A   1      41.117  35.102  38.287  1.00  0.00     0.059 A 
ATOM     71  C   UNL A   1      39.294  33.679  39.041  1.00  0.00     0.059 A 
ATOM     72  F   UNL A   1      38.700  31.791  37.785  1.00  0.00    -0.206 F 
ATOM     73  C   UNL A   1      40.120  34.789  39.215  1.00  0.00     0.060 A 
BRANCH  73  74
ATOM     74  S   UNL A   1      39.898  35.867  40.642  1.00  0.00     0.124 S 
ATOM     75  O   UNL A   1      41.275  36.048  41.089  1.00  0.00    -0.237 OA
ATOM     76  O   UNL A   1      39.263  37.041  40.050  1.00  0.00    -0.237 OA
ATOM     77  O   UNL A   1      39.047  35.083  41.530  1.00  0.00    -0.744 OA
ENDBRANCH  73  74
ENDBRANCH  41  66
ENDBRANCH  15  16
ENDBRANCH   8  10
ENDBRANCH   7   8
ENDBRANCH   6   7
ENDBRANCH   5   6
ENDBRANCH   4   5
ENDBRANCH   3   4
ENDBRANCH   2   3
ENDBRANCH   1   2
BRANCH   1  78
ATOM     78  C   UNL A   1      42.181  19.211  25.971  1.00  0.00     0.188 C 
BRANCH  78  79
ATOM     79  C   UNL A   1      42.027  19.892  27.334  1.00  0.00     0.188 C 
BRANCH  79  80
ATOM     80  O   UNL A   1      40.764  20.484  27.521  1.00  0.00    -0.376 OA
BRANCH  80  81
ATOM     81  C   UNL A   1      40.075  20.937  26.362  1.00  0.00     0.202 C 
BRANCH  81  82
ATOM     82  C   UNL A   1      39.193  22.210  26.352  1.00  0.00     0.261 C 
BRANCH  82  83
ATOM     83  O   UNL A   1      38.009  22.223  25.516  1.00  0.00    -0.463 OA
BRANCH  83  84
ATOM     84  C   UNL A   1      37.174  23.284  25.686  1.00  0.00     0.313 C 
ATOM     85  O   UNL A   1      37.498  24.252  26.377  1.00  0.00    -0.252 OA
BRANCH  84  86
ATOM     86  C   UNL A   1      35.736  23.192  25.090  1.00  0.00     0.079 C 
ATOM     87  C   UNL A   1      35.231  24.682  25.201  1.00  0.00     0.055 C 
ATOM     88  C   UNL A   1      35.392  22.823  23.608  1.00  0.00     0.055 C 
ATOM     89  C   UNL A   1      34.254  24.857  24.089  1.00  0.00    -0.044 A 
ATOM     90  C   UNL A   1      34.311  23.788  23.207  1.00  0.00    -0.044 A 
ATOM     91  C   UNL A   1      33.471  25.967  23.821  1.00  0.00     0.004 A 
ATOM     92  C   UNL A   1      33.558  23.785  22.040  1.00  0.00     0.004 A 
ATOM     93  C   UNL A   1      32.704  25.975  22.655  1.00  0.00     0.000 A 
ATOM     94  C   UNL A   1      32.740  24.885  21.773  1.00  0.00     0.000 A 
BRANCH  86  95
ATOM     95  C   UNL A   1      34.957  22.236  26.039  1.00  0.00     0.047 C 
BRANCH  95  96
ATOM     96  C   UNL A   1      34.575  20.939  25.353  1.00  0.00    -0.025 C 
ATOM     97  C   UNL A   1      33.789  19.997  25.899  1.00  0.00     0.004 C 
BRANCH  97  98
ATOM     98  C   UNL A   1      33.630  18.664  25.304  1.00  0.00    -0.026 A 
ATOM     99  C   UNL A   1      34.395  18.297  24.195  1.00  0.00     0.008 A 
ATOM    100  C   UNL A   1      32.652  17.776  25.776  1.00  0.00     0.008 A 
ATOM    101  C   UNL A   1      34.199  17.056  23.581  1.00  0.00     0.001 A 
ATOM    102  C   UNL A   1      32.449  16.540  25.159  1.00  0.00     0.001 A 
ATOM    103  C   UNL A   1      33.225  16.180  24.062  1.00  0.00     0.000 A 
ENDBRANCH  97  98
ENDBRANCH  95  96
ENDBRANCH  86  95
ENDBRANCH  84  86
ENDBRANCH  83  84
ENDBRANCH  82  83
ENDBRANCH  81  82
ENDBRANCH  80  81
ENDBRANCH  79  80
ENDBRANCH  78  79
ENDBRANCH   1  78
TORSDOF 26
ENDMDL
MODEL 3
REMARK VINA RESULT:      -9.9      5.786      8.890
REMARK SMILES O=C(OCCOCCOCCOCCOC(=O)C1(C/C=C/c2ccccc2)Cc2ccccc2C1)c1ccc(-c2c3nc(c(-c4c(F)cc(S(=O)(=O)[O-])cc4F)c4ccc([nH]4)c(-c4c(F)cc(S(=O)(=O)[O-])cc4F)c4nc(c(-c5c(F)cc(S(=O)(=O)[O-])cc5F)c5ccc2[nH]5)C=C4)C=C3)cc1
REMARK SMILES IDX 9 1 8 2 7 3 6 4 5 5 4 6 3 7 2 8 1 9 36 10 37 11 101 12 38 13
REMARK SMILES IDX 100 14 39 15 40 16 41 17 94 18 42 19 99 20 93 21 95 22 43 23
REMARK SMILES IDX 98 24 92 25 91 26 44 28 78 29 57 30 77 31 58 32 61 33 76 34
REMARK SMILES IDX 96 35 59 36 60 37 75 39 97 40 62 41 45 42 46 43 55 44 47 45
REMARK SMILES IDX 48 46 54 47 56 48 49 49 50 50 51 51 52 52 53 53 79 54 80 55
REMARK SMILES IDX 89 56 81 57 82 58 88 59 90 60 83 61 84 62 85 63 86 64 87 65
REMARK SMILES IDX 63 66 64 67 73 68 65 69 66 70 72 71 74 72 67 73 68 74 69 75
REMARK SMILES IDX 70 76 71 77 10 78 11 79 12 80 13 81 14 82 15 83 16 84 17 85
REMARK SMILES IDX 18 86 28 87 35 88 29 89 34 90 30 91 33 92 31 93 32 94 19 95
REMARK SMILES IDX 20 96 21 97 22 98 23 99 27 100 24 101 26 102 25 103
REMARK H PARENT 95 27 61 38
REMARK Flexibility Score: inf
ROOT
ATOM      1  O   UNL A   1      43.255  19.718  25.010  1.00  0.00    -0.377 OA
ENDROOT
BRANCH   1   2
ATOM      2  C   UNL A   1      44.648  19.570  25.214  1.00  0.00     0.188 C 
BRANCH   2   3
ATOM      3  C   UNL A   1      45.476  20.683  24.614  1.00  0.00     0.188 C 
BRANCH   3   4
ATOM      4  O   UNL A   1      45.942  21.491  25.670  1.00  0.00    -0.376 OA
BRANCH   4   5
ATOM      5  C   UNL A   1      45.195  22.589  26.130  1.00  0.00     0.202 C 
BRANCH   5   6
ATOM      6  C   UNL A   1      45.393  23.910  25.413  1.00  0.00     0.261 C 
BRANCH   6   7
ATOM      7  O   UNL A   1      44.399  24.948  25.600  1.00  0.00    -0.460 OA
BRANCH   7   8
ATOM      8  C   UNL A   1      43.114  24.979  26.018  1.00  0.00     0.338 C 
ATOM      9  O   UNL A   1      42.308  24.186  25.538  1.00  0.00    -0.246 OA
BRANCH   8  10
ATOM     10  C   UNL A   1      42.634  25.897  27.069  1.00  0.00     0.060 A 
ATOM     11  C   UNL A   1      42.961  27.244  27.114  1.00  0.00     0.016 A 
ATOM     12  C   UNL A   1      41.677  25.430  27.970  1.00  0.00     0.016 A 
ATOM     13  C   UNL A   1      42.639  28.030  28.199  1.00  0.00     0.010 A 
ATOM     14  C   UNL A   1      41.193  26.271  28.976  1.00  0.00     0.010 A 
ATOM     15  C   UNL A   1      41.751  27.547  29.147  1.00  0.00    -0.014 A 
BRANCH  15  16
ATOM     16  C   UNL A   1      41.569  28.328  30.385  1.00  0.00     0.031 A 
ATOM     17  C   UNL A   1      40.380  29.241  30.451  1.00  0.00     0.074 A 
ATOM     18  C   UNL A   1      42.351  28.101  31.459  1.00  0.00     0.049 A 
ATOM     19  N   UNL A   1      40.065  30.130  31.349  1.00  0.00    -0.248 NA
ATOM     20  C   UNL A   1      39.413  29.145  29.339  1.00  0.00     0.031 C 
ATOM     21  C   UNL A   1      43.428  27.105  31.533  1.00  0.00     0.029 A 
ATOM     22  N   UNL A   1      42.331  28.652  32.710  1.00  0.00    -0.354 N 
ATOM     23  C   UNL A   1      38.917  30.751  30.871  1.00  0.00     0.074 A 
ATOM     24  C   UNL A   1      38.583  30.138  29.608  1.00  0.00     0.031 C 
ATOM     25  C   UNL A   1      43.921  27.078  32.780  1.00  0.00     0.029 A 
ATOM     26  C   UNL A   1      43.282  28.130  33.556  1.00  0.00     0.049 A 
ATOM     27  H   UNL A   1      41.696  29.355  32.980  1.00  0.00     0.167 HD
ATOM     28  C   UNL A   1      38.218  31.755  31.444  1.00  0.00     0.037 A 
ATOM     29  C   UNL A   1      43.626  28.508  34.802  1.00  0.00     0.037 A 
ATOM     30  C   UNL A   1      38.566  32.295  32.729  1.00  0.00     0.049 A 
ATOM     31  C   UNL A   1      42.885  29.677  35.390  1.00  0.00     0.074 A 
ATOM     32  C   UNL A   1      37.990  33.346  33.414  1.00  0.00     0.029 A 
ATOM     33  N   UNL A   1      39.590  31.800  33.530  1.00  0.00    -0.354 N 
ATOM     34  N   UNL A   1      41.875  30.349  34.884  1.00  0.00    -0.248 NA
ATOM     35  C   UNL A   1      43.343  30.163  36.695  1.00  0.00     0.031 C 
ATOM     36  C   UNL A   1      38.699  33.516  34.609  1.00  0.00     0.029 A 
ATOM     37  C   UNL A   1      39.677  32.534  34.696  1.00  0.00     0.049 A 
ATOM     38  H   UNL A   1      40.169  31.038  33.298  1.00  0.00     0.167 HD
ATOM     39  C   UNL A   1      41.561  31.328  35.818  1.00  0.00     0.074 A 
ATOM     40  C   UNL A   1      42.482  31.145  36.927  1.00  0.00     0.031 C 
ATOM     41  C   UNL A   1      40.608  32.293  35.772  1.00  0.00     0.037 A 
BRANCH  28  42
ATOM     42  C   UNL A   1      37.106  32.367  30.639  1.00  0.00     0.058 A 
ATOM     43  C   UNL A   1      37.301  33.466  29.785  1.00  0.00     0.135 A 
ATOM     44  C   UNL A   1      35.796  31.880  30.782  1.00  0.00     0.135 A 
ATOM     45  F   UNL A   1      38.524  34.000  29.639  1.00  0.00    -0.206 F 
ATOM     46  C   UNL A   1      36.234  34.082  29.136  1.00  0.00     0.059 A 
ATOM     47  C   UNL A   1      34.719  32.462  30.120  1.00  0.00     0.059 A 
ATOM     48  F   UNL A   1      35.547  30.844  31.599  1.00  0.00    -0.206 F 
ATOM     49  C   UNL A   1      34.945  33.576  29.315  1.00  0.00     0.060 A 
BRANCH  49  50
ATOM     50  S   UNL A   1      33.567  34.402  28.492  1.00  0.00     0.124 S 
ATOM     51  O   UNL A   1      32.803  34.900  29.632  1.00  0.00    -0.237 OA
ATOM     52  O   UNL A   1      34.243  35.417  27.693  1.00  0.00    -0.237 OA
ATOM     53  O   UNL A   1      32.932  33.330  27.733  1.00  0.00    -0.744 OA
ENDBRANCH  49  50
ENDBRANCH  28  42
BRANCH  29  54
ATOM     54  C   UNL A   1      44.736  27.829  35.527  1.00  0.00     0.058 A 
ATOM     55  C   UNL A   1      46.063  28.268  35.407  1.00  0.00     0.135 A 
ATOM     56  C   UNL A   1      44.497  26.725  36.365  1.00  0.00     0.135 A 
ATOM     57  F   UNL A   1      46.353  29.313  34.617  1.00  0.00    -0.206 F 
ATOM     58  C   UNL A   1      47.109  27.635  36.074  1.00  0.00     0.059 A 
ATOM     59  C   UNL A   1      45.519  26.096  37.067  1.00  0.00     0.059 A 
ATOM     60  F   UNL A   1      43.247  26.262  36.529  1.00  0.00    -0.206 F 
ATOM     61  C   UNL A   1      46.825  26.549  36.905  1.00  0.00     0.060 A 
BRANCH  61  62
ATOM     62  S   UNL A   1      48.187  25.750  37.784  1.00  0.00     0.124 S 
ATOM     63  O   UNL A   1      49.200  25.668  36.752  1.00  0.00    -0.237 OA
ATOM     64  O   UNL A   1      48.446  26.696  38.870  1.00  0.00    -0.237 OA
ATOM     65  O   UNL A   1      47.606  24.473  38.209  1.00  0.00    -0.744 OA
ENDBRANCH  61  62
ENDBRANCH  29  54
BRANCH  41  66
ATOM     66  C   UNL A   1      40.491  33.176  36.976  1.00  0.00     0.058 A 
ATOM     67  C   UNL A   1      41.349  34.266  37.181  1.00  0.00     0.135 A 
ATOM     68  C   UNL A   1      39.466  32.952  37.909  1.00  0.00     0.135 A 
ATOM     69  F   UNL A   1      42.348  34.511  36.317  1.00  0.00    -0.206 F 
ATOM     70  C   UNL A   1      41.212  35.091  38.287  1.00  0.00     0.059 A 
ATOM     71  C   UNL A   1      39.290  33.785  39.005  1.00  0.00     0.059 A 
ATOM     72  F   UNL A   1      38.613  31.929  37.746  1.00  0.00    -0.206 F 
ATOM     73  C   UNL A   1      40.177  34.845  39.194  1.00  0.00     0.060 A 
BRANCH  73  74
ATOM     74  S   UNL A   1      39.988  35.943  40.610  1.00  0.00     0.124 S 
ATOM     75  O   UNL A   1      41.325  36.519  40.713  1.00  0.00    -0.237 OA
ATOM     76  O   UNL A   1      38.939  36.853  40.161  1.00  0.00    -0.237 OA
ATOM     77  O   UNL A   1      39.606  35.040  41.690  1.00  0.00    -0.744 OA
ENDBRANCH  73  74
ENDBRANCH  41  66
ENDBRANCH  15  16
ENDBRANCH   8  10
ENDBRANCH   7   8
ENDBRANCH   6   7
ENDBRANCH   5   6
ENDBRANCH   4   5
ENDBRANCH   3   4
ENDBRANCH   2   3
ENDBRANCH   1   2
BRANCH   1  78
ATOM     78  C   UNL A   1      42.309  19.330  26.015  1.00  0.00     0.188 C 
BRANCH  78  79
ATOM     79  C   UNL A   1      42.260  20.106  27.334  1.00  0.00     0.188 C 
BRANCH  79  80
ATOM     80  O   UNL A   1      41.040  20.775  27.543  1.00  0.00    -0.376 OA
BRANCH  80  81
ATOM     81  C   UNL A   1      40.216  21.004  26.406  1.00  0.00     0.202 C 
BRANCH  81  82
ATOM     82  C   UNL A   1      39.088  22.064  26.384  1.00  0.00     0.261 C 
BRANCH  82  83
ATOM     83  O   UNL A   1      38.112  22.013  25.313  1.00  0.00    -0.463 OA
BRANCH  83  84
ATOM     84  C   UNL A   1      36.886  22.529  25.602  1.00  0.00     0.313 C 
ATOM     85  O   UNL A   1      36.748  23.431  26.430  1.00  0.00    -0.252 OA
BRANCH  84  86
ATOM     86  C   UNL A   1      35.635  21.862  24.954  1.00  0.00     0.079 C 
ATOM     87  C   UNL A   1      36.147  20.397  24.668  1.00  0.00     0.055 C 
ATOM     88  C   UNL A   1      34.268  21.613  25.674  1.00  0.00     0.055 C 
ATOM     89  C   UNL A   1      34.935  19.531  24.732  1.00  0.00    -0.044 A 
ATOM     90  C   UNL A   1      33.858  20.225  25.263  1.00  0.00    -0.044 A 
ATOM     91  C   UNL A   1      34.852  18.175  24.463  1.00  0.00     0.004 A 
ATOM     92  C   UNL A   1      32.649  19.587  25.509  1.00  0.00     0.004 A 
ATOM     93  C   UNL A   1      33.642  17.522  24.700  1.00  0.00     0.000 A 
ATOM     94  C   UNL A   1      32.543  18.226  25.212  1.00  0.00     0.000 A 
BRANCH  86  95
ATOM     95  C   UNL A   1      35.375  22.659  23.644  1.00  0.00     0.047 C 
BRANCH  95  96
ATOM     96  C   UNL A   1      34.252  23.664  23.801  1.00  0.00    -0.025 C 
ATOM     97  C   UNL A   1      34.433  24.972  24.046  1.00  0.00     0.004 C 
BRANCH  97  98
ATOM     98  C   UNL A   1      33.328  25.864  24.419  1.00  0.00    -0.026 A 
ATOM     99  C   UNL A   1      32.995  26.041  25.763  1.00  0.00     0.008 A 
ATOM    100  C   UNL A   1      32.536  26.477  23.437  1.00  0.00     0.008 A 
ATOM    101  C   UNL A   1      31.900  26.834  26.121  1.00  0.00     0.001 A 
ATOM    102  C   UNL A   1      31.437  27.263  23.792  1.00  0.00     0.001 A 
ATOM    103  C   UNL A   1      31.121  27.441  25.136  1.00  0.00     0.000 A 
ENDBRANCH  97  98
ENDBRANCH  95  96
ENDBRANCH  86  95
ENDBRANCH  84  86
ENDBRANCH  83  84
ENDBRANCH  82  83
ENDBRANCH  81  82
ENDBRANCH  80  81
ENDBRANCH  79  80
ENDBRANCH  78  79
ENDBRANCH   1  78
TORSDOF 26
ENDMDL
