MODEL 1
REMARK VINA RESULT:     -10.0      0.000      0.000
REMARK SMILES O=C(OCCOCCOCCOCCOC(=O)[C@H]1[C@@H](C(=O)NN2CCOCC2)[C@H]2C=C[C@@H]1CC2)c1ccc(-c2c3nc(c(-c4c(F)cc(S(=O)(=O)[O-])cc4F)c4ccc([nH]4)c(-c4c(F)cc(S(=O)(=O)[O-])cc4F)c4nc(c(-c5c(F)cc(S(=O)(=O)[O-])cc5F)c5ccc2[nH]5)C=C4)C=C3)cc1
REMARK SMILES IDX 8 1 7 2 6 3 5 4 4 5 3 6 2 7 1 8 35 9 36 10 100 11 37 12
REMARK SMILES IDX 99 13 38 14 39 15 40 16 93 17 41 18 98 19 92 20 94 21 42 22
REMARK SMILES IDX 97 23 91 24 90 25 43 27 77 28 56 29 76 30 57 31 60 32 75 33
REMARK SMILES IDX 95 34 58 35 59 36 74 38 96 39 61 40 44 41 45 42 54 43 46 44
REMARK SMILES IDX 47 45 53 46 55 47 48 48 49 49 50 50 51 51 52 52 78 53 79 54
REMARK SMILES IDX 88 55 80 56 81 57 87 58 89 59 82 60 83 61 84 62 85 63 86 64
REMARK SMILES IDX 62 65 63 66 72 67 64 68 65 69 71 70 73 71 66 72 67 73 68 74
REMARK SMILES IDX 69 75 70 76 9 77 10 78 11 79 12 80 13 81 14 82 15 83 16 84
REMARK SMILES IDX 17 85 18 86 19 87 32 88 29 89 31 90 33 91 30 92 34 93 20 94
REMARK SMILES IDX 21 95 22 96 23 98 24 99 28 100 25 101 27 102 26 103
REMARK H PARENT 94 26 60 37 22 97
REMARK Flexibility Score: inf
ROOT
ATOM      1  C   UNL A   1      33.645  28.519  27.075  1.00  0.00     0.188 C 
ENDROOT
BRANCH   1   2
ATOM      2  C   UNL A   1      34.612  29.680  26.904  1.00  0.00     0.188 C 
BRANCH   2   3
ATOM      3  O   UNL A   1      34.804  30.244  28.188  1.00  0.00    -0.376 OA
BRANCH   3   4
ATOM      4  C   UNL A   1      34.588  31.636  28.332  1.00  0.00     0.202 C 
BRANCH   4   5
ATOM      5  C   UNL A   1      34.690  32.105  29.783  1.00  0.00     0.261 C 
BRANCH   5   6
ATOM      6  O   UNL A   1      36.013  31.954  30.332  1.00  0.00    -0.460 OA
BRANCH   6   7
ATOM      7  C   UNL A   1      36.674  30.799  30.613  1.00  0.00     0.338 C 
ATOM      8  O   UNL A   1      36.083  29.916  31.235  1.00  0.00    -0.246 OA
BRANCH   7   9
ATOM      9  C   UNL A   1      38.080  30.528  30.184  1.00  0.00     0.060 A 
ATOM     10  C   UNL A   1      38.481  30.417  28.859  1.00  0.00     0.016 A 
ATOM     11  C   UNL A   1      39.078  30.458  31.168  1.00  0.00     0.016 A 
ATOM     12  C   UNL A   1      39.779  30.126  28.499  1.00  0.00     0.010 A 
ATOM     13  C   UNL A   1      40.415  30.220  30.816  1.00  0.00     0.010 A 
ATOM     14  C   UNL A   1      40.757  30.015  29.474  1.00  0.00    -0.014 A 
BRANCH  14  15
ATOM     15  C   UNL A   1      42.053  29.478  29.023  1.00  0.00     0.031 A 
ATOM     16  C   UNL A   1      43.257  30.355  29.195  1.00  0.00     0.074 A 
ATOM     17  C   UNL A   1      42.164  28.171  28.716  1.00  0.00     0.049 A 
ATOM     18  N   UNL A   1      44.492  30.139  28.844  1.00  0.00    -0.248 NA
ATOM     19  C   UNL A   1      43.043  31.646  29.875  1.00  0.00     0.031 C 
ATOM     20  C   UNL A   1      41.058  27.204  28.713  1.00  0.00     0.029 A 
ATOM     21  N   UNL A   1      43.260  27.413  28.405  1.00  0.00    -0.354 N 
ATOM     22  C   UNL A   1      45.191  31.281  29.215  1.00  0.00     0.074 A 
ATOM     23  C   UNL A   1      44.248  32.190  29.822  1.00  0.00     0.031 C 
ATOM     24  C   UNL A   1      41.541  25.979  28.448  1.00  0.00     0.029 A 
ATOM     25  C   UNL A   1      42.965  26.090  28.165  1.00  0.00     0.049 A 
ATOM     26  H   UNL A   1      44.173  27.779  28.358  1.00  0.00     0.167 HD
ATOM     27  C   UNL A   1      46.506  31.539  29.051  1.00  0.00     0.037 A 
ATOM     28  C   UNL A   1      43.756  25.101  27.710  1.00  0.00     0.037 A 
ATOM     29  C   UNL A   1      47.409  30.595  28.455  1.00  0.00     0.049 A 
ATOM     30  C   UNL A   1      45.194  25.448  27.426  1.00  0.00     0.074 A 
ATOM     31  C   UNL A   1      48.738  30.758  28.114  1.00  0.00     0.029 A 
ATOM     32  N   UNL A   1      47.063  29.289  28.127  1.00  0.00    -0.354 N 
ATOM     33  N   UNL A   1      45.824  26.583  27.640  1.00  0.00    -0.248 NA
ATOM     34  C   UNL A   1      46.023  24.403  26.819  1.00  0.00     0.031 C 
ATOM     35  C   UNL A   1      49.184  29.558  27.549  1.00  0.00     0.029 A 
ATOM     36  C   UNL A   1      48.148  28.635  27.582  1.00  0.00     0.049 A 
ATOM     37  H   UNL A   1      46.172  28.891  28.263  1.00  0.00     0.167 HD
ATOM     38  C   UNL A   1      47.123  26.387  27.194  1.00  0.00     0.074 A 
ATOM     39  C   UNL A   1      47.196  25.013  26.733  1.00  0.00     0.031 C 
ATOM     40  C   UNL A   1      48.162  27.259  27.148  1.00  0.00     0.037 A 
BRANCH  27  41
ATOM     41  C   UNL A   1      46.994  32.901  29.448  1.00  0.00     0.058 A 
ATOM     42  C   UNL A   1      47.495  33.169  30.731  1.00  0.00     0.135 A 
ATOM     43  C   UNL A   1      46.919  33.968  28.538  1.00  0.00     0.135 A 
ATOM     44  F   UNL A   1      47.545  32.197  31.656  1.00  0.00    -0.206 F 
ATOM     45  C   UNL A   1      47.891  34.452  31.103  1.00  0.00     0.059 A 
ATOM     46  C   UNL A   1      47.329  35.252  28.880  1.00  0.00     0.059 A 
ATOM     47  F   UNL A   1      46.423  33.769  27.306  1.00  0.00    -0.206 F 
ATOM     48  C   UNL A   1      47.803  35.487  30.169  1.00  0.00     0.060 A 
BRANCH  48  49
ATOM     49  S   UNL A   1      48.321  37.144  30.666  1.00  0.00     0.124 S 
ATOM     50  O   UNL A   1      47.783  37.224  32.020  1.00  0.00    -0.237 OA
ATOM     51  O   UNL A   1      49.774  37.058  30.566  1.00  0.00    -0.237 OA
ATOM     52  O   UNL A   1      47.678  38.010  29.683  1.00  0.00    -0.744 OA
ENDBRANCH  48  49
ENDBRANCH  27  41
BRANCH  28  53
ATOM     53  C   UNL A   1      43.198  23.755  27.392  1.00  0.00     0.058 A 
ATOM     54  C   UNL A   1      43.182  22.718  28.336  1.00  0.00     0.135 A 
ATOM     55  C   UNL A   1      42.700  23.467  26.109  1.00  0.00     0.135 A 
ATOM     56  F   UNL A   1      43.649  22.932  29.576  1.00  0.00    -0.206 F 
ATOM     57  C   UNL A   1      42.730  21.439  28.012  1.00  0.00     0.059 A 
ATOM     58  C   UNL A   1      42.211  22.210  25.771  1.00  0.00     0.059 A 
ATOM     59  F   UNL A   1      42.680  24.419  25.164  1.00  0.00    -0.206 F 
ATOM     60  C   UNL A   1      42.252  21.194  26.723  1.00  0.00     0.060 A 
BRANCH  60  61
ATOM     61  S   UNL A   1      41.679  19.534  26.302  1.00  0.00     0.124 S 
ATOM     62  O   UNL A   1      42.498  19.231  25.134  1.00  0.00    -0.237 OA
ATOM     63  O   UNL A   1      41.990  18.782  27.514  1.00  0.00    -0.237 OA
ATOM     64  O   UNL A   1      40.255  19.726  26.042  1.00  0.00    -0.744 OA
ENDBRANCH  60  61
ENDBRANCH  28  53
BRANCH  40  65
ATOM     65  C   UNL A   1      49.455  26.729  26.609  1.00  0.00     0.058 A 
ATOM     66  C   UNL A   1      49.814  26.903  25.264  1.00  0.00     0.135 A 
ATOM     67  C   UNL A   1      50.359  26.077  27.461  1.00  0.00     0.135 A 
ATOM     68  F   UNL A   1      48.975  27.517  24.414  1.00  0.00    -0.206 F 
ATOM     69  C   UNL A   1      51.017  26.418  24.772  1.00  0.00     0.059 A 
ATOM     70  C   UNL A   1      51.582  25.610  26.995  1.00  0.00     0.059 A 
ATOM     71  F   UNL A   1      50.062  25.900  28.758  1.00  0.00    -0.206 F 
ATOM     72  C   UNL A   1      51.893  25.772  25.646  1.00  0.00     0.060 A 
BRANCH  72  73
ATOM     73  S   UNL A   1      53.464  25.166  25.002  1.00  0.00     0.124 S 
ATOM     74  O   UNL A   1      53.339  23.730  25.230  1.00  0.00    -0.237 OA
ATOM     75  O   UNL A   1      53.419  25.593  23.607  1.00  0.00    -0.237 OA
ATOM     76  O   UNL A   1      54.455  25.849  25.828  1.00  0.00    -0.744 OA
ENDBRANCH  72  73
ENDBRANCH  40  65
ENDBRANCH  14  15
ENDBRANCH   7   9
ENDBRANCH   6   7
ENDBRANCH   5   6
ENDBRANCH   4   5
ENDBRANCH   3   4
ENDBRANCH   2   3
ENDBRANCH   1   2
BRANCH   1  77
ATOM     77  O   UNL A   1      33.306  27.926  25.828  1.00  0.00    -0.377 OA
BRANCH  77  78
ATOM     78  C   UNL A   1      33.371  28.757  24.665  1.00  0.00     0.188 C 
BRANCH  78  79
ATOM     79  C   UNL A   1      33.469  28.103  23.292  1.00  0.00     0.188 C 
BRANCH  79  80
ATOM     80  O   UNL A   1      33.969  26.789  23.275  1.00  0.00    -0.376 OA
BRANCH  80  81
ATOM     81  C   UNL A   1      33.395  25.837  22.386  1.00  0.00     0.202 C 
BRANCH  81  82
ATOM     82  C   UNL A   1      33.467  24.300  22.567  1.00  0.00     0.261 C 
BRANCH  82  83
ATOM     83  O   UNL A   1      32.221  23.620  22.813  1.00  0.00    -0.463 OA
BRANCH  83  84
ATOM     84  C   UNL A   1      32.319  22.428  23.450  1.00  0.00     0.310 C 
ATOM     85  O   UNL A   1      32.358  21.348  22.858  1.00  0.00    -0.252 OA
BRANCH  84  86
ATOM     86  C   UNL A   1      32.397  22.487  24.987  1.00  0.00     0.119 C 
ATOM     87  C   UNL A   1      33.157  21.341  25.773  1.00  0.00     0.101 C 
ATOM     88  C   UNL A   1      32.650  23.872  25.678  1.00  0.00     0.026 C 
ATOM     89  C   UNL A   1      33.585  21.930  27.150  1.00  0.00     0.025 C 
ATOM     90  C   UNL A   1      34.075  24.054  26.178  1.00  0.00    -0.027 C 
ATOM     91  C   UNL A   1      31.852  23.817  27.009  1.00  0.00     0.009 C 
ATOM     92  C   UNL A   1      34.563  23.052  26.923  1.00  0.00    -0.027 C 
ATOM     93  C   UNL A   1      32.337  22.585  27.825  1.00  0.00     0.009 C 
BRANCH  87  94
ATOM     94  C   UNL A   1      34.192  20.584  24.919  1.00  0.00     0.238 C 
ATOM     95  O   UNL A   1      35.248  21.135  24.590  1.00  0.00    -0.273 OA
ATOM     96  N   UNL A   1      34.007  19.351  24.361  1.00  0.00    -0.288 N 
ATOM     97  H   UNL A   1      34.784  18.972  23.892  1.00  0.00     0.185 HD
BRANCH  96  98
ATOM     98  N   UNL A   1      32.854  18.558  24.373  1.00  0.00    -0.217 NA
ATOM     99  C   UNL A   1      32.796  17.712  25.601  1.00  0.00     0.136 C 
ATOM    100  C   UNL A   1      32.811  17.659  23.195  1.00  0.00     0.136 C 
ATOM    101  C   UNL A   1      33.780  16.524  25.602  1.00  0.00     0.177 C 
ATOM    102  C   UNL A   1      33.845  16.531  23.252  1.00  0.00     0.177 C 
ATOM    103  O   UNL A   1      33.642  15.728  24.418  1.00  0.00    -0.379 OA
ENDBRANCH  96  98
ENDBRANCH  87  94
ENDBRANCH  84  86
ENDBRANCH  83  84
ENDBRANCH  82  83
ENDBRANCH  81  82
ENDBRANCH  80  81
ENDBRANCH  79  80
ENDBRANCH  78  79
ENDBRANCH  77  78
ENDBRANCH   1  77
TORSDOF 25
ENDMDL
MODEL 2
REMARK VINA RESULT:      -9.9      1.710      2.715
REMARK SMILES O=C(OCCOCCOCCOCCOC(=O)[C@H]1[C@@H](C(=O)NN2CCOCC2)[C@H]2C=C[C@@H]1CC2)c1ccc(-c2c3nc(c(-c4c(F)cc(S(=O)(=O)[O-])cc4F)c4ccc([nH]4)c(-c4c(F)cc(S(=O)(=O)[O-])cc4F)c4nc(c(-c5c(F)cc(S(=O)(=O)[O-])cc5F)c5ccc2[nH]5)C=C4)C=C3)cc1
REMARK SMILES IDX 8 1 7 2 6 3 5 4 4 5 3 6 2 7 1 8 35 9 36 10 100 11 37 12
REMARK SMILES IDX 99 13 38 14 39 15 40 16 93 17 41 18 98 19 92 20 94 21 42 22
REMARK SMILES IDX 97 23 91 24 90 25 43 27 77 28 56 29 76 30 57 31 60 32 75 33
REMARK SMILES IDX 95 34 58 35 59 36 74 38 96 39 61 40 44 41 45 42 54 43 46 44
REMARK SMILES IDX 47 45 53 46 55 47 48 48 49 49 50 50 51 51 52 52 78 53 79 54
REMARK SMILES IDX 88 55 80 56 81 57 87 58 89 59 82 60 83 61 84 62 85 63 86 64
REMARK SMILES IDX 62 65 63 66 72 67 64 68 65 69 71 70 73 71 66 72 67 73 68 74
REMARK SMILES IDX 69 75 70 76 9 77 10 78 11 79 12 80 13 81 14 82 15 83 16 84
REMARK SMILES IDX 17 85 18 86 19 87 32 88 29 89 31 90 33 91 30 92 34 93 20 94
REMARK SMILES IDX 21 95 22 96 23 98 24 99 28 100 25 101 27 102 26 103
REMARK H PARENT 94 26 60 37 22 97
REMARK Flexibility Score: inf
ROOT
ATOM      1  C   UNL A   1      33.163  28.381  25.831  1.00  0.00     0.188 C 
ENDROOT
BRANCH   1   2
ATOM      2  C   UNL A   1      33.229  29.901  25.780  1.00  0.00     0.188 C 
BRANCH   2   3
ATOM      3  O   UNL A   1      33.853  30.321  26.980  1.00  0.00    -0.376 OA
BRANCH   3   4
ATOM      4  C   UNL A   1      33.344  31.482  27.611  1.00  0.00     0.202 C 
BRANCH   4   5
ATOM      5  C   UNL A   1      34.386  32.192  28.475  1.00  0.00     0.261 C 
BRANCH   5   6
ATOM      6  O   UNL A   1      35.713  31.657  28.312  1.00  0.00    -0.460 OA
BRANCH   6   7
ATOM      7  C   UNL A   1      36.550  31.190  29.278  1.00  0.00     0.338 C 
ATOM      8  O   UNL A   1      36.231  31.337  30.457  1.00  0.00    -0.246 OA
BRANCH   7   9
ATOM      9  C   UNL A   1      37.832  30.480  28.985  1.00  0.00     0.060 A 
ATOM     10  C   UNL A   1      38.795  30.185  29.942  1.00  0.00     0.016 A 
ATOM     11  C   UNL A   1      38.053  30.008  27.681  1.00  0.00     0.016 A 
ATOM     12  C   UNL A   1      39.985  29.565  29.630  1.00  0.00     0.010 A 
ATOM     13  C   UNL A   1      39.234  29.324  27.359  1.00  0.00     0.010 A 
ATOM     14  C   UNL A   1      40.221  29.136  28.334  1.00  0.00    -0.014 A 
BRANCH  14  15
ATOM     15  C   UNL A   1      41.598  28.699  28.044  1.00  0.00     0.031 A 
ATOM     16  C   UNL A   1      42.695  29.699  28.256  1.00  0.00     0.074 A 
ATOM     17  C   UNL A   1      41.857  27.391  27.850  1.00  0.00     0.049 A 
ATOM     18  N   UNL A   1      43.973  29.582  28.034  1.00  0.00    -0.248 NA
ATOM     19  C   UNL A   1      42.299  31.007  28.812  1.00  0.00     0.031 C 
ATOM     20  C   UNL A   1      40.849  26.322  27.822  1.00  0.00     0.029 A 
ATOM     21  N   UNL A   1      43.042  26.725  27.698  1.00  0.00    -0.354 N 
ATOM     22  C   UNL A   1      44.525  30.810  28.378  1.00  0.00     0.074 A 
ATOM     23  C   UNL A   1      43.449  31.661  28.826  1.00  0.00     0.031 C 
ATOM     24  C   UNL A   1      41.465  25.136  27.697  1.00  0.00     0.029 A 
ATOM     25  C   UNL A   1      42.894  25.366  27.535  1.00  0.00     0.049 A 
ATOM     26  H   UNL A   1      43.918  27.175  27.705  1.00  0.00     0.167 HD
ATOM     27  C   UNL A   1      45.821  31.184  28.313  1.00  0.00     0.037 A 
ATOM     28  C   UNL A   1      43.812  24.431  27.230  1.00  0.00     0.037 A 
ATOM     29  C   UNL A   1      46.860  30.295  27.875  1.00  0.00     0.049 A 
ATOM     30  C   UNL A   1      45.233  24.897  27.051  1.00  0.00     0.074 A 
ATOM     31  C   UNL A   1      48.195  30.563  27.643  1.00  0.00     0.029 A 
ATOM     32  N   UNL A   1      46.667  28.942  27.618  1.00  0.00    -0.354 N 
ATOM     33  N   UNL A   1      45.733  26.100  27.233  1.00  0.00    -0.248 NA
ATOM     34  C   UNL A   1      46.209  23.899  26.603  1.00  0.00     0.031 C 
ATOM     35  C   UNL A   1      48.801  29.377  27.214  1.00  0.00     0.029 A 
ATOM     36  C   UNL A   1      47.856  28.361  27.225  1.00  0.00     0.049 A 
ATOM     37  H   UNL A   1      45.808  28.469  27.704  1.00  0.00     0.167 HD
ATOM     38  C   UNL A   1      47.081  26.003  26.921  1.00  0.00     0.074 A 
ATOM     39  C   UNL A   1      47.324  24.615  26.576  1.00  0.00     0.031 C 
ATOM     40  C   UNL A   1      48.036  26.967  26.901  1.00  0.00     0.037 A 
BRANCH  27  41
ATOM     41  C   UNL A   1      46.142  32.611  28.646  1.00  0.00     0.058 A 
ATOM     42  C   UNL A   1      46.658  32.988  29.896  1.00  0.00     0.135 A 
ATOM     43  C   UNL A   1      45.888  33.626  27.709  1.00  0.00     0.135 A 
ATOM     44  F   UNL A   1      46.875  32.064  30.845  1.00  0.00    -0.206 F 
ATOM     45  C   UNL A   1      46.897  34.323  30.210  1.00  0.00     0.059 A 
ATOM     46  C   UNL A   1      46.139  34.964  27.994  1.00  0.00     0.059 A 
ATOM     47  F   UNL A   1      45.370  33.321  26.509  1.00  0.00    -0.206 F 
ATOM     48  C   UNL A   1      46.634  35.304  29.252  1.00  0.00     0.060 A 
BRANCH  48  49
ATOM     49  S   UNL A   1      46.950  37.031  29.674  1.00  0.00     0.124 S 
ATOM     50  O   UNL A   1      47.014  37.647  28.352  1.00  0.00    -0.237 OA
ATOM     51  O   UNL A   1      45.781  37.374  30.476  1.00  0.00    -0.237 OA
ATOM     52  O   UNL A   1      48.214  36.977  30.402  1.00  0.00    -0.744 OA
ENDBRANCH  48  49
ENDBRANCH  27  41
BRANCH  28  53
ATOM     53  C   UNL A   1      43.412  23.018  26.969  1.00  0.00     0.058 A 
ATOM     54  C   UNL A   1      43.036  22.151  28.005  1.00  0.00     0.135 A 
ATOM     55  C   UNL A   1      43.438  22.493  25.665  1.00  0.00     0.135 A 
ATOM     56  F   UNL A   1      42.997  22.594  29.271  1.00  0.00    -0.206 F 
ATOM     57  C   UNL A   1      42.737  20.810  27.765  1.00  0.00     0.059 A 
ATOM     58  C   UNL A   1      43.110  21.169  25.395  1.00  0.00     0.059 A 
ATOM     59  F   UNL A   1      43.782  23.274  24.629  1.00  0.00    -0.206 F 
ATOM     60  C   UNL A   1      42.784  20.327  26.456  1.00  0.00     0.060 A 
BRANCH  60  61
ATOM     61  S   UNL A   1      42.409  18.587  26.149  1.00  0.00     0.124 S 
ATOM     62  O   UNL A   1      41.010  18.659  25.741  1.00  0.00    -0.237 OA
ATOM     63  O   UNL A   1      43.364  18.245  25.099  1.00  0.00    -0.237 OA
ATOM     64  O   UNL A   1      42.658  17.957  27.441  1.00  0.00    -0.744 OA
ENDBRANCH  60  61
ENDBRANCH  28  53
BRANCH  40  65
ATOM     65  C   UNL A   1      49.419  26.531  26.524  1.00  0.00     0.058 A 
ATOM     66  C   UNL A   1      49.858  26.564  25.192  1.00  0.00     0.135 A 
ATOM     67  C   UNL A   1      50.322  26.115  27.513  1.00  0.00     0.135 A 
ATOM     68  F   UNL A   1      49.023  26.950  24.213  1.00  0.00    -0.206 F 
ATOM     69  C   UNL A   1      51.142  26.167  24.848  1.00  0.00     0.059 A 
ATOM     70  C   UNL A   1      51.621  25.742  27.194  1.00  0.00     0.059 A 
ATOM     71  F   UNL A   1      49.948  26.081  28.802  1.00  0.00    -0.206 F 
ATOM     72  C   UNL A   1      52.016  25.757  25.857  1.00  0.00     0.060 A 
BRANCH  72  73
ATOM     73  S   UNL A   1      53.690  25.265  25.403  1.00  0.00     0.124 S 
ATOM     74  O   UNL A   1      53.803  25.821  24.059  1.00  0.00    -0.237 OA
ATOM     75  O   UNL A   1      54.499  25.916  26.430  1.00  0.00    -0.237 OA
ATOM     76  O   UNL A   1      53.647  23.808  25.479  1.00  0.00    -0.744 OA
ENDBRANCH  72  73
ENDBRANCH  40  65
ENDBRANCH  14  15
ENDBRANCH   7   9
ENDBRANCH   6   7
ENDBRANCH   5   6
ENDBRANCH   4   5
ENDBRANCH   3   4
ENDBRANCH   2   3
ENDBRANCH   1   2
BRANCH   1  77
ATOM     77  O   UNL A   1      31.822  27.910  25.800  1.00  0.00    -0.377 OA
BRANCH  77  78
ATOM     78  C   UNL A   1      31.000  28.339  24.710  1.00  0.00     0.188 C 
BRANCH  78  79
ATOM     79  C   UNL A   1      30.707  27.363  23.576  1.00  0.00     0.188 C 
BRANCH  79  80
ATOM     80  O   UNL A   1      31.383  26.131  23.640  1.00  0.00    -0.376 OA
BRANCH  80  81
ATOM     81  C   UNL A   1      32.487  25.898  22.773  1.00  0.00     0.202 C 
BRANCH  81  82
ATOM     82  C   UNL A   1      33.976  26.029  23.181  1.00  0.00     0.261 C 
BRANCH  82  83
ATOM     83  O   UNL A   1      34.660  24.811  23.531  1.00  0.00    -0.463 OA
BRANCH  83  84
ATOM     84  C   UNL A   1      34.097  24.088  24.528  1.00  0.00     0.310 C 
ATOM     85  O   UNL A   1      34.008  24.494  25.689  1.00  0.00    -0.252 OA
BRANCH  84  86
ATOM     86  C   UNL A   1      33.544  22.706  24.133  1.00  0.00     0.119 C 
ATOM     87  C   UNL A   1      34.169  21.402  24.781  1.00  0.00     0.101 C 
ATOM     88  C   UNL A   1      31.994  22.533  23.964  1.00  0.00     0.026 C 
ATOM     89  C   UNL A   1      33.094  20.278  24.686  1.00  0.00     0.025 C 
ATOM     90  C   UNL A   1      31.328  21.821  25.131  1.00  0.00    -0.027 C 
ATOM     91  C   UNL A   1      31.821  21.496  22.821  1.00  0.00     0.009 C 
ATOM     92  C   UNL A   1      31.899  20.670  25.514  1.00  0.00    -0.027 C 
ATOM     93  C   UNL A   1      32.581  20.197  23.213  1.00  0.00     0.009 C 
BRANCH  87  94
ATOM     94  C   UNL A   1      34.881  21.656  26.122  1.00  0.00     0.238 C 
ATOM     95  O   UNL A   1      34.258  21.562  27.185  1.00  0.00    -0.273 OA
ATOM     96  N   UNL A   1      36.162  22.111  26.263  1.00  0.00    -0.288 N 
ATOM     97  H   UNL A   1      36.498  22.167  27.187  1.00  0.00     0.185 HD
BRANCH  96  98
ATOM     98  N   UNL A   1      37.057  22.507  25.263  1.00  0.00    -0.217 NA
ATOM     99  C   UNL A   1      38.071  21.446  24.999  1.00  0.00     0.136 C 
ATOM    100  C   UNL A   1      37.777  23.744  25.648  1.00  0.00     0.136 C 
ATOM    101  C   UNL A   1      39.146  21.306  26.097  1.00  0.00     0.177 C 
ATOM    102  C   UNL A   1      38.796  23.530  26.772  1.00  0.00     0.177 C 
ATOM    103  O   UNL A   1      39.774  22.563  26.379  1.00  0.00    -0.379 OA
ENDBRANCH  96  98
ENDBRANCH  87  94
ENDBRANCH  84  86
ENDBRANCH  83  84
ENDBRANCH  82  83
ENDBRANCH  81  82
ENDBRANCH  80  81
ENDBRANCH  79  80
ENDBRANCH  78  79
ENDBRANCH  77  78
ENDBRANCH   1  77
TORSDOF 25
ENDMDL
MODEL 3
REMARK VINA RESULT:      -9.9      4.655      6.404
REMARK SMILES O=C(OCCOCCOCCOCCOC(=O)[C@H]1[C@@H](C(=O)NN2CCOCC2)[C@H]2C=C[C@@H]1CC2)c1ccc(-c2c3nc(c(-c4c(F)cc(S(=O)(=O)[O-])cc4F)c4ccc([nH]4)c(-c4c(F)cc(S(=O)(=O)[O-])cc4F)c4nc(c(-c5c(F)cc(S(=O)(=O)[O-])cc5F)c5ccc2[nH]5)C=C4)C=C3)cc1
REMARK SMILES IDX 8 1 7 2 6 3 5 4 4 5 3 6 2 7 1 8 35 9 36 10 100 11 37 12
REMARK SMILES IDX 99 13 38 14 39 15 40 16 93 17 41 18 98 19 92 20 94 21 42 22
REMARK SMILES IDX 97 23 91 24 90 25 43 27 77 28 56 29 76 30 57 31 60 32 75 33
REMARK SMILES IDX 95 34 58 35 59 36 74 38 96 39 61 40 44 41 45 42 54 43 46 44
REMARK SMILES IDX 47 45 53 46 55 47 48 48 49 49 50 50 51 51 52 52 78 53 79 54
REMARK SMILES IDX 88 55 80 56 81 57 87 58 89 59 82 60 83 61 84 62 85 63 86 64
REMARK SMILES IDX 62 65 63 66 72 67 64 68 65 69 71 70 73 71 66 72 67 73 68 74
REMARK SMILES IDX 69 75 70 76 9 77 10 78 11 79 12 80 13 81 14 82 15 83 16 84
REMARK SMILES IDX 17 85 18 86 19 87 32 88 29 89 31 90 33 91 30 92 34 93 20 94
REMARK SMILES IDX 21 95 22 96 23 98 24 99 28 100 25 101 27 102 26 103
REMARK H PARENT 94 26 60 37 22 97
REMARK Flexibility Score: inf
ROOT
ATOM      1  C   UNL A   1      33.976  26.684  25.331  1.00  0.00     0.188 C 
ENDROOT
BRANCH   1   2
ATOM      2  C   UNL A   1      33.309  27.772  24.502  1.00  0.00     0.188 C 
BRANCH   2   3
ATOM      3  O   UNL A   1      33.433  28.976  25.236  1.00  0.00    -0.376 OA
BRANCH   3   4
ATOM      4  C   UNL A   1      32.241  29.615  25.655  1.00  0.00     0.202 C 
BRANCH   4   5
ATOM      5  C   UNL A   1      32.443  30.500  26.883  1.00  0.00     0.261 C 
BRANCH   5   6
ATOM      6  O   UNL A   1      33.754  31.094  26.941  1.00  0.00    -0.460 OA
BRANCH   6   7
ATOM      7  C   UNL A   1      34.424  31.535  28.040  1.00  0.00     0.338 C 
ATOM      8  O   UNL A   1      33.886  32.374  28.762  1.00  0.00    -0.246 OA
BRANCH   7   9
ATOM      9  C   UNL A   1      35.775  31.036  28.437  1.00  0.00     0.060 A 
ATOM     10  C   UNL A   1      36.049  29.717  28.775  1.00  0.00     0.016 A 
ATOM     11  C   UNL A   1      36.857  31.929  28.394  1.00  0.00     0.016 A 
ATOM     12  C   UNL A   1      37.299  29.298  29.176  1.00  0.00     0.010 A 
ATOM     13  C   UNL A   1      38.149  31.506  28.743  1.00  0.00     0.010 A 
ATOM     14  C   UNL A   1      38.360  30.190  29.173  1.00  0.00    -0.014 A 
BRANCH  14  15
ATOM     15  C   UNL A   1      39.592  29.722  29.832  1.00  0.00     0.031 A 
ATOM     16  C   UNL A   1      39.895  30.273  31.193  1.00  0.00     0.074 A 
ATOM     17  C   UNL A   1      40.257  28.664  29.329  1.00  0.00     0.049 A 
ATOM     18  N   UNL A   1      40.927  30.060  31.959  1.00  0.00    -0.248 NA
ATOM     19  C   UNL A   1      38.886  31.175  31.781  1.00  0.00     0.031 C 
ATOM     20  C   UNL A   1      39.903  27.947  28.096  1.00  0.00     0.029 A 
ATOM     21  N   UNL A   1      41.330  27.966  29.815  1.00  0.00    -0.354 N 
ATOM     22  C   UNL A   1      40.715  30.834  33.093  1.00  0.00     0.074 A 
ATOM     23  C   UNL A   1      39.458  31.521  32.923  1.00  0.00     0.031 C 
ATOM     24  C   UNL A   1      40.723  26.895  27.945  1.00  0.00     0.029 A 
ATOM     25  C   UNL A   1      41.718  26.920  29.008  1.00  0.00     0.049 A 
ATOM     26  H   UNL A   1      41.781  28.191  30.661  1.00  0.00     0.167 HD
ATOM     27  C   UNL A   1      41.515  30.956  34.175  1.00  0.00     0.037 A 
ATOM     28  C   UNL A   1      42.794  26.118  29.098  1.00  0.00     0.037 A 
ATOM     29  C   UNL A   1      42.751  30.238  34.306  1.00  0.00     0.049 A 
ATOM     30  C   UNL A   1      43.731  26.354  30.254  1.00  0.00     0.074 A 
ATOM     31  C   UNL A   1      43.722  30.348  35.282  1.00  0.00     0.029 A 
ATOM     32  N   UNL A   1      43.174  29.252  33.421  1.00  0.00    -0.354 N 
ATOM     33  N   UNL A   1      43.605  27.196  31.256  1.00  0.00    -0.248 NA
ATOM     34  C   UNL A   1      44.963  25.559  30.284  1.00  0.00     0.031 C 
ATOM     35  C   UNL A   1      44.747  29.448  34.968  1.00  0.00     0.029 A 
ATOM     36  C   UNL A   1      44.393  28.747  33.824  1.00  0.00     0.049 A 
ATOM     37  H   UNL A   1      42.675  28.958  32.624  1.00  0.00     0.167 HD
ATOM     38  C   UNL A   1      44.740  27.033  32.036  1.00  0.00     0.074 A 
ATOM     39  C   UNL A   1      45.523  25.984  31.408  1.00  0.00     0.031 C 
ATOM     40  C   UNL A   1      45.121  27.694  33.159  1.00  0.00     0.037 A 
BRANCH  27  41
ATOM     41  C   UNL A   1      41.103  31.944  35.225  1.00  0.00     0.058 A 
ATOM     42  C   UNL A   1      41.685  33.217  35.322  1.00  0.00     0.135 A 
ATOM     43  C   UNL A   1      40.135  31.592  36.181  1.00  0.00     0.135 A 
ATOM     44  F   UNL A   1      42.648  33.588  34.464  1.00  0.00    -0.206 F 
ATOM     45  C   UNL A   1      41.333  34.102  36.337  1.00  0.00     0.059 A 
ATOM     46  C   UNL A   1      39.752  32.468  37.191  1.00  0.00     0.059 A 
ATOM     47  F   UNL A   1      39.567  30.377  36.149  1.00  0.00    -0.206 F 
ATOM     48  C   UNL A   1      40.365  33.717  37.268  1.00  0.00     0.060 A 
BRANCH  48  49
ATOM     49  S   UNL A   1      39.918  34.877  38.579  1.00  0.00     0.124 S 
ATOM     50  O   UNL A   1      39.463  36.029  37.806  1.00  0.00    -0.237 OA
ATOM     51  O   UNL A   1      38.879  34.147  39.297  1.00  0.00    -0.237 OA
ATOM     52  O   UNL A   1      41.168  35.064  39.308  1.00  0.00    -0.744 OA
ENDBRANCH  48  49
ENDBRANCH  27  41
BRANCH  28  53
ATOM     53  C   UNL A   1      43.100  25.120  28.033  1.00  0.00     0.058 A 
ATOM     54  C   UNL A   1      42.572  23.821  28.062  1.00  0.00     0.135 A 
ATOM     55  C   UNL A   1      43.970  25.440  26.976  1.00  0.00     0.135 A 
ATOM     56  F   UNL A   1      41.739  23.456  29.049  1.00  0.00    -0.206 F 
ATOM     57  C   UNL A   1      42.921  22.867  27.106  1.00  0.00     0.059 A 
ATOM     58  C   UNL A   1      44.306  24.517  25.991  1.00  0.00     0.059 A 
ATOM     59  F   UNL A   1      44.502  26.669  26.888  1.00  0.00    -0.206 F 
ATOM     60  C   UNL A   1      43.795  23.224  26.077  1.00  0.00     0.060 A 
BRANCH  60  61
ATOM     61  S   UNL A   1      44.256  21.985  24.848  1.00  0.00     0.124 S 
ATOM     62  O   UNL A   1      45.707  21.959  24.990  1.00  0.00    -0.237 OA
ATOM     63  O   UNL A   1      43.546  20.800  25.322  1.00  0.00    -0.237 OA
ATOM     64  O   UNL A   1      43.753  22.548  23.598  1.00  0.00    -0.744 OA
ENDBRANCH  60  61
ENDBRANCH  28  53
BRANCH  40  65
ATOM     65  C   UNL A   1      46.418  27.269  33.777  1.00  0.00     0.058 A 
ATOM     66  C   UNL A   1      47.629  27.891  33.435  1.00  0.00     0.135 A 
ATOM     67  C   UNL A   1      46.439  26.258  34.748  1.00  0.00     0.135 A 
ATOM     68  F   UNL A   1      47.654  28.860  32.505  1.00  0.00    -0.206 F 
ATOM     69  C   UNL A   1      48.827  27.501  34.016  1.00  0.00     0.059 A 
ATOM     70  C   UNL A   1      47.623  25.873  35.364  1.00  0.00     0.059 A 
ATOM     71  F   UNL A   1      45.302  25.646  35.114  1.00  0.00    -0.206 F 
ATOM     72  C   UNL A   1      48.812  26.490  34.979  1.00  0.00     0.060 A 
BRANCH  72  73
ATOM     73  S   UNL A   1      50.371  26.005  35.745  1.00  0.00     0.124 S 
ATOM     74  O   UNL A   1      49.932  25.621  37.083  1.00  0.00    -0.237 OA
ATOM     75  O   UNL A   1      50.818  24.913  34.886  1.00  0.00    -0.237 OA
ATOM     76  O   UNL A   1      51.176  27.221  35.673  1.00  0.00    -0.744 OA
ENDBRANCH  72  73
ENDBRANCH  40  65
ENDBRANCH  14  15
ENDBRANCH   7   9
ENDBRANCH   6   7
ENDBRANCH   5   6
ENDBRANCH   4   5
ENDBRANCH   3   4
ENDBRANCH   2   3
ENDBRANCH   1   2
BRANCH   1  77
ATOM     77  O   UNL A   1      33.068  26.087  26.247  1.00  0.00    -0.377 OA
BRANCH  77  78
ATOM     78  C   UNL A   1      31.673  26.330  26.043  1.00  0.00     0.188 C 
BRANCH  78  79
ATOM     79  C   UNL A   1      30.674  25.227  26.372  1.00  0.00     0.188 C 
BRANCH  79  80
ATOM     80  O   UNL A   1      31.149  24.199  27.206  1.00  0.00    -0.376 OA
BRANCH  80  81
ATOM     81  C   UNL A   1      31.349  22.899  26.662  1.00  0.00     0.202 C 
BRANCH  81  82
ATOM     82  C   UNL A   1      31.180  22.529  25.167  1.00  0.00     0.261 C 
BRANCH  82  83
ATOM     83  O   UNL A   1      31.446  21.160  24.806  1.00  0.00    -0.463 OA
BRANCH  83  84
ATOM     84  C   UNL A   1      32.279  20.981  23.754  1.00  0.00     0.310 C 
ATOM     85  O   UNL A   1      32.453  21.832  22.880  1.00  0.00    -0.252 OA
BRANCH  84  86
ATOM     86  C   UNL A   1      33.030  19.638  23.706  1.00  0.00     0.119 C 
ATOM     87  C   UNL A   1      34.367  19.462  24.538  1.00  0.00     0.101 C 
ATOM     88  C   UNL A   1      32.201  18.307  23.732  1.00  0.00     0.026 C 
ATOM     89  C   UNL A   1      34.562  17.936  24.783  1.00  0.00     0.025 C 
ATOM     90  C   UNL A   1      32.216  17.604  25.081  1.00  0.00    -0.027 C 
ATOM     91  C   UNL A   1      32.998  17.311  22.848  1.00  0.00     0.009 C 
ATOM     92  C   UNL A   1      33.427  17.425  25.631  1.00  0.00    -0.027 C 
ATOM     93  C   UNL A   1      34.440  17.189  23.416  1.00  0.00     0.009 C 
BRANCH  87  94
ATOM     94  C   UNL A   1      34.494  20.440  25.721  1.00  0.00     0.238 C 
ATOM     95  O   UNL A   1      33.757  20.323  26.707  1.00  0.00    -0.273 OA
ATOM     96  N   UNL A   1      35.292  21.548  25.748  1.00  0.00    -0.288 N 
ATOM     97  H   UNL A   1      35.311  22.043  26.599  1.00  0.00     0.185 HD
BRANCH  96  98
ATOM     98  N   UNL A   1      36.088  22.070  24.721  1.00  0.00    -0.217 NA
ATOM     99  C   UNL A   1      37.404  21.373  24.655  1.00  0.00     0.136 C 
ATOM    100  C   UNL A   1      36.344  23.516  24.925  1.00  0.00     0.136 C 
ATOM    101  C   UNL A   1      38.381  21.748  25.789  1.00  0.00     0.177 C 
ATOM    102  C   UNL A   1      37.290  23.807  26.094  1.00  0.00     0.177 C 
ATOM    103  O   UNL A   1      38.552  23.168  25.885  1.00  0.00    -0.379 OA
ENDBRANCH  96  98
ENDBRANCH  87  94
ENDBRANCH  84  86
ENDBRANCH  83  84
ENDBRANCH  82  83
ENDBRANCH  81  82
ENDBRANCH  80  81
ENDBRANCH  79  80
ENDBRANCH  78  79
ENDBRANCH  77  78
ENDBRANCH   1  77
TORSDOF 25
ENDMDL
