MODEL 1
REMARK VINA RESULT:      -8.5      0.000      0.000
REMARK SMILES CC1=C[C@@H]([C@@H]2N=N[C@H](S)N2/N=C/c2ccc(C(=O)OCCOCCOCCOCCOC(=O)c3ccc(-c4c5nc(c(-c6c(F)cc(S(=O)(=O)[O-])cc6F)c6ccc([nH]6)c(-c6c(F)cc(S(=O)(=O)[O-])cc6F)c6nc(c(-c7c(F)cc(S(=O)(=O)[O-])cc7F)c7ccc4[nH]7)C=C6)C=C5)cc3)cc2)N=N1
REMARK SMILES IDX 25 1 24 2 23 3 22 4 21 5 20 6 19 7 17 8 18 9 16 10 13 11
REMARK SMILES IDX 14 12 101 13 15 14 100 15 12 16 11 17 10 18 5 19 6 20 7 21
REMARK SMILES IDX 8 22 4 23 1 24 2 25 3 26 103 27 102 28 9 29 26 31 27 32
REMARK SMILES IDX 28 33 29 34 30 35 31 36 32 37 33 38 34 39 35 40 99 41 36 42
REMARK SMILES IDX 98 43 37 44 38 45 39 46 92 47 40 48 97 49 91 50 93 51 41 52
REMARK SMILES IDX 96 53 90 54 89 55 42 57 76 58 55 59 75 60 56 61 59 62 74 63
REMARK SMILES IDX 94 64 57 65 58 66 73 68 95 69 60 70 43 71 44 72 53 73 45 74
REMARK SMILES IDX 46 75 52 76 54 77 47 78 48 79 49 80 50 81 51 82 77 83 78 84
REMARK SMILES IDX 87 85 79 86 80 87 86 88 88 89 81 90 82 91 83 92 84 93 85 94
REMARK SMILES IDX 61 95 62 96 71 97 63 98 64 99 70 100 72 101 65 102 66 103
REMARK SMILES IDX 67 104 68 105 69 106
REMARK H PARENT 9 30 93 56 59 67
REMARK Flexibility Score: inf
ROOT
ATOM      1  O   UNL A   1      50.557  34.668  26.803  1.00  0.00    -0.377 OA
ENDROOT
BRANCH   1   2
ATOM      2  C   UNL A   1      50.302  33.354  26.341  1.00  0.00     0.188 C 
BRANCH   2   3
ATOM      3  C   UNL A   1      49.180  32.625  27.114  1.00  0.00     0.188 C 
BRANCH   3   4
ATOM      4  O   UNL A   1      48.076  32.042  26.441  1.00  0.00    -0.376 OA
BRANCH   4   5
ATOM      5  C   UNL A   1      47.177  31.144  27.068  1.00  0.00     0.202 C 
BRANCH   5   6
ATOM      6  C   UNL A   1      45.756  31.509  27.537  1.00  0.00     0.261 C 
BRANCH   6   7
ATOM      7  O   UNL A   1      44.831  30.443  27.735  1.00  0.00    -0.460 OA
BRANCH   7   8
ATOM      8  C   UNL A   1      43.787  30.415  26.882  1.00  0.00     0.338 C 
ATOM      9  O   UNL A   1      43.495  31.249  26.043  1.00  0.00    -0.246 OA
BRANCH   8  10
ATOM     10  C   UNL A   1      43.133  29.092  26.989  1.00  0.00     0.060 A 
ATOM     11  C   UNL A   1      42.025  26.554  27.122  1.00  0.00    -0.005 A 
ATOM     12  C   UNL A   1      43.381  26.719  27.405  1.00  0.00     0.010 A 
ATOM     13  C   UNL A   1      41.204  27.652  26.842  1.00  0.00     0.010 A 
ATOM     14  C   UNL A   1      43.940  27.991  27.314  1.00  0.00     0.016 A 
ATOM     15  C   UNL A   1      41.756  28.932  26.798  1.00  0.00     0.016 A 
BRANCH  11  16
ATOM     16  C   UNL A   1      41.500  25.183  27.027  1.00  0.00     0.141 C 
ATOM     17  N   UNL A   1      42.308  24.201  26.796  1.00  0.00    -0.180 NA
BRANCH  17  18
ATOM     18  N   UNL A   1      41.805  22.942  26.769  1.00  0.00    -0.233 NA
ATOM     19  C   UNL A   1      42.744  21.835  26.999  1.00  0.00     0.274 C 
ATOM     20  N   UNL A   1      42.018  20.749  27.706  1.00  0.00    -0.161 NA
ATOM     21  N   UNL A   1      40.845  21.106  27.967  1.00  0.00    -0.153 NA
ATOM     22  C   UNL A   1      40.588  22.458  27.430  1.00  0.00     0.298 C 
BRANCH  19  23
ATOM     23  C   UNL A   1      43.367  21.328  25.673  1.00  0.00     0.201 C 
ATOM     24  C   UNL A   1      46.423  22.987  24.419  1.00  0.00     0.068 C 
ATOM     25  C   UNL A   1      45.098  22.392  24.719  1.00  0.00     0.058 C 
ATOM     26  C   UNL A   1      44.851  21.444  25.619  1.00  0.00     0.031 C 
ATOM     27  N   UNL A   1      43.961  22.819  24.080  1.00  0.00    -0.160 NA
ATOM     28  N   UNL A   1      42.950  22.210  24.539  1.00  0.00    -0.177 NA
ENDBRANCH  19  23
BRANCH  22  29
ATOM     29  S   UNL A   1      39.179  22.509  26.260  1.00  0.00    -0.128 SA
ATOM     30  H   UNL A   1      38.341  23.523  26.602  1.00  0.00     0.106 HD
ENDBRANCH  22  29
ENDBRANCH  17  18
ENDBRANCH  11  16
ENDBRANCH   8  10
ENDBRANCH   7   8
ENDBRANCH   6   7
ENDBRANCH   5   6
ENDBRANCH   4   5
ENDBRANCH   3   4
ENDBRANCH   2   3
ENDBRANCH   1   2
BRANCH   1  31
ATOM     31  C   UNL A   1      49.462  35.362  27.400  1.00  0.00     0.188 C 
BRANCH  31  32
ATOM     32  C   UNL A   1      49.643  36.039  28.785  1.00  0.00     0.188 C 
BRANCH  32  33
ATOM     33  O   UNL A   1      48.482  36.034  29.604  1.00  0.00    -0.376 OA
BRANCH  33  34
ATOM     34  C   UNL A   1      47.682  37.187  29.792  1.00  0.00     0.202 C 
BRANCH  34  35
ATOM     35  C   UNL A   1      47.435  37.656  31.220  1.00  0.00     0.261 C 
BRANCH  35  36
ATOM     36  O   UNL A   1      46.199  37.230  31.752  1.00  0.00    -0.460 OA
BRANCH  36  37
ATOM     37  C   UNL A   1      45.811  37.881  32.859  1.00  0.00     0.338 C 
ATOM     38  O   UNL A   1      46.515  38.565  33.600  1.00  0.00    -0.246 OA
BRANCH  37  39
ATOM     39  C   UNL A   1      44.424  37.513  33.130  1.00  0.00     0.060 A 
ATOM     40  C   UNL A   1      44.068  37.430  34.473  1.00  0.00     0.016 A 
ATOM     41  C   UNL A   1      43.672  36.908  32.106  1.00  0.00     0.016 A 
ATOM     42  C   UNL A   1      43.130  36.493  34.816  1.00  0.00     0.010 A 
ATOM     43  C   UNL A   1      42.746  35.963  32.453  1.00  0.00     0.010 A 
ATOM     44  C   UNL A   1      42.574  35.697  33.804  1.00  0.00    -0.014 A 
BRANCH  44  45
ATOM     45  C   UNL A   1      41.729  34.607  34.216  1.00  0.00     0.031 A 
ATOM     46  C   UNL A   1      42.118  33.343  33.564  1.00  0.00     0.074 A 
ATOM     47  C   UNL A   1      40.746  34.750  35.122  1.00  0.00     0.049 A 
ATOM     48  N   UNL A   1      41.494  32.732  32.616  1.00  0.00    -0.248 NA
ATOM     49  C   UNL A   1      43.471  32.830  33.830  1.00  0.00     0.031 C 
ATOM     50  C   UNL A   1      40.460  35.889  35.997  1.00  0.00     0.029 A 
ATOM     51  N   UNL A   1      39.827  33.832  35.510  1.00  0.00    -0.354 N 
ATOM     52  C   UNL A   1      42.259  31.607  32.347  1.00  0.00     0.074 A 
ATOM     53  C   UNL A   1      43.548  31.838  32.944  1.00  0.00     0.031 C 
ATOM     54  C   UNL A   1      39.595  35.498  36.964  1.00  0.00     0.029 A 
ATOM     55  C   UNL A   1      39.171  34.134  36.695  1.00  0.00     0.049 A 
ATOM     56  H   UNL A   1      39.639  33.016  34.992  1.00  0.00     0.167 HD
ATOM     57  C   UNL A   1      41.674  30.460  31.916  1.00  0.00     0.037 A 
ATOM     58  C   UNL A   1      38.412  33.271  37.419  1.00  0.00     0.037 A 
ATOM     59  C   UNL A   1      40.366  30.715  31.363  1.00  0.00     0.049 A 
ATOM     60  C   UNL A   1      38.003  32.175  36.493  1.00  0.00     0.074 A 
ATOM     61  C   UNL A   1      39.895  31.506  30.332  1.00  0.00     0.029 A 
ATOM     62  N   UNL A   1      39.270  30.423  32.141  1.00  0.00    -0.354 N 
ATOM     63  N   UNL A   1      37.196  32.348  35.480  1.00  0.00    -0.248 NA
ATOM     64  C   UNL A   1      38.866  31.006  36.404  1.00  0.00     0.031 C 
ATOM     65  C   UNL A   1      38.658  32.034  30.804  1.00  0.00     0.029 A 
ATOM     66  C   UNL A   1      38.410  31.489  32.064  1.00  0.00     0.049 A 
ATOM     67  H   UNL A   1      39.129  29.598  32.659  1.00  0.00     0.167 HD
ATOM     68  C   UNL A   1      37.735  31.580  34.457  1.00  0.00     0.074 A 
ATOM     69  C   UNL A   1      38.720  30.717  35.108  1.00  0.00     0.031 C 
ATOM     70  C   UNL A   1      37.544  31.910  33.145  1.00  0.00     0.037 A 
BRANCH  57  71
ATOM     71  C   UNL A   1      42.122  29.095  32.373  1.00  0.00     0.058 A 
ATOM     72  C   UNL A   1      42.093  28.790  33.745  1.00  0.00     0.135 A 
ATOM     73  C   UNL A   1      42.834  28.182  31.558  1.00  0.00     0.135 A 
ATOM     74  F   UNL A   1      41.459  29.597  34.611  1.00  0.00    -0.206 F 
ATOM     75  C   UNL A   1      42.780  27.699  34.278  1.00  0.00     0.059 A 
ATOM     76  C   UNL A   1      43.472  27.059  32.059  1.00  0.00     0.059 A 
ATOM     77  F   UNL A   1      43.034  28.383  30.251  1.00  0.00    -0.206 F 
ATOM     78  C   UNL A   1      43.478  26.848  33.425  1.00  0.00     0.060 A 
BRANCH  78  79
ATOM     79  S   UNL A   1      44.448  25.501  34.115  1.00  0.00     0.124 S 
ATOM     80  O   UNL A   1      45.694  26.184  34.444  1.00  0.00    -0.237 OA
ATOM     81  O   UNL A   1      43.625  25.086  35.244  1.00  0.00    -0.237 OA
ATOM     82  O   UNL A   1      44.522  24.544  33.014  1.00  0.00    -0.744 OA
ENDBRANCH  78  79
ENDBRANCH  57  71
BRANCH  58  83
ATOM     83  C   UNL A   1      38.373  33.119  38.901  1.00  0.00     0.058 A 
ATOM     84  C   UNL A   1      37.173  32.798  39.564  1.00  0.00     0.135 A 
ATOM     85  C   UNL A   1      39.552  32.993  39.665  1.00  0.00     0.135 A 
ATOM     86  F   UNL A   1      36.004  32.873  38.912  1.00  0.00    -0.206 F 
ATOM     87  C   UNL A   1      37.149  32.324  40.881  1.00  0.00     0.059 A 
ATOM     88  C   UNL A   1      39.551  32.533  40.982  1.00  0.00     0.059 A 
ATOM     89  F   UNL A   1      40.758  33.223  39.127  1.00  0.00    -0.206 F 
ATOM     90  C   UNL A   1      38.349  32.171  41.575  1.00  0.00     0.060 A 
BRANCH  90  91
ATOM     91  S   UNL A   1      38.346  31.381  43.201  1.00  0.00     0.124 S 
ATOM     92  O   UNL A   1      39.045  32.367  44.018  1.00  0.00    -0.237 OA
ATOM     93  O   UNL A   1      36.920  31.226  43.468  1.00  0.00    -0.237 OA
ATOM     94  O   UNL A   1      39.072  30.133  42.973  1.00  0.00    -0.744 OA
ENDBRANCH  90  91
ENDBRANCH  58  83
BRANCH  70  95
ATOM     95  C   UNL A   1      36.500  32.947  32.812  1.00  0.00     0.058 A 
ATOM     96  C   UNL A   1      36.650  34.329  33.023  1.00  0.00     0.135 A 
ATOM     97  C   UNL A   1      35.362  32.528  32.106  1.00  0.00     0.135 A 
ATOM     98  F   UNL A   1      37.755  34.825  33.596  1.00  0.00    -0.206 F 
ATOM     99  C   UNL A   1      35.690  35.249  32.588  1.00  0.00     0.059 A 
ATOM    100  C   UNL A   1      34.410  33.428  31.635  1.00  0.00     0.059 A 
ATOM    101  F   UNL A   1      35.190  31.227  31.818  1.00  0.00    -0.206 F 
ATOM    102  C   UNL A   1      34.572  34.787  31.892  1.00  0.00     0.060 A 
BRANCH 102 103
ATOM    103  S   UNL A   1      33.367  35.977  31.265  1.00  0.00     0.124 S 
ATOM    104  O   UNL A   1      33.473  35.789  29.822  1.00  0.00    -0.237 OA
ATOM    105  O   UNL A   1      32.122  35.519  31.875  1.00  0.00    -0.237 OA
ATOM    106  O   UNL A   1      33.859  37.258  31.764  1.00  0.00    -0.744 OA
ENDBRANCH 102 103
ENDBRANCH  70  95
ENDBRANCH  44  45
ENDBRANCH  37  39
ENDBRANCH  36  37
ENDBRANCH  35  36
ENDBRANCH  34  35
ENDBRANCH  33  34
ENDBRANCH  32  33
ENDBRANCH  31  32
ENDBRANCH   1  31
TORSDOF 27
ENDMDL
MODEL 2
REMARK VINA RESULT:      -8.1      5.579     12.315
REMARK SMILES CC1=C[C@@H]([C@@H]2N=N[C@H](S)N2/N=C/c2ccc(C(=O)OCCOCCOCCOCCOC(=O)c3ccc(-c4c5nc(c(-c6c(F)cc(S(=O)(=O)[O-])cc6F)c6ccc([nH]6)c(-c6c(F)cc(S(=O)(=O)[O-])cc6F)c6nc(c(-c7c(F)cc(S(=O)(=O)[O-])cc7F)c7ccc4[nH]7)C=C6)C=C5)cc3)cc2)N=N1
REMARK SMILES IDX 25 1 24 2 23 3 22 4 21 5 20 6 19 7 17 8 18 9 16 10 13 11
REMARK SMILES IDX 14 12 101 13 15 14 100 15 12 16 11 17 10 18 5 19 6 20 7 21
REMARK SMILES IDX 8 22 4 23 1 24 2 25 3 26 103 27 102 28 9 29 26 31 27 32
REMARK SMILES IDX 28 33 29 34 30 35 31 36 32 37 33 38 34 39 35 40 99 41 36 42
REMARK SMILES IDX 98 43 37 44 38 45 39 46 92 47 40 48 97 49 91 50 93 51 41 52
REMARK SMILES IDX 96 53 90 54 89 55 42 57 76 58 55 59 75 60 56 61 59 62 74 63
REMARK SMILES IDX 94 64 57 65 58 66 73 68 95 69 60 70 43 71 44 72 53 73 45 74
REMARK SMILES IDX 46 75 52 76 54 77 47 78 48 79 49 80 50 81 51 82 77 83 78 84
REMARK SMILES IDX 87 85 79 86 80 87 86 88 88 89 81 90 82 91 83 92 84 93 85 94
REMARK SMILES IDX 61 95 62 96 71 97 63 98 64 99 70 100 72 101 65 102 66 103
REMARK SMILES IDX 67 104 68 105 69 106
REMARK H PARENT 9 30 93 56 59 67
REMARK Flexibility Score: inf
ROOT
ATOM      1  O   UNL A   1      49.032  23.469  38.462  1.00  0.00    -0.377 OA
ENDROOT
BRANCH   1   2
ATOM      2  C   UNL A   1      48.373  23.082  37.271  1.00  0.00     0.188 C 
BRANCH   2   3
ATOM      3  C   UNL A   1      47.655  21.718  37.368  1.00  0.00     0.188 C 
BRANCH   3   4
ATOM      4  O   UNL A   1      46.886  21.208  36.290  1.00  0.00    -0.376 OA
BRANCH   4   5
ATOM      5  C   UNL A   1      46.602  21.958  35.122  1.00  0.00     0.202 C 
BRANCH   5   6
ATOM      6  C   UNL A   1      45.535  23.065  35.027  1.00  0.00     0.261 C 
BRANCH   6   7
ATOM      7  O   UNL A   1      44.631  23.207  36.120  1.00  0.00    -0.460 OA
BRANCH   7   8
ATOM      8  C   UNL A   1      44.587  24.433  36.680  1.00  0.00     0.338 C 
ATOM      9  O   UNL A   1      45.264  24.848  37.605  1.00  0.00    -0.246 OA
BRANCH   8  10
ATOM     10  C   UNL A   1      43.699  25.289  35.863  1.00  0.00     0.060 A 
ATOM     11  C   UNL A   1      42.117  27.012  34.375  1.00  0.00    -0.005 A 
ATOM     12  C   UNL A   1      43.500  27.194  34.380  1.00  0.00     0.010 A 
ATOM     13  C   UNL A   1      41.525  25.938  35.048  1.00  0.00     0.010 A 
ATOM     14  C   UNL A   1      44.290  26.342  35.148  1.00  0.00     0.016 A 
ATOM     15  C   UNL A   1      42.323  25.057  35.778  1.00  0.00     0.016 A 
BRANCH  11  16
ATOM     16  C   UNL A   1      41.286  28.037  33.725  1.00  0.00     0.141 C 
ATOM     17  N   UNL A   1      40.021  27.829  33.562  1.00  0.00    -0.180 NA
BRANCH  17  18
ATOM     18  N   UNL A   1      39.269  28.814  33.010  1.00  0.00    -0.233 NA
ATOM     19  C   UNL A   1      38.034  28.414  32.322  1.00  0.00     0.274 C 
ATOM     20  N   UNL A   1      37.028  29.491  32.509  1.00  0.00    -0.161 NA
ATOM     21  N   UNL A   1      37.486  30.392  33.250  1.00  0.00    -0.153 NA
ATOM     22  C   UNL A   1      38.881  30.086  33.628  1.00  0.00     0.298 C 
BRANCH  19  23
ATOM     23  C   UNL A   1      38.282  28.128  30.820  1.00  0.00     0.201 C 
ATOM     24  C   UNL A   1      41.190  29.720  29.183  1.00  0.00     0.068 C 
ATOM     25  C   UNL A   1      39.893  29.199  29.682  1.00  0.00     0.058 C 
ATOM     26  C   UNL A   1      39.722  28.117  30.436  1.00  0.00     0.031 C 
ATOM     27  N   UNL A   1      38.714  29.847  29.415  1.00  0.00    -0.160 NA
ATOM     28  N   UNL A   1      37.753  29.252  29.988  1.00  0.00    -0.177 NA
ENDBRANCH  19  23
BRANCH  22  29
ATOM     29  S   UNL A   1      40.060  31.402  33.142  1.00  0.00    -0.128 SA
ATOM     30  H   UNL A   1      39.964  32.442  34.013  1.00  0.00     0.106 HD
ENDBRANCH  22  29
ENDBRANCH  17  18
ENDBRANCH  11  16
ENDBRANCH   8  10
ENDBRANCH   7   8
ENDBRANCH   6   7
ENDBRANCH   5   6
ENDBRANCH   4   5
ENDBRANCH   3   4
ENDBRANCH   2   3
ENDBRANCH   1   2
BRANCH   1  31
ATOM     31  C   UNL A   1      49.453  24.830  38.550  1.00  0.00     0.188 C 
BRANCH  31  32
ATOM     32  C   UNL A   1      48.525  25.958  38.026  1.00  0.00     0.188 C 
BRANCH  32  33
ATOM     33  O   UNL A   1      49.158  27.219  37.861  1.00  0.00    -0.376 OA
BRANCH  33  34
ATOM     34  C   UNL A   1      50.549  27.399  38.048  1.00  0.00     0.202 C 
BRANCH  34  35
ATOM     35  C   UNL A   1      51.443  27.358  36.815  1.00  0.00     0.261 C 
BRANCH  35  36
ATOM     36  O   UNL A   1      50.754  27.037  35.625  1.00  0.00    -0.460 OA
BRANCH  36  37
ATOM     37  C   UNL A   1      51.000  25.808  35.148  1.00  0.00     0.338 C 
ATOM     38  O   UNL A   1      51.362  24.824  35.792  1.00  0.00    -0.246 OA
BRANCH  37  39
ATOM     39  C   UNL A   1      50.913  25.867  33.692  1.00  0.00     0.060 A 
ATOM     40  C   UNL A   1      50.815  27.141  33.141  1.00  0.00     0.016 A 
ATOM     41  C   UNL A   1      50.552  24.704  32.987  1.00  0.00     0.016 A 
ATOM     42  C   UNL A   1      50.074  27.274  31.996  1.00  0.00     0.010 A 
ATOM     43  C   UNL A   1      49.801  24.841  31.852  1.00  0.00     0.010 A 
ATOM     44  C   UNL A   1      49.485  26.129  31.442  1.00  0.00    -0.014 A 
BRANCH  44  45
ATOM     45  C   UNL A   1      48.570  26.325  30.348  1.00  0.00     0.031 A 
ATOM     46  C   UNL A   1      49.279  26.670  29.102  1.00  0.00     0.074 A 
ATOM     47  C   UNL A   1      47.242  26.157  30.471  1.00  0.00     0.049 A 
ATOM     48  N   UNL A   1      49.331  27.824  28.530  1.00  0.00    -0.248 NA
ATOM     49  C   UNL A   1      50.229  25.683  28.565  1.00  0.00     0.031 C 
ATOM     50  C   UNL A   1      46.487  25.574  31.584  1.00  0.00     0.029 A 
ATOM     51  N   UNL A   1      46.278  26.409  29.552  1.00  0.00    -0.354 N 
ATOM     52  C   UNL A   1      50.121  27.635  27.406  1.00  0.00     0.074 A 
ATOM     53  C   UNL A   1      50.818  26.391  27.603  1.00  0.00     0.031 C 
ATOM     54  C   UNL A   1      45.225  25.308  31.170  1.00  0.00     0.029 A 
ATOM     55  C   UNL A   1      45.052  25.820  29.821  1.00  0.00     0.049 A 
ATOM     56  H   UNL A   1      46.436  26.967  28.756  1.00  0.00     0.167 HD
ATOM     57  C   UNL A   1      49.909  28.366  26.282  1.00  0.00     0.037 A 
ATOM     58  C   UNL A   1      44.022  25.704  28.943  1.00  0.00     0.037 A 
ATOM     59  C   UNL A   1      49.166  29.568  26.571  1.00  0.00     0.049 A 
ATOM     60  C   UNL A   1      44.240  26.731  27.884  1.00  0.00     0.074 A 
ATOM     61  C   UNL A   1      49.377  30.652  27.401  1.00  0.00     0.029 A 
ATOM     62  N   UNL A   1      47.826  29.585  26.265  1.00  0.00    -0.354 N 
ATOM     63  N   UNL A   1      44.174  28.018  28.101  1.00  0.00    -0.248 NA
ATOM     64  C   UNL A   1      45.006  26.340  26.709  1.00  0.00     0.031 C 
ATOM     65  C   UNL A   1      48.091  30.973  27.928  1.00  0.00     0.029 A 
ATOM     66  C   UNL A   1      47.161  30.113  27.343  1.00  0.00     0.049 A 
ATOM     67  H   UNL A   1      47.417  29.275  25.425  1.00  0.00     0.167 HD
ATOM     68  C   UNL A   1      45.216  28.560  27.361  1.00  0.00     0.074 A 
ATOM     69  C   UNL A   1      45.645  27.488  26.465  1.00  0.00     0.031 C 
ATOM     70  C   UNL A   1      45.823  29.726  27.737  1.00  0.00     0.037 A 
BRANCH  57  71
ATOM     71  C   UNL A   1      50.020  27.780  24.897  1.00  0.00     0.058 A 
ATOM     72  C   UNL A   1      50.906  28.367  23.976  1.00  0.00     0.135 A 
ATOM     73  C   UNL A   1      49.098  26.852  24.355  1.00  0.00     0.135 A 
ATOM     74  F   UNL A   1      51.811  29.272  24.380  1.00  0.00    -0.206 F 
ATOM     75  C   UNL A   1      50.836  28.105  22.607  1.00  0.00     0.059 A 
ATOM     76  C   UNL A   1      49.052  26.533  23.007  1.00  0.00     0.059 A 
ATOM     77  F   UNL A   1      48.131  26.285  25.082  1.00  0.00    -0.206 F 
ATOM     78  C   UNL A   1      49.893  27.195  22.134  1.00  0.00     0.060 A 
BRANCH  78  79
ATOM     79  S   UNL A   1      49.728  26.931  20.363  1.00  0.00     0.124 S 
ATOM     80  O   UNL A   1      48.285  27.055  20.188  1.00  0.00    -0.237 OA
ATOM     81  O   UNL A   1      50.537  28.016  19.821  1.00  0.00    -0.237 OA
ATOM     82  O   UNL A   1      50.277  25.591  20.172  1.00  0.00    -0.744 OA
ENDBRANCH  78  79
ENDBRANCH  57  71
BRANCH  58  83
ATOM     83  C   UNL A   1      43.127  24.528  28.742  1.00  0.00     0.058 A 
ATOM     84  C   UNL A   1      41.780  24.700  28.374  1.00  0.00     0.135 A 
ATOM     85  C   UNL A   1      43.639  23.220  28.614  1.00  0.00     0.135 A 
ATOM     86  F   UNL A   1      41.212  25.913  28.447  1.00  0.00    -0.206 F 
ATOM     87  C   UNL A   1      41.005  23.654  27.857  1.00  0.00     0.059 A 
ATOM     88  C   UNL A   1      42.884  22.161  28.111  1.00  0.00     0.059 A 
ATOM     89  F   UNL A   1      44.923  22.945  28.887  1.00  0.00    -0.206 F 
ATOM     90  C   UNL A   1      41.576  22.391  27.706  1.00  0.00     0.060 A 
BRANCH  90  91
ATOM     91  S   UNL A   1      40.649  21.087  26.862  1.00  0.00     0.124 S 
ATOM     92  O   UNL A   1      39.394  21.762  26.551  1.00  0.00    -0.237 OA
ATOM     93  O   UNL A   1      41.509  20.783  25.724  1.00  0.00    -0.237 OA
ATOM     94  O   UNL A   1      40.558  20.032  27.869  1.00  0.00    -0.744 OA
ENDBRANCH  90  91
ENDBRANCH  58  83
BRANCH  70  95
ATOM     95  C   UNL A   1      45.158  30.569  28.797  1.00  0.00     0.058 A 
ATOM     96  C   UNL A   1      45.382  30.440  30.179  1.00  0.00     0.135 A 
ATOM     97  C   UNL A   1      44.378  31.657  28.375  1.00  0.00     0.135 A 
ATOM     98  F   UNL A   1      46.198  29.492  30.661  1.00  0.00    -0.206 F 
ATOM     99  C   UNL A   1      44.820  31.328  31.102  1.00  0.00     0.059 A 
ATOM    100  C   UNL A   1      43.836  32.572  29.274  1.00  0.00     0.059 A 
ATOM    101  F   UNL A   1      44.177  31.872  27.065  1.00  0.00    -0.206 F 
ATOM    102  C   UNL A   1      44.049  32.393  30.638  1.00  0.00     0.060 A 
BRANCH 102 103
ATOM    103  S   UNL A   1      43.382  33.585  31.821  1.00  0.00     0.124 S 
ATOM    104  O   UNL A   1      43.396  32.822  33.065  1.00  0.00    -0.237 OA
ATOM    105  O   UNL A   1      44.341  34.683  31.740  1.00  0.00    -0.237 OA
ATOM    106  O   UNL A   1      42.056  33.888  31.291  1.00  0.00    -0.744 OA
ENDBRANCH 102 103
ENDBRANCH  70  95
ENDBRANCH  44  45
ENDBRANCH  37  39
ENDBRANCH  36  37
ENDBRANCH  35  36
ENDBRANCH  34  35
ENDBRANCH  33  34
ENDBRANCH  32  33
ENDBRANCH  31  32
ENDBRANCH   1  31
TORSDOF 27
ENDMDL
MODEL 3
REMARK VINA RESULT:      -8.0      6.328     12.597
REMARK SMILES CC1=C[C@@H]([C@@H]2N=N[C@H](S)N2/N=C/c2ccc(C(=O)OCCOCCOCCOCCOC(=O)c3ccc(-c4c5nc(c(-c6c(F)cc(S(=O)(=O)[O-])cc6F)c6ccc([nH]6)c(-c6c(F)cc(S(=O)(=O)[O-])cc6F)c6nc(c(-c7c(F)cc(S(=O)(=O)[O-])cc7F)c7ccc4[nH]7)C=C6)C=C5)cc3)cc2)N=N1
REMARK SMILES IDX 25 1 24 2 23 3 22 4 21 5 20 6 19 7 17 8 18 9 16 10 13 11
REMARK SMILES IDX 14 12 101 13 15 14 100 15 12 16 11 17 10 18 5 19 6 20 7 21
REMARK SMILES IDX 8 22 4 23 1 24 2 25 3 26 103 27 102 28 9 29 26 31 27 32
REMARK SMILES IDX 28 33 29 34 30 35 31 36 32 37 33 38 34 39 35 40 99 41 36 42
REMARK SMILES IDX 98 43 37 44 38 45 39 46 92 47 40 48 97 49 91 50 93 51 41 52
REMARK SMILES IDX 96 53 90 54 89 55 42 57 76 58 55 59 75 60 56 61 59 62 74 63
REMARK SMILES IDX 94 64 57 65 58 66 73 68 95 69 60 70 43 71 44 72 53 73 45 74
REMARK SMILES IDX 46 75 52 76 54 77 47 78 48 79 49 80 50 81 51 82 77 83 78 84
REMARK SMILES IDX 87 85 79 86 80 87 86 88 88 89 81 90 82 91 83 92 84 93 85 94
REMARK SMILES IDX 61 95 62 96 71 97 63 98 64 99 70 100 72 101 65 102 66 103
REMARK SMILES IDX 67 104 68 105 69 106
REMARK H PARENT 9 30 93 56 59 67
REMARK Flexibility Score: inf
ROOT
ATOM      1  O   UNL A   1      41.745  33.353  32.559  1.00  0.00    -0.377 OA
ENDROOT
BRANCH   1   2
ATOM      2  C   UNL A   1      40.875  33.455  33.672  1.00  0.00     0.188 C 
BRANCH   2   3
ATOM      3  C   UNL A   1      39.425  33.010  33.375  1.00  0.00     0.188 C 
BRANCH   3   4
ATOM      4  O   UNL A   1      39.141  32.002  32.419  1.00  0.00    -0.376 OA
BRANCH   4   5
ATOM      5  C   UNL A   1      38.057  32.085  31.510  1.00  0.00     0.202 C 
BRANCH   5   6
ATOM      6  C   UNL A   1      38.160  32.610  30.066  1.00  0.00     0.261 C 
BRANCH   6   7
ATOM      7  O   UNL A   1      37.419  31.924  29.059  1.00  0.00    -0.460 OA
BRANCH   7   8
ATOM      8  C   UNL A   1      36.114  32.252  28.975  1.00  0.00     0.338 C 
ATOM      9  O   UNL A   1      35.583  33.280  29.358  1.00  0.00    -0.246 OA
BRANCH   8  10
ATOM     10  C   UNL A   1      35.428  31.229  28.155  1.00  0.00     0.060 A 
ATOM     11  C   UNL A   1      34.018  29.334  26.702  1.00  0.00    -0.005 A 
ATOM     12  C   UNL A   1      33.386  30.524  27.060  1.00  0.00     0.010 A 
ATOM     13  C   UNL A   1      35.367  29.112  27.002  1.00  0.00     0.010 A 
ATOM     14  C   UNL A   1      34.088  31.464  27.811  1.00  0.00     0.016 A 
ATOM     15  C   UNL A   1      36.083  30.075  27.713  1.00  0.00     0.016 A 
BRANCH  11  16
ATOM     16  C   UNL A   1      33.204  28.275  26.088  1.00  0.00     0.141 C 
ATOM     17  N   UNL A   1      32.798  27.279  26.806  1.00  0.00    -0.180 NA
BRANCH  17  18
ATOM     18  N   UNL A   1      32.003  26.346  26.227  1.00  0.00    -0.233 NA
ATOM     19  C   UNL A   1      32.143  24.959  26.692  1.00  0.00     0.274 C 
ATOM     20  N   UNL A   1      30.811  24.306  26.615  1.00  0.00    -0.161 NA
ATOM     21  N   UNL A   1      29.941  25.131  26.248  1.00  0.00    -0.153 NA
ATOM     22  C   UNL A   1      30.562  26.442  25.971  1.00  0.00     0.298 C 
BRANCH  19  23
ATOM     23  C   UNL A   1      33.201  24.182  25.868  1.00  0.00     0.201 C 
ATOM     24  C   UNL A   1      32.634  20.587  25.220  1.00  0.00     0.068 C 
ATOM     25  C   UNL A   1      33.058  21.960  25.591  1.00  0.00     0.058 C 
ATOM     26  C   UNL A   1      32.632  23.088  25.031  1.00  0.00     0.031 C 
ATOM     27  N   UNL A   1      33.945  22.182  26.614  1.00  0.00    -0.160 NA
ATOM     28  N   UNL A   1      34.111  23.426  26.782  1.00  0.00    -0.177 NA
ENDBRANCH  19  23
BRANCH  22  29
ATOM     29  S   UNL A   1      30.269  27.028  24.260  1.00  0.00    -0.128 SA
ATOM     30  H   UNL A   1      29.166  26.415  23.753  1.00  0.00     0.106 HD
ENDBRANCH  22  29
ENDBRANCH  17  18
ENDBRANCH  11  16
ENDBRANCH   8  10
ENDBRANCH   7   8
ENDBRANCH   6   7
ENDBRANCH   5   6
ENDBRANCH   4   5
ENDBRANCH   3   4
ENDBRANCH   2   3
ENDBRANCH   1   2
BRANCH   1  31
ATOM     31  C   UNL A   1      42.789  32.385  32.648  1.00  0.00     0.188 C 
BRANCH  31  32
ATOM     32  C   UNL A   1      43.646  32.291  33.939  1.00  0.00     0.188 C 
BRANCH  32  33
ATOM     33  O   UNL A   1      44.048  33.543  34.477  1.00  0.00    -0.376 OA
BRANCH  33  34
ATOM     34  C   UNL A   1      44.237  33.746  35.865  1.00  0.00     0.202 C 
BRANCH  34  35
ATOM     35  C   UNL A   1      44.651  35.136  36.331  1.00  0.00     0.261 C 
BRANCH  35  36
ATOM     36  O   UNL A   1      43.591  36.069  36.346  1.00  0.00    -0.460 OA
BRANCH  36  37
ATOM     37  C   UNL A   1      43.968  37.342  36.536  1.00  0.00     0.338 C 
ATOM     38  O   UNL A   1      44.171  37.900  37.614  1.00  0.00    -0.246 OA
BRANCH  37  39
ATOM     39  C   UNL A   1      43.948  38.012  35.239  1.00  0.00     0.060 A 
ATOM     40  C   UNL A   1      43.084  37.473  34.291  1.00  0.00     0.016 A 
ATOM     41  C   UNL A   1      45.018  38.859  34.898  1.00  0.00     0.016 A 
ATOM     42  C   UNL A   1      43.474  37.540  32.979  1.00  0.00     0.010 A 
ATOM     43  C   UNL A   1      45.412  38.913  33.590  1.00  0.00     0.010 A 
ATOM     44  C   UNL A   1      44.693  38.161  32.671  1.00  0.00    -0.014 A 
BRANCH  44  45
ATOM     45  C   UNL A   1      45.158  38.058  31.313  1.00  0.00     0.031 A 
ATOM     46  C   UNL A   1      44.302  38.821  30.386  1.00  0.00     0.074 A 
ATOM     47  C   UNL A   1      46.269  37.381  30.973  1.00  0.00     0.049 A 
ATOM     48  N   UNL A   1      43.454  38.345  29.539  1.00  0.00    -0.248 NA
ATOM     49  C   UNL A   1      44.205  40.274  30.592  1.00  0.00     0.031 C 
ATOM     50  C   UNL A   1      47.305  36.819  31.843  1.00  0.00     0.029 A 
ATOM     51  N   UNL A   1      46.747  37.128  29.730  1.00  0.00    -0.354 N 
ATOM     52  C   UNL A   1      42.901  39.457  28.920  1.00  0.00     0.074 A 
ATOM     53  C   UNL A   1      43.220  40.587  29.751  1.00  0.00     0.031 C 
ATOM     54  C   UNL A   1      48.390  36.507  31.094  1.00  0.00     0.029 A 
ATOM     55  C   UNL A   1      48.073  36.722  29.691  1.00  0.00     0.049 A 
ATOM     56  H   UNL A   1      46.197  37.224  28.920  1.00  0.00     0.167 HD
ATOM     57  C   UNL A   1      42.486  39.393  27.629  1.00  0.00     0.037 A 
ATOM     58  C   UNL A   1      48.848  36.662  28.577  1.00  0.00     0.037 A 
ATOM     59  C   UNL A   1      42.267  38.028  27.216  1.00  0.00     0.049 A 
ATOM     60  C   UNL A   1      47.921  36.602  27.410  1.00  0.00     0.074 A 
ATOM     61  C   UNL A   1      41.459  37.003  27.671  1.00  0.00     0.029 A 
ATOM     62  N   UNL A   1      43.231  37.428  26.440  1.00  0.00    -0.354 N 
ATOM     63  N   UNL A   1      47.136  35.587  27.162  1.00  0.00    -0.248 NA
ATOM     64  C   UNL A   1      47.516  37.861  26.802  1.00  0.00     0.031 C 
ATOM     65  C   UNL A   1      42.247  35.822  27.542  1.00  0.00     0.029 A 
ATOM     66  C   UNL A   1      43.463  36.178  26.959  1.00  0.00     0.049 A 
ATOM     67  H   UNL A   1      43.674  37.823  25.655  1.00  0.00     0.167 HD
ATOM     68  C   UNL A   1      45.941  36.153  26.738  1.00  0.00     0.074 A 
ATOM     69  C   UNL A   1      46.260  37.553  26.464  1.00  0.00     0.031 C 
ATOM     70  C   UNL A   1      44.748  35.513  26.921  1.00  0.00     0.037 A 
BRANCH  57  71
ATOM     71  C   UNL A   1      42.680  40.526  26.654  1.00  0.00     0.058 A 
ATOM     72  C   UNL A   1      41.600  40.928  25.849  1.00  0.00     0.135 A 
ATOM     73  C   UNL A   1      43.946  41.040  26.282  1.00  0.00     0.135 A 
ATOM     74  F   UNL A   1      40.358  40.487  26.103  1.00  0.00    -0.206 F 
ATOM     75  C   UNL A   1      41.773  41.725  24.717  1.00  0.00     0.059 A 
ATOM     76  C   UNL A   1      44.131  41.882  25.197  1.00  0.00     0.059 A 
ATOM     77  F   UNL A   1      45.082  40.675  26.887  1.00  0.00    -0.206 F 
ATOM     78  C   UNL A   1      43.048  42.184  24.394  1.00  0.00     0.060 A 
BRANCH  78  79
ATOM     79  S   UNL A   1      43.294  43.125  22.882  1.00  0.00     0.124 S 
ATOM     80  O   UNL A   1      44.269  42.296  22.183  1.00  0.00    -0.237 OA
ATOM     81  O   UNL A   1      41.949  43.148  22.320  1.00  0.00    -0.237 OA
ATOM     82  O   UNL A   1      43.788  44.412  23.365  1.00  0.00    -0.744 OA
ENDBRANCH  78  79
ENDBRANCH  57  71
BRANCH  58  83
ATOM     83  C   UNL A   1      50.276  37.065  28.441  1.00  0.00     0.058 A 
ATOM     84  C   UNL A   1      51.312  36.130  28.625  1.00  0.00     0.135 A 
ATOM     85  C   UNL A   1      50.649  38.288  27.844  1.00  0.00     0.135 A 
ATOM     86  F   UNL A   1      51.049  34.934  29.171  1.00  0.00    -0.206 F 
ATOM     87  C   UNL A   1      52.622  36.368  28.190  1.00  0.00     0.059 A 
ATOM     88  C   UNL A   1      51.948  38.550  27.412  1.00  0.00     0.059 A 
ATOM     89  F   UNL A   1      49.740  39.235  27.573  1.00  0.00    -0.206 F 
ATOM     90  C   UNL A   1      52.925  37.574  27.560  1.00  0.00     0.060 A 
BRANCH  90  91
ATOM     91  S   UNL A   1      54.559  37.812  26.824  1.00  0.00     0.124 S 
ATOM     92  O   UNL A   1      55.428  37.757  27.994  1.00  0.00    -0.237 OA
ATOM     93  O   UNL A   1      54.652  36.683  25.906  1.00  0.00    -0.237 OA
ATOM     94  O   UNL A   1      54.455  39.122  26.186  1.00  0.00    -0.744 OA
ENDBRANCH  90  91
ENDBRANCH  58  83
BRANCH  70  95
ATOM     95  C   UNL A   1      44.769  34.059  27.322  1.00  0.00     0.058 A 
ATOM     96  C   UNL A   1      44.835  32.981  26.421  1.00  0.00     0.135 A 
ATOM     97  C   UNL A   1      44.883  33.757  28.688  1.00  0.00     0.135 A 
ATOM     98  F   UNL A   1      44.838  33.187  25.097  1.00  0.00    -0.206 F 
ATOM     99  C   UNL A   1      44.966  31.660  26.862  1.00  0.00     0.059 A 
ATOM    100  C   UNL A   1      45.047  32.454  29.148  1.00  0.00     0.059 A 
ATOM    101  F   UNL A   1      44.890  34.747  29.597  1.00  0.00    -0.206 F 
ATOM    102  C   UNL A   1      45.073  31.407  28.230  1.00  0.00     0.060 A 
BRANCH 102 103
ATOM    103  S   UNL A   1      45.316  29.710  28.799  1.00  0.00     0.124 S 
ATOM    104  O   UNL A   1      46.520  29.830  29.615  1.00  0.00    -0.237 OA
ATOM    105  O   UNL A   1      44.080  29.440  29.527  1.00  0.00    -0.237 OA
ATOM    106  O   UNL A   1      45.476  28.953  27.560  1.00  0.00    -0.744 OA
ENDBRANCH 102 103
ENDBRANCH  70  95
ENDBRANCH  44  45
ENDBRANCH  37  39
ENDBRANCH  36  37
ENDBRANCH  35  36
ENDBRANCH  34  35
ENDBRANCH  33  34
ENDBRANCH  32  33
ENDBRANCH  31  32
ENDBRANCH   1  31
TORSDOF 27
ENDMDL
