MODEL 1
REMARK VINA RESULT:     -10.2      0.000      0.000
REMARK SMILES Nc1ncccc1C[N@@H+]1CC2(CC[NH2+]CC2)C[C@H]1C(=O)OCCOCCOCCOCCOC(=O)c1ccc(-c2c3nc(c(-c4c(F)cc(S(=O)(=O)[O-])cc4F)c4ccc([nH]4)c(-c4c(F)cc(S(=O)(=O)[O-])cc4F)c4nc(c(-c5c(F)cc(S(=O)(=O)[O-])cc5F)c5ccc2[nH]5)C=C4)C=C3)cc1
REMARK SMILES IDX 27 1 26 2 25 3 24 4 23 5 22 6 21 7 19 8 20 9 18 10 9 11
REMARK SMILES IDX 10 12 11 14 17 15 12 16 16 17 13 18 15 19 14 20 8 23 7 24
REMARK SMILES IDX 2 25 3 26 4 27 6 28 5 29 1 30 28 33 29 34 30 35 31 36 32 37
REMARK SMILES IDX 33 38 34 39 35 40 36 41 37 42 101 43 38 44 100 45 39 46
REMARK SMILES IDX 40 47 41 48 94 49 42 50 99 51 93 52 95 53 43 54 98 55 92 56
REMARK SMILES IDX 91 57 44 59 78 60 57 61 77 62 58 63 61 64 76 65 96 66 59 67
REMARK SMILES IDX 60 68 75 70 97 71 62 72 45 73 46 74 55 75 47 76 48 77 54 78
REMARK SMILES IDX 56 79 49 80 50 81 51 82 52 83 53 84 79 85 80 86 89 87 81 88
REMARK SMILES IDX 82 89 88 90 90 91 83 92 84 93 85 94 86 95 87 96 63 97 64 98
REMARK SMILES IDX 73 99 65 100 66 101 72 102 74 103 67 104 68 105 69 106
REMARK SMILES IDX 70 107 71 108
REMARK H PARENT 9 13 14 21 14 22 1 31 1 32 95 58 61 69
REMARK Flexibility Score: inf
ROOT
ATOM      1  O   UNL A   1      34.317  32.765  27.618  1.00  0.00    -0.377 OA
ENDROOT
BRANCH   1   2
ATOM      2  C   UNL A   1      34.425  31.356  27.653  1.00  0.00     0.188 C 
BRANCH   2   3
ATOM      3  C   UNL A   1      33.156  30.617  27.195  1.00  0.00     0.188 C 
BRANCH   3   4
ATOM      4  O   UNL A   1      33.108  29.197  27.168  1.00  0.00    -0.376 OA
BRANCH   4   5
ATOM      5  C   UNL A   1      31.934  28.481  27.522  1.00  0.00     0.202 C 
BRANCH   5   6
ATOM      6  C   UNL A   1      31.292  27.398  26.639  1.00  0.00     0.261 C 
BRANCH   6   7
ATOM      7  O   UNL A   1      31.499  26.039  27.023  1.00  0.00    -0.459 OA
BRANCH   7   8
ATOM      8  C   UNL A   1      30.891  25.103  26.258  1.00  0.00     0.365 C 
ATOM      9  O   UNL A   1      29.881  24.492  26.596  1.00  0.00    -0.245 OA
BRANCH   8  10
ATOM     10  C   UNL A   1      31.618  24.813  24.938  1.00  0.00     0.296 C 
ATOM     11  N   UNL A   1      33.045  25.193  24.885  1.00  0.00    -0.319 N 
ATOM     12  C   UNL A   1      33.853  24.042  25.297  1.00  0.00     0.270 C 
ATOM     13  H   UNL A   1      33.186  25.945  25.559  1.00  0.00     0.349 HD
ATOM     14  C   UNL A   1      32.964  22.782  25.199  1.00  0.00     0.036 C 
ATOM     15  C   UNL A   1      31.604  23.313  24.696  1.00  0.00     0.091 C 
ATOM     16  C   UNL A   1      32.822  22.073  26.569  1.00  0.00     0.074 C 
ATOM     17  C   UNL A   1      33.516  21.739  24.205  1.00  0.00     0.074 C 
ATOM     18  C   UNL A   1      34.095  21.326  26.987  1.00  0.00     0.261 C 
ATOM     19  C   UNL A   1      34.791  21.070  24.697  1.00  0.00     0.261 C 
ATOM     20  N   UNL A   1      34.553  20.389  25.961  1.00  0.00    -0.346 N 
ATOM     21  H   UNL A   1      33.841  19.671  25.822  1.00  0.00     0.346 HD
ATOM     22  H   UNL A   1      35.430  19.971  26.272  1.00  0.00     0.346 HD
BRANCH  11  23
ATOM     23  C   UNL A   1      33.506  25.916  23.680  1.00  0.00     0.303 C 
BRANCH  23  24
ATOM     24  C   UNL A   1      32.642  27.069  23.225  1.00  0.00     0.048 A 
ATOM     25  C   UNL A   1      32.849  28.376  23.665  1.00  0.00     0.132 A 
ATOM     26  N   UNL A   1      31.887  29.316  23.627  1.00  0.00    -0.239 NA
ATOM     27  C   UNL A   1      30.709  28.980  23.061  1.00  0.00     0.113 A 
ATOM     28  C   UNL A   1      31.493  26.822  22.471  1.00  0.00     0.015 A 
ATOM     29  C   UNL A   1      30.488  27.779  22.418  1.00  0.00     0.021 A 
BRANCH  25  30
ATOM     30  N   UNL A   1      34.052  28.792  24.205  1.00  0.00    -0.383 N 
ATOM     31  H   UNL A   1      34.255  29.753  24.273  1.00  0.00     0.158 HD
ATOM     32  H   UNL A   1      34.706  28.128  24.521  1.00  0.00     0.158 HD
ENDBRANCH  25  30
ENDBRANCH  23  24
ENDBRANCH  11  23
ENDBRANCH   8  10
ENDBRANCH   7   8
ENDBRANCH   6   7
ENDBRANCH   5   6
ENDBRANCH   4   5
ENDBRANCH   3   4
ENDBRANCH   2   3
ENDBRANCH   1   2
BRANCH   1  33
ATOM     33  C   UNL A   1      35.395  33.496  28.181  1.00  0.00     0.188 C 
BRANCH  33  34
ATOM     34  C   UNL A   1      35.118  34.362  29.429  1.00  0.00     0.188 C 
BRANCH  34  35
ATOM     35  O   UNL A   1      34.144  33.825  30.318  1.00  0.00    -0.376 OA
BRANCH  35  36
ATOM     36  C   UNL A   1      34.540  32.803  31.220  1.00  0.00     0.202 C 
BRANCH  36  37
ATOM     37  C   UNL A   1      35.974  32.859  31.773  1.00  0.00     0.261 C 
BRANCH  37  38
ATOM     38  O   UNL A   1      36.948  32.047  31.103  1.00  0.00    -0.460 OA
BRANCH  38  39
ATOM     39  C   UNL A   1      37.117  30.780  31.551  1.00  0.00     0.338 C 
ATOM     40  O   UNL A   1      36.359  30.149  32.252  1.00  0.00    -0.246 OA
BRANCH  39  41
ATOM     41  C   UNL A   1      38.305  30.219  30.867  1.00  0.00     0.060 A 
ATOM     42  C   UNL A   1      39.292  29.590  31.638  1.00  0.00     0.016 A 
ATOM     43  C   UNL A   1      38.443  30.311  29.481  1.00  0.00     0.016 A 
ATOM     44  C   UNL A   1      40.441  29.088  31.028  1.00  0.00     0.010 A 
ATOM     45  C   UNL A   1      39.606  29.829  28.873  1.00  0.00     0.010 A 
ATOM     46  C   UNL A   1      40.626  29.250  29.649  1.00  0.00    -0.014 A 
BRANCH  46  47
ATOM     47  C   UNL A   1      41.967  29.021  29.055  1.00  0.00     0.031 A 
ATOM     48  C   UNL A   1      42.284  27.644  28.533  1.00  0.00     0.074 A 
ATOM     49  C   UNL A   1      42.874  30.010  28.955  1.00  0.00     0.049 A 
ATOM     50  N   UNL A   1      43.396  27.181  28.029  1.00  0.00    -0.248 NA
ATOM     51  C   UNL A   1      41.194  26.656  28.594  1.00  0.00     0.031 C 
ATOM     52  C   UNL A   1      42.667  31.394  29.376  1.00  0.00     0.029 A 
ATOM     53  N   UNL A   1      44.159  29.993  28.473  1.00  0.00    -0.354 N 
ATOM     54  C   UNL A   1      43.144  25.849  27.717  1.00  0.00     0.074 A 
ATOM     55  C   UNL A   1      41.785  25.569  28.123  1.00  0.00     0.031 C 
ATOM     56  C   UNL A   1      43.794  32.092  29.146  1.00  0.00     0.029 A 
ATOM     57  C   UNL A   1      44.811  31.197  28.595  1.00  0.00     0.049 A 
ATOM     58  H   UNL A   1      44.575  29.193  28.076  1.00  0.00     0.167 HD
ATOM     59  C   UNL A   1      43.967  24.946  27.135  1.00  0.00     0.037 A 
ATOM     60  C   UNL A   1      46.089  31.527  28.317  1.00  0.00     0.037 A 
ATOM     61  C   UNL A   1      45.321  25.230  26.740  1.00  0.00     0.049 A 
ATOM     62  C   UNL A   1      47.017  30.478  27.752  1.00  0.00     0.074 A 
ATOM     63  C   UNL A   1      46.238  24.385  26.140  1.00  0.00     0.029 A 
ATOM     64  N   UNL A   1      45.957  26.451  26.912  1.00  0.00    -0.354 N 
ATOM     65  N   UNL A   1      46.763  29.226  27.448  1.00  0.00    -0.248 NA
ATOM     66  C   UNL A   1      48.405  30.886  27.490  1.00  0.00     0.031 C 
ATOM     67  C   UNL A   1      47.444  25.077  26.003  1.00  0.00     0.029 A 
ATOM     68  C   UNL A   1      47.262  26.374  26.453  1.00  0.00     0.049 A 
ATOM     69  H   UNL A   1      45.542  27.255  27.302  1.00  0.00     0.167 HD
ATOM     70  C   UNL A   1      47.946  28.711  26.926  1.00  0.00     0.074 A 
ATOM     71  C   UNL A   1      48.913  29.790  26.947  1.00  0.00     0.031 C 
ATOM     72  C   UNL A   1      48.210  27.461  26.467  1.00  0.00     0.037 A 
BRANCH  59  73
ATOM     73  C   UNL A   1      43.433  23.555  26.918  1.00  0.00     0.058 A 
ATOM     74  C   UNL A   1      43.039  23.103  25.648  1.00  0.00     0.135 A 
ATOM     75  C   UNL A   1      43.342  22.653  27.991  1.00  0.00     0.135 A 
ATOM     76  F   UNL A   1      43.084  23.929  24.591  1.00  0.00    -0.206 F 
ATOM     77  C   UNL A   1      42.549  21.815  25.454  1.00  0.00     0.059 A 
ATOM     78  C   UNL A   1      42.886  21.351  27.814  1.00  0.00     0.059 A 
ATOM     79  F   UNL A   1      43.700  23.034  29.227  1.00  0.00    -0.206 F 
ATOM     80  C   UNL A   1      42.479  20.945  26.544  1.00  0.00     0.060 A 
BRANCH  80  81
ATOM     81  S   UNL A   1      41.849  19.276  26.273  1.00  0.00     0.124 S 
ATOM     82  O   UNL A   1      42.216  18.618  27.523  1.00  0.00    -0.237 OA
ATOM     83  O   UNL A   1      40.422  19.511  26.076  1.00  0.00    -0.237 OA
ATOM     84  O   UNL A   1      42.577  18.824  25.091  1.00  0.00    -0.744 OA
ENDBRANCH  80  81
ENDBRANCH  59  73
BRANCH  60  85
ATOM     85  C   UNL A   1      46.581  32.909  28.579  1.00  0.00     0.058 A 
ATOM     86  C   UNL A   1      47.097  33.270  29.832  1.00  0.00     0.135 A 
ATOM     87  C   UNL A   1      46.525  33.902  27.588  1.00  0.00     0.135 A 
ATOM     88  F   UNL A   1      47.159  32.362  30.819  1.00  0.00    -0.206 F 
ATOM     89  C   UNL A   1      47.521  34.568  30.102  1.00  0.00     0.059 A 
ATOM     90  C   UNL A   1      46.972  35.199  27.824  1.00  0.00     0.059 A 
ATOM     91  F   UNL A   1      46.046  33.610  26.369  1.00  0.00    -0.206 F 
ATOM     92  C   UNL A   1      47.457  35.525  29.088  1.00  0.00     0.060 A 
BRANCH  92  93
ATOM     93  S   UNL A   1      48.048  37.196  29.439  1.00  0.00     0.124 S 
ATOM     94  O   UNL A   1      48.630  37.577  28.158  1.00  0.00    -0.237 OA
ATOM     95  O   UNL A   1      46.815  37.882  29.811  1.00  0.00    -0.237 OA
ATOM     96  O   UNL A   1      48.998  36.994  30.529  1.00  0.00    -0.744 OA
ENDBRANCH  92  93
ENDBRANCH  60  85
BRANCH  72  97
ATOM     97  C   UNL A   1      49.580  27.197  25.899  1.00  0.00     0.058 A 
ATOM     98  C   UNL A   1      50.652  26.785  26.703  1.00  0.00     0.135 A 
ATOM     99  C   UNL A   1      49.803  27.302  24.515  1.00  0.00     0.135 A 
ATOM    100  F   UNL A   1      50.497  26.672  28.032  1.00  0.00    -0.206 F 
ATOM    101  C   UNL A   1      51.905  26.511  26.161  1.00  0.00     0.059 A 
ATOM    102  C   UNL A   1      51.037  27.000  23.947  1.00  0.00     0.059 A 
ATOM    103  F   UNL A   1      48.809  27.680  23.695  1.00  0.00    -0.206 F 
ATOM    104  C   UNL A   1      52.086  26.617  24.780  1.00  0.00     0.060 A 
BRANCH 104 105
ATOM    105  S   UNL A   1      53.706  26.222  24.087  1.00  0.00     0.124 S 
ATOM    106  O   UNL A   1      54.517  27.328  24.587  1.00  0.00    -0.237 OA
ATOM    107  O   UNL A   1      53.985  24.916  24.674  1.00  0.00    -0.237 OA
ATOM    108  O   UNL A   1      53.469  26.219  22.647  1.00  0.00    -0.744 OA
ENDBRANCH 104 105
ENDBRANCH  72  97
ENDBRANCH  46  47
ENDBRANCH  39  41
ENDBRANCH  38  39
ENDBRANCH  37  38
ENDBRANCH  36  37
ENDBRANCH  35  36
ENDBRANCH  34  35
ENDBRANCH  33  34
ENDBRANCH   1  33
TORSDOF 26
ENDMDL
MODEL 2
REMARK VINA RESULT:     -10.1      1.911      8.297
REMARK SMILES Nc1ncccc1C[N@@H+]1CC2(CC[NH2+]CC2)C[C@H]1C(=O)OCCOCCOCCOCCOC(=O)c1ccc(-c2c3nc(c(-c4c(F)cc(S(=O)(=O)[O-])cc4F)c4ccc([nH]4)c(-c4c(F)cc(S(=O)(=O)[O-])cc4F)c4nc(c(-c5c(F)cc(S(=O)(=O)[O-])cc5F)c5ccc2[nH]5)C=C4)C=C3)cc1
REMARK SMILES IDX 27 1 26 2 25 3 24 4 23 5 22 6 21 7 19 8 20 9 18 10 9 11
REMARK SMILES IDX 10 12 11 14 17 15 12 16 16 17 13 18 15 19 14 20 8 23 7 24
REMARK SMILES IDX 2 25 3 26 4 27 6 28 5 29 1 30 28 33 29 34 30 35 31 36 32 37
REMARK SMILES IDX 33 38 34 39 35 40 36 41 37 42 101 43 38 44 100 45 39 46
REMARK SMILES IDX 40 47 41 48 94 49 42 50 99 51 93 52 95 53 43 54 98 55 92 56
REMARK SMILES IDX 91 57 44 59 78 60 57 61 77 62 58 63 61 64 76 65 96 66 59 67
REMARK SMILES IDX 60 68 75 70 97 71 62 72 45 73 46 74 55 75 47 76 48 77 54 78
REMARK SMILES IDX 56 79 49 80 50 81 51 82 52 83 53 84 79 85 80 86 89 87 81 88
REMARK SMILES IDX 82 89 88 90 90 91 83 92 84 93 85 94 86 95 87 96 63 97 64 98
REMARK SMILES IDX 73 99 65 100 66 101 72 102 74 103 67 104 68 105 69 106
REMARK SMILES IDX 70 107 71 108
REMARK H PARENT 9 13 14 21 14 22 1 31 1 32 95 58 61 69
REMARK Flexibility Score: inf
ROOT
ATOM      1  O   UNL A   1      32.796  34.605  29.863  1.00  0.00    -0.377 OA
ENDROOT
BRANCH   1   2
ATOM      2  C   UNL A   1      33.377  34.692  28.578  1.00  0.00     0.188 C 
BRANCH   2   3
ATOM      3  C   UNL A   1      33.084  33.484  27.671  1.00  0.00     0.188 C 
BRANCH   3   4
ATOM      4  O   UNL A   1      31.782  33.260  27.151  1.00  0.00    -0.376 OA
BRANCH   4   5
ATOM      5  C   UNL A   1      31.386  31.993  26.647  1.00  0.00     0.202 C 
BRANCH   5   6
ATOM      6  C   UNL A   1      32.334  30.789  26.518  1.00  0.00     0.261 C 
BRANCH   6   7
ATOM      7  O   UNL A   1      32.000  29.799  25.545  1.00  0.00    -0.459 OA
BRANCH   7   8
ATOM      8  C   UNL A   1      32.075  28.511  25.953  1.00  0.00     0.365 C 
ATOM      9  O   UNL A   1      32.946  28.079  26.703  1.00  0.00    -0.245 OA
BRANCH   8  10
ATOM     10  C   UNL A   1      31.002  27.602  25.339  1.00  0.00     0.296 C 
ATOM     11  N   UNL A   1      30.908  27.612  23.864  1.00  0.00    -0.319 N 
ATOM     12  C   UNL A   1      31.763  26.547  23.333  1.00  0.00     0.270 C 
ATOM     13  H   UNL A   1      31.271  28.509  23.541  1.00  0.00     0.349 HD
ATOM     14  C   UNL A   1      32.072  25.568  24.488  1.00  0.00     0.036 C 
ATOM     15  C   UNL A   1      31.322  26.161  25.700  1.00  0.00     0.091 C 
ATOM     16  C   UNL A   1      33.593  25.465  24.760  1.00  0.00     0.074 C 
ATOM     17  C   UNL A   1      31.564  24.139  24.210  1.00  0.00     0.074 C 
ATOM     18  C   UNL A   1      34.338  24.665  23.684  1.00  0.00     0.261 C 
ATOM     19  C   UNL A   1      32.350  23.435  23.112  1.00  0.00     0.261 C 
ATOM     20  N   UNL A   1      33.756  23.339  23.473  1.00  0.00    -0.346 N 
ATOM     21  H   UNL A   1      33.841  22.797  24.333  1.00  0.00     0.346 HD
ATOM     22  H   UNL A   1      34.255  22.884  22.710  1.00  0.00     0.346 HD
BRANCH  11  23
ATOM     23  C   UNL A   1      29.557  27.719  23.274  1.00  0.00     0.303 C 
BRANCH  23  24
ATOM     24  C   UNL A   1      28.909  29.082  23.338  1.00  0.00     0.048 A 
ATOM     25  C   UNL A   1      27.547  29.273  23.103  1.00  0.00     0.132 A 
ATOM     26  N   UNL A   1      27.033  30.463  22.741  1.00  0.00    -0.239 NA
ATOM     27  C   UNL A   1      27.874  31.516  22.689  1.00  0.00     0.113 A 
ATOM     28  C   UNL A   1      29.701  30.224  23.471  1.00  0.00     0.015 A 
ATOM     29  C   UNL A   1      29.189  31.461  23.103  1.00  0.00     0.021 A 
BRANCH  25  30
ATOM     30  N   UNL A   1      26.630  28.242  23.192  1.00  0.00    -0.383 N 
ATOM     31  H   UNL A   1      26.716  27.455  22.608  1.00  0.00     0.158 HD
ATOM     32  H   UNL A   1      25.892  28.295  23.841  1.00  0.00     0.158 HD
ENDBRANCH  25  30
ENDBRANCH  23  24
ENDBRANCH  11  23
ENDBRANCH   8  10
ENDBRANCH   7   8
ENDBRANCH   6   7
ENDBRANCH   5   6
ENDBRANCH   4   5
ENDBRANCH   3   4
ENDBRANCH   2   3
ENDBRANCH   1   2
BRANCH   1  33
ATOM     33  C   UNL A   1      33.224  35.564  30.817  1.00  0.00     0.188 C 
BRANCH  33  34
ATOM     34  C   UNL A   1      33.871  35.054  32.124  1.00  0.00     0.188 C 
BRANCH  34  35
ATOM     35  O   UNL A   1      35.282  35.231  32.195  1.00  0.00    -0.376 OA
BRANCH  35  36
ATOM     36  C   UNL A   1      36.112  34.080  32.161  1.00  0.00     0.202 C 
BRANCH  36  37
ATOM     37  C   UNL A   1      36.121  33.248  30.867  1.00  0.00     0.261 C 
BRANCH  37  38
ATOM     38  O   UNL A   1      35.754  31.868  30.994  1.00  0.00    -0.460 OA
BRANCH  38  39
ATOM     39  C   UNL A   1      35.610  31.154  29.852  1.00  0.00     0.338 C 
ATOM     40  O   UNL A   1      34.680  31.197  29.079  1.00  0.00    -0.246 OA
BRANCH  39  41
ATOM     41  C   UNL A   1      36.889  30.451  29.600  1.00  0.00     0.060 A 
ATOM     42  C   UNL A   1      37.561  29.866  30.683  1.00  0.00     0.016 A 
ATOM     43  C   UNL A   1      37.420  30.368  28.312  1.00  0.00     0.016 A 
ATOM     44  C   UNL A   1      38.788  29.234  30.485  1.00  0.00     0.010 A 
ATOM     45  C   UNL A   1      38.661  29.754  28.118  1.00  0.00     0.010 A 
ATOM     46  C   UNL A   1      39.367  29.218  29.210  1.00  0.00    -0.014 A 
BRANCH  46  47
ATOM     47  C   UNL A   1      40.796  28.847  29.055  1.00  0.00     0.031 A 
ATOM     48  C   UNL A   1      41.834  29.908  29.307  1.00  0.00     0.074 A 
ATOM     49  C   UNL A   1      41.170  27.597  28.727  1.00  0.00     0.049 A 
ATOM     50  N   UNL A   1      43.133  29.849  29.179  1.00  0.00    -0.248 NA
ATOM     51  C   UNL A   1      41.334  31.217  29.760  1.00  0.00     0.031 C 
ATOM     52  C   UNL A   1      40.262  26.472  28.509  1.00  0.00     0.029 A 
ATOM     53  N   UNL A   1      42.418  27.070  28.510  1.00  0.00    -0.354 N 
ATOM     54  C   UNL A   1      43.605  31.109  29.530  1.00  0.00     0.074 A 
ATOM     55  C   UNL A   1      42.451  31.923  29.841  1.00  0.00     0.031 C 
ATOM     56  C   UNL A   1      40.986  25.388  28.175  1.00  0.00     0.029 A 
ATOM     57  C   UNL A   1      42.401  25.751  28.121  1.00  0.00     0.049 A 
ATOM     58  H   UNL A   1      43.248  27.587  28.622  1.00  0.00     0.167 HD
ATOM     59  C   UNL A   1      44.885  31.544  29.599  1.00  0.00     0.037 A 
ATOM     60  C   UNL A   1      43.412  24.942  27.742  1.00  0.00     0.037 A 
ATOM     61  C   UNL A   1      46.029  30.731  29.282  1.00  0.00     0.049 A 
ATOM     62  C   UNL A   1      44.824  25.477  27.739  1.00  0.00     0.074 A 
ATOM     63  C   UNL A   1      47.368  31.076  29.322  1.00  0.00     0.029 A 
ATOM     64  N   UNL A   1      45.969  29.411  28.860  1.00  0.00    -0.354 N 
ATOM     65  N   UNL A   1      45.260  26.665  28.087  1.00  0.00    -0.248 NA
ATOM     66  C   UNL A   1      45.884  24.559  27.295  1.00  0.00     0.031 C 
ATOM     67  C   UNL A   1      48.113  29.984  28.869  1.00  0.00     0.029 A 
ATOM     68  C   UNL A   1      47.246  28.936  28.610  1.00  0.00     0.049 A 
ATOM     69  H   UNL A   1      45.141  28.888  28.752  1.00  0.00     0.167 HD
ATOM     70  C   UNL A   1      46.644  26.625  27.939  1.00  0.00     0.074 A 
ATOM     71  C   UNL A   1      46.973  25.291  27.478  1.00  0.00     0.031 C 
ATOM     72  C   UNL A   1      47.560  27.600  28.166  1.00  0.00     0.037 A 
BRANCH  59  73
ATOM     73  C   UNL A   1      45.113  32.976  30.005  1.00  0.00     0.058 A 
ATOM     74  C   UNL A   1      45.122  34.020  29.065  1.00  0.00     0.135 A 
ATOM     75  C   UNL A   1      45.295  33.311  31.356  1.00  0.00     0.135 A 
ATOM     76  F   UNL A   1      44.974  33.756  27.758  1.00  0.00    -0.206 F 
ATOM     77  C   UNL A   1      45.330  35.341  29.448  1.00  0.00     0.059 A 
ATOM     78  C   UNL A   1      45.474  34.630  31.765  1.00  0.00     0.059 A 
ATOM     79  F   UNL A   1      45.301  32.353  32.296  1.00  0.00    -0.206 F 
ATOM     80  C   UNL A   1      45.502  35.636  30.801  1.00  0.00     0.060 A 
BRANCH  80  81
ATOM     81  S   UNL A   1      45.763  37.357  31.281  1.00  0.00     0.124 S 
ATOM     82  O   UNL A   1      46.739  37.792  30.287  1.00  0.00    -0.237 OA
ATOM     83  O   UNL A   1      44.425  37.923  31.145  1.00  0.00    -0.237 OA
ATOM     84  O   UNL A   1      46.264  37.258  32.648  1.00  0.00    -0.744 OA
ENDBRANCH  80  81
ENDBRANCH  59  73
BRANCH  60  85
ATOM     85  C   UNL A   1      43.134  23.541  27.317  1.00  0.00     0.058 A 
ATOM     86  C   UNL A   1      43.111  23.186  25.960  1.00  0.00     0.135 A 
ATOM     87  C   UNL A   1      42.863  22.535  28.258  1.00  0.00     0.135 A 
ATOM     88  F   UNL A   1      43.349  24.113  25.020  1.00  0.00    -0.206 F 
ATOM     89  C   UNL A   1      42.811  21.890  25.549  1.00  0.00     0.059 A 
ATOM     90  C   UNL A   1      42.590  21.226  27.873  1.00  0.00     0.059 A 
ATOM     91  F   UNL A   1      42.877  22.819  29.570  1.00  0.00    -0.206 F 
ATOM     92  C   UNL A   1      42.555  20.916  26.515  1.00  0.00     0.060 A 
BRANCH  92  93
ATOM     93  S   UNL A   1      42.206  19.230  25.970  1.00  0.00     0.124 S 
ATOM     94  O   UNL A   1      43.025  19.134  24.767  1.00  0.00    -0.237 OA
ATOM     95  O   UNL A   1      42.655  18.441  27.113  1.00  0.00    -0.237 OA
ATOM     96  O   UNL A   1      40.763  19.239  25.751  1.00  0.00    -0.744 OA
ENDBRANCH  92  93
ENDBRANCH  60  85
BRANCH  72  97
ATOM     97  C   UNL A   1      49.014  27.255  27.974  1.00  0.00     0.058 A 
ATOM     98  C   UNL A   1      49.691  27.525  26.775  1.00  0.00     0.135 A 
ATOM     99  C   UNL A   1      49.754  26.698  29.031  1.00  0.00     0.135 A 
ATOM    100  F   UNL A   1      49.033  28.051  25.730  1.00  0.00    -0.206 F 
ATOM    101  C   UNL A   1      51.044  27.232  26.621  1.00  0.00     0.059 A 
ATOM    102  C   UNL A   1      51.114  26.430  28.912  1.00  0.00     0.059 A 
ATOM    103  F   UNL A   1      49.161  26.431  30.206  1.00  0.00    -0.206 F 
ATOM    104  C   UNL A   1      51.747  26.689  27.698  1.00  0.00     0.060 A 
BRANCH 104 105
ATOM    105  S   UNL A   1      53.510  26.349  27.496  1.00  0.00     0.124 S 
ATOM    106  O   UNL A   1      53.934  26.166  28.880  1.00  0.00    -0.237 OA
ATOM    107  O   UNL A   1      53.502  25.147  26.671  1.00  0.00    -0.237 OA
ATOM    108  O   UNL A   1      54.015  27.552  26.839  1.00  0.00    -0.744 OA
ENDBRANCH 104 105
ENDBRANCH  72  97
ENDBRANCH  46  47
ENDBRANCH  39  41
ENDBRANCH  38  39
ENDBRANCH  37  38
ENDBRANCH  36  37
ENDBRANCH  35  36
ENDBRANCH  34  35
ENDBRANCH  33  34
ENDBRANCH   1  33
TORSDOF 26
ENDMDL
MODEL 3
REMARK VINA RESULT:     -10.0      1.318      3.113
REMARK SMILES Nc1ncccc1C[N@@H+]1CC2(CC[NH2+]CC2)C[C@H]1C(=O)OCCOCCOCCOCCOC(=O)c1ccc(-c2c3nc(c(-c4c(F)cc(S(=O)(=O)[O-])cc4F)c4ccc([nH]4)c(-c4c(F)cc(S(=O)(=O)[O-])cc4F)c4nc(c(-c5c(F)cc(S(=O)(=O)[O-])cc5F)c5ccc2[nH]5)C=C4)C=C3)cc1
REMARK SMILES IDX 27 1 26 2 25 3 24 4 23 5 22 6 21 7 19 8 20 9 18 10 9 11
REMARK SMILES IDX 10 12 11 14 17 15 12 16 16 17 13 18 15 19 14 20 8 23 7 24
REMARK SMILES IDX 2 25 3 26 4 27 6 28 5 29 1 30 28 33 29 34 30 35 31 36 32 37
REMARK SMILES IDX 33 38 34 39 35 40 36 41 37 42 101 43 38 44 100 45 39 46
REMARK SMILES IDX 40 47 41 48 94 49 42 50 99 51 93 52 95 53 43 54 98 55 92 56
REMARK SMILES IDX 91 57 44 59 78 60 57 61 77 62 58 63 61 64 76 65 96 66 59 67
REMARK SMILES IDX 60 68 75 70 97 71 62 72 45 73 46 74 55 75 47 76 48 77 54 78
REMARK SMILES IDX 56 79 49 80 50 81 51 82 52 83 53 84 79 85 80 86 89 87 81 88
REMARK SMILES IDX 82 89 88 90 90 91 83 92 84 93 85 94 86 95 87 96 63 97 64 98
REMARK SMILES IDX 73 99 65 100 66 101 72 102 74 103 67 104 68 105 69 106
REMARK SMILES IDX 70 107 71 108
REMARK H PARENT 9 13 14 21 14 22 1 31 1 32 95 58 61 69
REMARK Flexibility Score: inf
ROOT
ATOM      1  O   UNL A   1      32.855  34.860  30.158  1.00  0.00    -0.377 OA
ENDROOT
BRANCH   1   2
ATOM      2  C   UNL A   1      33.481  34.946  28.893  1.00  0.00     0.188 C 
BRANCH   2   3
ATOM      3  C   UNL A   1      33.476  33.629  28.099  1.00  0.00     0.188 C 
BRANCH   3   4
ATOM      4  O   UNL A   1      34.129  32.471  28.600  1.00  0.00    -0.376 OA
BRANCH   4   5
ATOM      5  C   UNL A   1      34.739  31.524  27.736  1.00  0.00     0.202 C 
BRANCH   5   6
ATOM      6  C   UNL A   1      33.969  30.405  27.012  1.00  0.00     0.261 C 
BRANCH   6   7
ATOM      7  O   UNL A   1      34.087  29.086  27.544  1.00  0.00    -0.459 OA
BRANCH   7   8
ATOM      8  C   UNL A   1      33.070  28.238  27.266  1.00  0.00     0.365 C 
ATOM      9  O   UNL A   1      31.941  28.342  27.740  1.00  0.00    -0.245 OA
BRANCH   8  10
ATOM     10  C   UNL A   1      33.464  27.074  26.348  1.00  0.00     0.296 C 
ATOM     11  N   UNL A   1      32.468  25.991  26.207  1.00  0.00    -0.319 N 
ATOM     12  C   UNL A   1      31.615  26.287  25.053  1.00  0.00     0.270 C 
ATOM     13  H   UNL A   1      31.890  25.997  27.047  1.00  0.00     0.349 HD
ATOM     14  C   UNL A   1      32.338  27.343  24.189  1.00  0.00     0.036 C 
ATOM     15  C   UNL A   1      33.660  27.611  24.941  1.00  0.00     0.091 C 
ATOM     16  C   UNL A   1      31.499  28.637  24.044  1.00  0.00     0.074 C 
ATOM     17  C   UNL A   1      32.642  26.840  22.763  1.00  0.00     0.074 C 
ATOM     18  C   UNL A   1      30.300  28.468  23.102  1.00  0.00     0.261 C 
ATOM     19  C   UNL A   1      31.390  26.681  21.912  1.00  0.00     0.261 C 
ATOM     20  N   UNL A   1      30.693  27.953  21.790  1.00  0.00    -0.346 N 
ATOM     21  H   UNL A   1      31.311  28.627  21.337  1.00  0.00     0.346 HD
ATOM     22  H   UNL A   1      29.851  27.807  21.234  1.00  0.00     0.346 HD
BRANCH  11  23
ATOM     23  C   UNL A   1      32.963  24.601  26.314  1.00  0.00     0.303 C 
BRANCH  23  24
ATOM     24  C   UNL A   1      33.209  23.881  25.009  1.00  0.00     0.048 A 
ATOM     25  C   UNL A   1      34.426  23.960  24.331  1.00  0.00     0.132 A 
ATOM     26  N   UNL A   1      34.542  23.700  23.016  1.00  0.00    -0.239 NA
ATOM     27  C   UNL A   1      33.442  23.268  22.366  1.00  0.00     0.113 A 
ATOM     28  C   UNL A   1      32.153  23.244  24.355  1.00  0.00     0.015 A 
ATOM     29  C   UNL A   1      32.253  22.966  22.999  1.00  0.00     0.021 A 
BRANCH  25  30
ATOM     30  N   UNL A   1      35.597  24.344  24.957  1.00  0.00    -0.383 N 
ATOM     31  H   UNL A   1      35.686  24.254  25.933  1.00  0.00     0.158 HD
ATOM     32  H   UNL A   1      36.342  24.708  24.426  1.00  0.00     0.158 HD
ENDBRANCH  25  30
ENDBRANCH  23  24
ENDBRANCH  11  23
ENDBRANCH   8  10
ENDBRANCH   7   8
ENDBRANCH   6   7
ENDBRANCH   5   6
ENDBRANCH   4   5
ENDBRANCH   3   4
ENDBRANCH   2   3
ENDBRANCH   1   2
BRANCH   1  33
ATOM     33  C   UNL A   1      33.335  35.742  31.161  1.00  0.00     0.188 C 
BRANCH  33  34
ATOM     34  C   UNL A   1      34.351  35.195  32.188  1.00  0.00     0.188 C 
BRANCH  34  35
ATOM     35  O   UNL A   1      35.242  34.212  31.673  1.00  0.00    -0.376 OA
BRANCH  35  36
ATOM     36  C   UNL A   1      35.640  33.145  32.522  1.00  0.00     0.202 C 
BRANCH  36  37
ATOM     37  C   UNL A   1      35.655  31.729  31.923  1.00  0.00     0.261 C 
BRANCH  37  38
ATOM     38  O   UNL A   1      36.723  31.433  31.012  1.00  0.00    -0.460 OA
BRANCH  38  39
ATOM     39  C   UNL A   1      37.111  30.140  30.907  1.00  0.00     0.338 C 
ATOM     40  O   UNL A   1      36.419  29.158  31.052  1.00  0.00    -0.246 OA
BRANCH  39  41
ATOM     41  C   UNL A   1      38.496  30.131  30.381  1.00  0.00     0.060 A 
ATOM     42  C   UNL A   1      38.690  30.032  28.996  1.00  0.00     0.016 A 
ATOM     43  C   UNL A   1      39.590  30.221  31.243  1.00  0.00     0.016 A 
ATOM     44  C   UNL A   1      39.982  29.980  28.473  1.00  0.00     0.010 A 
ATOM     45  C   UNL A   1      40.884  30.145  30.720  1.00  0.00     0.010 A 
ATOM     46  C   UNL A   1      41.085  29.986  29.337  1.00  0.00    -0.014 A 
BRANCH  46  47
ATOM     47  C   UNL A   1      42.424  29.604  28.823  1.00  0.00     0.031 A 
ATOM     48  C   UNL A   1      42.640  28.173  28.406  1.00  0.00     0.074 A 
ATOM     49  C   UNL A   1      43.417  30.503  28.703  1.00  0.00     0.049 A 
ATOM     50  N   UNL A   1      43.727  27.584  27.986  1.00  0.00    -0.248 NA
ATOM     51  C   UNL A   1      41.465  27.287  28.478  1.00  0.00     0.031 C 
ATOM     52  C   UNL A   1      43.315  31.925  29.025  1.00  0.00     0.029 A 
ATOM     53  N   UNL A   1      44.715  30.344  28.284  1.00  0.00    -0.354 N 
ATOM     54  C   UNL A   1      43.372  26.260  27.749  1.00  0.00     0.074 A 
ATOM     55  C   UNL A   1      41.978  26.125  28.106  1.00  0.00     0.031 C 
ATOM     56  C   UNL A   1      44.508  32.508  28.804  1.00  0.00     0.029 A 
ATOM     57  C   UNL A   1      45.465  31.494  28.360  1.00  0.00     0.049 A 
ATOM     58  H   UNL A   1      45.075  29.487  27.960  1.00  0.00     0.167 HD
ATOM     59  C   UNL A   1      44.136  25.253  27.265  1.00  0.00     0.037 A 
ATOM     60  C   UNL A   1      46.777  31.695  28.123  1.00  0.00     0.037 A 
ATOM     61  C   UNL A   1      45.526  25.393  26.917  1.00  0.00     0.049 A 
ATOM     62  C   UNL A   1      47.632  30.535  27.671  1.00  0.00     0.074 A 
ATOM     63  C   UNL A   1      46.389  24.435  26.417  1.00  0.00     0.029 A 
ATOM     64  N   UNL A   1      46.258  26.565  27.041  1.00  0.00    -0.354 N 
ATOM     65  N   UNL A   1      47.282  29.291  27.436  1.00  0.00    -0.248 NA
ATOM     66  C   UNL A   1      49.060  30.805  27.448  1.00  0.00     0.031 C 
ATOM     67  C   UNL A   1      47.656  25.011  26.293  1.00  0.00     0.029 A 
ATOM     68  C   UNL A   1      47.569  26.347  26.650  1.00  0.00     0.049 A 
ATOM     69  H   UNL A   1      45.899  27.426  27.359  1.00  0.00     0.167 HD
ATOM     70  C   UNL A   1      48.436  28.644  27.004  1.00  0.00     0.074 A 
ATOM     71  C   UNL A   1      49.492  29.635  27.002  1.00  0.00     0.031 C 
ATOM     72  C   UNL A   1      48.607  27.348  26.639  1.00  0.00     0.037 A 
BRANCH  59  73
ATOM     73  C   UNL A   1      43.492  23.901  27.113  1.00  0.00     0.058 A 
ATOM     74  C   UNL A   1      43.005  23.448  25.876  1.00  0.00     0.135 A 
ATOM     75  C   UNL A   1      43.386  23.036  28.214  1.00  0.00     0.135 A 
ATOM     76  F   UNL A   1      43.060  24.241  24.794  1.00  0.00    -0.206 F 
ATOM     77  C   UNL A   1      42.413  22.196  25.741  1.00  0.00     0.059 A 
ATOM     78  C   UNL A   1      42.827  21.767  28.096  1.00  0.00     0.059 A 
ATOM     79  F   UNL A   1      43.829  23.420  29.421  1.00  0.00    -0.206 F 
ATOM     80  C   UNL A   1      42.331  21.361  26.858  1.00  0.00     0.060 A 
BRANCH  80  81
ATOM     81  S   UNL A   1      41.568  19.737  26.663  1.00  0.00     0.124 S 
ATOM     82  O   UNL A   1      42.013  19.363  25.324  1.00  0.00    -0.237 OA
ATOM     83  O   UNL A   1      42.161  18.982  27.762  1.00  0.00    -0.237 OA
ATOM     84  O   UNL A   1      40.140  20.014  26.794  1.00  0.00    -0.744 OA
ENDBRANCH  80  81
ENDBRANCH  59  73
BRANCH  60  85
ATOM     85  C   UNL A   1      47.378  33.045  28.318  1.00  0.00     0.058 A 
ATOM     86  C   UNL A   1      47.530  33.933  27.243  1.00  0.00     0.135 A 
ATOM     87  C   UNL A   1      47.831  33.465  29.578  1.00  0.00     0.135 A 
ATOM     88  F   UNL A   1      47.126  33.575  26.015  1.00  0.00    -0.206 F 
ATOM     89  C   UNL A   1      48.127  35.180  27.405  1.00  0.00     0.059 A 
ATOM     90  C   UNL A   1      48.404  34.718  29.771  1.00  0.00     0.059 A 
ATOM     91  F   UNL A   1      47.706  32.656  30.643  1.00  0.00    -0.206 F 
ATOM     92  C   UNL A   1      48.558  35.565  28.675  1.00  0.00     0.060 A 
BRANCH  92  93
ATOM     93  S   UNL A   1      49.295  37.201  28.879  1.00  0.00     0.124 S 
ATOM     94  O   UNL A   1      48.232  38.067  28.379  1.00  0.00    -0.237 OA
ATOM     95  O   UNL A   1      49.536  37.250  30.317  1.00  0.00    -0.237 OA
ATOM     96  O   UNL A   1      50.495  37.135  28.051  1.00  0.00    -0.744 OA
ENDBRANCH  92  93
ENDBRANCH  60  85
BRANCH  72  97
ATOM     97  C   UNL A   1      49.972  26.930  26.155  1.00  0.00     0.058 A 
ATOM     98  C   UNL A   1      50.393  27.153  24.835  1.00  0.00     0.135 A 
ATOM     99  C   UNL A   1      50.892  26.352  27.046  1.00  0.00     0.135 A 
ATOM    100  F   UNL A   1      49.554  27.697  23.940  1.00  0.00    -0.206 F 
ATOM    101  C   UNL A   1      51.669  26.793  24.408  1.00  0.00     0.059 A 
ATOM    102  C   UNL A   1      52.183  26.017  26.650  1.00  0.00     0.059 A 
ATOM    103  F   UNL A   1      50.548  26.128  28.324  1.00  0.00    -0.206 F 
ATOM    104  C   UNL A   1      52.558  26.230  25.326  1.00  0.00     0.060 A 
BRANCH 104 105
ATOM    105  S   UNL A   1      54.222  25.803  24.767  1.00  0.00     0.124 S 
ATOM    106  O   UNL A   1      54.185  26.239  23.375  1.00  0.00    -0.237 OA
ATOM    107  O   UNL A   1      55.062  26.596  25.657  1.00  0.00    -0.237 OA
ATOM    108  O   UNL A   1      54.290  24.359  24.970  1.00  0.00    -0.744 OA
ENDBRANCH 104 105
ENDBRANCH  72  97
ENDBRANCH  46  47
ENDBRANCH  39  41
ENDBRANCH  38  39
ENDBRANCH  37  38
ENDBRANCH  36  37
ENDBRANCH  35  36
ENDBRANCH  34  35
ENDBRANCH  33  34
ENDBRANCH   1  33
TORSDOF 26
ENDMDL
