MODEL 1
REMARK VINA RESULT:      -6.2      0.000      0.000
REMARK SMILES CC[NH2+][C@@]1(C(=O)OCCOCCOCCOCCOC(=O)c2ccc(-c3c4nc(c(-c5c(F)cc(S(=O)(=O)[O-])cc5F)c5ccc([nH]5)c(-c5c(F)cc(S(=O)(=O)[O-])cc5F)c5nc(c(-c6c(F)cc(S(=O)(=O)[O-])cc6F)c6ccc3[nH]6)C=C5)C=C4)cc2)CCC[C@@H]([N@@H+](C)[C@@H](C)C2CC2)C1
REMARK SMILES IDX 13 1 12 2 11 3 10 4 9 5 8 6 7 7 5 8 6 9 4 10 88 11 99 12
REMARK SMILES IDX 89 13 91 14 90 15 3 16 2 19 1 20 92 21 93 22 94 24 95 25
REMARK SMILES IDX 96 26 97 27 98 28 14 29 15 30 16 31 17 32 18 33 19 34 20 35
REMARK SMILES IDX 21 36 22 37 23 38 87 39 24 40 86 41 25 42 26 43 27 44 80 45
REMARK SMILES IDX 28 46 85 47 79 48 81 49 29 50 84 51 78 52 77 53 30 55 64 56
REMARK SMILES IDX 43 57 63 58 44 59 47 60 62 61 82 62 45 63 46 64 61 66 83 67
REMARK SMILES IDX 48 68 31 69 32 70 41 71 33 72 34 73 40 74 42 75 35 76 36 77
REMARK SMILES IDX 37 78 38 79 39 80 65 81 66 82 75 83 67 84 68 85 74 86 76 87
REMARK SMILES IDX 69 88 70 89 71 90 72 91 73 92 49 93 50 94 59 95 51 96 52 97
REMARK SMILES IDX 58 98 60 99 53 100 54 101 55 102 56 103 57 104
REMARK H PARENT 3 17 3 18 92 23 81 54 47 65
REMARK Flexibility Score: inf
ROOT
ATOM      1  O   UNL A   1      45.448  25.500  25.814  1.00  0.00    -0.377 OA
ENDROOT
BRANCH   1   2
ATOM      2  C   UNL A   1      45.217  26.702  25.112  1.00  0.00     0.188 C 
BRANCH   2   3
ATOM      3  C   UNL A   1      43.751  27.118  24.982  1.00  0.00     0.188 C 
BRANCH   3   4
ATOM      4  O   UNL A   1      42.792  26.296  25.603  1.00  0.00    -0.376 OA
BRANCH   4   5
ATOM      5  C   UNL A   1      41.563  26.803  26.101  1.00  0.00     0.202 C 
BRANCH   5   6
ATOM      6  C   UNL A   1      41.206  28.264  26.450  1.00  0.00     0.261 C 
BRANCH   6   7
ATOM      7  O   UNL A   1      40.256  28.532  27.486  1.00  0.00    -0.459 OA
BRANCH   7   8
ATOM      8  C   UNL A   1      40.771  29.117  28.588  1.00  0.00     0.368 C 
ATOM      9  O   UNL A   1      41.716  29.906  28.546  1.00  0.00    -0.245 OA
BRANCH   8  10
ATOM     10  C   UNL A   1      40.051  28.746  29.933  1.00  0.00     0.200 C 
ATOM     11  C   UNL A   1      39.037  27.654  29.542  1.00  0.00     0.081 C 
ATOM     12  C   UNL A   1      39.256  29.815  30.708  1.00  0.00     0.146 C 
ATOM     13  C   UNL A   1      37.870  28.250  28.734  1.00  0.00     0.013 C 
ATOM     14  C   UNL A   1      37.988  30.415  30.120  1.00  0.00     0.190 C 
ATOM     15  C   UNL A   1      37.091  29.324  29.508  1.00  0.00     0.065 C 
BRANCH  10  16
ATOM     16  N   UNL A   1      41.173  28.184  30.783  1.00  0.00    -0.332 N 
ATOM     17  H   UNL A   1      40.926  27.220  31.008  1.00  0.00     0.347 HD
ATOM     18  H   UNL A   1      42.007  28.313  30.211  1.00  0.00     0.347 HD
BRANCH  16  19
ATOM     19  C   UNL A   1      41.495  28.849  32.038  1.00  0.00     0.257 C 
ATOM     20  C   UNL A   1      42.445  28.002  32.875  1.00  0.00     0.071 C 
ENDBRANCH  16  19
ENDBRANCH  10  16
BRANCH  14  21
ATOM     21  N   UNL A   1      37.380  31.393  31.087  1.00  0.00    -0.332 N 
ATOM     22  C   UNL A   1      37.053  30.689  32.343  1.00  0.00     0.333 C 
ATOM     23  H   UNL A   1      36.596  31.708  30.516  1.00  0.00     0.348 HD
BRANCH  21  24
ATOM     24  C   UNL A   1      37.955  32.732  31.396  1.00  0.00     0.184 C 
ATOM     25  C   UNL A   1      38.378  33.026  32.836  1.00  0.00     0.075 C 
BRANCH  24  26
ATOM     26  C   UNL A   1      38.926  33.401  30.424  1.00  0.00     0.047 C 
ATOM     27  C   UNL A   1      38.491  34.339  29.320  1.00  0.00     0.010 C 
ATOM     28  C   UNL A   1      39.364  34.843  30.440  1.00  0.00     0.010 C 
ENDBRANCH  24  26
ENDBRANCH  21  24
ENDBRANCH  14  21
ENDBRANCH   8  10
ENDBRANCH   7   8
ENDBRANCH   6   7
ENDBRANCH   5   6
ENDBRANCH   4   5
ENDBRANCH   3   4
ENDBRANCH   2   3
ENDBRANCH   1   2
BRANCH   1  29
ATOM     29  C   UNL A   1      46.538  24.667  25.429  1.00  0.00     0.188 C 
BRANCH  29  30
ATOM     30  C   UNL A   1      46.392  23.615  24.307  1.00  0.00     0.188 C 
BRANCH  30  31
ATOM     31  O   UNL A   1      45.839  22.370  24.700  1.00  0.00    -0.376 OA
BRANCH  31  32
ATOM     32  C   UNL A   1      44.534  22.034  24.254  1.00  0.00     0.202 C 
BRANCH  32  33
ATOM     33  C   UNL A   1      43.355  22.882  24.758  1.00  0.00     0.261 C 
BRANCH  33  34
ATOM     34  O   UNL A   1      42.313  22.182  25.454  1.00  0.00    -0.460 OA
BRANCH  34  35
ATOM     35  C   UNL A   1      42.602  21.607  26.640  1.00  0.00     0.338 C 
ATOM     36  O   UNL A   1      42.627  20.414  26.896  1.00  0.00    -0.246 OA
BRANCH  35  37
ATOM     37  C   UNL A   1      43.084  22.676  27.539  1.00  0.00     0.060 A 
ATOM     38  C   UNL A   1      44.448  22.746  27.850  1.00  0.00     0.016 A 
ATOM     39  C   UNL A   1      42.192  23.621  28.048  1.00  0.00     0.016 A 
ATOM     40  C   UNL A   1      44.925  23.760  28.683  1.00  0.00     0.010 A 
ATOM     41  C   UNL A   1      42.665  24.616  28.907  1.00  0.00     0.010 A 
ATOM     42  C   UNL A   1      44.029  24.678  29.244  1.00  0.00    -0.014 A 
BRANCH  42  43
ATOM     43  C   UNL A   1      44.477  25.604  30.313  1.00  0.00     0.031 A 
ATOM     44  C   UNL A   1      44.700  27.047  29.959  1.00  0.00     0.074 A 
ATOM     45  C   UNL A   1      44.699  25.168  31.566  1.00  0.00     0.049 A 
ATOM     46  N   UNL A   1      45.202  28.011  30.685  1.00  0.00    -0.248 NA
ATOM     47  C   UNL A   1      44.304  27.456  28.601  1.00  0.00     0.031 C 
ATOM     48  C   UNL A   1      44.468  23.804  32.040  1.00  0.00     0.029 A 
ATOM     49  N   UNL A   1      45.191  25.829  32.664  1.00  0.00    -0.354 N 
ATOM     50  C   UNL A   1      45.198  29.137  29.869  1.00  0.00     0.074 A 
ATOM     51  C   UNL A   1      44.660  28.732  28.588  1.00  0.00     0.031 C 
ATOM     52  C   UNL A   1      44.845  23.723  33.328  1.00  0.00     0.029 A 
ATOM     53  C   UNL A   1      45.384  25.015  33.755  1.00  0.00     0.049 A 
ATOM     54  H   UNL A   1      45.387  26.793  32.670  1.00  0.00     0.167 HD
ATOM     55  C   UNL A   1      45.606  30.393  30.164  1.00  0.00     0.037 A 
ATOM     56  C   UNL A   1      45.968  25.272  34.944  1.00  0.00     0.037 A 
ATOM     57  C   UNL A   1      46.145  30.783  31.441  1.00  0.00     0.049 A 
ATOM     58  C   UNL A   1      46.503  26.657  35.218  1.00  0.00     0.074 A 
ATOM     59  C   UNL A   1      46.565  32.037  31.849  1.00  0.00     0.029 A 
ATOM     60  N   UNL A   1      46.355  29.924  32.510  1.00  0.00    -0.354 N 
ATOM     61  N   UNL A   1      46.468  27.722  34.452  1.00  0.00    -0.248 NA
ATOM     62  C   UNL A   1      47.161  26.874  36.515  1.00  0.00     0.031 C 
ATOM     63  C   UNL A   1      47.089  31.922  33.139  1.00  0.00     0.029 A 
ATOM     64  C   UNL A   1      46.936  30.611  33.562  1.00  0.00     0.049 A 
ATOM     65  H   UNL A   1      46.124  28.967  32.519  1.00  0.00     0.167 HD
ATOM     66  C   UNL A   1      47.080  28.738  35.182  1.00  0.00     0.074 A 
ATOM     67  C   UNL A   1      47.460  28.165  36.456  1.00  0.00     0.031 C 
ATOM     68  C   UNL A   1      47.307  30.028  34.829  1.00  0.00     0.037 A 
BRANCH  55  69
ATOM     69  C   UNL A   1      45.524  31.430  29.079  1.00  0.00     0.058 A 
ATOM     70  C   UNL A   1      46.522  31.561  28.100  1.00  0.00     0.135 A 
ATOM     71  C   UNL A   1      44.409  32.280  28.994  1.00  0.00     0.135 A 
ATOM     72  F   UNL A   1      47.619  30.788  28.143  1.00  0.00    -0.206 F 
ATOM     73  C   UNL A   1      46.426  32.512  27.088  1.00  0.00     0.059 A 
ATOM     74  C   UNL A   1      44.278  33.217  27.974  1.00  0.00     0.059 A 
ATOM     75  F   UNL A   1      43.429  32.201  29.909  1.00  0.00    -0.206 F 
ATOM     76  C   UNL A   1      45.299  33.334  27.032  1.00  0.00     0.060 A 
BRANCH  76  77
ATOM     77  S   UNL A   1      45.186  34.553  25.707  1.00  0.00     0.124 S 
ATOM     78  O   UNL A   1      44.126  35.425  26.202  1.00  0.00    -0.237 OA
ATOM     79  O   UNL A   1      46.527  35.126  25.698  1.00  0.00    -0.237 OA
ATOM     80  O   UNL A   1      44.841  33.753  24.536  1.00  0.00    -0.744 OA
ENDBRANCH  76  77
ENDBRANCH  55  69
BRANCH  56  81
ATOM     81  C   UNL A   1      46.116  24.188  35.953  1.00  0.00     0.058 A 
ATOM     82  C   UNL A   1      47.140  23.235  35.851  1.00  0.00     0.135 A 
ATOM     83  C   UNL A   1      45.229  24.079  37.036  1.00  0.00     0.135 A 
ATOM     84  F   UNL A   1      48.003  23.285  34.825  1.00  0.00    -0.206 F 
ATOM     85  C   UNL A   1      47.275  22.207  36.780  1.00  0.00     0.059 A 
ATOM     86  C   UNL A   1      45.361  23.077  37.995  1.00  0.00     0.059 A 
ATOM     87  F   UNL A   1      44.233  24.966  37.185  1.00  0.00    -0.206 F 
ATOM     88  C   UNL A   1      46.384  22.141  37.852  1.00  0.00     0.060 A 
BRANCH  88  89
ATOM     89  S   UNL A   1      46.603  20.836  39.081  1.00  0.00     0.124 S 
ATOM     90  O   UNL A   1      45.902  21.396  40.231  1.00  0.00    -0.237 OA
ATOM     91  O   UNL A   1      45.960  19.697  38.433  1.00  0.00    -0.237 OA
ATOM     92  O   UNL A   1      48.053  20.738  39.212  1.00  0.00    -0.744 OA
ENDBRANCH  88  89
ENDBRANCH  56  81
BRANCH  68  93
ATOM     93  C   UNL A   1      47.980  30.925  35.834  1.00  0.00     0.058 A 
ATOM     94  C   UNL A   1      49.372  31.106  35.844  1.00  0.00     0.135 A 
ATOM     95  C   UNL A   1      47.215  31.680  36.739  1.00  0.00     0.135 A 
ATOM     96  F   UNL A   1      50.151  30.404  35.006  1.00  0.00    -0.206 F 
ATOM     97  C   UNL A   1      49.982  31.997  36.722  1.00  0.00     0.059 A 
ATOM     98  C   UNL A   1      47.802  32.597  37.605  1.00  0.00     0.059 A 
ATOM     99  F   UNL A   1      45.879  31.553  36.765  1.00  0.00    -0.206 F 
ATOM    100  C   UNL A   1      49.188  32.745  37.592  1.00  0.00     0.060 A 
BRANCH 100 101
ATOM    101  S   UNL A   1      49.991  33.942  38.680  1.00  0.00     0.124 S 
ATOM    102  O   UNL A   1      50.245  33.136  39.870  1.00  0.00    -0.237 OA
ATOM    103  O   UNL A   1      51.169  34.322  37.907  1.00  0.00    -0.237 OA
ATOM    104  O   UNL A   1      48.985  34.990  38.836  1.00  0.00    -0.744 OA
ENDBRANCH 100 101
ENDBRANCH  68  93
ENDBRANCH  42  43
ENDBRANCH  35  37
ENDBRANCH  34  35
ENDBRANCH  33  34
ENDBRANCH  32  33
ENDBRANCH  31  32
ENDBRANCH  30  31
ENDBRANCH  29  30
ENDBRANCH   1  29
TORSDOF 28
ENDMDL
MODEL 2
REMARK VINA RESULT:      -6.2      5.593     14.004
REMARK SMILES CC[NH2+][C@@]1(C(=O)OCCOCCOCCOCCOC(=O)c2ccc(-c3c4nc(c(-c5c(F)cc(S(=O)(=O)[O-])cc5F)c5ccc([nH]5)c(-c5c(F)cc(S(=O)(=O)[O-])cc5F)c5nc(c(-c6c(F)cc(S(=O)(=O)[O-])cc6F)c6ccc3[nH]6)C=C5)C=C4)cc2)CCC[C@@H]([N@@H+](C)[C@@H](C)C2CC2)C1
REMARK SMILES IDX 13 1 12 2 11 3 10 4 9 5 8 6 7 7 5 8 6 9 4 10 88 11 99 12
REMARK SMILES IDX 89 13 91 14 90 15 3 16 2 19 1 20 92 21 93 22 94 24 95 25
REMARK SMILES IDX 96 26 97 27 98 28 14 29 15 30 16 31 17 32 18 33 19 34 20 35
REMARK SMILES IDX 21 36 22 37 23 38 87 39 24 40 86 41 25 42 26 43 27 44 80 45
REMARK SMILES IDX 28 46 85 47 79 48 81 49 29 50 84 51 78 52 77 53 30 55 64 56
REMARK SMILES IDX 43 57 63 58 44 59 47 60 62 61 82 62 45 63 46 64 61 66 83 67
REMARK SMILES IDX 48 68 31 69 32 70 41 71 33 72 34 73 40 74 42 75 35 76 36 77
REMARK SMILES IDX 37 78 38 79 39 80 65 81 66 82 75 83 67 84 68 85 74 86 76 87
REMARK SMILES IDX 69 88 70 89 71 90 72 91 73 92 49 93 50 94 59 95 51 96 52 97
REMARK SMILES IDX 58 98 60 99 53 100 54 101 55 102 56 103 57 104
REMARK H PARENT 3 17 3 18 92 23 81 54 47 65
REMARK Flexibility Score: inf
ROOT
ATOM      1  O   UNL A   1      52.458  26.042  42.712  1.00  0.00    -0.377 OA
ENDROOT
BRANCH   1   2
ATOM      2  C   UNL A   1      52.540  25.794  41.326  1.00  0.00     0.188 C 
BRANCH   2   3
ATOM      3  C   UNL A   1      52.139  24.386  40.883  1.00  0.00     0.188 C 
BRANCH   3   4
ATOM      4  O   UNL A   1      50.866  23.928  41.272  1.00  0.00    -0.376 OA
BRANCH   4   5
ATOM      5  C   UNL A   1      50.231  22.824  40.647  1.00  0.00     0.202 C 
BRANCH   5   6
ATOM      6  C   UNL A   1      49.542  22.777  39.265  1.00  0.00     0.261 C 
BRANCH   6   7
ATOM      7  O   UNL A   1      48.890  21.577  38.840  1.00  0.00    -0.459 OA
BRANCH   7   8
ATOM      8  C   UNL A   1      47.972  21.095  39.704  1.00  0.00     0.368 C 
ATOM      9  O   UNL A   1      47.010  21.758  40.094  1.00  0.00    -0.245 OA
BRANCH   8  10
ATOM     10  C   UNL A   1      48.201  19.608  40.153  1.00  0.00     0.200 C 
ATOM     11  C   UNL A   1      47.888  18.771  38.898  1.00  0.00     0.081 C 
ATOM     12  C   UNL A   1      47.358  19.005  41.294  1.00  0.00     0.146 C 
ATOM     13  C   UNL A   1      46.377  18.766  38.603  1.00  0.00     0.013 C 
ATOM     14  C   UNL A   1      45.862  18.792  41.124  1.00  0.00     0.190 C 
ATOM     15  C   UNL A   1      45.543  18.176  39.750  1.00  0.00     0.065 C 
BRANCH  10  16
ATOM     16  N   UNL A   1      49.677  19.571  40.492  1.00  0.00    -0.332 N 
ATOM     17  H   UNL A   1      50.185  19.861  39.657  1.00  0.00     0.347 HD
ATOM     18  H   UNL A   1      49.761  20.181  41.305  1.00  0.00     0.347 HD
BRANCH  16  19
ATOM     19  C   UNL A   1      50.259  18.309  40.932  1.00  0.00     0.257 C 
ATOM     20  C   UNL A   1      51.541  18.006  40.168  1.00  0.00     0.071 C 
ENDBRANCH  16  19
ENDBRANCH  10  16
BRANCH  14  21
ATOM     21  N   UNL A   1      45.285  18.151  42.356  1.00  0.00    -0.332 N 
ATOM     22  C   UNL A   1      44.113  18.930  42.800  1.00  0.00     0.333 C 
ATOM     23  H   UNL A   1      46.114  18.183  42.949  1.00  0.00     0.348 HD
BRANCH  21  24
ATOM     24  C   UNL A   1      45.002  16.695  42.487  1.00  0.00     0.184 C 
ATOM     25  C   UNL A   1      45.973  15.837  43.299  1.00  0.00     0.075 C 
BRANCH  24  26
ATOM     26  C   UNL A   1      43.572  16.199  42.698  1.00  0.00     0.047 C 
ATOM     27  C   UNL A   1      42.764  15.496  41.630  1.00  0.00     0.010 C 
ATOM     28  C   UNL A   1      43.134  14.771  42.898  1.00  0.00     0.010 C 
ENDBRANCH  24  26
ENDBRANCH  21  24
ENDBRANCH  14  21
ENDBRANCH   8  10
ENDBRANCH   7   8
ENDBRANCH   6   7
ENDBRANCH   5   6
ENDBRANCH   4   5
ENDBRANCH   3   4
ENDBRANCH   2   3
ENDBRANCH   1   2
BRANCH   1  29
ATOM     29  C   UNL A   1      51.749  27.188  43.175  1.00  0.00     0.188 C 
BRANCH  29  30
ATOM     30  C   UNL A   1      50.916  28.064  42.212  1.00  0.00     0.188 C 
BRANCH  30  31
ATOM     31  O   UNL A   1      49.585  27.632  41.985  1.00  0.00    -0.376 OA
BRANCH  31  32
ATOM     32  C   UNL A   1      48.753  28.409  41.137  1.00  0.00     0.202 C 
BRANCH  32  33
ATOM     33  C   UNL A   1      49.043  28.394  39.627  1.00  0.00     0.261 C 
BRANCH  33  34
ATOM     34  O   UNL A   1      47.901  28.382  38.756  1.00  0.00    -0.460 OA
BRANCH  34  35
ATOM     35  C   UNL A   1      48.070  27.990  37.475  1.00  0.00     0.338 C 
ATOM     36  O   UNL A   1      48.979  27.313  37.025  1.00  0.00    -0.246 OA
BRANCH  35  37
ATOM     37  C   UNL A   1      46.844  28.360  36.739  1.00  0.00     0.060 A 
ATOM     38  C   UNL A   1      46.885  29.430  35.834  1.00  0.00     0.016 A 
ATOM     39  C   UNL A   1      45.668  27.633  36.923  1.00  0.00     0.016 A 
ATOM     40  C   UNL A   1      45.741  29.783  35.116  1.00  0.00     0.010 A 
ATOM     41  C   UNL A   1      44.515  28.008  36.227  1.00  0.00     0.010 A 
ATOM     42  C   UNL A   1      44.542  29.095  35.336  1.00  0.00    -0.014 A 
BRANCH  42  43
ATOM     43  C   UNL A   1      43.271  29.607  34.768  1.00  0.00     0.031 A 
ATOM     44  C   UNL A   1      42.825  29.085  33.431  1.00  0.00     0.074 A 
ATOM     45  C   UNL A   1      42.538  30.529  35.417  1.00  0.00     0.049 A 
ATOM     46  N   UNL A   1      41.824  29.467  32.684  1.00  0.00    -0.248 NA
ATOM     47  C   UNL A   1      43.620  27.984  32.862  1.00  0.00     0.031 C 
ATOM     48  C   UNL A   1      42.840  31.072  36.741  1.00  0.00     0.029 A 
ATOM     49  N   UNL A   1      41.396  31.189  35.035  1.00  0.00    -0.354 N 
ATOM     50  C   UNL A   1      41.875  28.666  31.548  1.00  0.00     0.074 A 
ATOM     51  C   UNL A   1      43.017  27.790  31.698  1.00  0.00     0.031 C 
ATOM     52  C   UNL A   1      41.921  32.002  37.050  1.00  0.00     0.029 A 
ATOM     53  C   UNL A   1      40.993  32.154  35.928  1.00  0.00     0.049 A 
ATOM     54  H   UNL A   1      40.912  30.990  34.202  1.00  0.00     0.167 HD
ATOM     55  C   UNL A   1      41.045  28.664  30.480  1.00  0.00     0.037 A 
ATOM     56  C   UNL A   1      40.016  33.079  35.831  1.00  0.00     0.037 A 
ATOM     57  C   UNL A   1      39.915  29.544  30.339  1.00  0.00     0.049 A 
ATOM     58  C   UNL A   1      39.160  33.121  34.589  1.00  0.00     0.074 A 
ATOM     59  C   UNL A   1      38.997  29.604  29.306  1.00  0.00     0.029 A 
ATOM     60  N   UNL A   1      39.558  30.529  31.249  1.00  0.00    -0.354 N 
ATOM     61  N   UNL A   1      39.198  32.341  33.534  1.00  0.00    -0.248 NA
ATOM     62  C   UNL A   1      38.134  34.171  34.520  1.00  0.00     0.031 C 
ATOM     63  C   UNL A   1      38.125  30.668  29.559  1.00  0.00     0.029 A 
ATOM     64  C   UNL A   1      38.458  31.228  30.782  1.00  0.00     0.049 A 
ATOM     65  H   UNL A   1      40.018  30.703  32.101  1.00  0.00     0.167 HD
ATOM     66  C   UNL A   1      38.188  32.793  32.687  1.00  0.00     0.074 A 
ATOM     67  C   UNL A   1      37.548  33.904  33.360  1.00  0.00     0.031 C 
ATOM     68  C   UNL A   1      37.827  32.332  31.464  1.00  0.00     0.037 A 
BRANCH  55  69
ATOM     69  C   UNL A   1      41.348  27.708  29.359  1.00  0.00     0.058 A 
ATOM     70  C   UNL A   1      42.419  27.914  28.476  1.00  0.00     0.135 A 
ATOM     71  C   UNL A   1      40.576  26.546  29.192  1.00  0.00     0.135 A 
ATOM     72  F   UNL A   1      43.177  29.017  28.577  1.00  0.00    -0.206 F 
ATOM     73  C   UNL A   1      42.701  27.013  27.453  1.00  0.00     0.059 A 
ATOM     74  C   UNL A   1      40.858  25.616  28.196  1.00  0.00     0.059 A 
ATOM     75  F   UNL A   1      39.536  26.303  30.006  1.00  0.00    -0.206 F 
ATOM     76  C   UNL A   1      41.916  25.865  27.324  1.00  0.00     0.060 A 
BRANCH  76  77
ATOM     77  S   UNL A   1      42.304  24.702  26.000  1.00  0.00     0.124 S 
ATOM     78  O   UNL A   1      41.157  23.801  26.058  1.00  0.00    -0.237 OA
ATOM     79  O   UNL A   1      42.369  25.572  24.831  1.00  0.00    -0.237 OA
ATOM     80  O   UNL A   1      43.576  24.120  26.418  1.00  0.00    -0.744 OA
ENDBRANCH  76  77
ENDBRANCH  55  69
BRANCH  56  81
ATOM     81  C   UNL A   1      39.816  34.069  36.924  1.00  0.00     0.058 A 
ATOM     82  C   UNL A   1      40.379  35.352  36.855  1.00  0.00     0.135 A 
ATOM     83  C   UNL A   1      39.063  33.749  38.066  1.00  0.00     0.135 A 
ATOM     84  F   UNL A   1      41.120  35.703  35.793  1.00  0.00    -0.206 F 
ATOM     85  C   UNL A   1      40.211  36.279  37.880  1.00  0.00     0.059 A 
ATOM     86  C   UNL A   1      38.857  34.669  39.090  1.00  0.00     0.059 A 
ATOM     87  F   UNL A   1      38.498  32.537  38.183  1.00  0.00    -0.206 F 
ATOM     88  C   UNL A   1      39.443  35.929  38.991  1.00  0.00     0.060 A 
BRANCH  88  89
ATOM     89  S   UNL A   1      39.187  37.159  40.289  1.00  0.00     0.124 S 
ATOM     90  O   UNL A   1      38.476  38.206  39.565  1.00  0.00    -0.237 OA
ATOM     91  O   UNL A   1      38.401  36.410  41.265  1.00  0.00    -0.237 OA
ATOM     92  O   UNL A   1      40.544  37.491  40.709  1.00  0.00    -0.744 OA
ENDBRANCH  88  89
ENDBRANCH  56  81
BRANCH  68  93
ATOM     93  C   UNL A   1      36.672  33.006  30.771  1.00  0.00     0.058 A 
ATOM     94  C   UNL A   1      35.351  32.850  31.218  1.00  0.00     0.135 A 
ATOM     95  C   UNL A   1      36.901  33.888  29.701  1.00  0.00     0.135 A 
ATOM     96  F   UNL A   1      35.075  32.012  32.231  1.00  0.00    -0.206 F 
ATOM     97  C   UNL A   1      34.297  33.537  30.624  1.00  0.00     0.059 A 
ATOM     98  C   UNL A   1      35.866  34.608  29.113  1.00  0.00     0.059 A 
ATOM     99  F   UNL A   1      38.147  34.082  29.240  1.00  0.00    -0.206 F 
ATOM    100  C   UNL A   1      34.566  34.422  29.579  1.00  0.00     0.060 A 
BRANCH 100 101
ATOM    101  S   UNL A   1      33.195  35.353  28.863  1.00  0.00     0.124 S 
ATOM    102  O   UNL A   1      32.420  35.698  30.051  1.00  0.00    -0.237 OA
ATOM    103  O   UNL A   1      33.881  36.462  28.209  1.00  0.00    -0.237 OA
ATOM    104  O   UNL A   1      32.564  34.394  27.961  1.00  0.00    -0.744 OA
ENDBRANCH 100 101
ENDBRANCH  68  93
ENDBRANCH  42  43
ENDBRANCH  35  37
ENDBRANCH  34  35
ENDBRANCH  33  34
ENDBRANCH  32  33
ENDBRANCH  31  32
ENDBRANCH  30  31
ENDBRANCH  29  30
ENDBRANCH   1  29
TORSDOF 28
ENDMDL
MODEL 3
REMARK VINA RESULT:      -6.1      5.312      8.878
REMARK SMILES CC[NH2+][C@@]1(C(=O)OCCOCCOCCOCCOC(=O)c2ccc(-c3c4nc(c(-c5c(F)cc(S(=O)(=O)[O-])cc5F)c5ccc([nH]5)c(-c5c(F)cc(S(=O)(=O)[O-])cc5F)c5nc(c(-c6c(F)cc(S(=O)(=O)[O-])cc6F)c6ccc3[nH]6)C=C5)C=C4)cc2)CCC[C@@H]([N@@H+](C)[C@@H](C)C2CC2)C1
REMARK SMILES IDX 13 1 12 2 11 3 10 4 9 5 8 6 7 7 5 8 6 9 4 10 88 11 99 12
REMARK SMILES IDX 89 13 91 14 90 15 3 16 2 19 1 20 92 21 93 22 94 24 95 25
REMARK SMILES IDX 96 26 97 27 98 28 14 29 15 30 16 31 17 32 18 33 19 34 20 35
REMARK SMILES IDX 21 36 22 37 23 38 87 39 24 40 86 41 25 42 26 43 27 44 80 45
REMARK SMILES IDX 28 46 85 47 79 48 81 49 29 50 84 51 78 52 77 53 30 55 64 56
REMARK SMILES IDX 43 57 63 58 44 59 47 60 62 61 82 62 45 63 46 64 61 66 83 67
REMARK SMILES IDX 48 68 31 69 32 70 41 71 33 72 34 73 40 74 42 75 35 76 36 77
REMARK SMILES IDX 37 78 38 79 39 80 65 81 66 82 75 83 67 84 68 85 74 86 76 87
REMARK SMILES IDX 69 88 70 89 71 90 72 91 73 92 49 93 50 94 59 95 51 96 52 97
REMARK SMILES IDX 58 98 60 99 53 100 54 101 55 102 56 103 57 104
REMARK H PARENT 3 17 3 18 92 23 81 54 47 65
REMARK Flexibility Score: inf
ROOT
ATOM      1  O   UNL A   1      39.154  21.943  26.549  1.00  0.00    -0.377 OA
ENDROOT
BRANCH   1   2
ATOM      2  C   UNL A   1      38.188  22.331  25.597  1.00  0.00     0.188 C 
BRANCH   2   3
ATOM      3  C   UNL A   1      37.037  21.345  25.386  1.00  0.00     0.188 C 
BRANCH   3   4
ATOM      4  O   UNL A   1      35.867  21.844  24.784  1.00  0.00    -0.376 OA
BRANCH   4   5
ATOM      5  C   UNL A   1      34.572  21.386  25.142  1.00  0.00     0.202 C 
BRANCH   5   6
ATOM      6  C   UNL A   1      33.253  22.188  25.180  1.00  0.00     0.261 C 
BRANCH   6   7
ATOM      7  O   UNL A   1      32.992  23.168  24.171  1.00  0.00    -0.459 OA
BRANCH   7   8
ATOM      8  C   UNL A   1      32.930  24.439  24.620  1.00  0.00     0.368 C 
ATOM      9  O   UNL A   1      33.797  24.937  25.338  1.00  0.00    -0.245 OA
BRANCH   8  10
ATOM     10  C   UNL A   1      31.680  25.254  24.130  1.00  0.00     0.200 C 
ATOM     11  C   UNL A   1      31.724  25.146  22.594  1.00  0.00     0.081 C 
ATOM     12  C   UNL A   1      31.559  26.756  24.454  1.00  0.00     0.146 C 
ATOM     13  C   UNL A   1      32.876  25.989  22.016  1.00  0.00     0.013 C 
ATOM     14  C   UNL A   1      32.531  27.760  23.851  1.00  0.00     0.190 C 
ATOM     15  C   UNL A   1      32.756  27.482  22.354  1.00  0.00     0.065 C 
BRANCH  10  16
ATOM     16  N   UNL A   1      30.512  24.481  24.708  1.00  0.00    -0.332 N 
ATOM     17  H   UNL A   1      29.664  24.855  24.284  1.00  0.00     0.347 HD
ATOM     18  H   UNL A   1      30.730  23.507  24.496  1.00  0.00     0.347 HD
BRANCH  16  19
ATOM     19  C   UNL A   1      30.314  24.495  26.151  1.00  0.00     0.257 C 
ATOM     20  C   UNL A   1      28.998  25.171  26.513  1.00  0.00     0.071 C 
ENDBRANCH  16  19
ENDBRANCH  10  16
BRANCH  14  21
ATOM     21  N   UNL A   1      32.172  29.154  24.282  1.00  0.00    -0.332 N 
ATOM     22  C   UNL A   1      30.711  29.334  24.160  1.00  0.00     0.333 C 
ATOM     23  H   UNL A   1      32.758  29.674  23.629  1.00  0.00     0.348 HD
BRANCH  21  24
ATOM     24  C   UNL A   1      32.655  29.793  25.538  1.00  0.00     0.184 C 
ATOM     25  C   UNL A   1      31.760  30.833  26.213  1.00  0.00     0.075 C 
BRANCH  24  26
ATOM     26  C   UNL A   1      33.380  28.966  26.599  1.00  0.00     0.047 C 
ATOM     27  C   UNL A   1      34.837  28.573  26.501  1.00  0.00     0.010 C 
ATOM     28  C   UNL A   1      34.370  29.474  27.615  1.00  0.00     0.010 C 
ENDBRANCH  24  26
ENDBRANCH  21  24
ENDBRANCH  14  21
ENDBRANCH   8  10
ENDBRANCH   7   8
ENDBRANCH   6   7
ENDBRANCH   5   6
ENDBRANCH   4   5
ENDBRANCH   3   4
ENDBRANCH   2   3
ENDBRANCH   1   2
BRANCH   1  29
ATOM     29  C   UNL A   1      40.457  22.518  26.495  1.00  0.00     0.188 C 
BRANCH  29  30
ATOM     30  C   UNL A   1      41.723  21.672  26.751  1.00  0.00     0.188 C 
BRANCH  30  31
ATOM     31  O   UNL A   1      42.952  22.276  26.381  1.00  0.00    -0.376 OA
BRANCH  31  32
ATOM     32  C   UNL A   1      42.925  23.383  25.492  1.00  0.00     0.202 C 
BRANCH  32  33
ATOM     33  C   UNL A   1      44.162  23.637  24.615  1.00  0.00     0.261 C 
BRANCH  33  34
ATOM     34  O   UNL A   1      45.441  23.435  25.236  1.00  0.00    -0.460 OA
BRANCH  34  35
ATOM     35  C   UNL A   1      46.290  24.481  25.320  1.00  0.00     0.338 C 
ATOM     36  O   UNL A   1      46.933  24.984  24.414  1.00  0.00    -0.246 OA
BRANCH  35  37
ATOM     37  C   UNL A   1      46.155  25.046  26.678  1.00  0.00     0.060 A 
ATOM     38  C   UNL A   1      46.575  26.361  26.918  1.00  0.00     0.016 A 
ATOM     39  C   UNL A   1      45.588  24.286  27.702  1.00  0.00     0.016 A 
ATOM     40  C   UNL A   1      46.438  26.918  28.191  1.00  0.00     0.010 A 
ATOM     41  C   UNL A   1      45.482  24.834  28.983  1.00  0.00     0.010 A 
ATOM     42  C   UNL A   1      45.924  26.145  29.238  1.00  0.00    -0.014 A 
BRANCH  42  43
ATOM     43  C   UNL A   1      45.997  26.634  30.636  1.00  0.00     0.031 A 
ATOM     44  C   UNL A   1      47.172  26.219  31.476  1.00  0.00     0.074 A 
ATOM     45  C   UNL A   1      45.032  27.415  31.153  1.00  0.00     0.049 A 
ATOM     46  N   UNL A   1      47.392  26.417  32.748  1.00  0.00    -0.248 NA
ATOM     47  C   UNL A   1      48.240  25.476  30.786  1.00  0.00     0.031 C 
ATOM     48  C   UNL A   1      43.874  27.926  30.421  1.00  0.00     0.029 A 
ATOM     49  N   UNL A   1      44.866  27.898  32.427  1.00  0.00    -0.354 N 
ATOM     50  C   UNL A   1      48.615  25.812  33.017  1.00  0.00     0.074 A 
ATOM     51  C   UNL A   1      49.079  25.224  31.780  1.00  0.00     0.031 C 
ATOM     52  C   UNL A   1      43.101  28.629  31.267  1.00  0.00     0.029 A 
ATOM     53  C   UNL A   1      43.685  28.579  32.608  1.00  0.00     0.049 A 
ATOM     54  H   UNL A   1      45.528  27.768  33.144  1.00  0.00     0.167 HD
ATOM     55  C   UNL A   1      49.287  25.754  34.190  1.00  0.00     0.037 A 
ATOM     56  C   UNL A   1      43.123  29.069  33.732  1.00  0.00     0.037 A 
ATOM     57  C   UNL A   1      48.813  26.338  35.417  1.00  0.00     0.049 A 
ATOM     58  C   UNL A   1      43.846  28.910  35.048  1.00  0.00     0.074 A 
ATOM     59  C   UNL A   1      49.431  26.355  36.655  1.00  0.00     0.029 A 
ATOM     60  N   UNL A   1      47.598  26.992  35.568  1.00  0.00    -0.354 N 
ATOM     61  N   UNL A   1      45.014  28.363  35.287  1.00  0.00    -0.248 NA
ATOM     62  C   UNL A   1      43.172  29.429  36.247  1.00  0.00     0.031 C 
ATOM     63  C   UNL A   1      48.562  26.961  37.568  1.00  0.00     0.029 A 
ATOM     64  C   UNL A   1      47.430  27.381  36.886  1.00  0.00     0.049 A 
ATOM     65  H   UNL A   1      46.952  27.156  34.844  1.00  0.00     0.167 HD
ATOM     66  C   UNL A   1      45.224  28.491  36.658  1.00  0.00     0.074 A 
ATOM     67  C   UNL A   1      44.069  29.182  37.192  1.00  0.00     0.031 C 
ATOM     68  C   UNL A   1      46.276  28.073  37.406  1.00  0.00     0.037 A 
BRANCH  55  69
ATOM     69  C   UNL A   1      50.588  25.001  34.216  1.00  0.00     0.058 A 
ATOM     70  C   UNL A   1      50.642  23.619  34.457  1.00  0.00     0.135 A 
ATOM     71  C   UNL A   1      51.797  25.668  33.955  1.00  0.00     0.135 A 
ATOM     72  F   UNL A   1      49.520  22.935  34.731  1.00  0.00    -0.206 F 
ATOM     73  C   UNL A   1      51.851  22.929  34.460  1.00  0.00     0.059 A 
ATOM     74  C   UNL A   1      53.013  24.993  33.924  1.00  0.00     0.059 A 
ATOM     75  F   UNL A   1      51.803  26.990  33.725  1.00  0.00    -0.206 F 
ATOM     76  C   UNL A   1      53.031  23.625  34.189  1.00  0.00     0.060 A 
BRANCH  76  77
ATOM     77  S   UNL A   1      54.587  22.711  34.185  1.00  0.00     0.124 S 
ATOM     78  O   UNL A   1      54.753  22.411  35.603  1.00  0.00    -0.237 OA
ATOM     79  O   UNL A   1      54.276  21.573  33.327  1.00  0.00    -0.237 OA
ATOM     80  O   UNL A   1      55.543  23.667  33.633  1.00  0.00    -0.744 OA
ENDBRANCH  76  77
ENDBRANCH  55  69
BRANCH  56  81
ATOM     81  C   UNL A   1      41.786  29.721  33.675  1.00  0.00     0.058 A 
ATOM     82  C   UNL A   1      40.607  28.961  33.650  1.00  0.00     0.135 A 
ATOM     83  C   UNL A   1      41.661  31.119  33.636  1.00  0.00     0.135 A 
ATOM     84  F   UNL A   1      40.672  27.621  33.668  1.00  0.00    -0.206 F 
ATOM     85  C   UNL A   1      39.354  29.562  33.578  1.00  0.00     0.059 A 
ATOM     86  C   UNL A   1      40.417  31.744  33.594  1.00  0.00     0.059 A 
ATOM     87  F   UNL A   1      42.756  31.895  33.662  1.00  0.00    -0.206 F 
ATOM     88  C   UNL A   1      39.270  30.954  33.557  1.00  0.00     0.060 A 
BRANCH  88  89
ATOM     89  S   UNL A   1      37.635  31.723  33.521  1.00  0.00     0.124 S 
ATOM     90  O   UNL A   1      37.350  31.874  34.943  1.00  0.00    -0.237 OA
ATOM     91  O   UNL A   1      37.898  32.958  32.787  1.00  0.00    -0.237 OA
ATOM     92  O   UNL A   1      36.818  30.743  32.813  1.00  0.00    -0.744 OA
ENDBRANCH  88  89
ENDBRANCH  56  81
BRANCH  68  93
ATOM     93  C   UNL A   1      46.249  28.364  38.882  1.00  0.00     0.058 A 
ATOM     94  C   UNL A   1      46.691  29.591  39.400  1.00  0.00     0.135 A 
ATOM     95  C   UNL A   1      45.692  27.438  39.781  1.00  0.00     0.135 A 
ATOM     96  F   UNL A   1      47.239  30.509  38.587  1.00  0.00    -0.206 F 
ATOM     97  C   UNL A   1      46.590  29.887  40.756  1.00  0.00     0.059 A 
ATOM     98  C   UNL A   1      45.554  27.724  41.135  1.00  0.00     0.059 A 
ATOM     99  F   UNL A   1      45.244  26.252  39.338  1.00  0.00    -0.206 F 
ATOM    100  C   UNL A   1      46.011  28.951  41.614  1.00  0.00     0.060 A 
BRANCH 100 101
ATOM    101  S   UNL A   1      45.830  29.377  43.360  1.00  0.00     0.124 S 
ATOM    102  O   UNL A   1      44.724  30.328  43.318  1.00  0.00    -0.237 OA
ATOM    103  O   UNL A   1      45.531  28.083  43.965  1.00  0.00    -0.237 OA
ATOM    104  O   UNL A   1      47.129  29.942  43.710  1.00  0.00    -0.744 OA
ENDBRANCH 100 101
ENDBRANCH  68  93
ENDBRANCH  42  43
ENDBRANCH  35  37
ENDBRANCH  34  35
ENDBRANCH  33  34
ENDBRANCH  32  33
ENDBRANCH  31  32
ENDBRANCH  30  31
ENDBRANCH  29  30
ENDBRANCH   1  29
TORSDOF 28
ENDMDL
