MODEL 1
REMARK VINA RESULT:      -9.8      0.000      0.000
REMARK SMILES O=C(OCCOCCOCCOCCOC(=O)c1cc2c(c(S(=O)(=O)Nc3cc(C(F)(F)F)ccc3-n3cccn3)c1)CCC2)c1ccc(-c2c3nc(c(-c4c(F)cc(S(=O)(=O)[O-])cc4F)c4ccc([nH]4)c(-c4c(F)cc(S(=O)(=O)[O-])cc4F)c4nc(c(-c5c(F)cc(S(=O)(=O)[O-])cc5F)c5ccc2[nH]5)C=C4)C=C3)cc1
REMARK SMILES IDX 10 1 9 2 8 3 7 4 6 5 5 6 4 7 3 8 2 9 1 10 46 11 47 12 111 13
REMARK SMILES IDX 48 14 110 15 49 16 50 17 51 18 104 19 52 20 109 21 103 22
REMARK SMILES IDX 105 23 53 24 108 25 102 26 101 27 54 29 88 30 67 31 87 32
REMARK SMILES IDX 68 33 71 34 86 35 106 36 69 37 70 38 85 40 107 41 72 42
REMARK SMILES IDX 55 43 56 44 65 45 57 46 58 47 64 48 66 49 59 50 60 51 61 52
REMARK SMILES IDX 62 53 63 54 89 55 90 56 99 57 91 58 92 59 98 60 100 61 93 62
REMARK SMILES IDX 94 63 95 64 96 65 97 66 73 67 74 68 83 69 75 70 76 71 82 72
REMARK SMILES IDX 84 73 77 74 78 75 79 76 80 77 81 78 11 79 12 80 13 81 14 82
REMARK SMILES IDX 15 83 16 84 17 85 18 86 19 87 42 88 20 89 22 90 21 91 45 92
REMARK SMILES IDX 43 93 44 94 23 95 24 96 25 97 26 98 27 100 28 101 36 102
REMARK SMILES IDX 29 103 35 104 34 105 37 106 38 107 41 108 39 109 40 110
REMARK SMILES IDX 30 111 31 112 32 113 33 114
REMARK H PARENT 105 28 71 39 26 99
REMARK Flexibility Score: inf
ROOT
ATOM      1  C   UNL A   1      39.377  27.254  29.117  1.00  0.00     0.188 C 
ENDROOT
BRANCH   1   2
ATOM      2  O   UNL A   1      39.644  26.860  27.792  1.00  0.00    -0.377 OA
BRANCH   2   3
ATOM      3  C   UNL A   1      39.260  25.526  27.518  1.00  0.00     0.188 C 
BRANCH   3   4
ATOM      4  C   UNL A   1      40.363  24.547  27.068  1.00  0.00     0.188 C 
BRANCH   4   5
ATOM      5  O   UNL A   1      41.036  23.596  27.881  1.00  0.00    -0.376 OA
BRANCH   5   6
ATOM      6  C   UNL A   1      42.366  23.547  28.360  1.00  0.00     0.202 C 
BRANCH   6   7
ATOM      7  C   UNL A   1      43.388  24.677  28.246  1.00  0.00     0.261 C 
BRANCH   7   8
ATOM      8  O   UNL A   1      43.936  24.863  26.952  1.00  0.00    -0.460 OA
BRANCH   8   9
ATOM      9  C   UNL A   1      43.755  25.910  26.124  1.00  0.00     0.338 C 
ATOM     10  O   UNL A   1      43.454  25.668  24.955  1.00  0.00    -0.246 OA
BRANCH   9  11
ATOM     11  C   UNL A   1      43.942  27.333  26.514  1.00  0.00     0.060 A 
ATOM     12  C   UNL A   1      45.036  27.883  27.189  1.00  0.00     0.016 A 
ATOM     13  C   UNL A   1      42.863  28.170  26.181  1.00  0.00     0.016 A 
ATOM     14  C   UNL A   1      44.938  29.128  27.763  1.00  0.00     0.010 A 
ATOM     15  C   UNL A   1      42.775  29.436  26.707  1.00  0.00     0.010 A 
ATOM     16  C   UNL A   1      43.767  29.851  27.583  1.00  0.00    -0.014 A 
BRANCH  16  17
ATOM     17  C   UNL A   1      43.659  31.117  28.268  1.00  0.00     0.031 A 
ATOM     18  C   UNL A   1      44.523  32.155  27.663  1.00  0.00     0.074 A 
ATOM     19  C   UNL A   1      42.793  31.258  29.289  1.00  0.00     0.049 A 
ATOM     20  N   UNL A   1      45.571  32.705  28.179  1.00  0.00    -0.248 NA
ATOM     21  C   UNL A   1      44.349  32.442  26.227  1.00  0.00     0.031 C 
ATOM     22  C   UNL A   1      41.800  30.285  29.754  1.00  0.00     0.029 A 
ATOM     23  N   UNL A   1      42.531  32.345  30.058  1.00  0.00    -0.354 N 
ATOM     24  C   UNL A   1      45.983  33.643  27.238  1.00  0.00     0.074 A 
ATOM     25  C   UNL A   1      45.381  33.254  25.994  1.00  0.00     0.031 C 
ATOM     26  C   UNL A   1      40.892  30.910  30.535  1.00  0.00     0.029 A 
ATOM     27  C   UNL A   1      41.307  32.286  30.725  1.00  0.00     0.049 A 
ATOM     28  H   UNL A   1      43.149  33.107  30.139  1.00  0.00     0.167 HD
ATOM     29  C   UNL A   1      46.459  34.849  27.655  1.00  0.00     0.037 A 
ATOM     30  C   UNL A   1      40.659  33.337  31.294  1.00  0.00     0.037 A 
ATOM     31  C   UNL A   1      46.959  34.755  29.009  1.00  0.00     0.049 A 
ATOM     32  C   UNL A   1      41.680  34.400  31.516  1.00  0.00     0.074 A 
ATOM     33  C   UNL A   1      47.885  33.950  29.646  1.00  0.00     0.029 A 
ATOM     34  N   UNL A   1      46.196  35.310  30.008  1.00  0.00    -0.354 N 
ATOM     35  N   UNL A   1      42.668  34.279  32.363  1.00  0.00    -0.248 NA
ATOM     36  C   UNL A   1      41.897  35.358  30.442  1.00  0.00     0.031 C 
ATOM     37  C   UNL A   1      47.330  33.692  30.934  1.00  0.00     0.029 A 
ATOM     38  C   UNL A   1      46.147  34.423  31.049  1.00  0.00     0.049 A 
ATOM     39  H   UNL A   1      45.761  36.194  29.980  1.00  0.00     0.167 HD
ATOM     40  C   UNL A   1      43.773  34.789  31.695  1.00  0.00     0.074 A 
ATOM     41  C   UNL A   1      43.222  35.504  30.542  1.00  0.00     0.031 C 
ATOM     42  C   UNL A   1      45.032  34.333  31.964  1.00  0.00     0.037 A 
BRANCH  29  43
ATOM     43  C   UNL A   1      46.013  36.165  27.042  1.00  0.00     0.058 A 
ATOM     44  C   UNL A   1      46.997  37.111  26.693  1.00  0.00     0.135 A 
ATOM     45  C   UNL A   1      44.687  36.660  27.069  1.00  0.00     0.135 A 
ATOM     46  F   UNL A   1      48.291  36.756  26.624  1.00  0.00    -0.206 F 
ATOM     47  C   UNL A   1      46.704  38.460  26.498  1.00  0.00     0.059 A 
ATOM     48  C   UNL A   1      44.367  37.989  26.831  1.00  0.00     0.059 A 
ATOM     49  F   UNL A   1      43.632  35.915  27.411  1.00  0.00    -0.206 F 
ATOM     50  C   UNL A   1      45.385  38.891  26.587  1.00  0.00     0.060 A 
BRANCH  50  51
ATOM     51  S   UNL A   1      45.006  40.641  26.416  1.00  0.00     0.124 S 
ATOM     52  O   UNL A   1      45.241  40.848  24.992  1.00  0.00    -0.237 OA
ATOM     53  O   UNL A   1      43.615  40.687  26.853  1.00  0.00    -0.237 OA
ATOM     54  O   UNL A   1      45.962  41.279  27.316  1.00  0.00    -0.744 OA
ENDBRANCH  50  51
ENDBRANCH  29  43
BRANCH  30  55
ATOM     55  C   UNL A   1      39.193  33.618  31.285  1.00  0.00     0.058 A 
ATOM     56  C   UNL A   1      38.512  33.891  30.083  1.00  0.00     0.135 A 
ATOM     57  C   UNL A   1      38.379  33.355  32.406  1.00  0.00     0.135 A 
ATOM     58  F   UNL A   1      39.202  34.137  28.959  1.00  0.00    -0.206 F 
ATOM     59  C   UNL A   1      37.115  33.850  29.987  1.00  0.00     0.059 A 
ATOM     60  C   UNL A   1      36.987  33.322  32.336  1.00  0.00     0.059 A 
ATOM     61  F   UNL A   1      38.909  33.027  33.592  1.00  0.00    -0.206 F 
ATOM     62  C   UNL A   1      36.360  33.543  31.118  1.00  0.00     0.060 A 
BRANCH  62  63
ATOM     63  S   UNL A   1      34.572  33.309  30.969  1.00  0.00     0.124 S 
ATOM     64  O   UNL A   1      34.461  32.635  29.680  1.00  0.00    -0.237 OA
ATOM     65  O   UNL A   1      34.266  32.497  32.141  1.00  0.00    -0.237 OA
ATOM     66  O   UNL A   1      34.047  34.673  31.005  1.00  0.00    -0.744 OA
ENDBRANCH  62  63
ENDBRANCH  30  55
BRANCH  42  67
ATOM     67  C   UNL A   1      45.244  33.517  33.214  1.00  0.00     0.058 A 
ATOM     68  C   UNL A   1      45.079  32.123  33.311  1.00  0.00     0.135 A 
ATOM     69  C   UNL A   1      45.767  34.178  34.335  1.00  0.00     0.135 A 
ATOM     70  F   UNL A   1      44.694  31.399  32.250  1.00  0.00    -0.206 F 
ATOM     71  C   UNL A   1      45.367  31.431  34.490  1.00  0.00     0.059 A 
ATOM     72  C   UNL A   1      46.093  33.505  35.507  1.00  0.00     0.059 A 
ATOM     73  F   UNL A   1      46.012  35.499  34.285  1.00  0.00    -0.206 F 
ATOM     74  C   UNL A   1      45.871  32.134  35.585  1.00  0.00     0.060 A 
BRANCH  74  75
ATOM     75  S   UNL A   1      46.275  31.241  37.102  1.00  0.00     0.124 S 
ATOM     76  O   UNL A   1      46.659  32.323  38.003  1.00  0.00    -0.237 OA
ATOM     77  O   UNL A   1      45.019  30.566  37.417  1.00  0.00    -0.237 OA
ATOM     78  O   UNL A   1      47.363  30.353  36.696  1.00  0.00    -0.744 OA
ENDBRANCH  74  75
ENDBRANCH  42  67
ENDBRANCH  16  17
ENDBRANCH   9  11
ENDBRANCH   8   9
ENDBRANCH   7   8
ENDBRANCH   6   7
ENDBRANCH   5   6
ENDBRANCH   4   5
ENDBRANCH   3   4
ENDBRANCH   2   3
ENDBRANCH   1   2
BRANCH   1  79
ATOM     79  C   UNL A   1      38.485  28.510  29.226  1.00  0.00     0.188 C 
BRANCH  79  80
ATOM     80  O   UNL A   1      37.660  28.943  28.153  1.00  0.00    -0.376 OA
BRANCH  80  81
ATOM     81  C   UNL A   1      36.364  29.462  28.390  1.00  0.00     0.202 C 
BRANCH  81  82
ATOM     82  C   UNL A   1      35.313  29.439  27.271  1.00  0.00     0.261 C 
BRANCH  82  83
ATOM     83  O   UNL A   1      33.954  29.225  27.669  1.00  0.00    -0.460 OA
BRANCH  83  84
ATOM     84  C   UNL A   1      33.012  30.058  27.142  1.00  0.00     0.338 C 
ATOM     85  O   UNL A   1      32.883  31.242  27.311  1.00  0.00    -0.246 OA
BRANCH  84  86
ATOM     86  C   UNL A   1      32.193  29.245  26.207  1.00  0.00     0.061 A 
ATOM     87  C   UNL A   1      31.540  29.920  25.187  1.00  0.00     0.019 A 
ATOM     88  C   UNL A   1      32.037  27.844  26.377  1.00  0.00     0.038 A 
ATOM     89  C   UNL A   1      30.750  29.171  24.345  1.00  0.00    -0.043 A 
ATOM     90  C   UNL A   1      31.161  27.094  25.555  1.00  0.00     0.092 A 
ATOM     91  C   UNL A   1      30.498  27.793  24.557  1.00  0.00    -0.024 A 
ATOM     92  C   UNL A   1      30.085  29.668  23.098  1.00  0.00     0.036 C 
ATOM     93  C   UNL A   1      29.475  27.384  23.548  1.00  0.00     0.037 C 
ATOM     94  C   UNL A   1      29.868  28.326  22.403  1.00  0.00     0.010 C 
BRANCH  90  95
ATOM     95  S   UNL A   1      30.798  25.407  26.024  1.00  0.00     0.262 S 
ATOM     96  O   UNL A   1      31.781  25.021  27.018  1.00  0.00    -0.201 OA
ATOM     97  O   UNL A   1      29.392  25.373  26.375  1.00  0.00    -0.201 OA
BRANCH  95  98
ATOM     98  N   UNL A   1      30.961  24.235  24.784  1.00  0.00    -0.277 N 
ATOM     99  H   UNL A   1      30.189  24.065  24.196  1.00  0.00     0.180 HD
BRANCH  98 100
ATOM    100  C   UNL A   1      32.164  23.488  24.563  1.00  0.00     0.075 A 
ATOM    101  C   UNL A   1      32.221  22.165  25.036  1.00  0.00     0.042 A 
ATOM    102  C   UNL A   1      33.220  23.986  23.791  1.00  0.00     0.089 A 
ATOM    103  C   UNL A   1      33.252  21.297  24.622  1.00  0.00     0.058 A 
ATOM    104  C   UNL A   1      34.266  23.139  23.399  1.00  0.00     0.031 A 
ATOM    105  C   UNL A   1      34.281  21.804  23.815  1.00  0.00     0.015 A 
BRANCH 102 106
ATOM    106  N   UNL A   1      33.234  25.329  23.362  1.00  0.00    -0.239 N 
ATOM    107  C   UNL A   1      32.694  25.846  22.208  1.00  0.00     0.115 A 
ATOM    108  N   UNL A   1      33.938  26.262  24.046  1.00  0.00    -0.177 NA
ATOM    109  C   UNL A   1      33.233  27.098  22.047  1.00  0.00     0.042 A 
ATOM    110  C   UNL A   1      34.032  27.281  23.187  1.00  0.00     0.135 A 
ENDBRANCH 102 106
BRANCH 103 111
ATOM    111  C   UNL A   1      33.177  19.820  24.943  1.00  0.00     0.416 C 
ATOM    112  F   UNL A   1      32.041  19.235  24.480  1.00  0.00    -0.166 F 
ATOM    113  F   UNL A   1      34.212  19.121  24.400  1.00  0.00    -0.166 F 
ATOM    114  F   UNL A   1      33.221  19.558  26.280  1.00  0.00    -0.166 F 
ENDBRANCH 103 111
ENDBRANCH  98 100
ENDBRANCH  95  98
ENDBRANCH  90  95
ENDBRANCH  84  86
ENDBRANCH  83  84
ENDBRANCH  82  83
ENDBRANCH  81  82
ENDBRANCH  80  81
ENDBRANCH  79  80
ENDBRANCH   1  79
TORSDOF 28
ENDMDL
MODEL 2
REMARK VINA RESULT:      -8.6      2.042      2.788
REMARK SMILES O=C(OCCOCCOCCOCCOC(=O)c1cc2c(c(S(=O)(=O)Nc3cc(C(F)(F)F)ccc3-n3cccn3)c1)CCC2)c1ccc(-c2c3nc(c(-c4c(F)cc(S(=O)(=O)[O-])cc4F)c4ccc([nH]4)c(-c4c(F)cc(S(=O)(=O)[O-])cc4F)c4nc(c(-c5c(F)cc(S(=O)(=O)[O-])cc5F)c5ccc2[nH]5)C=C4)C=C3)cc1
REMARK SMILES IDX 10 1 9 2 8 3 7 4 6 5 5 6 4 7 3 8 2 9 1 10 46 11 47 12 111 13
REMARK SMILES IDX 48 14 110 15 49 16 50 17 51 18 104 19 52 20 109 21 103 22
REMARK SMILES IDX 105 23 53 24 108 25 102 26 101 27 54 29 88 30 67 31 87 32
REMARK SMILES IDX 68 33 71 34 86 35 106 36 69 37 70 38 85 40 107 41 72 42
REMARK SMILES IDX 55 43 56 44 65 45 57 46 58 47 64 48 66 49 59 50 60 51 61 52
REMARK SMILES IDX 62 53 63 54 89 55 90 56 99 57 91 58 92 59 98 60 100 61 93 62
REMARK SMILES IDX 94 63 95 64 96 65 97 66 73 67 74 68 83 69 75 70 76 71 82 72
REMARK SMILES IDX 84 73 77 74 78 75 79 76 80 77 81 78 11 79 12 80 13 81 14 82
REMARK SMILES IDX 15 83 16 84 17 85 18 86 19 87 42 88 20 89 22 90 21 91 45 92
REMARK SMILES IDX 43 93 44 94 23 95 24 96 25 97 26 98 27 100 28 101 36 102
REMARK SMILES IDX 29 103 35 104 34 105 37 106 38 107 41 108 39 109 40 110
REMARK SMILES IDX 30 111 31 112 32 113 33 114
REMARK H PARENT 105 28 71 39 26 99
REMARK Flexibility Score: inf
ROOT
ATOM      1  C   UNL A   1      39.529  26.678  28.853  1.00  0.00     0.188 C 
ENDROOT
BRANCH   1   2
ATOM      2  O   UNL A   1      39.859  26.605  27.486  1.00  0.00    -0.377 OA
BRANCH   2   3
ATOM      3  C   UNL A   1      39.720  25.304  26.947  1.00  0.00     0.188 C 
BRANCH   3   4
ATOM      4  C   UNL A   1      40.901  24.746  26.127  1.00  0.00     0.188 C 
BRANCH   4   5
ATOM      5  O   UNL A   1      42.009  24.010  26.629  1.00  0.00    -0.376 OA
BRANCH   5   6
ATOM      6  C   UNL A   1      43.369  24.360  26.792  1.00  0.00     0.202 C 
BRANCH   6   7
ATOM      7  C   UNL A   1      43.905  25.782  26.938  1.00  0.00     0.261 C 
BRANCH   7   8
ATOM      8  O   UNL A   1      43.880  26.559  25.752  1.00  0.00    -0.460 OA
BRANCH   8   9
ATOM      9  C   UNL A   1      43.209  27.705  25.532  1.00  0.00     0.338 C 
ATOM     10  O   UNL A   1      42.591  27.812  24.473  1.00  0.00    -0.246 OA
BRANCH   9  11
ATOM     11  C   UNL A   1      43.207  28.869  26.459  1.00  0.00     0.060 A 
ATOM     12  C   UNL A   1      44.296  29.676  26.800  1.00  0.00     0.016 A 
ATOM     13  C   UNL A   1      41.962  29.125  27.060  1.00  0.00     0.016 A 
ATOM     14  C   UNL A   1      44.227  30.501  27.896  1.00  0.00     0.010 A 
ATOM     15  C   UNL A   1      41.868  29.986  28.127  1.00  0.00     0.010 A 
ATOM     16  C   UNL A   1      43.032  30.576  28.596  1.00  0.00    -0.014 A 
BRANCH  16  17
ATOM     17  C   UNL A   1      43.015  31.384  29.792  1.00  0.00     0.031 A 
ATOM     18  C   UNL A   1      44.118  32.369  29.818  1.00  0.00     0.074 A 
ATOM     19  C   UNL A   1      42.027  31.230  30.694  1.00  0.00     0.049 A 
ATOM     20  N   UNL A   1      45.142  32.385  30.604  1.00  0.00    -0.248 NA
ATOM     21  C   UNL A   1      44.228  33.306  28.684  1.00  0.00     0.031 C 
ATOM     22  C   UNL A   1      40.830  30.392  30.569  1.00  0.00     0.029 A 
ATOM     23  N   UNL A   1      41.817  31.878  31.869  1.00  0.00    -0.354 N 
ATOM     24  C   UNL A   1      45.844  33.534  30.255  1.00  0.00     0.074 A 
ATOM     25  C   UNL A   1      45.400  33.891  28.938  1.00  0.00     0.031 C 
ATOM     26  C   UNL A   1      39.918  30.774  31.488  1.00  0.00     0.029 A 
ATOM     27  C   UNL A   1      40.507  31.789  32.340  1.00  0.00     0.049 A 
ATOM     28  H   UNL A   1      42.526  32.367  32.346  1.00  0.00     0.167 HD
ATOM     29  C   UNL A   1      46.429  34.284  31.229  1.00  0.00     0.037 A 
ATOM     30  C   UNL A   1      39.948  32.580  33.294  1.00  0.00     0.037 A 
ATOM     31  C   UNL A   1      46.681  33.482  32.406  1.00  0.00     0.049 A 
ATOM     32  C   UNL A   1      41.074  33.178  34.066  1.00  0.00     0.074 A 
ATOM     33  C   UNL A   1      47.352  32.297  32.645  1.00  0.00     0.029 A 
ATOM     34  N   UNL A   1      45.862  33.674  33.493  1.00  0.00    -0.354 N 
ATOM     35  N   UNL A   1      41.879  32.477  34.819  1.00  0.00    -0.248 NA
ATOM     36  C   UNL A   1      41.612  34.447  33.596  1.00  0.00     0.031 C 
ATOM     37  C   UNL A   1      46.561  31.610  33.613  1.00  0.00     0.029 A 
ATOM     38  C   UNL A   1      45.505  32.445  33.979  1.00  0.00     0.049 A 
ATOM     39  H   UNL A   1      45.582  34.545  33.859  1.00  0.00     0.167 HD
ATOM     40  C   UNL A   1      43.145  32.983  34.554  1.00  0.00     0.074 A 
ATOM     41  C   UNL A   1      42.909  34.241  33.846  1.00  0.00     0.031 C 
ATOM     42  C   UNL A   1      44.255  32.194  34.660  1.00  0.00     0.037 A 
BRANCH  29  43
ATOM     43  C   UNL A   1      46.302  35.797  31.288  1.00  0.00     0.058 A 
ATOM     44  C   UNL A   1      45.015  36.366  31.201  1.00  0.00     0.135 A 
ATOM     45  C   UNL A   1      47.374  36.705  31.113  1.00  0.00     0.135 A 
ATOM     46  F   UNL A   1      43.920  35.606  31.359  1.00  0.00    -0.206 F 
ATOM     47  C   UNL A   1      44.809  37.702  30.857  1.00  0.00     0.059 A 
ATOM     48  C   UNL A   1      47.191  38.049  30.818  1.00  0.00     0.059 A 
ATOM     49  F   UNL A   1      48.658  36.337  31.130  1.00  0.00    -0.206 F 
ATOM     50  C   UNL A   1      45.907  38.531  30.650  1.00  0.00     0.060 A 
BRANCH  50  51
ATOM     51  S   UNL A   1      45.652  40.233  30.129  1.00  0.00     0.124 S 
ATOM     52  O   UNL A   1      45.111  40.828  31.346  1.00  0.00    -0.237 OA
ATOM     53  O   UNL A   1      47.005  40.636  29.761  1.00  0.00    -0.237 OA
ATOM     54  O   UNL A   1      44.717  40.105  29.016  1.00  0.00    -0.744 OA
ENDBRANCH  50  51
ENDBRANCH  29  43
BRANCH  30  55
ATOM     55  C   UNL A   1      38.567  33.144  33.317  1.00  0.00     0.058 A 
ATOM     56  C   UNL A   1      38.174  34.145  32.409  1.00  0.00     0.135 A 
ATOM     57  C   UNL A   1      37.524  32.526  34.039  1.00  0.00     0.135 A 
ATOM     58  F   UNL A   1      39.093  34.778  31.666  1.00  0.00    -0.206 F 
ATOM     59  C   UNL A   1      36.830  34.474  32.190  1.00  0.00     0.059 A 
ATOM     60  C   UNL A   1      36.181  32.845  33.847  1.00  0.00     0.059 A 
ATOM     61  F   UNL A   1      37.766  31.520  34.891  1.00  0.00    -0.206 F 
ATOM     62  C   UNL A   1      35.836  33.801  32.901  1.00  0.00     0.060 A 
BRANCH  62  63
ATOM     63  S   UNL A   1      34.095  34.084  32.500  1.00  0.00     0.124 S 
ATOM     64  O   UNL A   1      33.440  32.987  33.203  1.00  0.00    -0.237 OA
ATOM     65  O   UNL A   1      33.864  35.418  33.043  1.00  0.00    -0.237 OA
ATOM     66  O   UNL A   1      34.064  33.995  31.042  1.00  0.00    -0.744 OA
ENDBRANCH  62  63
ENDBRANCH  30  55
BRANCH  42  67
ATOM     67  C   UNL A   1      44.130  30.876  35.382  1.00  0.00     0.058 A 
ATOM     68  C   UNL A   1      43.858  29.639  34.770  1.00  0.00     0.135 A 
ATOM     69  C   UNL A   1      44.430  30.859  36.752  1.00  0.00     0.135 A 
ATOM     70  F   UNL A   1      43.674  29.551  33.444  1.00  0.00    -0.206 F 
ATOM     71  C   UNL A   1      43.830  28.449  35.501  1.00  0.00     0.059 A 
ATOM     72  C   UNL A   1      44.442  29.684  37.493  1.00  0.00     0.059 A 
ATOM     73  F   UNL A   1      44.764  31.998  37.382  1.00  0.00    -0.206 F 
ATOM     74  C   UNL A   1      44.120  28.484  36.866  1.00  0.00     0.060 A 
BRANCH  74  75
ATOM     75  S   UNL A   1      44.116  26.945  37.813  1.00  0.00     0.124 S 
ATOM     76  O   UNL A   1      45.008  26.099  37.027  1.00  0.00    -0.237 OA
ATOM     77  O   UNL A   1      44.625  27.372  39.113  1.00  0.00    -0.237 OA
ATOM     78  O   UNL A   1      42.711  26.544  37.806  1.00  0.00    -0.744 OA
ENDBRANCH  74  75
ENDBRANCH  42  67
ENDBRANCH  16  17
ENDBRANCH   9  11
ENDBRANCH   8   9
ENDBRANCH   7   8
ENDBRANCH   6   7
ENDBRANCH   5   6
ENDBRANCH   4   5
ENDBRANCH   3   4
ENDBRANCH   2   3
ENDBRANCH   1   2
BRANCH   1  79
ATOM     79  C   UNL A   1      38.552  27.823  29.198  1.00  0.00     0.188 C 
BRANCH  79  80
ATOM     80  O   UNL A   1      37.904  28.590  28.193  1.00  0.00    -0.376 OA
BRANCH  80  81
ATOM     81  C   UNL A   1      36.746  29.350  28.485  1.00  0.00     0.202 C 
BRANCH  81  82
ATOM     82  C   UNL A   1      35.760  29.705  27.363  1.00  0.00     0.261 C 
BRANCH  82  83
ATOM     83  O   UNL A   1      34.472  29.078  27.416  1.00  0.00    -0.460 OA
BRANCH  83  84
ATOM     84  C   UNL A   1      33.383  29.875  27.223  1.00  0.00     0.338 C 
ATOM     85  O   UNL A   1      33.191  30.990  27.631  1.00  0.00    -0.246 OA
BRANCH  84  86
ATOM     86  C   UNL A   1      32.473  29.144  26.305  1.00  0.00     0.061 A 
ATOM     87  C   UNL A   1      31.753  29.901  25.392  1.00  0.00     0.019 A 
ATOM     88  C   UNL A   1      32.301  27.737  26.387  1.00  0.00     0.038 A 
ATOM     89  C   UNL A   1      30.881  29.227  24.568  1.00  0.00    -0.043 A 
ATOM     90  C   UNL A   1      31.346  27.062  25.590  1.00  0.00     0.092 A 
ATOM     91  C   UNL A   1      30.618  27.842  24.702  1.00  0.00    -0.024 A 
ATOM     92  C   UNL A   1      30.127  29.823  23.419  1.00  0.00     0.036 C 
ATOM     93  C   UNL A   1      29.508  27.522  23.756  1.00  0.00     0.037 C 
ATOM     94  C   UNL A   1      29.825  28.538  22.651  1.00  0.00     0.010 C 
BRANCH  90  95
ATOM     95  S   UNL A   1      30.986  25.351  25.967  1.00  0.00     0.262 S 
ATOM     96  O   UNL A   1      31.968  24.916  26.942  1.00  0.00    -0.201 OA
ATOM     97  O   UNL A   1      29.579  25.295  26.311  1.00  0.00    -0.201 OA
BRANCH  95  98
ATOM     98  N   UNL A   1      31.156  24.247  24.667  1.00  0.00    -0.277 N 
ATOM     99  H   UNL A   1      30.418  24.169  24.020  1.00  0.00     0.180 HD
BRANCH  98 100
ATOM    100  C   UNL A   1      32.319  23.431  24.477  1.00  0.00     0.075 A 
ATOM    101  C   UNL A   1      32.359  22.175  25.109  1.00  0.00     0.042 A 
ATOM    102  C   UNL A   1      33.346  23.787  23.595  1.00  0.00     0.089 A 
ATOM    103  C   UNL A   1      33.335  21.222  24.753  1.00  0.00     0.058 A 
ATOM    104  C   UNL A   1      34.338  22.857  23.257  1.00  0.00     0.031 A 
ATOM    105  C   UNL A   1      34.332  21.584  23.835  1.00  0.00     0.015 A 
BRANCH 102 106
ATOM    106  N   UNL A   1      33.380  25.066  23.001  1.00  0.00    -0.239 N 
ATOM    107  C   UNL A   1      34.017  26.191  23.469  1.00  0.00     0.115 A 
ATOM    108  N   UNL A   1      32.631  25.334  21.905  1.00  0.00    -0.177 NA
ATOM    109  C   UNL A   1      33.503  27.254  22.769  1.00  0.00     0.042 A 
ATOM    110  C   UNL A   1      32.616  26.670  21.851  1.00  0.00     0.135 A 
ENDBRANCH 102 106
BRANCH 103 111
ATOM    111  C   UNL A   1      33.229  19.800  25.259  1.00  0.00     0.416 C 
ATOM    112  F   UNL A   1      32.188  19.118  24.711  1.00  0.00    -0.166 F 
ATOM    113  F   UNL A   1      34.346  19.070  24.986  1.00  0.00    -0.166 F 
ATOM    114  F   UNL A   1      33.063  19.722  26.610  1.00  0.00    -0.166 F 
ENDBRANCH 103 111
ENDBRANCH  98 100
ENDBRANCH  95  98
ENDBRANCH  90  95
ENDBRANCH  84  86
ENDBRANCH  83  84
ENDBRANCH  82  83
ENDBRANCH  81  82
ENDBRANCH  80  81
ENDBRANCH  79  80
ENDBRANCH   1  79
TORSDOF 28
ENDMDL
MODEL 3
REMARK VINA RESULT:      -7.6      5.337     11.049
REMARK SMILES O=C(OCCOCCOCCOCCOC(=O)c1cc2c(c(S(=O)(=O)Nc3cc(C(F)(F)F)ccc3-n3cccn3)c1)CCC2)c1ccc(-c2c3nc(c(-c4c(F)cc(S(=O)(=O)[O-])cc4F)c4ccc([nH]4)c(-c4c(F)cc(S(=O)(=O)[O-])cc4F)c4nc(c(-c5c(F)cc(S(=O)(=O)[O-])cc5F)c5ccc2[nH]5)C=C4)C=C3)cc1
REMARK SMILES IDX 10 1 9 2 8 3 7 4 6 5 5 6 4 7 3 8 2 9 1 10 46 11 47 12 111 13
REMARK SMILES IDX 48 14 110 15 49 16 50 17 51 18 104 19 52 20 109 21 103 22
REMARK SMILES IDX 105 23 53 24 108 25 102 26 101 27 54 29 88 30 67 31 87 32
REMARK SMILES IDX 68 33 71 34 86 35 106 36 69 37 70 38 85 40 107 41 72 42
REMARK SMILES IDX 55 43 56 44 65 45 57 46 58 47 64 48 66 49 59 50 60 51 61 52
REMARK SMILES IDX 62 53 63 54 89 55 90 56 99 57 91 58 92 59 98 60 100 61 93 62
REMARK SMILES IDX 94 63 95 64 96 65 97 66 73 67 74 68 83 69 75 70 76 71 82 72
REMARK SMILES IDX 84 73 77 74 78 75 79 76 80 77 81 78 11 79 12 80 13 81 14 82
REMARK SMILES IDX 15 83 16 84 17 85 18 86 19 87 42 88 20 89 22 90 21 91 45 92
REMARK SMILES IDX 43 93 44 94 23 95 24 96 25 97 26 98 27 100 28 101 36 102
REMARK SMILES IDX 29 103 35 104 34 105 37 106 38 107 41 108 39 109 40 110
REMARK SMILES IDX 30 111 31 112 32 113 33 114
REMARK H PARENT 105 28 71 39 26 99
REMARK Flexibility Score: inf
ROOT
ATOM      1  C   UNL A   1      42.182  31.715  41.527  1.00  0.00     0.188 C 
ENDROOT
BRANCH   1   2
ATOM      2  O   UNL A   1      40.891  32.273  41.585  1.00  0.00    -0.377 OA
BRANCH   2   3
ATOM      3  C   UNL A   1      40.645  33.218  40.561  1.00  0.00     0.188 C 
BRANCH   3   4
ATOM      4  C   UNL A   1      39.262  33.183  39.879  1.00  0.00     0.188 C 
BRANCH   4   5
ATOM      5  O   UNL A   1      38.758  34.119  38.936  1.00  0.00    -0.376 OA
BRANCH   5   6
ATOM      6  C   UNL A   1      39.063  34.329  37.571  1.00  0.00     0.202 C 
BRANCH   6   7
ATOM      7  C   UNL A   1      39.969  33.442  36.721  1.00  0.00     0.261 C 
BRANCH   7   8
ATOM      8  O   UNL A   1      40.456  34.044  35.533  1.00  0.00    -0.460 OA
BRANCH   8   9
ATOM      9  C   UNL A   1      41.736  34.309  35.209  1.00  0.00     0.338 C 
ATOM     10  O   UNL A   1      42.204  35.390  35.566  1.00  0.00    -0.246 OA
BRANCH   9  11
ATOM     11  C   UNL A   1      42.605  33.407  34.407  1.00  0.00     0.060 A 
ATOM     12  C   UNL A   1      43.916  33.021  34.700  1.00  0.00     0.016 A 
ATOM     13  C   UNL A   1      42.016  32.946  33.216  1.00  0.00     0.016 A 
ATOM     14  C   UNL A   1      44.703  32.453  33.727  1.00  0.00     0.010 A 
ATOM     15  C   UNL A   1      42.779  32.331  32.253  1.00  0.00     0.010 A 
ATOM     16  C   UNL A   1      44.140  32.196  32.485  1.00  0.00    -0.014 A 
BRANCH  16  17
ATOM     17  C   UNL A   1      45.011  31.679  31.457  1.00  0.00     0.031 A 
ATOM     18  C   UNL A   1      45.315  32.691  30.421  1.00  0.00     0.074 A 
ATOM     19  C   UNL A   1      45.495  30.426  31.552  1.00  0.00     0.049 A 
ATOM     20  N   UNL A   1      44.934  32.692  29.187  1.00  0.00    -0.248 NA
ATOM     21  C   UNL A   1      45.904  33.970  30.861  1.00  0.00     0.031 C 
ATOM     22  C   UNL A   1      45.349  29.499  32.679  1.00  0.00     0.029 A 
ATOM     23  N   UNL A   1      46.321  29.750  30.713  1.00  0.00    -0.354 N 
ATOM     24  C   UNL A   1      45.524  33.824  28.632  1.00  0.00     0.074 A 
ATOM     25  C   UNL A   1      45.863  34.680  29.733  1.00  0.00     0.031 C 
ATOM     26  C   UNL A   1      46.258  28.508  32.564  1.00  0.00     0.029 A 
ATOM     27  C   UNL A   1      46.959  28.658  31.303  1.00  0.00     0.049 A 
ATOM     28  H   UNL A   1      46.458  30.007  29.773  1.00  0.00     0.167 HD
ATOM     29  C   UNL A   1      46.017  33.770  27.364  1.00  0.00     0.037 A 
ATOM     30  C   UNL A   1      48.048  28.012  30.811  1.00  0.00     0.037 A 
ATOM     31  C   UNL A   1      45.371  32.717  26.612  1.00  0.00     0.049 A 
ATOM     32  C   UNL A   1      48.115  28.332  29.357  1.00  0.00     0.074 A 
ATOM     33  C   UNL A   1      44.057  32.399  26.323  1.00  0.00     0.029 A 
ATOM     34  N   UNL A   1      46.094  31.573  26.371  1.00  0.00    -0.354 N 
ATOM     35  N   UNL A   1      47.222  27.928  28.491  1.00  0.00    -0.248 NA
ATOM     36  C   UNL A   1      48.871  29.512  28.962  1.00  0.00     0.031 C 
ATOM     37  C   UNL A   1      43.996  30.975  26.388  1.00  0.00     0.029 A 
ATOM     38  C   UNL A   1      45.285  30.497  26.621  1.00  0.00     0.049 A 
ATOM     39  H   UNL A   1      47.032  31.535  26.070  1.00  0.00     0.167 HD
ATOM     40  C   UNL A   1      46.993  29.029  27.677  1.00  0.00     0.074 A 
ATOM     41  C   UNL A   1      48.090  29.952  27.971  1.00  0.00     0.031 C 
ATOM     42  C   UNL A   1      45.783  29.217  27.072  1.00  0.00     0.037 A 
BRANCH  29  43
ATOM     43  C   UNL A   1      47.386  34.314  26.991  1.00  0.00     0.058 A 
ATOM     44  C   UNL A   1      47.486  35.179  25.884  1.00  0.00     0.135 A 
ATOM     45  C   UNL A   1      48.616  33.793  27.460  1.00  0.00     0.135 A 
ATOM     46  F   UNL A   1      46.387  35.742  25.356  1.00  0.00    -0.206 F 
ATOM     47  C   UNL A   1      48.693  35.418  25.227  1.00  0.00     0.059 A 
ATOM     48  C   UNL A   1      49.835  34.058  26.850  1.00  0.00     0.059 A 
ATOM     49  F   UNL A   1      48.709  32.933  28.478  1.00  0.00    -0.206 F 
ATOM     50  C   UNL A   1      49.860  34.837  25.710  1.00  0.00     0.060 A 
BRANCH  50  51
ATOM     51  S   UNL A   1      51.406  35.075  24.824  1.00  0.00     0.124 S 
ATOM     52  O   UNL A   1      51.541  33.799  24.131  1.00  0.00    -0.237 OA
ATOM     53  O   UNL A   1      51.095  36.231  23.990  1.00  0.00    -0.237 OA
ATOM     54  O   UNL A   1      52.369  35.322  25.894  1.00  0.00    -0.744 OA
ENDBRANCH  50  51
ENDBRANCH  29  43
BRANCH  30  55
ATOM     55  C   UNL A   1      49.217  27.484  31.573  1.00  0.00     0.058 A 
ATOM     56  C   UNL A   1      49.590  26.129  31.489  1.00  0.00     0.135 A 
ATOM     57  C   UNL A   1      50.157  28.343  32.180  1.00  0.00     0.135 A 
ATOM     58  F   UNL A   1      48.767  25.239  30.913  1.00  0.00    -0.206 F 
ATOM     59  C   UNL A   1      50.837  25.665  31.928  1.00  0.00     0.059 A 
ATOM     60  C   UNL A   1      51.399  27.901  32.635  1.00  0.00     0.059 A 
ATOM     61  F   UNL A   1      49.942  29.662  32.268  1.00  0.00    -0.206 F 
ATOM     62  C   UNL A   1      51.746  26.566  32.481  1.00  0.00     0.060 A 
BRANCH  62  63
ATOM     63  S   UNL A   1      53.422  26.019  32.884  1.00  0.00     0.124 S 
ATOM     64  O   UNL A   1      53.222  25.346  34.163  1.00  0.00    -0.237 OA
ATOM     65  O   UNL A   1      53.747  25.155  31.754  1.00  0.00    -0.237 OA
ATOM     66  O   UNL A   1      54.181  27.266  32.949  1.00  0.00    -0.744 OA
ENDBRANCH  62  63
ENDBRANCH  30  55
BRANCH  42  67
ATOM     67  C   UNL A   1      44.817  28.061  27.028  1.00  0.00     0.058 A 
ATOM     68  C   UNL A   1      43.964  27.677  28.079  1.00  0.00     0.135 A 
ATOM     69  C   UNL A   1      44.665  27.392  25.805  1.00  0.00     0.135 A 
ATOM     70  F   UNL A   1      43.964  28.340  29.245  1.00  0.00    -0.206 F 
ATOM     71  C   UNL A   1      43.044  26.636  27.934  1.00  0.00     0.059 A 
ATOM     72  C   UNL A   1      43.732  26.377  25.626  1.00  0.00     0.059 A 
ATOM     73  F   UNL A   1      45.402  27.757  24.742  1.00  0.00    -0.206 F 
ATOM     74  C   UNL A   1      42.939  25.989  26.702  1.00  0.00     0.060 A 
BRANCH  74  75
ATOM     75  S   UNL A   1      41.729  24.663  26.496  1.00  0.00     0.124 S 
ATOM     76  O   UNL A   1      42.444  23.725  25.639  1.00  0.00    -0.237 OA
ATOM     77  O   UNL A   1      41.504  24.225  27.871  1.00  0.00    -0.237 OA
ATOM     78  O   UNL A   1      40.590  25.334  25.873  1.00  0.00    -0.744 OA
ENDBRANCH  74  75
ENDBRANCH  42  67
ENDBRANCH  16  17
ENDBRANCH   9  11
ENDBRANCH   8   9
ENDBRANCH   7   8
ENDBRANCH   6   7
ENDBRANCH   5   6
ENDBRANCH   4   5
ENDBRANCH   3   4
ENDBRANCH   2   3
ENDBRANCH   1   2
BRANCH   1  79
ATOM     79  C   UNL A   1      43.082  32.335  40.437  1.00  0.00     0.188 C 
BRANCH  79  80
ATOM     80  O   UNL A   1      43.509  31.595  39.301  1.00  0.00    -0.376 OA
BRANCH  80  81
ATOM     81  C   UNL A   1      42.924  31.805  38.028  1.00  0.00     0.202 C 
BRANCH  81  82
ATOM     82  C   UNL A   1      42.757  30.627  37.059  1.00  0.00     0.261 C 
BRANCH  82  83
ATOM     83  O   UNL A   1      41.477  30.489  36.429  1.00  0.00    -0.460 OA
BRANCH  83  84
ATOM     84  C   UNL A   1      41.184  29.278  35.874  1.00  0.00     0.338 C 
ATOM     85  O   UNL A   1      41.229  28.191  36.387  1.00  0.00    -0.246 OA
BRANCH  84  86
ATOM     86  C   UNL A   1      40.685  29.543  34.501  1.00  0.00     0.061 A 
ATOM     87  C   UNL A   1      41.411  29.005  33.449  1.00  0.00     0.019 A 
ATOM     88  C   UNL A   1      39.545  30.356  34.265  1.00  0.00     0.038 A 
ATOM     89  C   UNL A   1      40.970  29.284  32.176  1.00  0.00    -0.043 A 
ATOM     90  C   UNL A   1      39.145  30.702  32.952  1.00  0.00     0.092 A 
ATOM     91  C   UNL A   1      39.901  30.174  31.914  1.00  0.00    -0.024 A 
ATOM     92  C   UNL A   1      41.510  28.684  30.913  1.00  0.00     0.036 C 
ATOM     93  C   UNL A   1      39.837  30.346  30.432  1.00  0.00     0.037 C 
ATOM     94  C   UNL A   1      40.314  28.952  30.002  1.00  0.00     0.010 C 
BRANCH  90  95
ATOM     95  S   UNL A   1      37.892  31.963  32.753  1.00  0.00     0.262 S 
ATOM     96  O   UNL A   1      37.590  32.473  34.078  1.00  0.00    -0.201 OA
ATOM     97  O   UNL A   1      38.387  32.877  31.743  1.00  0.00    -0.201 OA
BRANCH  95  98
ATOM     98  N   UNL A   1      36.381  31.427  32.147  1.00  0.00    -0.277 N 
ATOM     99  H   UNL A   1      35.779  30.940  32.755  1.00  0.00     0.180 HD
BRANCH  98 100
ATOM    100  C   UNL A   1      35.952  31.653  30.798  1.00  0.00     0.075 A 
ATOM    101  C   UNL A   1      36.466  30.817  29.790  1.00  0.00     0.042 A 
ATOM    102  C   UNL A   1      34.958  32.583  30.475  1.00  0.00     0.089 A 
ATOM    103  C   UNL A   1      35.890  30.806  28.503  1.00  0.00     0.058 A 
ATOM    104  C   UNL A   1      34.400  32.601  29.190  1.00  0.00     0.031 A 
ATOM    105  C   UNL A   1      34.866  31.718  28.211  1.00  0.00     0.015 A 
BRANCH 102 106
ATOM    106  N   UNL A   1      34.473  33.488  31.442  1.00  0.00    -0.239 N 
ATOM    107  C   UNL A   1      34.494  34.862  31.389  1.00  0.00     0.115 A 
ATOM    108  N   UNL A   1      34.025  33.041  32.639  1.00  0.00    -0.177 NA
ATOM    109  C   UNL A   1      34.239  35.309  32.662  1.00  0.00     0.042 A 
ATOM    110  C   UNL A   1      34.006  34.139  33.401  1.00  0.00     0.135 A 
ENDBRANCH 102 106
BRANCH 103 111
ATOM    111  C   UNL A   1      36.288  29.743  27.501  1.00  0.00     0.416 C 
ATOM    112  F   UNL A   1      36.282  28.490  28.027  1.00  0.00    -0.166 F 
ATOM    113  F   UNL A   1      35.452  29.708  26.427  1.00  0.00    -0.166 F 
ATOM    114  F   UNL A   1      37.536  29.933  26.986  1.00  0.00    -0.166 F 
ENDBRANCH 103 111
ENDBRANCH  98 100
ENDBRANCH  95  98
ENDBRANCH  90  95
ENDBRANCH  84  86
ENDBRANCH  83  84
ENDBRANCH  82  83
ENDBRANCH  81  82
ENDBRANCH  80  81
ENDBRANCH  79  80
ENDBRANCH   1  79
TORSDOF 28
ENDMDL
