MODEL 1
REMARK VINA RESULT:     -10.4      0.000      0.000
REMARK SMILES Cc1cc2c(c(C)c1Cl)C=C(C(=O)OCCOCCOCCOCCOC(=O)c1ccc(-c3c4nc(c(-c5c(F)cc(S(=O)(=O)[O-])cc5F)c5ccc([nH]5)c(-c5c(F)cc(S(=O)(=O)[O-])cc5F)c5nc(c(-c6c(F)cc(S(=O)(=O)[O-])cc6F)c6ccc3[nH]6)C=C5)C=C4)cc1)[C@@H](C(F)(F)F)O2
REMARK SMILES IDX 21 1 20 2 19 3 18 4 17 5 16 6 15 7 14 8 12 9 13 10 11 11
REMARK SMILES IDX 1 12 2 13 3 14 8 15 4 16 6 17 9 18 5 19 100 20 7 21 10 22
REMARK SMILES IDX 95 23 96 24 97 25 98 26 99 27 22 28 23 29 24 30 25 31 26 32
REMARK SMILES IDX 27 33 28 34 29 35 30 36 94 37 31 38 93 39 32 40 33 41 34 42
REMARK SMILES IDX 87 43 35 44 92 45 86 46 88 47 36 48 91 49 85 50 84 51 37 53
REMARK SMILES IDX 71 54 50 55 70 56 51 57 54 58 69 59 89 60 52 61 53 62 68 64
REMARK SMILES IDX 90 65 55 66 38 67 39 68 48 69 40 70 41 71 47 72 49 73 42 74
REMARK SMILES IDX 43 75 44 76 45 77 46 78 72 79 73 80 82 81 74 82 75 83 81 84
REMARK SMILES IDX 83 85 76 86 77 87 78 88 79 89 80 90 56 91 57 92 66 93 58 94
REMARK SMILES IDX 59 95 65 96 67 97 60 98 61 99 62 100 63 101 64 102
REMARK H PARENT 88 52 54 63
REMARK Flexibility Score: inf
ROOT
ATOM      1  C   UNL A   1      42.283  19.703  27.196  1.00  0.00     0.188 C 
ENDROOT
BRANCH   1   2
ATOM      2  O   UNL A   1      40.905  20.059  27.326  1.00  0.00    -0.377 OA
BRANCH   2   3
ATOM      3  C   UNL A   1      40.141  20.204  26.142  1.00  0.00     0.188 C 
BRANCH   3   4
ATOM      4  C   UNL A   1      39.386  21.546  26.066  1.00  0.00     0.188 C 
BRANCH   4   5
ATOM      5  O   UNL A   1      38.315  21.554  25.141  1.00  0.00    -0.376 OA
BRANCH   5   6
ATOM      6  C   UNL A   1      37.038  22.073  25.475  1.00  0.00     0.202 C 
BRANCH   6   7
ATOM      7  C   UNL A   1      36.726  23.552  25.776  1.00  0.00     0.261 C 
BRANCH   7   8
ATOM      8  O   UNL A   1      35.632  24.151  25.085  1.00  0.00    -0.460 OA
BRANCH   8   9
ATOM      9  C   UNL A   1      34.454  24.226  25.727  1.00  0.00     0.338 C 
ATOM     10  O   UNL A   1      34.132  23.639  26.744  1.00  0.00    -0.246 OA
BRANCH   9  11
ATOM     11  C   UNL A   1      33.672  25.309  25.091  1.00  0.00     0.087 C 
ATOM     12  C   UNL A   1      29.776  30.281  23.815  1.00  0.00     0.046 C 
ATOM     13  C   UNL A   1      30.915  29.407  24.263  1.00  0.00    -0.028 A 
ATOM     14  C   UNL A   1      31.185  28.235  23.547  1.00  0.00     0.052 A 
ATOM     15  C   UNL A   1      31.690  29.705  25.401  1.00  0.00     0.047 A 
ATOM     16  C   UNL A   1      32.122  27.318  24.013  1.00  0.00     0.128 A 
ATOM     17  C   UNL A   1      32.673  28.804  25.866  1.00  0.00    -0.021 A 
ATOM     18  Cl  UNL A   1      31.380  31.191  26.248  1.00  0.00    -0.084 Cl
ATOM     19  C   UNL A   1      32.820  27.562  25.199  1.00  0.00     0.022 A 
ATOM     20  O   UNL A   1      32.264  26.199  23.245  1.00  0.00    -0.475 OA
ATOM     21  C   UNL A   1      33.562  29.127  27.046  1.00  0.00     0.047 C 
ATOM     22  C   UNL A   1      33.611  26.469  25.757  1.00  0.00     0.027 C 
ATOM     23  C   UNL A   1      33.065  25.090  23.733  1.00  0.00     0.316 C 
BRANCH  23  24
ATOM     24  C   UNL A   1      32.200  23.824  23.676  1.00  0.00     0.430 C 
ATOM     25  F   UNL A   1      32.918  22.758  23.248  1.00  0.00    -0.167 F 
ATOM     26  F   UNL A   1      31.692  23.498  24.885  1.00  0.00    -0.167 F 
ATOM     27  F   UNL A   1      31.157  23.977  22.825  1.00  0.00    -0.167 F 
ENDBRANCH  23  24
ENDBRANCH   9  11
ENDBRANCH   8   9
ENDBRANCH   7   8
ENDBRANCH   6   7
ENDBRANCH   5   6
ENDBRANCH   4   5
ENDBRANCH   3   4
ENDBRANCH   2   3
ENDBRANCH   1   2
BRANCH   1  28
ATOM     28  C   UNL A   1      42.952  19.523  25.811  1.00  0.00     0.188 C 
BRANCH  28  29
ATOM     29  O   UNL A   1      43.507  20.715  25.266  1.00  0.00    -0.376 OA
BRANCH  29  30
ATOM     30  C   UNL A   1      43.572  21.861  26.097  1.00  0.00     0.202 C 
BRANCH  30  31
ATOM     31  C   UNL A   1      42.720  23.060  25.657  1.00  0.00     0.261 C 
BRANCH  31  32
ATOM     32  O   UNL A   1      42.515  24.076  26.649  1.00  0.00    -0.460 OA
BRANCH  32  33
ATOM     33  C   UNL A   1      43.062  25.288  26.414  1.00  0.00     0.338 C 
ATOM     34  O   UNL A   1      43.715  25.623  25.441  1.00  0.00    -0.246 OA
BRANCH  33  35
ATOM     35  C   UNL A   1      42.560  26.211  27.453  1.00  0.00     0.060 A 
ATOM     36  C   UNL A   1      43.134  27.484  27.568  1.00  0.00     0.016 A 
ATOM     37  C   UNL A   1      41.518  25.823  28.297  1.00  0.00     0.016 A 
ATOM     38  C   UNL A   1      42.689  28.361  28.556  1.00  0.00     0.010 A 
ATOM     39  C   UNL A   1      41.091  26.693  29.303  1.00  0.00     0.010 A 
ATOM     40  C   UNL A   1      41.699  27.951  29.459  1.00  0.00    -0.014 A 
BRANCH  40  41
ATOM     41  C   UNL A   1      41.468  28.734  30.696  1.00  0.00     0.031 A 
ATOM     42  C   UNL A   1      40.340  29.732  30.695  1.00  0.00     0.074 A 
ATOM     43  C   UNL A   1      42.214  28.550  31.800  1.00  0.00     0.049 A 
ATOM     44  N   UNL A   1      39.970  30.567  31.629  1.00  0.00    -0.248 NA
ATOM     45  C   UNL A   1      39.518  29.791  29.474  1.00  0.00     0.031 C 
ATOM     46  C   UNL A   1      43.294  27.576  31.939  1.00  0.00     0.029 A 
ATOM     47  N   UNL A   1      42.171  29.183  33.018  1.00  0.00    -0.354 N 
ATOM     48  C   UNL A   1      38.875  31.249  31.111  1.00  0.00     0.074 A 
ATOM     49  C   UNL A   1      38.661  30.755  29.769  1.00  0.00     0.031 C 
ATOM     50  C   UNL A   1      43.819  27.683  33.173  1.00  0.00     0.029 A 
ATOM     51  C   UNL A   1      43.136  28.754  33.898  1.00  0.00     0.049 A 
ATOM     52  H   UNL A   1      41.512  29.880  33.239  1.00  0.00     0.167 HD
ATOM     53  C   UNL A   1      38.111  32.193  31.704  1.00  0.00     0.037 A 
ATOM     54  C   UNL A   1      43.442  29.193  35.136  1.00  0.00     0.037 A 
ATOM     55  C   UNL A   1      38.331  32.683  33.038  1.00  0.00     0.049 A 
ATOM     56  C   UNL A   1      42.634  30.313  35.743  1.00  0.00     0.074 A 
ATOM     57  C   UNL A   1      37.611  33.640  33.731  1.00  0.00     0.029 A 
ATOM     58  N   UNL A   1      39.350  32.260  33.879  1.00  0.00    -0.354 N 
ATOM     59  N   UNL A   1      41.598  30.948  35.245  1.00  0.00    -0.248 NA
ATOM     60  C   UNL A   1      43.036  30.780  37.077  1.00  0.00     0.031 C 
ATOM     61  C   UNL A   1      38.228  33.835  34.970  1.00  0.00     0.029 A 
ATOM     62  C   UNL A   1      39.295  32.957  35.074  1.00  0.00     0.049 A 
ATOM     63  H   UNL A   1      40.014  31.567  33.659  1.00  0.00     0.167 HD
ATOM     64  C   UNL A   1      41.211  31.869  36.215  1.00  0.00     0.074 A 
ATOM     65  C   UNL A   1      42.115  31.700  37.333  1.00  0.00     0.031 C 
ATOM     66  C   UNL A   1      40.201  32.774  36.182  1.00  0.00     0.037 A 
BRANCH  53  67
ATOM     67  C   UNL A   1      36.972  32.773  30.913  1.00  0.00     0.058 A 
ATOM     68  C   UNL A   1      35.643  32.381  31.138  1.00  0.00     0.135 A 
ATOM     69  C   UNL A   1      37.208  33.772  29.956  1.00  0.00     0.135 A 
ATOM     70  F   UNL A   1      35.365  31.411  32.023  1.00  0.00    -0.206 F 
ATOM     71  C   UNL A   1      34.588  32.953  30.436  1.00  0.00     0.059 A 
ATOM     72  C   UNL A   1      36.166  34.378  29.261  1.00  0.00     0.059 A 
ATOM     73  F   UNL A   1      38.461  34.175  29.695  1.00  0.00    -0.206 F 
ATOM     74  C   UNL A   1      34.860  33.958  29.504  1.00  0.00     0.060 A 
BRANCH  74  75
ATOM     75  S   UNL A   1      33.474  34.713  28.628  1.00  0.00     0.124 S 
ATOM     76  O   UNL A   1      34.116  35.863  28.001  1.00  0.00    -0.237 OA
ATOM     77  O   UNL A   1      33.062  33.645  27.724  1.00  0.00    -0.237 OA
ATOM     78  O   UNL A   1      32.528  35.030  29.694  1.00  0.00    -0.744 OA
ENDBRANCH  74  75
ENDBRANCH  53  67
BRANCH  54  79
ATOM     79  C   UNL A   1      44.573  28.580  35.887  1.00  0.00     0.058 A 
ATOM     80  C   UNL A   1      44.379  27.452  36.697  1.00  0.00     0.135 A 
ATOM     81  C   UNL A   1      45.872  29.111  35.811  1.00  0.00     0.135 A 
ATOM     82  F   UNL A   1      43.154  26.916  36.818  1.00  0.00    -0.206 F 
ATOM     83  C   UNL A   1      45.426  26.876  37.412  1.00  0.00     0.059 A 
ATOM     84  C   UNL A   1      46.940  28.536  36.493  1.00  0.00     0.059 A 
ATOM     85  F   UNL A   1      46.114  30.188  35.048  1.00  0.00    -0.206 F 
ATOM     86  C   UNL A   1      46.705  27.422  37.297  1.00  0.00     0.060 A 
BRANCH  86  87
ATOM     87  S   UNL A   1      48.063  26.631  38.186  1.00  0.00     0.124 S 
ATOM     88  O   UNL A   1      48.067  27.371  39.442  1.00  0.00    -0.237 OA
ATOM     89  O   UNL A   1      47.608  25.246  38.262  1.00  0.00    -0.237 OA
ATOM     90  O   UNL A   1      49.214  26.858  37.316  1.00  0.00    -0.744 OA
ENDBRANCH  86  87
ENDBRANCH  54  79
BRANCH  66  91
ATOM     91  C   UNL A   1      39.994  33.642  37.394  1.00  0.00     0.058 A 
ATOM     92  C   UNL A   1      40.710  34.835  37.578  1.00  0.00     0.135 A 
ATOM     93  C   UNL A   1      39.011  33.316  38.345  1.00  0.00     0.135 A 
ATOM     94  F   UNL A   1      41.663  35.193  36.702  1.00  0.00    -0.206 F 
ATOM     95  C   UNL A   1      40.474  35.663  38.671  1.00  0.00     0.059 A 
ATOM     96  C   UNL A   1      38.736  34.146  39.427  1.00  0.00     0.059 A 
ATOM     97  F   UNL A   1      38.286  32.194  38.209  1.00  0.00    -0.206 F 
ATOM     98  C   UNL A   1      39.481  35.313  39.587  1.00  0.00     0.060 A 
BRANCH  98  99
ATOM     99  S   UNL A   1      39.162  36.419  40.978  1.00  0.00     0.124 S 
ATOM    100  O   UNL A   1      38.217  35.635  41.767  1.00  0.00    -0.237 OA
ATOM    101  O   UNL A   1      40.492  36.578  41.558  1.00  0.00    -0.237 OA
ATOM    102  O   UNL A   1      38.612  37.614  40.346  1.00  0.00    -0.744 OA
ENDBRANCH  98  99
ENDBRANCH  66  91
ENDBRANCH  40  41
ENDBRANCH  33  35
ENDBRANCH  32  33
ENDBRANCH  31  32
ENDBRANCH  30  31
ENDBRANCH  29  30
ENDBRANCH  28  29
ENDBRANCH   1  28
TORSDOF 24
ENDMDL
MODEL 2
REMARK VINA RESULT:      -9.8      6.151     12.175
REMARK SMILES Cc1cc2c(c(C)c1Cl)C=C(C(=O)OCCOCCOCCOCCOC(=O)c1ccc(-c3c4nc(c(-c5c(F)cc(S(=O)(=O)[O-])cc5F)c5ccc([nH]5)c(-c5c(F)cc(S(=O)(=O)[O-])cc5F)c5nc(c(-c6c(F)cc(S(=O)(=O)[O-])cc6F)c6ccc3[nH]6)C=C5)C=C4)cc1)[C@@H](C(F)(F)F)O2
REMARK SMILES IDX 21 1 20 2 19 3 18 4 17 5 16 6 15 7 14 8 12 9 13 10 11 11
REMARK SMILES IDX 1 12 2 13 3 14 8 15 4 16 6 17 9 18 5 19 100 20 7 21 10 22
REMARK SMILES IDX 95 23 96 24 97 25 98 26 99 27 22 28 23 29 24 30 25 31 26 32
REMARK SMILES IDX 27 33 28 34 29 35 30 36 94 37 31 38 93 39 32 40 33 41 34 42
REMARK SMILES IDX 87 43 35 44 92 45 86 46 88 47 36 48 91 49 85 50 84 51 37 53
REMARK SMILES IDX 71 54 50 55 70 56 51 57 54 58 69 59 89 60 52 61 53 62 68 64
REMARK SMILES IDX 90 65 55 66 38 67 39 68 48 69 40 70 41 71 47 72 49 73 42 74
REMARK SMILES IDX 43 75 44 76 45 77 46 78 72 79 73 80 82 81 74 82 75 83 81 84
REMARK SMILES IDX 83 85 76 86 77 87 78 88 79 89 80 90 56 91 57 92 66 93 58 94
REMARK SMILES IDX 59 95 65 96 67 97 60 98 61 99 62 100 63 101 64 102
REMARK H PARENT 88 52 54 63
REMARK Flexibility Score: inf
ROOT
ATOM      1  C   UNL A   1      34.357  35.036  28.774  1.00  0.00     0.188 C 
ENDROOT
BRANCH   1   2
ATOM      2  O   UNL A   1      33.910  34.194  27.710  1.00  0.00    -0.377 OA
BRANCH   2   3
ATOM      3  C   UNL A   1      32.857  33.285  27.979  1.00  0.00     0.188 C 
BRANCH   3   4
ATOM      4  C   UNL A   1      33.052  31.912  27.304  1.00  0.00     0.188 C 
BRANCH   4   5
ATOM      5  O   UNL A   1      34.397  31.473  27.269  1.00  0.00    -0.376 OA
BRANCH   5   6
ATOM      6  C   UNL A   1      34.801  30.246  27.855  1.00  0.00     0.202 C 
BRANCH   6   7
ATOM      7  C   UNL A   1      34.676  28.858  27.197  1.00  0.00     0.261 C 
BRANCH   7   8
ATOM      8  O   UNL A   1      33.606  28.656  26.275  1.00  0.00    -0.460 OA
BRANCH   8   9
ATOM      9  C   UNL A   1      32.445  28.188  26.762  1.00  0.00     0.338 C 
ATOM     10  O   UNL A   1      31.722  28.723  27.582  1.00  0.00    -0.246 OA
BRANCH   9  11
ATOM     11  C   UNL A   1      32.088  26.987  25.973  1.00  0.00     0.087 C 
ATOM     12  C   UNL A   1      32.112  21.615  22.415  1.00  0.00     0.046 C 
ATOM     13  C   UNL A   1      32.224  22.618  23.530  1.00  0.00    -0.028 A 
ATOM     14  C   UNL A   1      31.375  23.731  23.520  1.00  0.00     0.052 A 
ATOM     15  C   UNL A   1      33.179  22.498  24.558  1.00  0.00     0.047 A 
ATOM     16  C   UNL A   1      31.547  24.763  24.438  1.00  0.00     0.128 A 
ATOM     17  C   UNL A   1      33.340  23.517  25.523  1.00  0.00    -0.021 A 
ATOM     18  Cl  UNL A   1      34.189  21.083  24.589  1.00  0.00    -0.084 Cl
ATOM     19  C   UNL A   1      32.562  24.695  25.397  1.00  0.00     0.022 A 
ATOM     20  O   UNL A   1      30.681  25.808  24.298  1.00  0.00    -0.475 OA
ATOM     21  C   UNL A   1      34.313  23.386  26.673  1.00  0.00     0.047 C 
ATOM     22  C   UNL A   1      32.840  25.898  26.175  1.00  0.00     0.027 C 
ATOM     23  C   UNL A   1      30.887  27.021  25.070  1.00  0.00     0.316 C 
BRANCH  23  24
ATOM     24  C   UNL A   1      30.926  28.201  24.089  1.00  0.00     0.430 C 
ATOM     25  F   UNL A   1      30.653  29.370  24.717  1.00  0.00    -0.167 F 
ATOM     26  F   UNL A   1      32.136  28.340  23.505  1.00  0.00    -0.167 F 
ATOM     27  F   UNL A   1      30.012  28.050  23.100  1.00  0.00    -0.167 F 
ENDBRANCH  23  24
ENDBRANCH   9  11
ENDBRANCH   8   9
ENDBRANCH   7   8
ENDBRANCH   6   7
ENDBRANCH   5   6
ENDBRANCH   4   5
ENDBRANCH   3   4
ENDBRANCH   2   3
ENDBRANCH   1   2
BRANCH   1  28
ATOM     28  C   UNL A   1      33.846  34.858  30.226  1.00  0.00     0.188 C 
BRANCH  28  29
ATOM     29  O   UNL A   1      34.113  33.579  30.792  1.00  0.00    -0.376 OA
BRANCH  29  30
ATOM     30  C   UNL A   1      35.325  33.406  31.505  1.00  0.00     0.202 C 
BRANCH  30  31
ATOM     31  C   UNL A   1      36.373  32.503  30.841  1.00  0.00     0.261 C 
BRANCH  31  32
ATOM     32  O   UNL A   1      36.918  31.467  31.670  1.00  0.00    -0.460 OA
BRANCH  32  33
ATOM     33  C   UNL A   1      37.080  30.249  31.111  1.00  0.00     0.338 C 
ATOM     34  O   UNL A   1      36.223  29.399  30.940  1.00  0.00    -0.246 OA
BRANCH  33  35
ATOM     35  C   UNL A   1      38.446  30.195  30.552  1.00  0.00     0.060 A 
ATOM     36  C   UNL A   1      38.611  30.006  29.173  1.00  0.00     0.016 A 
ATOM     37  C   UNL A   1      39.557  30.346  31.385  1.00  0.00     0.016 A 
ATOM     38  C   UNL A   1      39.892  29.930  28.629  1.00  0.00     0.010 A 
ATOM     39  C   UNL A   1      40.839  30.244  30.842  1.00  0.00     0.010 A 
ATOM     40  C   UNL A   1      41.012  30.001  29.468  1.00  0.00    -0.014 A 
BRANCH  40  41
ATOM     41  C   UNL A   1      42.339  29.588  28.953  1.00  0.00     0.031 A 
ATOM     42  C   UNL A   1      42.510  28.156  28.520  1.00  0.00     0.074 A 
ATOM     43  C   UNL A   1      43.357  30.459  28.841  1.00  0.00     0.049 A 
ATOM     44  N   UNL A   1      43.578  27.542  28.085  1.00  0.00    -0.248 NA
ATOM     45  C   UNL A   1      41.310  27.303  28.586  1.00  0.00     0.031 C 
ATOM     46  C   UNL A   1      43.295  31.881  29.174  1.00  0.00     0.029 A 
ATOM     47  N   UNL A   1      44.648  30.269  28.415  1.00  0.00    -0.354 N 
ATOM     48  C   UNL A   1      43.181  26.235  27.826  1.00  0.00     0.074 A 
ATOM     49  C   UNL A   1      41.784  26.135  28.184  1.00  0.00     0.031 C 
ATOM     50  C   UNL A   1      44.501  32.434  28.947  1.00  0.00     0.029 A 
ATOM     51  C   UNL A   1      45.427  31.399  28.486  1.00  0.00     0.049 A 
ATOM     52  H   UNL A   1      44.985  29.402  28.089  1.00  0.00     0.167 HD
ATOM     53  C   UNL A   1      43.912  25.215  27.323  1.00  0.00     0.037 A 
ATOM     54  C   UNL A   1      46.740  31.570  28.229  1.00  0.00     0.037 A 
ATOM     55  C   UNL A   1      45.303  25.320  26.972  1.00  0.00     0.049 A 
ATOM     56  C   UNL A   1      47.559  30.393  27.759  1.00  0.00     0.074 A 
ATOM     57  C   UNL A   1      46.133  24.342  26.455  1.00  0.00     0.029 A 
ATOM     58  N   UNL A   1      46.069  26.469  27.107  1.00  0.00    -0.354 N 
ATOM     59  N   UNL A   1      47.172  29.163  27.514  1.00  0.00    -0.248 NA
ATOM     60  C   UNL A   1      48.993  30.624  27.533  1.00  0.00     0.031 C 
ATOM     61  C   UNL A   1      47.416  24.884  26.329  1.00  0.00     0.029 A 
ATOM     62  C   UNL A   1      47.371  26.216  26.710  1.00  0.00     0.049 A 
ATOM     63  H   UNL A   1      45.736  27.335  27.437  1.00  0.00     0.167 HD
ATOM     64  C   UNL A   1      48.308  28.483  27.081  1.00  0.00     0.074 A 
ATOM     65  C   UNL A   1      49.393  29.442  27.085  1.00  0.00     0.031 C 
ATOM     66  C   UNL A   1      48.441  27.183  26.716  1.00  0.00     0.037 A 
BRANCH  53  67
ATOM     67  C   UNL A   1      43.230  23.889  27.136  1.00  0.00     0.058 A 
ATOM     68  C   UNL A   1      42.693  23.504  25.897  1.00  0.00     0.135 A 
ATOM     69  C   UNL A   1      43.160  22.970  28.195  1.00  0.00     0.135 A 
ATOM     70  F   UNL A   1      42.709  24.356  24.859  1.00  0.00    -0.206 F 
ATOM     71  C   UNL A   1      42.104  22.258  25.716  1.00  0.00     0.059 A 
ATOM     72  C   UNL A   1      42.600  21.707  28.030  1.00  0.00     0.059 A 
ATOM     73  F   UNL A   1      43.649  23.292  29.402  1.00  0.00    -0.206 F 
ATOM     74  C   UNL A   1      42.070  21.362  26.788  1.00  0.00     0.060 A 
BRANCH  74  75
ATOM     75  S   UNL A   1      41.332  19.737  26.523  1.00  0.00     0.124 S 
ATOM     76  O   UNL A   1      42.254  19.151  25.556  1.00  0.00    -0.237 OA
ATOM     77  O   UNL A   1      41.367  19.160  27.863  1.00  0.00    -0.237 OA
ATOM     78  O   UNL A   1      40.000  20.045  26.009  1.00  0.00    -0.744 OA
ENDBRANCH  74  75
ENDBRANCH  53  67
BRANCH  54  79
ATOM     79  C   UNL A   1      47.371  32.906  28.419  1.00  0.00     0.058 A 
ATOM     80  C   UNL A   1      47.932  33.275  29.650  1.00  0.00     0.135 A 
ATOM     81  C   UNL A   1      47.423  33.843  27.373  1.00  0.00     0.135 A 
ATOM     82  F   UNL A   1      47.893  32.422  30.687  1.00  0.00    -0.206 F 
ATOM     83  C   UNL A   1      48.515  34.524  29.843  1.00  0.00     0.059 A 
ATOM     84  C   UNL A   1      48.026  35.087  27.534  1.00  0.00     0.059 A 
ATOM     85  F   UNL A   1      46.904  33.541  26.173  1.00  0.00    -0.206 F 
ATOM     86  C   UNL A   1      48.563  35.421  28.775  1.00  0.00     0.060 A 
BRANCH  86  87
ATOM     87  S   UNL A   1      49.372  37.016  29.026  1.00  0.00     0.124 S 
ATOM     88  O   UNL A   1      49.984  37.246  27.722  1.00  0.00    -0.237 OA
ATOM     89  O   UNL A   1      48.243  37.877  29.363  1.00  0.00    -0.237 OA
ATOM     90  O   UNL A   1      50.301  36.754  30.121  1.00  0.00    -0.744 OA
ENDBRANCH  86  87
ENDBRANCH  54  79
BRANCH  66  91
ATOM     91  C   UNL A   1      49.799  26.715  26.265  1.00  0.00     0.058 A 
ATOM     92  C   UNL A   1      50.186  26.768  24.917  1.00  0.00     0.135 A 
ATOM     93  C   UNL A   1      50.751  26.280  27.203  1.00  0.00     0.135 A 
ATOM     94  F   UNL A   1      49.315  27.172  23.979  1.00  0.00    -0.206 F 
ATOM     95  C   UNL A   1      51.463  26.388  24.513  1.00  0.00     0.059 A 
ATOM     96  C   UNL A   1      52.043  25.926  26.825  1.00  0.00     0.059 A 
ATOM     97  F   UNL A   1      50.438  26.224  28.508  1.00  0.00    -0.206 F 
ATOM     98  C   UNL A   1      52.385  25.974  25.475  1.00  0.00     0.060 A 
BRANCH  98  99
ATOM     99  S   UNL A   1      54.048  25.521  24.936  1.00  0.00     0.124 S 
ATOM    100  O   UNL A   1      54.192  26.318  23.722  1.00  0.00    -0.237 OA
ATOM    101  O   UNL A   1      54.866  25.941  26.070  1.00  0.00    -0.237 OA
ATOM    102  O   UNL A   1      53.961  24.079  24.732  1.00  0.00    -0.744 OA
ENDBRANCH  98  99
ENDBRANCH  66  91
ENDBRANCH  40  41
ENDBRANCH  33  35
ENDBRANCH  32  33
ENDBRANCH  31  32
ENDBRANCH  30  31
ENDBRANCH  29  30
ENDBRANCH  28  29
ENDBRANCH   1  28
TORSDOF 24
ENDMDL
MODEL 3
REMARK VINA RESULT:      -9.4      1.405      2.112
REMARK SMILES Cc1cc2c(c(C)c1Cl)C=C(C(=O)OCCOCCOCCOCCOC(=O)c1ccc(-c3c4nc(c(-c5c(F)cc(S(=O)(=O)[O-])cc5F)c5ccc([nH]5)c(-c5c(F)cc(S(=O)(=O)[O-])cc5F)c5nc(c(-c6c(F)cc(S(=O)(=O)[O-])cc6F)c6ccc3[nH]6)C=C5)C=C4)cc1)[C@@H](C(F)(F)F)O2
REMARK SMILES IDX 21 1 20 2 19 3 18 4 17 5 16 6 15 7 14 8 12 9 13 10 11 11
REMARK SMILES IDX 1 12 2 13 3 14 8 15 4 16 6 17 9 18 5 19 100 20 7 21 10 22
REMARK SMILES IDX 95 23 96 24 97 25 98 26 99 27 22 28 23 29 24 30 25 31 26 32
REMARK SMILES IDX 27 33 28 34 29 35 30 36 94 37 31 38 93 39 32 40 33 41 34 42
REMARK SMILES IDX 87 43 35 44 92 45 86 46 88 47 36 48 91 49 85 50 84 51 37 53
REMARK SMILES IDX 71 54 50 55 70 56 51 57 54 58 69 59 89 60 52 61 53 62 68 64
REMARK SMILES IDX 90 65 55 66 38 67 39 68 48 69 40 70 41 71 47 72 49 73 42 74
REMARK SMILES IDX 43 75 44 76 45 77 46 78 72 79 73 80 82 81 74 82 75 83 81 84
REMARK SMILES IDX 83 85 76 86 77 87 78 88 79 89 80 90 56 91 57 92 66 93 58 94
REMARK SMILES IDX 59 95 65 96 67 97 60 98 61 99 62 100 63 101 64 102
REMARK H PARENT 88 52 54 63
REMARK Flexibility Score: inf
ROOT
ATOM      1  C   UNL A   1      41.384  22.135  27.920  1.00  0.00     0.188 C 
ENDROOT
BRANCH   1   2
ATOM      2  O   UNL A   1      40.058  21.754  27.552  1.00  0.00    -0.377 OA
BRANCH   2   3
ATOM      3  C   UNL A   1      39.710  21.795  26.178  1.00  0.00     0.188 C 
BRANCH   3   4
ATOM      4  C   UNL A   1      38.336  22.444  25.918  1.00  0.00     0.188 C 
BRANCH   4   5
ATOM      5  O   UNL A   1      37.675  21.955  24.767  1.00  0.00    -0.376 OA
BRANCH   5   6
ATOM      6  C   UNL A   1      36.691  20.936  24.842  1.00  0.00     0.202 C 
BRANCH   6   7
ATOM      7  C   UNL A   1      35.181  21.166  25.047  1.00  0.00     0.261 C 
BRANCH   7   8
ATOM      8  O   UNL A   1      34.595  22.310  24.426  1.00  0.00    -0.460 OA
BRANCH   8   9
ATOM      9  C   UNL A   1      34.407  23.402  25.184  1.00  0.00     0.338 C 
ATOM     10  O   UNL A   1      35.184  23.882  25.990  1.00  0.00    -0.246 OA
BRANCH   9  11
ATOM     11  C   UNL A   1      33.158  24.050  24.723  1.00  0.00     0.087 C 
ATOM     12  C   UNL A   1      28.454  28.190  23.222  1.00  0.00     0.046 C 
ATOM     13  C   UNL A   1      29.726  27.387  23.256  1.00  0.00    -0.028 A 
ATOM     14  C   UNL A   1      29.684  26.083  23.761  1.00  0.00     0.052 A 
ATOM     15  C   UNL A   1      30.962  27.919  22.838  1.00  0.00     0.047 A 
ATOM     16  C   UNL A   1      30.858  25.360  23.958  1.00  0.00     0.128 A 
ATOM     17  C   UNL A   1      32.158  27.183  22.995  1.00  0.00    -0.021 A 
ATOM     18  Cl  UNL A   1      30.989  29.520  22.163  1.00  0.00    -0.084 Cl
ATOM     19  C   UNL A   1      32.097  25.924  23.641  1.00  0.00     0.022 A 
ATOM     20  O   UNL A   1      30.685  24.116  24.492  1.00  0.00    -0.475 OA
ATOM     21  C   UNL A   1      33.488  27.702  22.497  1.00  0.00     0.047 C 
ATOM     22  C   UNL A   1      33.295  25.218  24.083  1.00  0.00     0.027 C 
ATOM     23  C   UNL A   1      31.842  23.351  24.921  1.00  0.00     0.316 C 
BRANCH  23  24
ATOM     24  C   UNL A   1      31.614  22.933  26.380  1.00  0.00     0.430 C 
ATOM     25  F   UNL A   1      30.442  22.269  26.523  1.00  0.00    -0.167 F 
ATOM     26  F   UNL A   1      32.589  22.115  26.834  1.00  0.00    -0.167 F 
ATOM     27  F   UNL A   1      31.573  24.010  27.201  1.00  0.00    -0.167 F 
ENDBRANCH  23  24
ENDBRANCH   9  11
ENDBRANCH   8   9
ENDBRANCH   7   8
ENDBRANCH   6   7
ENDBRANCH   5   6
ENDBRANCH   4   5
ENDBRANCH   3   4
ENDBRANCH   2   3
ENDBRANCH   1   2
BRANCH   1  28
ATOM     28  C   UNL A   1      42.630  21.465  27.289  1.00  0.00     0.188 C 
BRANCH  28  29
ATOM     29  O   UNL A   1      43.149  22.140  26.148  1.00  0.00    -0.376 OA
BRANCH  29  30
ATOM     30  C   UNL A   1      43.278  23.550  26.210  1.00  0.00     0.202 C 
BRANCH  30  31
ATOM     31  C   UNL A   1      42.450  24.347  25.192  1.00  0.00     0.261 C 
BRANCH  31  32
ATOM     32  O   UNL A   1      41.906  25.587  25.666  1.00  0.00    -0.460 OA
BRANCH  32  33
ATOM     33  C   UNL A   1      42.773  26.601  25.879  1.00  0.00     0.338 C 
ATOM     34  O   UNL A   1      43.492  27.138  25.054  1.00  0.00    -0.246 OA
BRANCH  33  35
ATOM     35  C   UNL A   1      42.555  27.090  27.256  1.00  0.00     0.060 A 
ATOM     36  C   UNL A   1      41.285  26.956  27.833  1.00  0.00     0.016 A 
ATOM     37  C   UNL A   1      43.605  27.662  27.976  1.00  0.00     0.016 A 
ATOM     38  C   UNL A   1      41.053  27.431  29.123  1.00  0.00     0.010 A 
ATOM     39  C   UNL A   1      43.365  28.161  29.258  1.00  0.00     0.010 A 
ATOM     40  C   UNL A   1      42.080  28.079  29.822  1.00  0.00    -0.014 A 
BRANCH  40  41
ATOM     41  C   UNL A   1      41.753  28.872  31.032  1.00  0.00     0.031 A 
ATOM     42  C   UNL A   1      40.581  29.814  30.958  1.00  0.00     0.074 A 
ATOM     43  C   UNL A   1      42.452  28.742  32.173  1.00  0.00     0.049 A 
ATOM     44  N   UNL A   1      40.128  30.647  31.857  1.00  0.00    -0.248 NA
ATOM     45  C   UNL A   1      39.816  29.813  29.698  1.00  0.00     0.031 C 
ATOM     46  C   UNL A   1      43.569  27.823  32.382  1.00  0.00     0.029 A 
ATOM     47  N   UNL A   1      42.321  29.393  33.375  1.00  0.00    -0.354 N 
ATOM     48  C   UNL A   1      39.029  31.267  31.274  1.00  0.00     0.074 A 
ATOM     49  C   UNL A   1      38.902  30.741  29.933  1.00  0.00     0.031 C 
ATOM     50  C   UNL A   1      44.028  27.976  33.638  1.00  0.00     0.029 A 
ATOM     51  C   UNL A   1      43.261  29.026  34.308  1.00  0.00     0.049 A 
ATOM     52  H   UNL A   1      41.620  30.061  33.551  1.00  0.00     0.167 HD
ATOM     53  C   UNL A   1      38.193  32.184  31.812  1.00  0.00     0.037 A 
ATOM     54  C   UNL A   1      43.487  29.500  35.551  1.00  0.00     0.037 A 
ATOM     55  C   UNL A   1      38.326  32.707  33.145  1.00  0.00     0.049 A 
ATOM     56  C   UNL A   1      42.598  30.591  36.096  1.00  0.00     0.074 A 
ATOM     57  C   UNL A   1      37.529  33.639  33.784  1.00  0.00     0.029 A 
ATOM     58  N   UNL A   1      39.321  32.347  34.041  1.00  0.00    -0.354 N 
ATOM     59  N   UNL A   1      41.559  31.167  35.538  1.00  0.00    -0.248 NA
ATOM     60  C   UNL A   1      42.913  31.100  37.439  1.00  0.00     0.031 C 
ATOM     61  C   UNL A   1      38.075  33.885  35.048  1.00  0.00     0.029 A 
ATOM     62  C   UNL A   1      39.176  33.061  35.219  1.00  0.00     0.049 A 
ATOM     63  H   UNL A   1      40.027  31.683  33.866  1.00  0.00     0.167 HD
ATOM     64  C   UNL A   1      41.083  32.085  36.470  1.00  0.00     0.074 A 
ATOM     65  C   UNL A   1      41.939  31.979  37.633  1.00  0.00     0.031 C 
ATOM     66  C   UNL A   1      40.035  32.941  36.371  1.00  0.00     0.037 A 
BRANCH  53  67
ATOM     67  C   UNL A   1      37.068  32.694  30.957  1.00  0.00     0.058 A 
ATOM     68  C   UNL A   1      37.239  33.782  30.086  1.00  0.00     0.135 A 
ATOM     69  C   UNL A   1      35.819  32.053  30.968  1.00  0.00     0.135 A 
ATOM     70  F   UNL A   1      38.404  34.447  30.055  1.00  0.00    -0.206 F 
ATOM     71  C   UNL A   1      36.208  34.222  29.262  1.00  0.00     0.059 A 
ATOM     72  C   UNL A   1      34.782  32.459  30.133  1.00  0.00     0.059 A 
ATOM     73  F   UNL A   1      35.600  31.015  31.790  1.00  0.00    -0.206 F 
ATOM     74  C   UNL A   1      34.985  33.548  29.287  1.00  0.00     0.060 A 
BRANCH  74  75
ATOM     75  S   UNL A   1      33.672  34.113  28.186  1.00  0.00     0.124 S 
ATOM     76  O   UNL A   1      33.165  32.848  27.662  1.00  0.00    -0.237 OA
ATOM     77  O   UNL A   1      32.783  34.820  29.102  1.00  0.00    -0.237 OA
ATOM     78  O   UNL A   1      34.373  34.953  27.221  1.00  0.00    -0.744 OA
ENDBRANCH  74  75
ENDBRANCH  53  67
BRANCH  54  79
ATOM     79  C   UNL A   1      44.608  28.955  36.366  1.00  0.00     0.058 A 
ATOM     80  C   UNL A   1      44.441  27.804  37.151  1.00  0.00     0.135 A 
ATOM     81  C   UNL A   1      45.868  29.574  36.379  1.00  0.00     0.135 A 
ATOM     82  F   UNL A   1      43.251  27.184  37.186  1.00  0.00    -0.206 F 
ATOM     83  C   UNL A   1      45.478  27.290  37.924  1.00  0.00     0.059 A 
ATOM     84  C   UNL A   1      46.928  29.063  37.122  1.00  0.00     0.059 A 
ATOM     85  F   UNL A   1      46.083  30.677  35.645  1.00  0.00    -0.206 F 
ATOM     86  C   UNL A   1      46.721  27.924  37.897  1.00  0.00     0.060 A 
BRANCH  86  87
ATOM     87  S   UNL A   1      48.071  27.214  38.864  1.00  0.00     0.124 S 
ATOM     88  O   UNL A   1      47.361  26.685  40.022  1.00  0.00    -0.237 OA
ATOM     89  O   UNL A   1      48.615  26.223  37.940  1.00  0.00    -0.237 OA
ATOM     90  O   UNL A   1      48.938  28.360  39.124  1.00  0.00    -0.744 OA
ENDBRANCH  86  87
ENDBRANCH  54  79
BRANCH  66  91
ATOM     91  C   UNL A   1      39.729  33.818  37.556  1.00  0.00     0.058 A 
ATOM     92  C   UNL A   1      38.910  33.378  38.607  1.00  0.00     0.135 A 
ATOM     93  C   UNL A   1      40.326  35.085  37.678  1.00  0.00     0.135 A 
ATOM     94  F   UNL A   1      38.312  32.178  38.540  1.00  0.00    -0.206 F 
ATOM     95  C   UNL A   1      38.676  34.170  39.727  1.00  0.00     0.059 A 
ATOM     96  C   UNL A   1      40.132  35.880  38.803  1.00  0.00     0.059 A 
ATOM     97  F   UNL A   1      41.131  35.549  36.709  1.00  0.00    -0.206 F 
ATOM     98  C   UNL A   1      39.297  35.417  39.818  1.00  0.00     0.060 A 
BRANCH  98  99
ATOM     99  S   UNL A   1      39.012  36.415  41.296  1.00  0.00     0.124 S 
ATOM    100  O   UNL A   1      38.681  37.713  40.716  1.00  0.00    -0.237 OA
ATOM    101  O   UNL A   1      37.909  35.709  41.939  1.00  0.00    -0.237 OA
ATOM    102  O   UNL A   1      40.288  36.352  42.002  1.00  0.00    -0.744 OA
ENDBRANCH  98  99
ENDBRANCH  66  91
ENDBRANCH  40  41
ENDBRANCH  33  35
ENDBRANCH  32  33
ENDBRANCH  31  32
ENDBRANCH  30  31
ENDBRANCH  29  30
ENDBRANCH  28  29
ENDBRANCH   1  28
TORSDOF 24
ENDMDL
