MODEL 1
REMARK VINA RESULT:      -8.7      0.000      0.000
REMARK SMILES CC[C@@](C)([NH2+]CC(=O)N[C@@H](C)C(C)C)C(=O)OCCOCCOCCOCCOC(=O)c1ccc(-c2c3nc(c(-c4c(F)cc(S(=O)(=O)[O-])cc4F)c4ccc([nH]4)c(-c4c(F)cc(S(=O)(=O)[O-])cc4F)c4nc(c(-c5c(F)cc(S(=O)(=O)[O-])cc5F)c5ccc2[nH]5)C=C4)C=C3)cc1
REMARK SMILES IDX 22 1 21 2 20 3 19 4 18 5 17 6 15 7 16 8 3 9 4 10 2 11 1 12
REMARK SMILES IDX 5 13 6 16 7 17 8 18 9 19 10 21 11 22 12 23 13 24 14 25 23 26
REMARK SMILES IDX 24 27 25 28 26 29 27 30 28 31 29 32 30 33 31 34 32 35 33 36
REMARK SMILES IDX 97 37 34 38 96 39 35 40 36 41 37 42 90 43 38 44 95 45 89 46
REMARK SMILES IDX 91 47 39 48 94 49 88 50 87 51 40 53 74 54 53 55 73 56 54 57
REMARK SMILES IDX 57 58 72 59 92 60 55 61 56 62 71 64 93 65 58 66 41 67 42 68
REMARK SMILES IDX 51 69 43 70 44 71 50 72 52 73 45 74 46 75 47 76 48 77 49 78
REMARK SMILES IDX 75 79 76 80 85 81 77 82 78 83 84 84 86 85 79 86 80 87 81 88
REMARK SMILES IDX 82 89 83 90 59 91 60 92 69 93 61 94 62 95 68 96 70 97 63 98
REMARK SMILES IDX 64 99 65 100 66 101 67 102
REMARK H PARENT 5 14 5 15 9 20 91 52 57 63
REMARK Flexibility Score: inf
ROOT
ATOM      1  C   UNL A   1      37.722  21.690  25.740  1.00  0.00     0.188 C 
ENDROOT
BRANCH   1   2
ATOM      2  C   UNL A   1      36.990  22.338  24.546  1.00  0.00     0.188 C 
BRANCH   2   3
ATOM      3  O   UNL A   1      36.168  23.435  24.928  1.00  0.00    -0.376 OA
BRANCH   3   4
ATOM      4  C   UNL A   1      35.318  23.245  26.051  1.00  0.00     0.202 C 
BRANCH   4   5
ATOM      5  C   UNL A   1      34.245  22.155  26.018  1.00  0.00     0.261 C 
BRANCH   5   6
ATOM      6  O   UNL A   1      33.113  22.427  25.172  1.00  0.00    -0.459 OA
BRANCH   6   7
ATOM      7  C   UNL A   1      32.600  23.650  24.892  1.00  0.00     0.367 C 
ATOM      8  O   UNL A   1      32.146  24.410  25.735  1.00  0.00    -0.245 OA
BRANCH   7   9
ATOM      9  C   UNL A   1      32.695  23.936  23.340  1.00  0.00     0.191 C 
ATOM     10  C   UNL A   1      33.727  24.958  22.841  1.00  0.00     0.092 C 
BRANCH   9  11
ATOM     11  C   UNL A   1      33.123  22.575  22.700  1.00  0.00     0.077 C 
ATOM     12  C   UNL A   1      31.943  21.691  22.266  1.00  0.00     0.011 C 
ENDBRANCH   9  11
BRANCH   9  13
ATOM     13  N   UNL A   1      31.384  24.414  22.789  1.00  0.00    -0.325 N 
ATOM     14  H   UNL A   1      30.648  23.997  23.359  1.00  0.00     0.347 HD
ATOM     15  H   UNL A   1      31.408  24.134  21.809  1.00  0.00     0.347 HD
BRANCH  13  16
ATOM     16  C   UNL A   1      31.125  25.887  22.743  1.00  0.00     0.362 C 
BRANCH  16  17
ATOM     17  C   UNL A   1      30.340  26.492  23.921  1.00  0.00     0.275 C 
ATOM     18  O   UNL A   1      29.130  26.276  24.043  1.00  0.00    -0.268 OA
ATOM     19  N   UNL A   1      30.954  27.283  24.871  1.00  0.00    -0.349 N 
ATOM     20  H   UNL A   1      30.476  27.361  25.727  1.00  0.00     0.163 HD
BRANCH  19  21
ATOM     21  C   UNL A   1      32.216  28.021  24.789  1.00  0.00     0.081 C 
ATOM     22  C   UNL A   1      32.490  28.473  23.344  1.00  0.00     0.031 C 
BRANCH  21  23
ATOM     23  C   UNL A   1      32.360  29.212  25.764  1.00  0.00     0.005 C 
ATOM     24  C   UNL A   1      31.350  30.315  25.450  1.00  0.00     0.009 C 
ATOM     25  C   UNL A   1      32.193  28.735  27.221  1.00  0.00     0.009 C 
ENDBRANCH  21  23
ENDBRANCH  19  21
ENDBRANCH  16  17
ENDBRANCH  13  16
ENDBRANCH   9  13
ENDBRANCH   7   9
ENDBRANCH   6   7
ENDBRANCH   5   6
ENDBRANCH   4   5
ENDBRANCH   3   4
ENDBRANCH   2   3
ENDBRANCH   1   2
BRANCH   1  26
ATOM     26  O   UNL A   1      38.827  20.882  25.373  1.00  0.00    -0.377 OA
BRANCH  26  27
ATOM     27  C   UNL A   1      40.019  20.972  26.137  1.00  0.00     0.188 C 
BRANCH  27  28
ATOM     28  C   UNL A   1      41.060  19.831  26.142  1.00  0.00     0.188 C 
BRANCH  28  29
ATOM     29  O   UNL A   1      42.382  20.210  26.509  1.00  0.00    -0.376 OA
BRANCH  29  30
ATOM     30  C   UNL A   1      43.010  21.254  25.780  1.00  0.00     0.202 C 
BRANCH  30  31
ATOM     31  C   UNL A   1      43.493  22.468  26.591  1.00  0.00     0.261 C 
BRANCH  31  32
ATOM     32  O   UNL A   1      42.509  23.482  26.836  1.00  0.00    -0.460 OA
BRANCH  32  33
ATOM     33  C   UNL A   1      42.695  24.675  26.242  1.00  0.00     0.338 C 
ATOM     34  O   UNL A   1      43.132  24.877  25.112  1.00  0.00    -0.246 OA
BRANCH  33  35
ATOM     35  C   UNL A   1      42.105  25.717  27.095  1.00  0.00     0.060 A 
ATOM     36  C   UNL A   1      42.746  26.959  27.178  1.00  0.00     0.016 A 
ATOM     37  C   UNL A   1      40.944  25.461  27.829  1.00  0.00     0.016 A 
ATOM     38  C   UNL A   1      42.262  27.932  28.047  1.00  0.00     0.010 A 
ATOM     39  C   UNL A   1      40.472  26.429  28.718  1.00  0.00     0.010 A 
ATOM     40  C   UNL A   1      41.160  27.646  28.865  1.00  0.00    -0.014 A 
BRANCH  40  41
ATOM     41  C   UNL A   1      40.901  28.516  30.036  1.00  0.00     0.031 A 
ATOM     42  C   UNL A   1      41.763  28.328  31.257  1.00  0.00     0.074 A 
ATOM     43  C   UNL A   1      39.975  29.490  29.995  1.00  0.00     0.049 A 
ATOM     44  N   UNL A   1      41.743  28.968  32.395  1.00  0.00    -0.248 NA
ATOM     45  C   UNL A   1      42.790  27.273  31.178  1.00  0.00     0.031 C 
ATOM     46  C   UNL A   1      39.110  29.790  28.856  1.00  0.00     0.029 A 
ATOM     47  N   UNL A   1      39.611  30.408  30.948  1.00  0.00    -0.354 N 
ATOM     48  C   UNL A   1      42.759  28.407  33.160  1.00  0.00     0.074 A 
ATOM     49  C   UNL A   1      43.345  27.343  32.378  1.00  0.00     0.031 C 
ATOM     50  C   UNL A   1      38.302  30.815  29.183  1.00  0.00     0.029 A 
ATOM     51  C   UNL A   1      38.578  31.227  30.558  1.00  0.00     0.049 A 
ATOM     52  H   UNL A   1      40.048  30.474  31.828  1.00  0.00     0.167 HD
ATOM     53  C   UNL A   1      43.180  28.759  34.397  1.00  0.00     0.037 A 
ATOM     54  C   UNL A   1      37.924  32.185  31.244  1.00  0.00     0.037 A 
ATOM     55  C   UNL A   1      42.582  29.808  35.180  1.00  0.00     0.049 A 
ATOM     56  C   UNL A   1      38.361  32.509  32.652  1.00  0.00     0.074 A 
ATOM     57  C   UNL A   1      42.917  30.232  36.454  1.00  0.00     0.029 A 
ATOM     58  N   UNL A   1      41.521  30.598  34.762  1.00  0.00    -0.354 N 
ATOM     59  N   UNL A   1      39.331  31.978  33.361  1.00  0.00    -0.248 NA
ATOM     60  C   UNL A   1      37.621  33.570  33.351  1.00  0.00     0.031 C 
ATOM     61  C   UNL A   1      42.032  31.249  36.823  1.00  0.00     0.029 A 
ATOM     62  C   UNL A   1      41.180  31.497  35.757  1.00  0.00     0.049 A 
ATOM     63  H   UNL A   1      41.076  30.530  33.886  1.00  0.00     0.167 HD
ATOM     64  C   UNL A   1      39.335  32.660  34.575  1.00  0.00     0.074 A 
ATOM     65  C   UNL A   1      38.282  33.652  34.497  1.00  0.00     0.031 C 
ATOM     66  C   UNL A   1      40.133  32.484  35.657  1.00  0.00     0.037 A 
BRANCH  53  67
ATOM     67  C   UNL A   1      44.333  27.992  34.981  1.00  0.00     0.058 A 
ATOM     68  C   UNL A   1      45.664  28.372  34.743  1.00  0.00     0.135 A 
ATOM     69  C   UNL A   1      44.108  26.880  35.809  1.00  0.00     0.135 A 
ATOM     70  F   UNL A   1      45.937  29.412  33.940  1.00  0.00    -0.206 F 
ATOM     71  C   UNL A   1      46.730  27.665  35.288  1.00  0.00     0.059 A 
ATOM     72  C   UNL A   1      45.159  26.175  36.386  1.00  0.00     0.059 A 
ATOM     73  F   UNL A   1      42.856  26.468  36.062  1.00  0.00    -0.206 F 
ATOM     74  C   UNL A   1      46.467  26.569  36.111  1.00  0.00     0.060 A 
BRANCH  74  75
ATOM     75  S   UNL A   1      47.863  25.673  36.823  1.00  0.00     0.124 S 
ATOM     76  O   UNL A   1      48.717  26.770  37.269  1.00  0.00    -0.237 OA
ATOM     77  O   UNL A   1      47.227  24.895  37.881  1.00  0.00    -0.237 OA
ATOM     78  O   UNL A   1      48.379  24.896  35.700  1.00  0.00    -0.744 OA
ENDBRANCH  74  75
ENDBRANCH  53  67
BRANCH  54  79
ATOM     79  C   UNL A   1      36.773  32.896  30.624  1.00  0.00     0.058 A 
ATOM     80  C   UNL A   1      36.962  33.907  29.670  1.00  0.00     0.135 A 
ATOM     81  C   UNL A   1      35.454  32.594  31.000  1.00  0.00     0.135 A 
ATOM     82  F   UNL A   1      38.204  34.240  29.285  1.00  0.00    -0.206 F 
ATOM     83  C   UNL A   1      35.891  34.611  29.130  1.00  0.00     0.059 A 
ATOM     84  C   UNL A   1      34.364  33.264  30.453  1.00  0.00     0.059 A 
ATOM     85  F   UNL A   1      35.215  31.629  31.901  1.00  0.00    -0.206 F 
ATOM     86  C   UNL A   1      34.593  34.281  29.530  1.00  0.00     0.060 A 
BRANCH  86  87
ATOM     87  S   UNL A   1      33.207  35.180  28.801  1.00  0.00     0.124 S 
ATOM     88  O   UNL A   1      32.479  35.612  29.988  1.00  0.00    -0.237 OA
ATOM     89  O   UNL A   1      33.883  36.232  28.048  1.00  0.00    -0.237 OA
ATOM     90  O   UNL A   1      32.543  34.166  27.986  1.00  0.00    -0.744 OA
ENDBRANCH  86  87
ENDBRANCH  54  79
BRANCH  66  91
ATOM     91  C   UNL A   1      39.929  33.408  36.828  1.00  0.00     0.058 A 
ATOM     92  C   UNL A   1      39.024  33.109  37.859  1.00  0.00     0.135 A 
ATOM     93  C   UNL A   1      40.674  34.594  36.935  1.00  0.00     0.135 A 
ATOM     94  F   UNL A   1      38.285  31.989  37.806  1.00  0.00    -0.206 F 
ATOM     95  C   UNL A   1      38.839  33.970  38.935  1.00  0.00     0.059 A 
ATOM     96  C   UNL A   1      40.529  35.454  38.018  1.00  0.00     0.059 A 
ATOM     97  F   UNL A   1      41.565  34.921  35.985  1.00  0.00    -0.206 F 
ATOM     98  C   UNL A   1      39.595  35.142  39.005  1.00  0.00     0.060 A 
BRANCH  98  99
ATOM     99  S   UNL A   1      39.351  36.248  40.411  1.00  0.00     0.124 S 
ATOM    100  O   UNL A   1      40.689  36.283  40.993  1.00  0.00    -0.237 OA
ATOM    101  O   UNL A   1      38.906  37.481  39.768  1.00  0.00    -0.237 OA
ATOM    102  O   UNL A   1      38.337  35.564  41.209  1.00  0.00    -0.744 OA
ENDBRANCH  98  99
ENDBRANCH  66  91
ENDBRANCH  40  41
ENDBRANCH  33  35
ENDBRANCH  32  33
ENDBRANCH  31  32
ENDBRANCH  30  31
ENDBRANCH  29  30
ENDBRANCH  28  29
ENDBRANCH  27  28
ENDBRANCH  26  27
ENDBRANCH   1  26
TORSDOF 29
ENDMDL
MODEL 2
REMARK VINA RESULT:      -7.4      6.101     11.193
REMARK SMILES CC[C@@](C)([NH2+]CC(=O)N[C@@H](C)C(C)C)C(=O)OCCOCCOCCOCCOC(=O)c1ccc(-c2c3nc(c(-c4c(F)cc(S(=O)(=O)[O-])cc4F)c4ccc([nH]4)c(-c4c(F)cc(S(=O)(=O)[O-])cc4F)c4nc(c(-c5c(F)cc(S(=O)(=O)[O-])cc5F)c5ccc2[nH]5)C=C4)C=C3)cc1
REMARK SMILES IDX 22 1 21 2 20 3 19 4 18 5 17 6 15 7 16 8 3 9 4 10 2 11 1 12
REMARK SMILES IDX 5 13 6 16 7 17 8 18 9 19 10 21 11 22 12 23 13 24 14 25 23 26
REMARK SMILES IDX 24 27 25 28 26 29 27 30 28 31 29 32 30 33 31 34 32 35 33 36
REMARK SMILES IDX 97 37 34 38 96 39 35 40 36 41 37 42 90 43 38 44 95 45 89 46
REMARK SMILES IDX 91 47 39 48 94 49 88 50 87 51 40 53 74 54 53 55 73 56 54 57
REMARK SMILES IDX 57 58 72 59 92 60 55 61 56 62 71 64 93 65 58 66 41 67 42 68
REMARK SMILES IDX 51 69 43 70 44 71 50 72 52 73 45 74 46 75 47 76 48 77 49 78
REMARK SMILES IDX 75 79 76 80 85 81 77 82 78 83 84 84 86 85 79 86 80 87 81 88
REMARK SMILES IDX 82 89 83 90 59 91 60 92 69 93 61 94 62 95 68 96 70 97 63 98
REMARK SMILES IDX 64 99 65 100 66 101 67 102
REMARK H PARENT 5 14 5 15 9 20 91 52 57 63
REMARK Flexibility Score: inf
ROOT
ATOM      1  C   UNL A   1      39.779  26.400  27.484  1.00  0.00     0.188 C 
ENDROOT
BRANCH   1   2
ATOM      2  C   UNL A   1      39.588  25.093  26.687  1.00  0.00     0.188 C 
BRANCH   2   3
ATOM      3  O   UNL A   1      38.309  24.503  26.887  1.00  0.00    -0.376 OA
BRANCH   3   4
ATOM      4  C   UNL A   1      37.785  23.719  25.823  1.00  0.00     0.202 C 
BRANCH   4   5
ATOM      5  C   UNL A   1      36.300  23.352  25.808  1.00  0.00     0.261 C 
BRANCH   5   6
ATOM      6  O   UNL A   1      35.472  24.154  24.947  1.00  0.00    -0.459 OA
BRANCH   6   7
ATOM      7  C   UNL A   1      34.906  23.752  23.783  1.00  0.00     0.367 C 
ATOM      8  O   UNL A   1      35.540  23.457  22.781  1.00  0.00    -0.245 OA
BRANCH   7   9
ATOM      9  C   UNL A   1      33.332  23.713  23.930  1.00  0.00     0.191 C 
ATOM     10  C   UNL A   1      32.475  24.398  22.855  1.00  0.00     0.092 C 
BRANCH   9  11
ATOM     11  C   UNL A   1      32.953  22.198  23.852  1.00  0.00     0.077 C 
ATOM     12  C   UNL A   1      32.613  21.570  25.213  1.00  0.00     0.011 C 
ENDBRANCH   9  11
BRANCH   9  13
ATOM     13  N   UNL A   1      32.885  24.326  25.224  1.00  0.00    -0.325 N 
ATOM     14  H   UNL A   1      33.709  24.401  25.822  1.00  0.00     0.347 HD
ATOM     15  H   UNL A   1      32.147  23.706  25.553  1.00  0.00     0.347 HD
BRANCH  13  16
ATOM     16  C   UNL A   1      32.241  25.676  25.188  1.00  0.00     0.362 C 
BRANCH  16  17
ATOM     17  C   UNL A   1      33.103  26.870  25.639  1.00  0.00     0.275 C 
ATOM     18  O   UNL A   1      34.038  26.703  26.429  1.00  0.00    -0.268 OA
ATOM     19  N   UNL A   1      32.867  28.149  25.178  1.00  0.00    -0.349 N 
ATOM     20  H   UNL A   1      33.625  28.772  25.257  1.00  0.00     0.163 HD
BRANCH  19  21
ATOM     21  C   UNL A   1      31.652  28.714  24.587  1.00  0.00     0.081 C 
ATOM     22  C   UNL A   1      31.338  30.091  25.198  1.00  0.00     0.031 C 
BRANCH  21  23
ATOM     23  C   UNL A   1      31.630  28.790  23.044  1.00  0.00     0.005 C 
ATOM     24  C   UNL A   1      33.033  28.632  22.457  1.00  0.00     0.009 C 
ATOM     25  C   UNL A   1      30.687  27.715  22.467  1.00  0.00     0.009 C 
ENDBRANCH  21  23
ENDBRANCH  19  21
ENDBRANCH  16  17
ENDBRANCH  13  16
ENDBRANCH   9  13
ENDBRANCH   7   9
ENDBRANCH   6   7
ENDBRANCH   5   6
ENDBRANCH   4   5
ENDBRANCH   3   4
ENDBRANCH   2   3
ENDBRANCH   1   2
BRANCH   1  26
ATOM     26  O   UNL A   1      38.794  26.620  28.479  1.00  0.00    -0.377 OA
BRANCH  26  27
ATOM     27  C   UNL A   1      38.945  27.728  29.353  1.00  0.00     0.188 C 
BRANCH  27  28
ATOM     28  C   UNL A   1      38.421  29.130  28.974  1.00  0.00     0.188 C 
BRANCH  28  29
ATOM     29  O   UNL A   1      37.049  29.371  29.268  1.00  0.00    -0.376 OA
BRANCH  29  30
ATOM     30  C   UNL A   1      36.653  29.432  30.631  1.00  0.00     0.202 C 
BRANCH  30  31
ATOM     31  C   UNL A   1      36.336  30.828  31.194  1.00  0.00     0.261 C 
BRANCH  31  32
ATOM     32  O   UNL A   1      37.429  31.757  31.202  1.00  0.00    -0.460 OA
BRANCH  32  33
ATOM     33  C   UNL A   1      38.194  31.794  32.308  1.00  0.00     0.338 C 
ATOM     34  O   UNL A   1      37.808  31.869  33.472  1.00  0.00    -0.246 OA
BRANCH  33  35
ATOM     35  C   UNL A   1      39.588  31.535  31.919  1.00  0.00     0.060 A 
ATOM     36  C   UNL A   1      40.049  32.042  30.697  1.00  0.00     0.016 A 
ATOM     37  C   UNL A   1      40.425  30.775  32.739  1.00  0.00     0.016 A 
ATOM     38  C   UNL A   1      41.335  31.735  30.261  1.00  0.00     0.010 A 
ATOM     39  C   UNL A   1      41.707  30.448  32.290  1.00  0.00     0.010 A 
ATOM     40  C   UNL A   1      42.144  30.886  31.028  1.00  0.00    -0.014 A 
BRANCH  40  41
ATOM     41  C   UNL A   1      43.326  30.264  30.387  1.00  0.00     0.031 A 
ATOM     42  C   UNL A   1      44.597  31.071  30.320  1.00  0.00     0.074 A 
ATOM     43  C   UNL A   1      43.296  28.996  29.940  1.00  0.00     0.049 A 
ATOM     44  N   UNL A   1      45.761  30.748  29.824  1.00  0.00    -0.248 NA
ATOM     45  C   UNL A   1      44.542  32.428  30.893  1.00  0.00     0.031 C 
ATOM     46  C   UNL A   1      42.137  28.108  29.988  1.00  0.00     0.029 A 
ATOM     47  N   UNL A   1      44.279  28.240  29.354  1.00  0.00    -0.354 N 
ATOM     48  C   UNL A   1      46.580  31.851  30.039  1.00  0.00     0.074 A 
ATOM     49  C   UNL A   1      45.769  32.870  30.664  1.00  0.00     0.031 C 
ATOM     50  C   UNL A   1      42.471  26.927  29.437  1.00  0.00     0.029 A 
ATOM     51  C   UNL A   1      43.859  26.985  28.980  1.00  0.00     0.049 A 
ATOM     52  H   UNL A   1      45.198  28.564  29.213  1.00  0.00     0.167 HD
ATOM     53  C   UNL A   1      47.896  31.995  29.757  1.00  0.00     0.037 A 
ATOM     54  C   UNL A   1      44.519  26.007  28.328  1.00  0.00     0.037 A 
ATOM     55  C   UNL A   1      48.696  30.984  29.119  1.00  0.00     0.049 A 
ATOM     56  C   UNL A   1      45.967  26.219  27.955  1.00  0.00     0.074 A 
ATOM     57  C   UNL A   1      50.033  31.036  28.769  1.00  0.00     0.029 A 
ATOM     58  N   UNL A   1      48.229  29.737  28.732  1.00  0.00    -0.354 N 
ATOM     59  N   UNL A   1      46.733  27.264  28.173  1.00  0.00    -0.248 NA
ATOM     60  C   UNL A   1      46.642  25.117  27.256  1.00  0.00     0.031 C 
ATOM     61  C   UNL A   1      50.365  29.837  28.132  1.00  0.00     0.029 A 
ATOM     62  C   UNL A   1      49.248  29.015  28.134  1.00  0.00     0.049 A 
ATOM     63  H   UNL A   1      47.309  29.411  28.863  1.00  0.00     0.167 HD
ATOM     64  C   UNL A   1      47.986  26.931  27.665  1.00  0.00     0.074 A 
ATOM     65  C   UNL A   1      47.878  25.584  27.144  1.00  0.00     0.031 C 
ATOM     66  C   UNL A   1      49.123  27.670  27.629  1.00  0.00     0.037 A 
BRANCH  53  67
ATOM     67  C   UNL A   1      48.544  33.300  30.128  1.00  0.00     0.058 A 
ATOM     68  C   UNL A   1      48.554  34.392  29.246  1.00  0.00     0.135 A 
ATOM     69  C   UNL A   1      49.142  33.470  31.388  1.00  0.00     0.135 A 
ATOM     70  F   UNL A   1      48.020  34.277  28.020  1.00  0.00    -0.206 F 
ATOM     71  C   UNL A   1      49.150  35.600  29.591  1.00  0.00     0.059 A 
ATOM     72  C   UNL A   1      49.719  34.678  31.764  1.00  0.00     0.059 A 
ATOM     73  F   UNL A   1      49.169  32.456  32.265  1.00  0.00    -0.206 F 
ATOM     74  C   UNL A   1      49.728  35.735  30.855  1.00  0.00     0.060 A 
BRANCH  74  75
ATOM     75  S   UNL A   1      50.482  37.315  31.293  1.00  0.00     0.124 S 
ATOM     76  O   UNL A   1      49.767  38.233  30.410  1.00  0.00    -0.237 OA
ATOM     77  O   UNL A   1      50.167  37.427  32.713  1.00  0.00    -0.237 OA
ATOM     78  O   UNL A   1      51.894  37.118  30.980  1.00  0.00    -0.744 OA
ENDBRANCH  74  75
ENDBRANCH  53  67
BRANCH  54  79
ATOM     79  C   UNL A   1      43.820  24.745  27.965  1.00  0.00     0.058 A 
ATOM     80  C   UNL A   1      43.314  24.532  26.674  1.00  0.00     0.135 A 
ATOM     81  C   UNL A   1      43.618  23.734  28.917  1.00  0.00     0.135 A 
ATOM     82  F   UNL A   1      43.471  25.473  25.729  1.00  0.00    -0.206 F 
ATOM     83  C   UNL A   1      42.611  23.377  26.345  1.00  0.00     0.059 A 
ATOM     84  C   UNL A   1      42.944  22.557  28.606  1.00  0.00     0.059 A 
ATOM     85  F   UNL A   1      44.090  23.881  30.165  1.00  0.00    -0.206 F 
ATOM     86  C   UNL A   1      42.431  22.394  27.321  1.00  0.00     0.060 A 
BRANCH  86  87
ATOM     87  S   UNL A   1      41.544  20.885  26.879  1.00  0.00     0.124 S 
ATOM     88  O   UNL A   1      40.650  21.365  25.832  1.00  0.00    -0.237 OA
ATOM     89  O   UNL A   1      42.627  20.009  26.442  1.00  0.00    -0.237 OA
ATOM     90  O   UNL A   1      40.901  20.495  28.130  1.00  0.00    -0.744 OA
ENDBRANCH  86  87
ENDBRANCH  54  79
BRANCH  66  91
ATOM     91  C   UNL A   1      50.351  27.025  27.046  1.00  0.00     0.058 A 
ATOM     92  C   UNL A   1      50.690  27.166  25.690  1.00  0.00     0.135 A 
ATOM     93  C   UNL A   1      51.221  26.283  27.863  1.00  0.00     0.135 A 
ATOM     94  F   UNL A   1      49.894  27.863  24.864  1.00  0.00    -0.206 F 
ATOM     95  C   UNL A   1      51.825  26.564  25.159  1.00  0.00     0.059 A 
ATOM     96  C   UNL A   1      52.378  25.699  27.360  1.00  0.00     0.059 A 
ATOM     97  F   UNL A   1      50.953  26.130  29.170  1.00  0.00    -0.206 F 
ATOM     98  C   UNL A   1      52.662  25.830  26.001  1.00  0.00     0.060 A 
BRANCH  98  99
ATOM     99  S   UNL A   1      54.137  25.060  25.300  1.00  0.00     0.124 S 
ATOM    100  O   UNL A   1      55.185  25.588  26.167  1.00  0.00    -0.237 OA
ATOM    101  O   UNL A   1      53.848  23.636  25.449  1.00  0.00    -0.237 OA
ATOM    102  O   UNL A   1      54.154  25.548  23.924  1.00  0.00    -0.744 OA
ENDBRANCH  98  99
ENDBRANCH  66  91
ENDBRANCH  40  41
ENDBRANCH  33  35
ENDBRANCH  32  33
ENDBRANCH  31  32
ENDBRANCH  30  31
ENDBRANCH  29  30
ENDBRANCH  28  29
ENDBRANCH  27  28
ENDBRANCH  26  27
ENDBRANCH   1  26
TORSDOF 29
ENDMDL
MODEL 3
REMARK VINA RESULT:      -7.3      6.148     11.527
REMARK SMILES CC[C@@](C)([NH2+]CC(=O)N[C@@H](C)C(C)C)C(=O)OCCOCCOCCOCCOC(=O)c1ccc(-c2c3nc(c(-c4c(F)cc(S(=O)(=O)[O-])cc4F)c4ccc([nH]4)c(-c4c(F)cc(S(=O)(=O)[O-])cc4F)c4nc(c(-c5c(F)cc(S(=O)(=O)[O-])cc5F)c5ccc2[nH]5)C=C4)C=C3)cc1
REMARK SMILES IDX 22 1 21 2 20 3 19 4 18 5 17 6 15 7 16 8 3 9 4 10 2 11 1 12
REMARK SMILES IDX 5 13 6 16 7 17 8 18 9 19 10 21 11 22 12 23 13 24 14 25 23 26
REMARK SMILES IDX 24 27 25 28 26 29 27 30 28 31 29 32 30 33 31 34 32 35 33 36
REMARK SMILES IDX 97 37 34 38 96 39 35 40 36 41 37 42 90 43 38 44 95 45 89 46
REMARK SMILES IDX 91 47 39 48 94 49 88 50 87 51 40 53 74 54 53 55 73 56 54 57
REMARK SMILES IDX 57 58 72 59 92 60 55 61 56 62 71 64 93 65 58 66 41 67 42 68
REMARK SMILES IDX 51 69 43 70 44 71 50 72 52 73 45 74 46 75 47 76 48 77 49 78
REMARK SMILES IDX 75 79 76 80 85 81 77 82 78 83 84 84 86 85 79 86 80 87 81 88
REMARK SMILES IDX 82 89 83 90 59 91 60 92 69 93 61 94 62 95 68 96 70 97 63 98
REMARK SMILES IDX 64 99 65 100 66 101 67 102
REMARK H PARENT 5 14 5 15 9 20 91 52 57 63
REMARK Flexibility Score: inf
ROOT
ATOM      1  C   UNL A   1      39.913  26.462  27.465  1.00  0.00     0.188 C 
ENDROOT
BRANCH   1   2
ATOM      2  C   UNL A   1      39.771  25.212  26.572  1.00  0.00     0.188 C 
BRANCH   2   3
ATOM      3  O   UNL A   1      38.613  24.443  26.876  1.00  0.00    -0.376 OA
BRANCH   3   4
ATOM      4  C   UNL A   1      37.975  23.779  25.792  1.00  0.00     0.202 C 
BRANCH   4   5
ATOM      5  C   UNL A   1      36.563  23.218  25.969  1.00  0.00     0.261 C 
BRANCH   5   6
ATOM      6  O   UNL A   1      35.499  24.184  25.894  1.00  0.00    -0.459 OA
BRANCH   6   7
ATOM      7  C   UNL A   1      34.464  24.166  25.019  1.00  0.00     0.367 C 
ATOM      8  O   UNL A   1      34.586  24.331  23.813  1.00  0.00    -0.245 OA
BRANCH   7   9
ATOM      9  C   UNL A   1      33.109  23.890  25.785  1.00  0.00     0.191 C 
ATOM     10  C   UNL A   1      33.081  22.793  26.859  1.00  0.00     0.092 C 
BRANCH   9  11
ATOM     11  C   UNL A   1      32.794  25.219  26.547  1.00  0.00     0.077 C 
ATOM     12  C   UNL A   1      32.729  26.457  25.639  1.00  0.00     0.011 C 
ENDBRANCH   9  11
BRANCH   9  13
ATOM     13  N   UNL A   1      32.006  23.525  24.836  1.00  0.00    -0.325 N 
ATOM     14  H   UNL A   1      32.168  24.044  23.973  1.00  0.00     0.347 HD
ATOM     15  H   UNL A   1      31.153  23.753  25.344  1.00  0.00     0.347 HD
BRANCH  13  16
ATOM     16  C   UNL A   1      31.835  22.087  24.460  1.00  0.00     0.362 C 
BRANCH  16  17
ATOM     17  C   UNL A   1      32.200  21.697  23.016  1.00  0.00     0.275 C 
ATOM     18  O   UNL A   1      32.133  22.531  22.107  1.00  0.00    -0.268 OA
ATOM     19  N   UNL A   1      32.615  20.421  22.693  1.00  0.00    -0.349 N 
ATOM     20  H   UNL A   1      33.115  20.342  21.850  1.00  0.00     0.163 HD
BRANCH  19  21
ATOM     21  C   UNL A   1      32.419  19.168  23.425  1.00  0.00     0.081 C 
ATOM     22  C   UNL A   1      32.183  18.000  22.452  1.00  0.00     0.031 C 
BRANCH  21  23
ATOM     23  C   UNL A   1      33.524  18.807  24.444  1.00  0.00     0.005 C 
ATOM     24  C   UNL A   1      32.942  18.562  25.836  1.00  0.00     0.009 C 
ATOM     25  C   UNL A   1      34.307  17.567  23.968  1.00  0.00     0.009 C 
ENDBRANCH  21  23
ENDBRANCH  19  21
ENDBRANCH  16  17
ENDBRANCH  13  16
ENDBRANCH   9  13
ENDBRANCH   7   9
ENDBRANCH   6   7
ENDBRANCH   5   6
ENDBRANCH   4   5
ENDBRANCH   3   4
ENDBRANCH   2   3
ENDBRANCH   1   2
BRANCH   1  26
ATOM     26  O   UNL A   1      38.904  26.587  28.452  1.00  0.00    -0.377 OA
BRANCH  26  27
ATOM     27  C   UNL A   1      39.004  27.639  29.399  1.00  0.00     0.188 C 
BRANCH  27  28
ATOM     28  C   UNL A   1      38.532  29.070  29.064  1.00  0.00     0.188 C 
BRANCH  28  29
ATOM     29  O   UNL A   1      37.165  29.348  29.352  1.00  0.00    -0.376 OA
BRANCH  29  30
ATOM     30  C   UNL A   1      36.762  29.402  30.712  1.00  0.00     0.202 C 
BRANCH  30  31
ATOM     31  C   UNL A   1      36.538  30.802  31.309  1.00  0.00     0.261 C 
BRANCH  31  32
ATOM     32  O   UNL A   1      37.700  31.639  31.383  1.00  0.00    -0.460 OA
BRANCH  32  33
ATOM     33  C   UNL A   1      38.459  31.538  32.489  1.00  0.00     0.338 C 
ATOM     34  O   UNL A   1      38.068  31.483  33.652  1.00  0.00    -0.246 OA
BRANCH  33  35
ATOM     35  C   UNL A   1      39.852  31.309  32.078  1.00  0.00     0.060 A 
ATOM     36  C   UNL A   1      40.260  31.749  30.812  1.00  0.00     0.016 A 
ATOM     37  C   UNL A   1      40.741  30.640  32.923  1.00  0.00     0.016 A 
ATOM     38  C   UNL A   1      41.545  31.464  30.361  1.00  0.00     0.010 A 
ATOM     39  C   UNL A   1      42.023  30.334  32.459  1.00  0.00     0.010 A 
ATOM     40  C   UNL A   1      42.409  30.702  31.159  1.00  0.00    -0.014 A 
BRANCH  40  41
ATOM     41  C   UNL A   1      43.599  30.085  30.528  1.00  0.00     0.031 A 
ATOM     42  C   UNL A   1      44.884  30.870  30.532  1.00  0.00     0.074 A 
ATOM     43  C   UNL A   1      43.560  28.838  30.026  1.00  0.00     0.049 A 
ATOM     44  N   UNL A   1      46.058  30.546  30.059  1.00  0.00    -0.248 NA
ATOM     45  C   UNL A   1      44.836  32.202  31.161  1.00  0.00     0.031 C 
ATOM     46  C   UNL A   1      42.384  27.971  30.002  1.00  0.00     0.029 A 
ATOM     47  N   UNL A   1      44.546  28.088  29.438  1.00  0.00    -0.354 N 
ATOM     48  C   UNL A   1      46.889  31.623  30.345  1.00  0.00     0.074 A 
ATOM     49  C   UNL A   1      46.077  32.630  30.988  1.00  0.00     0.031 C 
ATOM     50  C   UNL A   1      42.714  26.808  29.411  1.00  0.00     0.029 A 
ATOM     51  C   UNL A   1      44.116  26.859  28.999  1.00  0.00     0.049 A 
ATOM     52  H   UNL A   1      45.474  28.401  29.338  1.00  0.00     0.167 HD
ATOM     53  C   UNL A   1      48.215  31.754  30.108  1.00  0.00     0.037 A 
ATOM     54  C   UNL A   1      44.778  25.897  28.326  1.00  0.00     0.037 A 
ATOM     55  C   UNL A   1      49.016  30.756  29.452  1.00  0.00     0.049 A 
ATOM     56  C   UNL A   1      46.239  26.097  28.005  1.00  0.00     0.074 A 
ATOM     57  C   UNL A   1      50.364  30.797  29.144  1.00  0.00     0.029 A 
ATOM     58  N   UNL A   1      48.539  29.535  28.998  1.00  0.00    -0.354 N 
ATOM     59  N   UNL A   1      47.017  27.116  28.290  1.00  0.00    -0.248 NA
ATOM     60  C   UNL A   1      46.916  25.012  27.280  1.00  0.00     0.031 C 
ATOM     61  C   UNL A   1      50.694  29.619  28.466  1.00  0.00     0.029 A 
ATOM     62  C   UNL A   1      49.563  28.819  28.400  1.00  0.00     0.049 A 
ATOM     63  H   UNL A   1      47.610  29.221  29.087  1.00  0.00     0.167 HD
ATOM     64  C   UNL A   1      48.279  26.781  27.806  1.00  0.00     0.074 A 
ATOM     65  C   UNL A   1      48.163  25.460  27.225  1.00  0.00     0.031 C 
ATOM     66  C   UNL A   1      49.430  27.499  27.835  1.00  0.00     0.037 A 
BRANCH  53  67
ATOM     67  C   UNL A   1      48.875  33.029  30.554  1.00  0.00     0.058 A 
ATOM     68  C   UNL A   1      49.462  33.147  31.824  1.00  0.00     0.135 A 
ATOM     69  C   UNL A   1      48.945  34.137  29.694  1.00  0.00     0.135 A 
ATOM     70  F   UNL A   1      49.403  32.128  32.695  1.00  0.00    -0.206 F 
ATOM     71  C   UNL A   1      50.078  34.325  32.233  1.00  0.00     0.059 A 
ATOM     72  C   UNL A   1      49.579  35.316  30.073  1.00  0.00     0.059 A 
ATOM     73  F   UNL A   1      48.392  34.081  28.473  1.00  0.00    -0.206 F 
ATOM     74  C   UNL A   1      50.133  35.404  31.349  1.00  0.00     0.060 A 
BRANCH  74  75
ATOM     75  S   UNL A   1      50.950  36.920  31.891  1.00  0.00     0.124 S 
ATOM     76  O   UNL A   1      50.697  37.808  30.760  1.00  0.00    -0.237 OA
ATOM     77  O   UNL A   1      50.231  37.239  33.121  1.00  0.00    -0.237 OA
ATOM     78  O   UNL A   1      52.341  36.513  32.070  1.00  0.00    -0.744 OA
ENDBRANCH  74  75
ENDBRANCH  53  67
BRANCH  54  79
ATOM     79  C   UNL A   1      44.067  24.665  27.888  1.00  0.00     0.058 A 
ATOM     80  C   UNL A   1      43.528  24.548  26.598  1.00  0.00     0.135 A 
ATOM     81  C   UNL A   1      43.888  23.586  28.768  1.00  0.00     0.135 A 
ATOM     82  F   UNL A   1      43.663  25.556  25.721  1.00  0.00    -0.206 F 
ATOM     83  C   UNL A   1      42.816  23.420  26.204  1.00  0.00     0.059 A 
ATOM     84  C   UNL A   1      43.205  22.435  28.389  1.00  0.00     0.059 A 
ATOM     85  F   UNL A   1      44.392  23.641  30.011  1.00  0.00    -0.206 F 
ATOM     86  C   UNL A   1      42.659  22.367  27.109  1.00  0.00     0.060 A 
BRANCH  86  87
ATOM     87  S   UNL A   1      41.759  20.894  26.579  1.00  0.00     0.124 S 
ATOM     88  O   UNL A   1      42.578  20.435  25.463  1.00  0.00    -0.237 OA
ATOM     89  O   UNL A   1      41.793  20.064  27.780  1.00  0.00    -0.237 OA
ATOM     90  O   UNL A   1      40.442  21.416  26.225  1.00  0.00    -0.744 OA
ENDBRANCH  86  87
ENDBRANCH  54  79
BRANCH  66  91
ATOM     91  C   UNL A   1      50.663  26.856  27.261  1.00  0.00     0.058 A 
ATOM     92  C   UNL A   1      51.611  26.214  28.073  1.00  0.00     0.135 A 
ATOM     93  C   UNL A   1      50.883  26.854  25.873  1.00  0.00     0.135 A 
ATOM     94  F   UNL A   1      51.451  26.187  29.406  1.00  0.00    -0.206 F 
ATOM     95  C   UNL A   1      52.750  25.625  27.535  1.00  0.00     0.059 A 
ATOM     96  C   UNL A   1      51.998  26.244  25.310  1.00  0.00     0.059 A 
ATOM     97  F   UNL A   1      50.000  27.441  25.049  1.00  0.00    -0.206 F 
ATOM     98  C   UNL A   1      52.936  25.647  26.151  1.00  0.00     0.060 A 
BRANCH  98  99
ATOM     99  S   UNL A   1      54.414  24.872  25.463  1.00  0.00     0.124 S 
ATOM    100  O   UNL A   1      54.810  25.842  24.448  1.00  0.00    -0.237 OA
ATOM    101  O   UNL A   1      55.291  24.780  26.628  1.00  0.00    -0.237 OA
ATOM    102  O   UNL A   1      53.924  23.595  24.955  1.00  0.00    -0.744 OA
ENDBRANCH  98  99
ENDBRANCH  66  91
ENDBRANCH  40  41
ENDBRANCH  33  35
ENDBRANCH  32  33
ENDBRANCH  31  32
ENDBRANCH  30  31
ENDBRANCH  29  30
ENDBRANCH  28  29
ENDBRANCH  27  28
ENDBRANCH  26  27
ENDBRANCH   1  26
TORSDOF 29
ENDMDL
