MODEL 1
REMARK VINA RESULT:      -9.7      0.000      0.000
REMARK SMILES CC1CC[NH+](CC(=O)N[C@H](Cc2cccc(F)c2)C(=O)OCCOCCOCCOCCOC(=O)c2ccc(-c3c4nc(c(-c5c(F)cc(S(=O)(=O)[O-])cc5F)c5ccc([nH]5)c(-c5c(F)cc(S(=O)(=O)[O-])cc5F)c5nc(c(-c6c(F)cc(S(=O)(=O)[O-])cc6F)c6ccc3[nH]6)C=C5)C=C4)cc2)CC1
REMARK SMILES IDX 27 1 26 2 25 3 24 4 23 5 22 6 21 7 19 8 20 9 10 10 9 11 7 12
REMARK SMILES IDX 8 13 6 15 5 16 1 17 2 18 3 19 103 20 4 21 102 22 11 24 12 25
REMARK SMILES IDX 13 26 18 27 14 28 16 29 15 30 17 31 28 32 29 33 30 34 31 35
REMARK SMILES IDX 32 36 33 37 34 38 35 39 36 40 37 41 101 42 38 43 100 44
REMARK SMILES IDX 39 45 40 46 41 47 94 48 42 49 99 50 93 51 95 52 43 53 98 54
REMARK SMILES IDX 92 55 91 56 44 58 78 59 57 60 77 61 58 62 61 63 76 64 96 65
REMARK SMILES IDX 59 66 60 67 75 69 97 70 62 71 45 72 46 73 55 74 47 75 48 76
REMARK SMILES IDX 54 77 56 78 49 79 50 80 51 81 52 82 53 83 79 84 80 85 89 86
REMARK SMILES IDX 81 87 82 88 88 89 90 90 83 91 84 92 85 93 86 94 87 95 63 96
REMARK SMILES IDX 64 97 73 98 65 99 66 100 72 101 74 102 67 103 68 104 69 105
REMARK SMILES IDX 70 106 71 107
REMARK H PARENT 9 14 5 23 95 57 61 68
REMARK Flexibility Score: inf
ROOT
ATOM      1  O   UNL A   1      34.917  24.608  25.392  1.00  0.00    -0.377 OA
ENDROOT
BRANCH   1   2
ATOM      2  C   UNL A   1      34.379  25.475  24.414  1.00  0.00     0.188 C 
BRANCH   2   3
ATOM      3  C   UNL A   1      33.988  26.910  24.767  1.00  0.00     0.188 C 
BRANCH   3   4
ATOM      4  O   UNL A   1      33.767  27.190  26.127  1.00  0.00    -0.376 OA
BRANCH   4   5
ATOM      5  C   UNL A   1      32.576  27.853  26.531  1.00  0.00     0.202 C 
BRANCH   5   6
ATOM      6  C   UNL A   1      31.242  27.128  26.821  1.00  0.00     0.261 C 
BRANCH   6   7
ATOM      7  O   UNL A   1      31.301  25.705  27.102  1.00  0.00    -0.462 OA
BRANCH   7   8
ATOM      8  C   UNL A   1      30.337  24.969  26.500  1.00  0.00     0.329 C 
ATOM      9  O   UNL A   1      29.163  25.012  26.879  1.00  0.00    -0.250 OA
BRANCH   8  10
ATOM     10  C   UNL A   1      30.702  24.117  25.239  1.00  0.00     0.196 C 
BRANCH  10  11
ATOM     11  N   UNL A   1      32.016  23.553  25.636  1.00  0.00    -0.338 N 
ATOM     12  C   UNL A   1      32.310  22.243  25.920  1.00  0.00     0.275 C 
ATOM     13  O   UNL A   1      33.104  22.019  26.835  1.00  0.00    -0.268 OA
ATOM     14  H   UNL A   1      32.762  24.192  25.704  1.00  0.00     0.164 HD
BRANCH  12  15
ATOM     15  C   UNL A   1      31.834  21.153  24.971  1.00  0.00     0.363 C 
BRANCH  15  16
ATOM     16  N   UNL A   1      32.686  20.655  23.888  1.00  0.00    -0.327 N 
ATOM     17  C   UNL A   1      33.336  16.651  25.007  1.00  0.00     0.008 C 
ATOM     18  C   UNL A   1      33.546  17.857  24.088  1.00  0.00    -0.003 C 
ATOM     19  C   UNL A   1      34.227  18.987  24.877  1.00  0.00     0.065 C 
ATOM     20  C   UNL A   1      32.201  18.252  23.471  1.00  0.00     0.065 C 
ATOM     21  C   UNL A   1      34.058  20.361  24.251  1.00  0.00     0.262 C 
ATOM     22  C   UNL A   1      32.152  19.682  22.955  1.00  0.00     0.262 C 
ATOM     23  H   UNL A   1      32.689  21.510  23.332  1.00  0.00     0.348 HD
ENDBRANCH  15  16
ENDBRANCH  12  15
ENDBRANCH  10  11
BRANCH  10  24
ATOM     24  C   UNL A   1      30.659  24.614  23.768  1.00  0.00     0.072 C 
BRANCH  24  25
ATOM     25  C   UNL A   1      30.141  26.068  23.641  1.00  0.00    -0.042 A 
ATOM     26  C   UNL A   1      28.786  26.394  23.846  1.00  0.00     0.004 A 
ATOM     27  C   UNL A   1      30.976  27.094  23.167  1.00  0.00     0.043 A 
ATOM     28  C   UNL A   1      28.247  27.622  23.426  1.00  0.00     0.003 A 
ATOM     29  C   UNL A   1      30.431  28.314  22.742  1.00  0.00     0.123 A 
ATOM     30  C   UNL A   1      29.070  28.572  22.833  1.00  0.00     0.039 A 
ATOM     31  F   UNL A   1      31.224  29.220  22.153  1.00  0.00    -0.207 F 
ENDBRANCH  24  25
ENDBRANCH  10  24
ENDBRANCH   8  10
ENDBRANCH   7   8
ENDBRANCH   6   7
ENDBRANCH   5   6
ENDBRANCH   4   5
ENDBRANCH   3   4
ENDBRANCH   2   3
ENDBRANCH   1   2
BRANCH   1  32
ATOM     32  C   UNL A   1      35.719  23.490  25.034  1.00  0.00     0.188 C 
BRANCH  32  33
ATOM     33  C   UNL A   1      37.248  23.610  25.085  1.00  0.00     0.188 C 
BRANCH  33  34
ATOM     34  O   UNL A   1      37.848  22.828  26.103  1.00  0.00    -0.376 OA
BRANCH  34  35
ATOM     35  C   UNL A   1      38.563  21.668  25.707  1.00  0.00     0.202 C 
BRANCH  35  36
ATOM     36  C   UNL A   1      39.787  21.258  26.543  1.00  0.00     0.261 C 
BRANCH  36  37
ATOM     37  O   UNL A   1      40.243  19.898  26.423  1.00  0.00    -0.460 OA
BRANCH  37  38
ATOM     38  C   UNL A   1      41.556  19.671  26.189  1.00  0.00     0.338 C 
ATOM     39  O   UNL A   1      42.059  18.658  25.756  1.00  0.00    -0.246 OA
BRANCH  38  40
ATOM     40  C   UNL A   1      42.274  20.954  26.375  1.00  0.00     0.060 A 
ATOM     41  C   UNL A   1      42.517  21.417  27.676  1.00  0.00     0.016 A 
ATOM     42  C   UNL A   1      42.698  21.699  25.273  1.00  0.00     0.016 A 
ATOM     43  C   UNL A   1      43.148  22.648  27.876  1.00  0.00     0.010 A 
ATOM     44  C   UNL A   1      43.311  22.940  25.475  1.00  0.00     0.010 A 
ATOM     45  C   UNL A   1      43.506  23.438  26.775  1.00  0.00    -0.014 A 
BRANCH  45  46
ATOM     46  C   UNL A   1      43.895  24.858  26.974  1.00  0.00     0.031 A 
ATOM     47  C   UNL A   1      45.330  25.244  26.730  1.00  0.00     0.074 A 
ATOM     48  C   UNL A   1      42.999  25.794  27.343  1.00  0.00     0.049 A 
ATOM     49  N   UNL A   1      45.924  26.394  26.910  1.00  0.00    -0.248 NA
ATOM     50  C   UNL A   1      46.217  24.187  26.213  1.00  0.00     0.031 C 
ATOM     51  C   UNL A   1      41.573  25.561  27.560  1.00  0.00     0.029 A 
ATOM     52  N   UNL A   1      43.164  27.131  27.611  1.00  0.00    -0.354 N 
ATOM     53  C   UNL A   1      47.248  26.200  26.536  1.00  0.00     0.074 A 
ATOM     54  C   UNL A   1      47.382  24.814  26.146  1.00  0.00     0.031 C 
ATOM     55  C   UNL A   1      40.995  26.715  27.941  1.00  0.00     0.029 A 
ATOM     56  C   UNL A   1      42.015  27.759  28.032  1.00  0.00     0.049 A 
ATOM     57  H   UNL A   1      44.026  27.597  27.511  1.00  0.00     0.167 HD
ATOM     58  C   UNL A   1      48.259  27.099  26.508  1.00  0.00     0.037 A 
ATOM     59  C   UNL A   1      41.816  29.023  28.465  1.00  0.00     0.037 A 
ATOM     60  C   UNL A   1      48.121  28.480  26.888  1.00  0.00     0.049 A 
ATOM     61  C   UNL A   1      42.979  29.985  28.505  1.00  0.00     0.074 A 
ATOM     62  C   UNL A   1      49.087  29.471  26.882  1.00  0.00     0.029 A 
ATOM     63  N   UNL A   1      46.948  29.067  27.341  1.00  0.00    -0.354 N 
ATOM     64  N   UNL A   1      44.224  29.789  28.139  1.00  0.00    -0.248 NA
ATOM     65  C   UNL A   1      42.712  31.338  29.016  1.00  0.00     0.031 C 
ATOM     66  C   UNL A   1      48.515  30.642  27.384  1.00  0.00     0.029 A 
ATOM     67  C   UNL A   1      47.175  30.399  27.641  1.00  0.00     0.049 A 
ATOM     68  H   UNL A   1      46.084  28.605  27.434  1.00  0.00     0.167 HD
ATOM     69  C   UNL A   1      44.878  31.002  28.348  1.00  0.00     0.074 A 
ATOM     70  C   UNL A   1      43.892  31.927  28.861  1.00  0.00     0.031 C 
ATOM     71  C   UNL A   1      46.180  31.317  28.134  1.00  0.00     0.037 A 
BRANCH  58  72
ATOM     72  C   UNL A   1      49.614  26.632  26.059  1.00  0.00     0.058 A 
ATOM     73  C   UNL A   1      50.475  25.981  26.958  1.00  0.00     0.135 A 
ATOM     74  C   UNL A   1      50.102  26.920  24.775  1.00  0.00     0.135 A 
ATOM     75  F   UNL A   1      50.054  25.673  28.195  1.00  0.00    -0.206 F 
ATOM     76  C   UNL A   1      51.784  25.666  26.613  1.00  0.00     0.059 A 
ATOM     77  C   UNL A   1      51.401  26.589  24.398  1.00  0.00     0.059 A 
ATOM     78  F   UNL A   1      49.311  27.515  23.870  1.00  0.00    -0.206 F 
ATOM     79  C   UNL A   1      52.241  25.983  25.332  1.00  0.00     0.060 A 
BRANCH  79  80
ATOM     80  S   UNL A   1      53.950  25.583  24.908  1.00  0.00     0.124 S 
ATOM     81  O   UNL A   1      54.118  24.277  25.535  1.00  0.00    -0.237 OA
ATOM     82  O   UNL A   1      53.909  25.589  23.448  1.00  0.00    -0.237 OA
ATOM     83  O   UNL A   1      54.711  26.673  25.510  1.00  0.00    -0.744 OA
ENDBRANCH  79  80
ENDBRANCH  58  72
BRANCH  59  84
ATOM     84  C   UNL A   1      40.463  29.455  28.916  1.00  0.00     0.058 A 
ATOM     85  C   UNL A   1      40.191  29.699  30.271  1.00  0.00     0.135 A 
ATOM     86  C   UNL A   1      39.418  29.649  27.998  1.00  0.00     0.135 A 
ATOM     87  F   UNL A   1      41.151  29.529  31.193  1.00  0.00    -0.206 F 
ATOM     88  C   UNL A   1      38.930  30.098  30.703  1.00  0.00     0.059 A 
ATOM     89  C   UNL A   1      38.156  30.078  28.403  1.00  0.00     0.059 A 
ATOM     90  F   UNL A   1      39.631  29.449  26.689  1.00  0.00    -0.206 F 
ATOM     91  C   UNL A   1      37.919  30.285  29.761  1.00  0.00     0.060 A 
BRANCH  91  92
ATOM     92  S   UNL A   1      36.293  30.811  30.344  1.00  0.00     0.124 S 
ATOM     93  O   UNL A   1      35.560  30.931  29.088  1.00  0.00    -0.237 OA
ATOM     94  O   UNL A   1      35.904  29.698  31.204  1.00  0.00    -0.237 OA
ATOM     95  O   UNL A   1      36.571  32.067  31.032  1.00  0.00    -0.744 OA
ENDBRANCH  91  92
ENDBRANCH  59  84
BRANCH  71  96
ATOM     96  C   UNL A   1      46.625  32.729  28.415  1.00  0.00     0.058 A 
ATOM     97  C   UNL A   1      47.037  33.098  29.707  1.00  0.00     0.135 A 
ATOM     98  C   UNL A   1      46.546  33.736  27.441  1.00  0.00     0.135 A 
ATOM     99  F   UNL A   1      47.121  32.177  30.680  1.00  0.00    -0.206 F 
ATOM    100  C   UNL A   1      47.330  34.418  30.028  1.00  0.00     0.059 A 
ATOM    101  C   UNL A   1      46.866  35.059  27.733  1.00  0.00     0.059 A 
ATOM    102  F   UNL A   1      46.165  33.436  26.190  1.00  0.00    -0.206 F 
ATOM    103  C   UNL A   1      47.239  35.394  29.035  1.00  0.00     0.060 A 
BRANCH 103 104
ATOM    104  S   UNL A   1      47.627  37.101  29.470  1.00  0.00     0.124 S 
ATOM    105  O   UNL A   1      47.274  37.138  30.885  1.00  0.00    -0.237 OA
ATOM    106  O   UNL A   1      49.054  37.179  29.170  1.00  0.00    -0.237 OA
ATOM    107  O   UNL A   1      46.766  37.882  28.589  1.00  0.00    -0.744 OA
ENDBRANCH 103 104
ENDBRANCH  71  96
ENDBRANCH  45  46
ENDBRANCH  38  40
ENDBRANCH  37  38
ENDBRANCH  36  37
ENDBRANCH  35  36
ENDBRANCH  34  35
ENDBRANCH  33  34
ENDBRANCH  32  33
ENDBRANCH   1  32
TORSDOF 28
ENDMDL
MODEL 2
REMARK VINA RESULT:      -8.8      6.020     12.732
REMARK SMILES CC1CC[NH+](CC(=O)N[C@H](Cc2cccc(F)c2)C(=O)OCCOCCOCCOCCOC(=O)c2ccc(-c3c4nc(c(-c5c(F)cc(S(=O)(=O)[O-])cc5F)c5ccc([nH]5)c(-c5c(F)cc(S(=O)(=O)[O-])cc5F)c5nc(c(-c6c(F)cc(S(=O)(=O)[O-])cc6F)c6ccc3[nH]6)C=C5)C=C4)cc2)CC1
REMARK SMILES IDX 27 1 26 2 25 3 24 4 23 5 22 6 21 7 19 8 20 9 10 10 9 11 7 12
REMARK SMILES IDX 8 13 6 15 5 16 1 17 2 18 3 19 103 20 4 21 102 22 11 24 12 25
REMARK SMILES IDX 13 26 18 27 14 28 16 29 15 30 17 31 28 32 29 33 30 34 31 35
REMARK SMILES IDX 32 36 33 37 34 38 35 39 36 40 37 41 101 42 38 43 100 44
REMARK SMILES IDX 39 45 40 46 41 47 94 48 42 49 99 50 93 51 95 52 43 53 98 54
REMARK SMILES IDX 92 55 91 56 44 58 78 59 57 60 77 61 58 62 61 63 76 64 96 65
REMARK SMILES IDX 59 66 60 67 75 69 97 70 62 71 45 72 46 73 55 74 47 75 48 76
REMARK SMILES IDX 54 77 56 78 49 79 50 80 51 81 52 82 53 83 79 84 80 85 89 86
REMARK SMILES IDX 81 87 82 88 88 89 90 90 83 91 84 92 85 93 86 94 87 95 63 96
REMARK SMILES IDX 64 97 73 98 65 99 66 100 72 101 74 102 67 103 68 104 69 105
REMARK SMILES IDX 70 106 71 107
REMARK H PARENT 9 14 5 23 95 57 61 68
REMARK Flexibility Score: inf
ROOT
ATOM      1  O   UNL A   1      32.963  37.009  32.141  1.00  0.00    -0.377 OA
ENDROOT
BRANCH   1   2
ATOM      2  C   UNL A   1      33.946  36.748  33.121  1.00  0.00     0.188 C 
BRANCH   2   3
ATOM      3  C   UNL A   1      34.497  35.336  33.324  1.00  0.00     0.188 C 
BRANCH   3   4
ATOM      4  O   UNL A   1      35.750  35.057  32.750  1.00  0.00    -0.376 OA
BRANCH   4   5
ATOM      5  C   UNL A   1      36.780  34.477  33.541  1.00  0.00     0.202 C 
BRANCH   5   6
ATOM      6  C   UNL A   1      38.143  34.016  32.979  1.00  0.00     0.261 C 
BRANCH   6   7
ATOM      7  O   UNL A   1      39.089  33.432  33.913  1.00  0.00    -0.462 OA
BRANCH   7   8
ATOM      8  C   UNL A   1      38.753  33.567  35.217  1.00  0.00     0.329 C 
ATOM      9  O   UNL A   1      38.688  34.677  35.754  1.00  0.00    -0.250 OA
BRANCH   8  10
ATOM     10  C   UNL A   1      38.347  32.297  36.037  1.00  0.00     0.196 C 
BRANCH  10  11
ATOM     11  N   UNL A   1      39.309  32.357  37.165  1.00  0.00    -0.338 N 
ATOM     12  C   UNL A   1      39.169  33.041  38.346  1.00  0.00     0.275 C 
ATOM     13  O   UNL A   1      40.173  33.576  38.822  1.00  0.00    -0.268 OA
ATOM     14  H   UNL A   1      40.144  31.847  37.053  1.00  0.00     0.164 HD
BRANCH  12  15
ATOM     15  C   UNL A   1      37.866  32.924  39.122  1.00  0.00     0.363 C 
BRANCH  15  16
ATOM     16  N   UNL A   1      37.581  31.766  39.972  1.00  0.00    -0.327 N 
ATOM     17  C   UNL A   1      35.456  33.483  43.172  1.00  0.00     0.008 C 
ATOM     18  C   UNL A   1      36.108  32.300  42.453  1.00  0.00    -0.003 C 
ATOM     19  C   UNL A   1      37.618  32.554  42.320  1.00  0.00     0.065 C 
ATOM     20  C   UNL A   1      35.395  32.076  41.116  1.00  0.00     0.065 C 
ATOM     21  C   UNL A   1      38.288  31.725  41.237  1.00  0.00     0.262 C 
ATOM     22  C   UNL A   1      36.215  31.296  40.100  1.00  0.00     0.262 C 
ATOM     23  H   UNL A   1      37.997  31.062  39.363  1.00  0.00     0.348 HD
ENDBRANCH  15  16
ENDBRANCH  12  15
ENDBRANCH  10  11
BRANCH  10  24
ATOM     24  C   UNL A   1      38.157  30.869  35.458  1.00  0.00     0.072 C 
BRANCH  24  25
ATOM     25  C   UNL A   1      39.491  30.219  35.015  1.00  0.00    -0.042 A 
ATOM     26  C   UNL A   1      39.664  29.689  33.720  1.00  0.00     0.004 A 
ATOM     27  C   UNL A   1      40.528  29.996  35.935  1.00  0.00     0.043 A 
ATOM     28  C   UNL A   1      40.727  28.824  33.410  1.00  0.00     0.003 A 
ATOM     29  C   UNL A   1      41.582  29.125  35.621  1.00  0.00     0.123 A 
ATOM     30  C   UNL A   1      41.669  28.509  34.381  1.00  0.00     0.039 A 
ATOM     31  F   UNL A   1      42.478  28.808  36.567  1.00  0.00    -0.207 F 
ENDBRANCH  24  25
ENDBRANCH  10  24
ENDBRANCH   8  10
ENDBRANCH   7   8
ENDBRANCH   6   7
ENDBRANCH   5   6
ENDBRANCH   4   5
ENDBRANCH   3   4
ENDBRANCH   2   3
ENDBRANCH   1   2
BRANCH   1  32
ATOM     32  C   UNL A   1      33.237  36.858  30.754  1.00  0.00     0.188 C 
BRANCH  32  33
ATOM     33  C   UNL A   1      32.989  35.502  30.079  1.00  0.00     0.188 C 
BRANCH  33  34
ATOM     34  O   UNL A   1      33.549  35.399  28.781  1.00  0.00    -0.376 OA
BRANCH  34  35
ATOM     35  C   UNL A   1      34.495  34.366  28.553  1.00  0.00     0.202 C 
BRANCH  35  36
ATOM     36  C   UNL A   1      33.960  32.944  28.314  1.00  0.00     0.261 C 
BRANCH  36  37
ATOM     37  O   UNL A   1      34.675  31.859  28.934  1.00  0.00    -0.460 OA
BRANCH  37  38
ATOM     38  C   UNL A   1      34.784  30.687  28.266  1.00  0.00     0.338 C 
ATOM     39  O   UNL A   1      33.972  30.194  27.513  1.00  0.00    -0.246 OA
BRANCH  38  40
ATOM     40  C   UNL A   1      36.164  30.185  28.462  1.00  0.00     0.060 A 
ATOM     41  C   UNL A   1      36.533  29.677  29.715  1.00  0.00     0.016 A 
ATOM     42  C   UNL A   1      37.089  30.222  27.416  1.00  0.00     0.016 A 
ATOM     43  C   UNL A   1      37.843  29.244  29.938  1.00  0.00     0.010 A 
ATOM     44  C   UNL A   1      38.405  29.807  27.648  1.00  0.00     0.010 A 
ATOM     45  C   UNL A   1      38.798  29.351  28.918  1.00  0.00    -0.014 A 
BRANCH  45  46
ATOM     46  C   UNL A   1      40.242  29.180  29.230  1.00  0.00     0.031 A 
ATOM     47  C   UNL A   1      40.912  30.222  30.088  1.00  0.00     0.074 A 
ATOM     48  C   UNL A   1      40.944  28.122  28.782  1.00  0.00     0.049 A 
ATOM     49  N   UNL A   1      42.168  30.333  30.429  1.00  0.00    -0.248 NA
ATOM     50  C   UNL A   1      40.046  31.282  30.634  1.00  0.00     0.031 C 
ATOM     51  C   UNL A   1      40.402  27.021  27.989  1.00  0.00     0.029 A 
ATOM     52  N   UNL A   1      42.274  27.807  28.927  1.00  0.00    -0.354 N 
ATOM     53  C   UNL A   1      42.245  31.473  31.222  1.00  0.00     0.074 A 
ATOM     54  C   UNL A   1      40.916  32.036  31.289  1.00  0.00     0.031 C 
ATOM     55  C   UNL A   1      41.394  26.158  27.705  1.00  0.00     0.029 A 
ATOM     56  C   UNL A   1      42.648  26.662  28.264  1.00  0.00     0.049 A 
ATOM     57  H   UNL A   1      42.901  28.352  29.457  1.00  0.00     0.167 HD
ATOM     58  C   UNL A   1      43.325  31.995  31.848  1.00  0.00     0.037 A 
ATOM     59  C   UNL A   1      43.867  26.102  28.104  1.00  0.00     0.037 A 
ATOM     60  C   UNL A   1      44.645  31.427  31.787  1.00  0.00     0.049 A 
ATOM     61  C   UNL A   1      45.071  26.750  28.743  1.00  0.00     0.074 A 
ATOM     62  C   UNL A   1      45.802  31.880  32.399  1.00  0.00     0.029 A 
ATOM     63  N   UNL A   1      44.989  30.286  31.077  1.00  0.00    -0.354 N 
ATOM     64  N   UNL A   1      45.127  27.823  29.498  1.00  0.00    -0.248 NA
ATOM     65  C   UNL A   1      46.377  26.116  28.509  1.00  0.00     0.031 C 
ATOM     66  C   UNL A   1      46.854  31.047  32.014  1.00  0.00     0.029 A 
ATOM     67  C   UNL A   1      46.343  30.036  31.214  1.00  0.00     0.049 A 
ATOM     68  H   UNL A   1      44.362  29.736  30.553  1.00  0.00     0.167 HD
ATOM     69  C   UNL A   1      46.466  27.971  29.851  1.00  0.00     0.074 A 
ATOM     70  C   UNL A   1      47.185  26.875  29.239  1.00  0.00     0.031 C 
ATOM     71  C   UNL A   1      47.047  28.930  30.615  1.00  0.00     0.037 A 
BRANCH  58  72
ATOM     72  C   UNL A   1      43.142  33.249  32.655  1.00  0.00     0.058 A 
ATOM     73  C   UNL A   1      42.783  33.175  34.011  1.00  0.00     0.135 A 
ATOM     74  C   UNL A   1      43.218  34.520  32.064  1.00  0.00     0.135 A 
ATOM     75  F   UNL A   1      42.707  31.985  34.626  1.00  0.00    -0.206 F 
ATOM     76  C   UNL A   1      42.469  34.315  34.742  1.00  0.00     0.059 A 
ATOM     77  C   UNL A   1      42.935  35.676  32.786  1.00  0.00     0.059 A 
ATOM     78  F   UNL A   1      43.584  34.647  30.780  1.00  0.00    -0.206 F 
ATOM     79  C   UNL A   1      42.539  35.561  34.117  1.00  0.00     0.060 A 
BRANCH  79  80
ATOM     80  S   UNL A   1      42.110  37.028  35.079  1.00  0.00     0.124 S 
ATOM     81  O   UNL A   1      42.801  36.775  36.338  1.00  0.00    -0.237 OA
ATOM     82  O   UNL A   1      42.656  38.102  34.255  1.00  0.00    -0.237 OA
ATOM     83  O   UNL A   1      40.651  36.976  35.140  1.00  0.00    -0.744 OA
ENDBRANCH  79  80
ENDBRANCH  58  72
BRANCH  59  84
ATOM     84  C   UNL A   1      44.020  24.864  27.289  1.00  0.00     0.058 A 
ATOM     85  C   UNL A   1      43.735  23.599  27.827  1.00  0.00     0.135 A 
ATOM     86  C   UNL A   1      44.440  24.921  25.951  1.00  0.00     0.135 A 
ATOM     87  F   UNL A   1      43.330  23.483  29.102  1.00  0.00    -0.206 F 
ATOM     88  C   UNL A   1      43.880  22.436  27.077  1.00  0.00     0.059 A 
ATOM     89  C   UNL A   1      44.563  23.773  25.170  1.00  0.00     0.059 A 
ATOM     90  F   UNL A   1      44.706  26.106  25.383  1.00  0.00    -0.206 F 
ATOM     91  C   UNL A   1      44.294  22.534  25.748  1.00  0.00     0.060 A 
BRANCH  91  92
ATOM     92  S   UNL A   1      44.467  21.012  24.792  1.00  0.00     0.124 S 
ATOM     93  O   UNL A   1      44.397  21.520  23.426  1.00  0.00    -0.237 OA
ATOM     94  O   UNL A   1      45.774  20.528  25.225  1.00  0.00    -0.237 OA
ATOM     95  O   UNL A   1      43.328  20.210  25.225  1.00  0.00    -0.744 OA
ENDBRANCH  91  92
ENDBRANCH  59  84
BRANCH  71  96
ATOM     96  C   UNL A   1      48.527  28.835  30.872  1.00  0.00     0.058 A 
ATOM     97  C   UNL A   1      49.005  28.208  32.036  1.00  0.00     0.135 A 
ATOM     98  C   UNL A   1      49.465  29.450  30.028  1.00  0.00     0.135 A 
ATOM     99  F   UNL A   1      48.152  27.613  32.883  1.00  0.00    -0.206 F 
ATOM    100  C   UNL A   1      50.356  28.216  32.365  1.00  0.00     0.059 A 
ATOM    101  C   UNL A   1      50.826  29.442  30.322  1.00  0.00     0.059 A 
ATOM    102  F   UNL A   1      49.062  30.056  28.901  1.00  0.00    -0.206 F 
ATOM    103  C   UNL A   1      51.260  28.838  31.503  1.00  0.00     0.060 A 
BRANCH 103 104
ATOM    104  S   UNL A   1      53.009  28.835  31.946  1.00  0.00     0.124 S 
ATOM    105  O   UNL A   1      53.527  29.929  31.132  1.00  0.00    -0.237 OA
ATOM    106  O   UNL A   1      52.963  29.081  33.384  1.00  0.00    -0.237 OA
ATOM    107  O   UNL A   1      53.456  27.500  31.559  1.00  0.00    -0.744 OA
ENDBRANCH 103 104
ENDBRANCH  71  96
ENDBRANCH  45  46
ENDBRANCH  38  40
ENDBRANCH  37  38
ENDBRANCH  36  37
ENDBRANCH  35  36
ENDBRANCH  34  35
ENDBRANCH  33  34
ENDBRANCH  32  33
ENDBRANCH   1  32
TORSDOF 28
ENDMDL
MODEL 3
REMARK VINA RESULT:      -8.6      5.961      9.080
REMARK SMILES CC1CC[NH+](CC(=O)N[C@H](Cc2cccc(F)c2)C(=O)OCCOCCOCCOCCOC(=O)c2ccc(-c3c4nc(c(-c5c(F)cc(S(=O)(=O)[O-])cc5F)c5ccc([nH]5)c(-c5c(F)cc(S(=O)(=O)[O-])cc5F)c5nc(c(-c6c(F)cc(S(=O)(=O)[O-])cc6F)c6ccc3[nH]6)C=C5)C=C4)cc2)CC1
REMARK SMILES IDX 27 1 26 2 25 3 24 4 23 5 22 6 21 7 19 8 20 9 10 10 9 11 7 12
REMARK SMILES IDX 8 13 6 15 5 16 1 17 2 18 3 19 103 20 4 21 102 22 11 24 12 25
REMARK SMILES IDX 13 26 18 27 14 28 16 29 15 30 17 31 28 32 29 33 30 34 31 35
REMARK SMILES IDX 32 36 33 37 34 38 35 39 36 40 37 41 101 42 38 43 100 44
REMARK SMILES IDX 39 45 40 46 41 47 94 48 42 49 99 50 93 51 95 52 43 53 98 54
REMARK SMILES IDX 92 55 91 56 44 58 78 59 57 60 77 61 58 62 61 63 76 64 96 65
REMARK SMILES IDX 59 66 60 67 75 69 97 70 62 71 45 72 46 73 55 74 47 75 48 76
REMARK SMILES IDX 54 77 56 78 49 79 50 80 51 81 52 82 53 83 79 84 80 85 89 86
REMARK SMILES IDX 81 87 82 88 88 89 90 90 83 91 84 92 85 93 86 94 87 95 63 96
REMARK SMILES IDX 64 97 73 98 65 99 66 100 72 101 74 102 67 103 68 104 69 105
REMARK SMILES IDX 70 106 71 107
REMARK H PARENT 9 14 5 23 95 57 61 68
REMARK Flexibility Score: inf
ROOT
ATOM      1  O   UNL A   1      39.870  26.144  27.262  1.00  0.00    -0.377 OA
ENDROOT
BRANCH   1   2
ATOM      2  C   UNL A   1      39.178  24.964  27.617  1.00  0.00     0.188 C 
BRANCH   2   3
ATOM      3  C   UNL A   1      39.811  23.588  27.405  1.00  0.00     0.188 C 
BRANCH   3   4
ATOM      4  O   UNL A   1      39.238  22.774  26.412  1.00  0.00    -0.376 OA
BRANCH   4   5
ATOM      5  C   UNL A   1      37.848  22.876  26.126  1.00  0.00     0.202 C 
BRANCH   5   6
ATOM      6  C   UNL A   1      37.279  23.328  24.763  1.00  0.00     0.261 C 
BRANCH   6   7
ATOM      7  O   UNL A   1      35.968  23.952  24.759  1.00  0.00    -0.462 OA
BRANCH   7   8
ATOM      8  C   UNL A   1      35.039  23.310  24.013  1.00  0.00     0.329 C 
ATOM      9  O   UNL A   1      35.006  23.426  22.784  1.00  0.00    -0.250 OA
BRANCH   8  10
ATOM     10  C   UNL A   1      34.042  22.327  24.714  1.00  0.00     0.196 C 
BRANCH  10  11
ATOM     11  N   UNL A   1      33.310  23.247  25.619  1.00  0.00    -0.338 N 
ATOM     12  C   UNL A   1      32.813  24.491  25.320  1.00  0.00     0.275 C 
ATOM     13  O   UNL A   1      32.887  25.362  26.189  1.00  0.00    -0.268 OA
ATOM     14  H   UNL A   1      33.165  22.929  26.539  1.00  0.00     0.164 HD
BRANCH  12  15
ATOM     15  C   UNL A   1      32.004  24.681  24.046  1.00  0.00     0.363 C 
BRANCH  15  16
ATOM     16  N   UNL A   1      32.471  25.552  22.964  1.00  0.00    -0.327 N 
ATOM     17  C   UNL A   1      30.886  29.293  24.060  1.00  0.00     0.008 C 
ATOM     18  C   UNL A   1      31.660  28.367  23.117  1.00  0.00    -0.003 C 
ATOM     19  C   UNL A   1      30.720  27.267  22.599  1.00  0.00     0.065 C 
ATOM     20  C   UNL A   1      32.898  27.837  23.847  1.00  0.00     0.065 C 
ATOM     21  C   UNL A   1      31.445  26.043  22.065  1.00  0.00     0.262 C 
ATOM     22  C   UNL A   1      33.471  26.562  23.247  1.00  0.00     0.262 C 
ATOM     23  H   UNL A   1      33.010  24.846  22.463  1.00  0.00     0.348 HD
ENDBRANCH  15  16
ENDBRANCH  12  15
ENDBRANCH  10  11
BRANCH  10  24
ATOM     24  C   UNL A   1      34.422  20.975  25.377  1.00  0.00     0.072 C 
BRANCH  24  25
ATOM     25  C   UNL A   1      34.025  19.751  24.515  1.00  0.00    -0.042 A 
ATOM     26  C   UNL A   1      32.821  19.718  23.783  1.00  0.00     0.004 A 
ATOM     27  C   UNL A   1      34.779  18.566  24.551  1.00  0.00     0.043 A 
ATOM     28  C   UNL A   1      32.300  18.519  23.268  1.00  0.00     0.003 A 
ATOM     29  C   UNL A   1      34.248  17.372  24.042  1.00  0.00     0.123 A 
ATOM     30  C   UNL A   1      33.001  17.331  23.436  1.00  0.00     0.039 A 
ATOM     31  F   UNL A   1      34.919  16.225  24.224  1.00  0.00    -0.207 F 
ENDBRANCH  24  25
ENDBRANCH  10  24
ENDBRANCH   8  10
ENDBRANCH   7   8
ENDBRANCH   6   7
ENDBRANCH   5   6
ENDBRANCH   4   5
ENDBRANCH   3   4
ENDBRANCH   2   3
ENDBRANCH   1   2
BRANCH   1  32
ATOM     32  C   UNL A   1      41.222  26.109  26.824  1.00  0.00     0.188 C 
BRANCH  32  33
ATOM     33  C   UNL A   1      41.528  26.046  25.322  1.00  0.00     0.188 C 
BRANCH  33  34
ATOM     34  O   UNL A   1      42.625  26.852  24.928  1.00  0.00    -0.376 OA
BRANCH  34  35
ATOM     35  C   UNL A   1      43.719  26.960  25.827  1.00  0.00     0.202 C 
BRANCH  35  36
ATOM     36  C   UNL A   1      44.795  25.862  25.784  1.00  0.00     0.261 C 
BRANCH  36  37
ATOM     37  O   UNL A   1      46.009  26.100  26.519  1.00  0.00    -0.460 OA
BRANCH  37  38
ATOM     38  C   UNL A   1      46.193  25.458  27.695  1.00  0.00     0.338 C 
ATOM     39  O   UNL A   1      46.703  24.373  27.866  1.00  0.00    -0.246 OA
BRANCH  38  40
ATOM     40  C   UNL A   1      45.832  26.399  28.782  1.00  0.00     0.060 A 
ATOM     41  C   UNL A   1      44.931  25.984  29.773  1.00  0.00     0.016 A 
ATOM     42  C   UNL A   1      46.375  27.685  28.819  1.00  0.00     0.016 A 
ATOM     43  C   UNL A   1      44.538  26.870  30.779  1.00  0.00     0.010 A 
ATOM     44  C   UNL A   1      45.964  28.577  29.815  1.00  0.00     0.010 A 
ATOM     45  C   UNL A   1      45.016  28.187  30.778  1.00  0.00    -0.014 A 
BRANCH  45  46
ATOM     46  C   UNL A   1      44.382  29.210  31.650  1.00  0.00     0.031 A 
ATOM     47  C   UNL A   1      45.097  29.608  32.915  1.00  0.00     0.074 A 
ATOM     48  C   UNL A   1      43.211  29.790  31.326  1.00  0.00     0.049 A 
ATOM     49  N   UNL A   1      44.711  30.414  33.868  1.00  0.00    -0.248 NA
ATOM     50  C   UNL A   1      46.428  29.015  33.133  1.00  0.00     0.031 C 
ATOM     51  C   UNL A   1      42.446  29.531  30.108  1.00  0.00     0.029 A 
ATOM     52  N   UNL A   1      42.454  30.713  32.007  1.00  0.00    -0.354 N 
ATOM     53  C   UNL A   1      45.744  30.421  34.799  1.00  0.00     0.074 A 
ATOM     54  C   UNL A   1      46.762  29.518  34.313  1.00  0.00     0.031 C 
ATOM     55  C   UNL A   1      41.322  30.269  30.134  1.00  0.00     0.029 A 
ATOM     56  C   UNL A   1      41.267  31.024  31.386  1.00  0.00     0.049 A 
ATOM     57  H   UNL A   1      42.736  31.116  32.860  1.00  0.00     0.167 HD
ATOM     58  C   UNL A   1      45.839  31.128  35.949  1.00  0.00     0.037 A 
ATOM     59  C   UNL A   1      40.244  31.806  31.793  1.00  0.00     0.037 A 
ATOM     60  C   UNL A   1      44.828  32.034  36.426  1.00  0.00     0.049 A 
ATOM     61  C   UNL A   1      40.338  32.518  33.121  1.00  0.00     0.074 A 
ATOM     62  C   UNL A   1      44.842  32.804  37.576  1.00  0.00     0.029 A 
ATOM     63  N   UNL A   1      43.626  32.293  35.784  1.00  0.00    -0.354 N 
ATOM     64  N   UNL A   1      41.325  32.523  33.986  1.00  0.00    -0.248 NA
ATOM     65  C   UNL A   1      39.181  33.330  33.530  1.00  0.00     0.031 C 
ATOM     66  C   UNL A   1      43.626  33.485  37.659  1.00  0.00     0.029 A 
ATOM     67  C   UNL A   1      42.880  33.191  36.528  1.00  0.00     0.049 A 
ATOM     68  H   UNL A   1      43.346  31.898  34.927  1.00  0.00     0.167 HD
ATOM     69  C   UNL A   1      40.919  33.360  35.023  1.00  0.00     0.074 A 
ATOM     70  C   UNL A   1      39.605  33.852  34.675  1.00  0.00     0.031 C 
ATOM     71  C   UNL A   1      41.579  33.690  36.162  1.00  0.00     0.037 A 
BRANCH  58  72
ATOM     72  C   UNL A   1      47.074  30.957  36.788  1.00  0.00     0.058 A 
ATOM     73  C   UNL A   1      47.109  29.994  37.811  1.00  0.00     0.135 A 
ATOM     74  C   UNL A   1      48.179  31.810  36.652  1.00  0.00     0.135 A 
ATOM     75  F   UNL A   1      46.083  29.146  37.977  1.00  0.00    -0.206 F 
ATOM     76  C   UNL A   1      48.180  29.911  38.693  1.00  0.00     0.059 A 
ATOM     77  C   UNL A   1      49.275  31.726  37.507  1.00  0.00     0.059 A 
ATOM     78  F   UNL A   1      48.207  32.728  35.673  1.00  0.00    -0.206 F 
ATOM     79  C   UNL A   1      49.255  30.788  38.538  1.00  0.00     0.060 A 
BRANCH  79  80
ATOM     80  S   UNL A   1      50.628  30.675  39.705  1.00  0.00     0.124 S 
ATOM     81  O   UNL A   1      51.192  32.018  39.636  1.00  0.00    -0.237 OA
ATOM     82  O   UNL A   1      49.943  30.333  40.948  1.00  0.00    -0.237 OA
ATOM     83  O   UNL A   1      51.460  29.613  39.145  1.00  0.00    -0.744 OA
ENDBRANCH  79  80
ENDBRANCH  58  72
BRANCH  59  84
ATOM     84  C   UNL A   1      39.027  31.948  30.945  1.00  0.00     0.058 A 
ATOM     85  C   UNL A   1      38.911  32.987  30.008  1.00  0.00     0.135 A 
ATOM     86  C   UNL A   1      37.961  31.040  31.044  1.00  0.00     0.135 A 
ATOM     87  F   UNL A   1      39.898  33.886  29.870  1.00  0.00    -0.206 F 
ATOM     88  C   UNL A   1      37.777  33.132  29.215  1.00  0.00     0.059 A 
ATOM     89  C   UNL A   1      36.828  31.147  30.240  1.00  0.00     0.059 A 
ATOM     90  F   UNL A   1      38.031  30.018  31.910  1.00  0.00    -0.206 F 
ATOM     91  C   UNL A   1      36.740  32.206  29.338  1.00  0.00     0.060 A 
BRANCH  91  92
ATOM     92  S   UNL A   1      35.282  32.411  28.293  1.00  0.00     0.124 S 
ATOM     93  O   UNL A   1      35.698  33.511  27.430  1.00  0.00    -0.237 OA
ATOM     94  O   UNL A   1      35.181  31.103  27.653  1.00  0.00    -0.237 OA
ATOM     95  O   UNL A   1      34.224  32.725  29.248  1.00  0.00    -0.744 OA
ENDBRANCH  91  92
ENDBRANCH  59  84
BRANCH  71  96
ATOM     96  C   UNL A   1      40.919  34.655  37.112  1.00  0.00     0.058 A 
ATOM     97  C   UNL A   1      41.312  36.003  37.138  1.00  0.00     0.135 A 
ATOM     98  C   UNL A   1      39.978  34.229  38.062  1.00  0.00     0.135 A 
ATOM     99  F   UNL A   1      42.217  36.462  36.259  1.00  0.00    -0.206 F 
ATOM    100  C   UNL A   1      40.815  36.889  38.087  1.00  0.00     0.059 A 
ATOM    101  C   UNL A   1      39.443  35.107  39.001  1.00  0.00     0.059 A 
ATOM    102  F   UNL A   1      39.562  32.953  38.075  1.00  0.00    -0.206 F 
ATOM    103  C   UNL A   1      39.882  36.431  39.018  1.00  0.00     0.060 A 
BRANCH 103 104
ATOM    104  S   UNL A   1      39.245  37.595  40.240  1.00  0.00     0.124 S 
ATOM    105  O   UNL A   1      38.155  38.232  39.510  1.00  0.00    -0.237 OA
ATOM    106  O   UNL A   1      38.846  36.711  41.330  1.00  0.00    -0.237 OA
ATOM    107  O   UNL A   1      40.393  38.451  40.526  1.00  0.00    -0.744 OA
ENDBRANCH 103 104
ENDBRANCH  71  96
ENDBRANCH  45  46
ENDBRANCH  38  40
ENDBRANCH  37  38
ENDBRANCH  36  37
ENDBRANCH  35  36
ENDBRANCH  34  35
ENDBRANCH  33  34
ENDBRANCH  32  33
ENDBRANCH   1  32
TORSDOF 28
ENDMDL
