MODEL 1
REMARK VINA RESULT:     -10.6      0.000      0.000
REMARK SMILES O=C(OCCOCCOCCOCCOC(=O)c1cccc2c1ccn2Cc1ccncc1)c1ccc(-c2c3nc(c(-c4c(F)cc(S(=O)(=O)[O-])cc4F)c4ccc([nH]4)c(-c4c(F)cc(S(=O)(=O)[O-])cc4F)c4nc(c(-c5c(F)cc(S(=O)(=O)[O-])cc5F)c5ccc2[nH]5)C=C4)C=C3)cc1
REMARK SMILES IDX 8 1 7 2 6 3 5 4 4 5 3 6 2 7 1 8 34 9 35 10 99 11 36 12 98 13
REMARK SMILES IDX 37 14 38 15 39 16 92 17 40 18 97 19 91 20 93 21 41 22 96 23
REMARK SMILES IDX 90 24 89 25 42 27 76 28 55 29 75 30 56 31 59 32 74 33 94 34
REMARK SMILES IDX 57 35 58 36 73 38 95 39 60 40 43 41 44 42 53 43 45 44 46 45
REMARK SMILES IDX 52 46 54 47 47 48 48 49 49 50 50 51 51 52 77 53 78 54 87 55
REMARK SMILES IDX 79 56 80 57 86 58 88 59 81 60 82 61 83 62 84 63 85 64 61 65
REMARK SMILES IDX 62 66 71 67 63 68 64 69 70 70 72 71 65 72 66 73 67 74 68 75
REMARK SMILES IDX 69 76 9 77 10 78 11 79 12 80 13 81 14 82 15 83 16 84 17 85
REMARK SMILES IDX 18 86 19 87 23 88 20 89 22 90 24 91 21 92 26 93 25 94 27 95
REMARK SMILES IDX 28 96 29 97 33 98 30 99 32 100 31 101
REMARK H PARENT 93 26 59 37
REMARK Flexibility Score: inf
ROOT
ATOM      1  C   UNL A   1      37.482  23.249  25.709  1.00  0.00     0.188 C 
ENDROOT
BRANCH   1   2
ATOM      2  C   UNL A   1      37.632  22.020  24.815  1.00  0.00     0.188 C 
BRANCH   2   3
ATOM      3  O   UNL A   1      38.519  21.087  25.400  1.00  0.00    -0.376 OA
BRANCH   3   4
ATOM      4  C   UNL A   1      39.428  21.576  26.363  1.00  0.00     0.202 C 
BRANCH   4   5
ATOM      5  C   UNL A   1      40.546  20.591  26.688  1.00  0.00     0.261 C 
BRANCH   5   6
ATOM      6  O   UNL A   1      41.629  20.349  25.746  1.00  0.00    -0.460 OA
BRANCH   6   7
ATOM      7  C   UNL A   1      42.851  20.938  25.786  1.00  0.00     0.338 C 
ATOM      8  O   UNL A   1      43.841  20.415  25.291  1.00  0.00    -0.246 OA
BRANCH   7   9
ATOM      9  C   UNL A   1      42.879  22.312  26.346  1.00  0.00     0.060 A 
ATOM     10  C   UNL A   1      42.552  23.384  25.508  1.00  0.00     0.016 A 
ATOM     11  C   UNL A   1      43.320  22.548  27.653  1.00  0.00     0.016 A 
ATOM     12  C   UNL A   1      42.750  24.688  25.954  1.00  0.00     0.010 A 
ATOM     13  C   UNL A   1      43.587  23.849  28.071  1.00  0.00     0.010 A 
ATOM     14  C   UNL A   1      43.302  24.925  27.223  1.00  0.00    -0.014 A 
BRANCH  14  15
ATOM     15  C   UNL A   1      43.170  26.272  27.804  1.00  0.00     0.031 A 
ATOM     16  C   UNL A   1      44.358  27.067  27.491  1.00  0.00     0.074 A 
ATOM     17  C   UNL A   1      42.125  26.839  28.439  1.00  0.00     0.049 A 
ATOM     18  N   UNL A   1      45.298  27.355  28.326  1.00  0.00    -0.248 NA
ATOM     19  C   UNL A   1      44.657  27.386  26.087  1.00  0.00     0.031 C 
ATOM     20  C   UNL A   1      40.893  26.159  28.718  1.00  0.00     0.029 A 
ATOM     21  N   UNL A   1      41.872  28.091  28.942  1.00  0.00    -0.354 N 
ATOM     22  C   UNL A   1      46.108  28.212  27.615  1.00  0.00     0.074 A 
ATOM     23  C   UNL A   1      45.844  27.981  26.216  1.00  0.00     0.031 C 
ATOM     24  C   UNL A   1      39.921  27.009  29.087  1.00  0.00     0.029 A 
ATOM     25  C   UNL A   1      40.519  28.310  29.245  1.00  0.00     0.049 A 
ATOM     26  H   UNL A   1      42.571  28.770  29.077  1.00  0.00     0.167 HD
ATOM     27  C   UNL A   1      46.550  29.339  28.224  1.00  0.00     0.037 A 
ATOM     28  C   UNL A   1      39.867  29.388  29.744  1.00  0.00     0.037 A 
ATOM     29  C   UNL A   1      46.486  29.252  29.661  1.00  0.00     0.049 A 
ATOM     30  C   UNL A   1      40.873  30.177  30.481  1.00  0.00     0.074 A 
ATOM     31  C   UNL A   1      47.024  28.404  30.607  1.00  0.00     0.029 A 
ATOM     32  N   UNL A   1      45.435  29.907  30.253  1.00  0.00    -0.354 N 
ATOM     33  N   UNL A   1      41.424  29.787  31.600  1.00  0.00    -0.248 NA
ATOM     34  C   UNL A   1      41.595  31.218  29.763  1.00  0.00     0.031 C 
ATOM     35  C   UNL A   1      46.118  28.405  31.702  1.00  0.00     0.029 A 
ATOM     36  C   UNL A   1      45.071  29.284  31.421  1.00  0.00     0.049 A 
ATOM     37  H   UNL A   1      45.002  30.713  29.890  1.00  0.00     0.167 HD
ATOM     38  C   UNL A   1      42.747  30.175  31.482  1.00  0.00     0.074 A 
ATOM     39  C   UNL A   1      42.754  31.180  30.426  1.00  0.00     0.031 C 
ATOM     40  C   UNL A   1      43.753  29.423  32.018  1.00  0.00     0.037 A 
BRANCH  27  41
ATOM     41  C   UNL A   1      46.537  30.642  27.489  1.00  0.00     0.058 A 
ATOM     42  C   UNL A   1      47.721  31.365  27.324  1.00  0.00     0.135 A 
ATOM     43  C   UNL A   1      45.336  31.306  27.137  1.00  0.00     0.135 A 
ATOM     44  F   UNL A   1      48.893  30.844  27.720  1.00  0.00    -0.206 F 
ATOM     45  C   UNL A   1      47.719  32.657  26.802  1.00  0.00     0.059 A 
ATOM     46  C   UNL A   1      45.314  32.557  26.548  1.00  0.00     0.059 A 
ATOM     47  F   UNL A   1      44.132  30.798  27.437  1.00  0.00    -0.206 F 
ATOM     48  C   UNL A   1      46.511  33.235  26.404  1.00  0.00     0.060 A 
BRANCH  48  49
ATOM     49  S   UNL A   1      46.506  34.904  25.737  1.00  0.00     0.124 S 
ATOM     50  O   UNL A   1      45.812  34.706  24.471  1.00  0.00    -0.237 OA
ATOM     51  O   UNL A   1      45.772  35.636  26.764  1.00  0.00    -0.237 OA
ATOM     52  O   UNL A   1      47.925  35.229  25.641  1.00  0.00    -0.744 OA
ENDBRANCH  48  49
ENDBRANCH  27  41
BRANCH  28  53
ATOM     53  C   UNL A   1      38.459  29.818  29.477  1.00  0.00     0.058 A 
ATOM     54  C   UNL A   1      37.646  30.367  30.486  1.00  0.00     0.135 A 
ATOM     55  C   UNL A   1      37.959  29.946  28.159  1.00  0.00     0.135 A 
ATOM     56  F   UNL A   1      38.025  30.301  31.772  1.00  0.00    -0.206 F 
ATOM     57  C   UNL A   1      36.459  31.060  30.203  1.00  0.00     0.059 A 
ATOM     58  C   UNL A   1      36.779  30.628  27.856  1.00  0.00     0.059 A 
ATOM     59  F   UNL A   1      38.652  29.490  27.105  1.00  0.00    -0.206 F 
ATOM     60  C   UNL A   1      36.047  31.213  28.879  1.00  0.00     0.060 A 
BRANCH  60  61
ATOM     61  S   UNL A   1      34.640  32.287  28.505  1.00  0.00     0.124 S 
ATOM     62  O   UNL A   1      35.261  33.339  27.706  1.00  0.00    -0.237 OA
ATOM     63  O   UNL A   1      33.745  31.386  27.788  1.00  0.00    -0.237 OA
ATOM     64  O   UNL A   1      34.167  32.716  29.818  1.00  0.00    -0.744 OA
ENDBRANCH  60  61
ENDBRANCH  28  53
BRANCH  40  65
ATOM     65  C   UNL A   1      43.443  28.543  33.202  1.00  0.00     0.058 A 
ATOM     66  C   UNL A   1      43.287  28.992  34.522  1.00  0.00     0.135 A 
ATOM     67  C   UNL A   1      43.142  27.194  32.947  1.00  0.00     0.135 A 
ATOM     68  F   UNL A   1      43.450  30.287  34.824  1.00  0.00    -0.206 F 
ATOM     69  C   UNL A   1      42.880  28.130  35.546  1.00  0.00     0.059 A 
ATOM     70  C   UNL A   1      42.687  26.330  33.940  1.00  0.00     0.059 A 
ATOM     71  F   UNL A   1      43.221  26.714  31.694  1.00  0.00    -0.206 F 
ATOM     72  C   UNL A   1      42.564  26.804  35.242  1.00  0.00     0.060 A 
BRANCH  72  73
ATOM     73  S   UNL A   1      41.904  25.729  36.538  1.00  0.00     0.124 S 
ATOM     74  O   UNL A   1      40.671  25.230  35.936  1.00  0.00    -0.237 OA
ATOM     75  O   UNL A   1      42.972  24.746  36.700  1.00  0.00    -0.237 OA
ATOM     76  O   UNL A   1      41.720  26.631  37.673  1.00  0.00    -0.744 OA
ENDBRANCH  72  73
ENDBRANCH  40  65
ENDBRANCH  14  15
ENDBRANCH   7   9
ENDBRANCH   6   7
ENDBRANCH   5   6
ENDBRANCH   4   5
ENDBRANCH   3   4
ENDBRANCH   2   3
ENDBRANCH   1   2
BRANCH   1  77
ATOM     77  O   UNL A   1      36.155  23.748  25.797  1.00  0.00    -0.377 OA
BRANCH  77  78
ATOM     78  C   UNL A   1      35.501  24.087  24.582  1.00  0.00     0.188 C 
BRANCH  78  79
ATOM     79  C   UNL A   1      34.440  25.201  24.543  1.00  0.00     0.188 C 
BRANCH  79  80
ATOM     80  O   UNL A   1      34.160  25.869  25.761  1.00  0.00    -0.376 OA
BRANCH  80  81
ATOM     81  C   UNL A   1      33.347  27.033  25.574  1.00  0.00     0.202 C 
BRANCH  81  82
ATOM     82  C   UNL A   1      32.009  26.868  26.305  1.00  0.00     0.261 C 
BRANCH  82  83
ATOM     83  O   UNL A   1      31.791  25.523  26.819  1.00  0.00    -0.460 OA
BRANCH  83  84
ATOM     84  C   UNL A   1      30.757  24.827  26.300  1.00  0.00     0.338 C 
ATOM     85  O   UNL A   1      29.569  25.041  26.523  1.00  0.00    -0.246 OA
BRANCH  84  86
ATOM     86  C   UNL A   1      31.219  23.688  25.473  1.00  0.00     0.069 A 
ATOM     87  C   UNL A   1      30.795  23.715  24.140  1.00  0.00     0.016 A 
ATOM     88  C   UNL A   1      32.163  22.693  25.891  1.00  0.00     0.014 A 
ATOM     89  C   UNL A   1      31.327  22.826  23.215  1.00  0.00     0.003 A 
ATOM     90  C   UNL A   1      32.762  21.877  24.909  1.00  0.00     0.049 A 
ATOM     91  C   UNL A   1      32.692  22.201  27.117  1.00  0.00     0.029 A 
ATOM     92  C   UNL A   1      32.340  21.928  23.571  1.00  0.00     0.027 A 
ATOM     93  N   UNL A   1      33.757  21.120  25.525  1.00  0.00    -0.343 N 
ATOM     94  C   UNL A   1      33.668  21.276  26.875  1.00  0.00     0.087 A 
BRANCH  93  95
ATOM     95  C   UNL A   1      34.621  20.118  24.904  1.00  0.00     0.157 C 
BRANCH  95  96
ATOM     96  C   UNL A   1      34.054  18.718  24.855  1.00  0.00    -0.025 A 
ATOM     97  C   UNL A   1      32.931  18.340  25.605  1.00  0.00     0.025 A 
ATOM     98  C   UNL A   1      34.595  17.768  23.980  1.00  0.00     0.025 A 
ATOM     99  C   UNL A   1      32.390  17.076  25.429  1.00  0.00     0.111 A 
ATOM    100  C   UNL A   1      33.975  16.531  23.861  1.00  0.00     0.111 A 
ATOM    101  N   UNL A   1      32.861  16.187  24.542  1.00  0.00    -0.265 NA
ENDBRANCH  95  96
ENDBRANCH  93  95
ENDBRANCH  84  86
ENDBRANCH  83  84
ENDBRANCH  82  83
ENDBRANCH  81  82
ENDBRANCH  80  81
ENDBRANCH  79  80
ENDBRANCH  78  79
ENDBRANCH  77  78
ENDBRANCH   1  77
TORSDOF 25
ENDMDL
MODEL 2
REMARK VINA RESULT:     -10.0      2.304      4.399
REMARK SMILES O=C(OCCOCCOCCOCCOC(=O)c1cccc2c1ccn2Cc1ccncc1)c1ccc(-c2c3nc(c(-c4c(F)cc(S(=O)(=O)[O-])cc4F)c4ccc([nH]4)c(-c4c(F)cc(S(=O)(=O)[O-])cc4F)c4nc(c(-c5c(F)cc(S(=O)(=O)[O-])cc5F)c5ccc2[nH]5)C=C4)C=C3)cc1
REMARK SMILES IDX 8 1 7 2 6 3 5 4 4 5 3 6 2 7 1 8 34 9 35 10 99 11 36 12 98 13
REMARK SMILES IDX 37 14 38 15 39 16 92 17 40 18 97 19 91 20 93 21 41 22 96 23
REMARK SMILES IDX 90 24 89 25 42 27 76 28 55 29 75 30 56 31 59 32 74 33 94 34
REMARK SMILES IDX 57 35 58 36 73 38 95 39 60 40 43 41 44 42 53 43 45 44 46 45
REMARK SMILES IDX 52 46 54 47 47 48 48 49 49 50 50 51 51 52 77 53 78 54 87 55
REMARK SMILES IDX 79 56 80 57 86 58 88 59 81 60 82 61 83 62 84 63 85 64 61 65
REMARK SMILES IDX 62 66 71 67 63 68 64 69 70 70 72 71 65 72 66 73 67 74 68 75
REMARK SMILES IDX 69 76 9 77 10 78 11 79 12 80 13 81 14 82 15 83 16 84 17 85
REMARK SMILES IDX 18 86 19 87 23 88 20 89 22 90 24 91 21 92 26 93 25 94 27 95
REMARK SMILES IDX 28 96 29 97 33 98 30 99 32 100 31 101
REMARK H PARENT 93 26 59 37
REMARK Flexibility Score: inf
ROOT
ATOM      1  C   UNL A   1      37.169  23.472  25.133  1.00  0.00     0.188 C 
ENDROOT
BRANCH   1   2
ATOM      2  C   UNL A   1      37.103  22.023  24.655  1.00  0.00     0.188 C 
BRANCH   2   3
ATOM      3  O   UNL A   1      38.013  21.220  25.382  1.00  0.00    -0.376 OA
BRANCH   3   4
ATOM      4  C   UNL A   1      38.997  21.887  26.144  1.00  0.00     0.202 C 
BRANCH   4   5
ATOM      5  C   UNL A   1      40.217  21.020  26.437  1.00  0.00     0.261 C 
BRANCH   5   6
ATOM      6  O   UNL A   1      41.408  21.094  25.604  1.00  0.00    -0.460 OA
BRANCH   6   7
ATOM      7  C   UNL A   1      42.621  21.548  26.007  1.00  0.00     0.338 C 
ATOM      8  O   UNL A   1      43.654  20.931  25.780  1.00  0.00    -0.246 OA
BRANCH   7   9
ATOM      9  C   UNL A   1      42.626  22.902  26.615  1.00  0.00     0.060 A 
ATOM     10  C   UNL A   1      42.732  23.012  28.006  1.00  0.00     0.016 A 
ATOM     11  C   UNL A   1      42.429  24.045  25.831  1.00  0.00     0.016 A 
ATOM     12  C   UNL A   1      42.553  24.253  28.612  1.00  0.00     0.010 A 
ATOM     13  C   UNL A   1      42.177  25.270  26.441  1.00  0.00     0.010 A 
ATOM     14  C   UNL A   1      42.239  25.379  27.835  1.00  0.00    -0.014 A 
BRANCH  14  15
ATOM     15  C   UNL A   1      42.406  26.713  28.436  1.00  0.00     0.031 A 
ATOM     16  C   UNL A   1      43.645  27.325  27.954  1.00  0.00     0.074 A 
ATOM     17  C   UNL A   1      41.566  27.417  29.222  1.00  0.00     0.049 A 
ATOM     18  N   UNL A   1      44.730  27.440  28.641  1.00  0.00    -0.248 NA
ATOM     19  C   UNL A   1      43.783  27.633  26.522  1.00  0.00     0.031 C 
ATOM     20  C   UNL A   1      40.297  26.928  29.677  1.00  0.00     0.029 A 
ATOM     21  N   UNL A   1      41.589  28.678  29.764  1.00  0.00    -0.354 N 
ATOM     22  C   UNL A   1      45.553  28.182  27.823  1.00  0.00     0.074 A 
ATOM     23  C   UNL A   1      45.054  28.034  26.477  1.00  0.00     0.031 C 
ATOM     24  C   UNL A   1      39.535  27.906  30.191  1.00  0.00     0.029 A 
ATOM     25  C   UNL A   1      40.347  29.094  30.265  1.00  0.00     0.049 A 
ATOM     26  H   UNL A   1      42.398  29.237  29.797  1.00  0.00     0.167 HD
ATOM     27  C   UNL A   1      46.250  29.210  28.365  1.00  0.00     0.037 A 
ATOM     28  C   UNL A   1      39.951  30.246  30.862  1.00  0.00     0.037 A 
ATOM     29  C   UNL A   1      46.383  29.092  29.794  1.00  0.00     0.049 A 
ATOM     30  C   UNL A   1      41.166  30.849  31.445  1.00  0.00     0.074 A 
ATOM     31  C   UNL A   1      46.914  28.145  30.645  1.00  0.00     0.029 A 
ATOM     32  N   UNL A   1      45.546  29.885  30.540  1.00  0.00    -0.354 N 
ATOM     33  N   UNL A   1      41.806  30.346  32.468  1.00  0.00    -0.248 NA
ATOM     34  C   UNL A   1      41.929  31.785  30.633  1.00  0.00     0.031 C 
ATOM     35  C   UNL A   1      46.189  28.255  31.864  1.00  0.00     0.029 A 
ATOM     36  C   UNL A   1      45.263  29.292  31.745  1.00  0.00     0.049 A 
ATOM     37  H   UNL A   1      45.196  30.757  30.250  1.00  0.00     0.167 HD
ATOM     38  C   UNL A   1      43.142  30.529  32.156  1.00  0.00     0.074 A 
ATOM     39  C   UNL A   1      43.152  31.551  31.116  1.00  0.00     0.031 C 
ATOM     40  C   UNL A   1      44.085  29.616  32.532  1.00  0.00     0.037 A 
BRANCH  27  41
ATOM     41  C   UNL A   1      46.334  30.519  27.647  1.00  0.00     0.058 A 
ATOM     42  C   UNL A   1      47.580  31.061  27.323  1.00  0.00     0.135 A 
ATOM     43  C   UNL A   1      45.210  31.364  27.469  1.00  0.00     0.135 A 
ATOM     44  F   UNL A   1      48.702  30.361  27.549  1.00  0.00    -0.206 F 
ATOM     45  C   UNL A   1      47.702  32.353  26.814  1.00  0.00     0.059 A 
ATOM     46  C   UNL A   1      45.298  32.620  26.897  1.00  0.00     0.059 A 
ATOM     47  F   UNL A   1      43.996  31.033  27.930  1.00  0.00    -0.206 F 
ATOM     48  C   UNL A   1      46.553  33.115  26.592  1.00  0.00     0.060 A 
BRANCH  48  49
ATOM     49  S   UNL A   1      46.710  34.784  25.943  1.00  0.00     0.124 S 
ATOM     50  O   UNL A   1      45.457  34.927  25.211  1.00  0.00    -0.237 OA
ATOM     51  O   UNL A   1      46.833  35.572  27.165  1.00  0.00    -0.237 OA
ATOM     52  O   UNL A   1      47.918  34.713  25.127  1.00  0.00    -0.744 OA
ENDBRANCH  48  49
ENDBRANCH  27  41
BRANCH  28  53
ATOM     53  C   UNL A   1      38.604  30.895  30.810  1.00  0.00     0.058 A 
ATOM     54  C   UNL A   1      37.865  31.167  31.975  1.00  0.00     0.135 A 
ATOM     55  C   UNL A   1      38.121  31.507  29.629  1.00  0.00     0.135 A 
ATOM     56  F   UNL A   1      38.236  30.638  33.151  1.00  0.00    -0.206 F 
ATOM     57  C   UNL A   1      36.769  32.044  31.985  1.00  0.00     0.059 A 
ATOM     58  C   UNL A   1      37.030  32.379  29.615  1.00  0.00     0.059 A 
ATOM     59  F   UNL A   1      38.752  31.350  28.455  1.00  0.00    -0.206 F 
ATOM     60  C   UNL A   1      36.376  32.671  30.803  1.00  0.00     0.060 A 
BRANCH  60  61
ATOM     61  S   UNL A   1      35.107  33.960  30.861  1.00  0.00     0.124 S 
ATOM     62  O   UNL A   1      35.213  34.554  29.532  1.00  0.00    -0.237 OA
ATOM     63  O   UNL A   1      33.897  33.190  31.121  1.00  0.00    -0.237 OA
ATOM     64  O   UNL A   1      35.537  34.827  31.954  1.00  0.00    -0.744 OA
ENDBRANCH  60  61
ENDBRANCH  28  53
BRANCH  40  65
ATOM     65  C   UNL A   1      43.817  28.761  33.745  1.00  0.00     0.058 A 
ATOM     66  C   UNL A   1      44.028  29.157  35.074  1.00  0.00     0.135 A 
ATOM     67  C   UNL A   1      43.169  27.530  33.541  1.00  0.00     0.135 A 
ATOM     68  F   UNL A   1      44.540  30.363  35.352  1.00  0.00    -0.206 F 
ATOM     69  C   UNL A   1      43.640  28.351  36.150  1.00  0.00     0.059 A 
ATOM     70  C   UNL A   1      42.730  26.733  34.596  1.00  0.00     0.059 A 
ATOM     71  F   UNL A   1      42.890  27.117  32.293  1.00  0.00    -0.206 F 
ATOM     72  C   UNL A   1      42.975  27.148  35.901  1.00  0.00     0.060 A 
BRANCH  72  73
ATOM     73  S   UNL A   1      42.350  26.175  37.292  1.00  0.00     0.124 S 
ATOM     74  O   UNL A   1      42.441  24.809  36.786  1.00  0.00    -0.237 OA
ATOM     75  O   UNL A   1      43.287  26.519  38.358  1.00  0.00    -0.237 OA
ATOM     76  O   UNL A   1      40.991  26.678  37.481  1.00  0.00    -0.744 OA
ENDBRANCH  72  73
ENDBRANCH  40  65
ENDBRANCH  14  15
ENDBRANCH   7   9
ENDBRANCH   6   7
ENDBRANCH   5   6
ENDBRANCH   4   5
ENDBRANCH   3   4
ENDBRANCH   2   3
ENDBRANCH   1   2
BRANCH   1  77
ATOM     77  O   UNL A   1      36.092  23.857  25.977  1.00  0.00    -0.377 OA
BRANCH  77  78
ATOM     78  C   UNL A   1      34.918  23.056  25.946  1.00  0.00     0.188 C 
BRANCH  78  79
ATOM     79  C   UNL A   1      33.567  23.657  25.518  1.00  0.00     0.188 C 
BRANCH  79  80
ATOM     80  O   UNL A   1      32.879  23.010  24.462  1.00  0.00    -0.376 OA
BRANCH  80  81
ATOM     81  C   UNL A   1      33.756  22.588  23.411  1.00  0.00     0.202 C 
BRANCH  81  82
ATOM     82  C   UNL A   1      33.271  23.135  22.063  1.00  0.00     0.261 C 
BRANCH  82  83
ATOM     83  O   UNL A   1      33.605  24.537  21.852  1.00  0.00    -0.460 OA
BRANCH  83  84
ATOM     84  C   UNL A   1      32.590  25.372  21.543  1.00  0.00     0.338 C 
ATOM     85  O   UNL A   1      32.224  25.662  20.408  1.00  0.00    -0.246 OA
BRANCH  84  86
ATOM     86  C   UNL A   1      31.997  25.989  22.753  1.00  0.00     0.069 A 
ATOM     87  C   UNL A   1      30.775  25.441  23.157  1.00  0.00     0.016 A 
ATOM     88  C   UNL A   1      32.645  26.956  23.589  1.00  0.00     0.014 A 
ATOM     89  C   UNL A   1      30.223  25.784  24.385  1.00  0.00     0.003 A 
ATOM     90  C   UNL A   1      32.115  27.202  24.873  1.00  0.00     0.049 A 
ATOM     91  C   UNL A   1      33.737  27.864  23.489  1.00  0.00     0.029 A 
ATOM     92  C   UNL A   1      30.897  26.630  25.272  1.00  0.00     0.027 A 
ATOM     93  N   UNL A   1      33.000  28.034  25.554  1.00  0.00    -0.343 N 
ATOM     94  C   UNL A   1      33.952  28.483  24.688  1.00  0.00     0.087 A 
BRANCH  93  95
ATOM     95  C   UNL A   1      32.851  28.572  26.905  1.00  0.00     0.157 C 
BRANCH  95  96
ATOM     96  C   UNL A   1      32.791  30.080  26.997  1.00  0.00    -0.025 A 
ATOM     97  C   UNL A   1      31.667  30.809  26.582  1.00  0.00     0.025 A 
ATOM     98  C   UNL A   1      33.842  30.794  27.585  1.00  0.00     0.025 A 
ATOM     99  C   UNL A   1      31.627  32.177  26.798  1.00  0.00     0.111 A 
ATOM    100  C   UNL A   1      33.705  32.162  27.773  1.00  0.00     0.111 A 
ATOM    101  N   UNL A   1      32.600  32.856  27.425  1.00  0.00    -0.265 NA
ENDBRANCH  95  96
ENDBRANCH  93  95
ENDBRANCH  84  86
ENDBRANCH  83  84
ENDBRANCH  82  83
ENDBRANCH  81  82
ENDBRANCH  80  81
ENDBRANCH  79  80
ENDBRANCH  78  79
ENDBRANCH  77  78
ENDBRANCH   1  77
TORSDOF 25
ENDMDL
MODEL 3
REMARK VINA RESULT:     -10.0      2.066      4.044
REMARK SMILES O=C(OCCOCCOCCOCCOC(=O)c1cccc2c1ccn2Cc1ccncc1)c1ccc(-c2c3nc(c(-c4c(F)cc(S(=O)(=O)[O-])cc4F)c4ccc([nH]4)c(-c4c(F)cc(S(=O)(=O)[O-])cc4F)c4nc(c(-c5c(F)cc(S(=O)(=O)[O-])cc5F)c5ccc2[nH]5)C=C4)C=C3)cc1
REMARK SMILES IDX 8 1 7 2 6 3 5 4 4 5 3 6 2 7 1 8 34 9 35 10 99 11 36 12 98 13
REMARK SMILES IDX 37 14 38 15 39 16 92 17 40 18 97 19 91 20 93 21 41 22 96 23
REMARK SMILES IDX 90 24 89 25 42 27 76 28 55 29 75 30 56 31 59 32 74 33 94 34
REMARK SMILES IDX 57 35 58 36 73 38 95 39 60 40 43 41 44 42 53 43 45 44 46 45
REMARK SMILES IDX 52 46 54 47 47 48 48 49 49 50 50 51 51 52 77 53 78 54 87 55
REMARK SMILES IDX 79 56 80 57 86 58 88 59 81 60 82 61 83 62 84 63 85 64 61 65
REMARK SMILES IDX 62 66 71 67 63 68 64 69 70 70 72 71 65 72 66 73 67 74 68 75
REMARK SMILES IDX 69 76 9 77 10 78 11 79 12 80 13 81 14 82 15 83 16 84 17 85
REMARK SMILES IDX 18 86 19 87 23 88 20 89 22 90 24 91 21 92 26 93 25 94 27 95
REMARK SMILES IDX 28 96 29 97 33 98 30 99 32 100 31 101
REMARK H PARENT 93 26 59 37
REMARK Flexibility Score: inf
ROOT
ATOM      1  C   UNL A   1      40.049  20.477  26.091  1.00  0.00     0.188 C 
ENDROOT
BRANCH   1   2
ATOM      2  C   UNL A   1      41.137  19.584  26.684  1.00  0.00     0.188 C 
BRANCH   2   3
ATOM      3  O   UNL A   1      41.847  18.920  25.657  1.00  0.00    -0.376 OA
BRANCH   3   4
ATOM      4  C   UNL A   1      43.188  19.307  25.443  1.00  0.00     0.202 C 
BRANCH   4   5
ATOM      5  C   UNL A   1      43.550  20.620  26.130  1.00  0.00     0.261 C 
BRANCH   5   6
ATOM      6  O   UNL A   1      44.545  21.515  25.560  1.00  0.00    -0.460 OA
BRANCH   6   7
ATOM      7  C   UNL A   1      44.275  22.620  24.819  1.00  0.00     0.338 C 
ATOM      8  O   UNL A   1      44.205  22.583  23.598  1.00  0.00    -0.246 OA
BRANCH   7   9
ATOM      9  C   UNL A   1      43.937  23.841  25.594  1.00  0.00     0.060 A 
ATOM     10  C   UNL A   1      44.587  24.062  26.814  1.00  0.00     0.016 A 
ATOM     11  C   UNL A   1      42.920  24.703  25.170  1.00  0.00     0.016 A 
ATOM     12  C   UNL A   1      44.156  25.096  27.642  1.00  0.00     0.010 A 
ATOM     13  C   UNL A   1      42.442  25.688  26.030  1.00  0.00     0.010 A 
ATOM     14  C   UNL A   1      43.059  25.889  27.269  1.00  0.00    -0.014 A 
BRANCH  14  15
ATOM     15  C   UNL A   1      42.852  27.169  27.967  1.00  0.00     0.031 A 
ATOM     16  C   UNL A   1      44.043  28.009  27.829  1.00  0.00     0.074 A 
ATOM     17  C   UNL A   1      41.748  27.656  28.568  1.00  0.00     0.049 A 
ATOM     18  N   UNL A   1      44.907  28.226  28.760  1.00  0.00    -0.248 NA
ATOM     19  C   UNL A   1      44.444  28.470  26.491  1.00  0.00     0.031 C 
ATOM     20  C   UNL A   1      40.513  26.934  28.680  1.00  0.00     0.029 A 
ATOM     21  N   UNL A   1      41.428  28.848  29.169  1.00  0.00    -0.354 N 
ATOM     22  C   UNL A   1      45.752  29.161  28.204  1.00  0.00     0.074 A 
ATOM     23  C   UNL A   1      45.603  29.066  26.772  1.00  0.00     0.031 C 
ATOM     24  C   UNL A   1      39.497  27.729  29.051  1.00  0.00     0.029 A 
ATOM     25  C   UNL A   1      40.052  29.016  29.382  1.00  0.00     0.049 A 
ATOM     26  H   UNL A   1      42.099  29.520  29.426  1.00  0.00     0.167 HD
ATOM     27  C   UNL A   1      46.120  30.229  28.954  1.00  0.00     0.037 A 
ATOM     28  C   UNL A   1      39.338  30.030  29.931  1.00  0.00     0.037 A 
ATOM     29  C   UNL A   1      45.945  29.999  30.365  1.00  0.00     0.049 A 
ATOM     30  C   UNL A   1      40.266  30.757  30.820  1.00  0.00     0.074 A 
ATOM     31  C   UNL A   1      46.427  29.069  31.263  1.00  0.00     0.029 A 
ATOM     32  N   UNL A   1      44.837  30.577  30.932  1.00  0.00    -0.354 N 
ATOM     33  N   UNL A   1      40.737  30.265  31.936  1.00  0.00    -0.248 NA
ATOM     34  C   UNL A   1      41.019  31.874  30.267  1.00  0.00     0.031 C 
ATOM     35  C   UNL A   1      45.437  28.948  32.278  1.00  0.00     0.029 A 
ATOM     36  C   UNL A   1      44.397  29.835  32.001  1.00  0.00     0.049 A 
ATOM     37  H   UNL A   1      44.416  31.408  30.617  1.00  0.00     0.167 HD
ATOM     38  C   UNL A   1      42.056  30.682  31.963  1.00  0.00     0.074 A 
ATOM     39  C   UNL A   1      42.123  31.787  31.013  1.00  0.00     0.031 C 
ATOM     40  C   UNL A   1      43.033  29.896  32.501  1.00  0.00     0.037 A 
BRANCH  27  41
ATOM     41  C   UNL A   1      46.135  31.598  28.350  1.00  0.00     0.058 A 
ATOM     42  C   UNL A   1      47.301  32.366  28.388  1.00  0.00     0.135 A 
ATOM     43  C   UNL A   1      44.953  32.260  27.933  1.00  0.00     0.135 A 
ATOM     44  F   UNL A   1      48.442  31.842  28.860  1.00  0.00    -0.206 F 
ATOM     45  C   UNL A   1      47.304  33.704  27.996  1.00  0.00     0.059 A 
ATOM     46  C   UNL A   1      44.947  33.562  27.469  1.00  0.00     0.059 A 
ATOM     47  F   UNL A   1      43.746  31.690  28.047  1.00  0.00    -0.206 F 
ATOM     48  C   UNL A   1      46.125  34.284  27.524  1.00  0.00     0.060 A 
BRANCH  48  49
ATOM     49  S   UNL A   1      46.126  36.011  27.025  1.00  0.00     0.124 S 
ATOM     50  O   UNL A   1      46.930  35.959  25.811  1.00  0.00    -0.237 OA
ATOM     51  O   UNL A   1      44.703  36.274  26.843  1.00  0.00    -0.237 OA
ATOM     52  O   UNL A   1      46.740  36.687  28.164  1.00  0.00    -0.744 OA
ENDBRANCH  48  49
ENDBRANCH  27  41
BRANCH  28  53
ATOM     53  C   UNL A   1      37.946  30.464  29.596  1.00  0.00     0.058 A 
ATOM     54  C   UNL A   1      37.102  31.055  30.553  1.00  0.00     0.135 A 
ATOM     55  C   UNL A   1      37.499  30.550  28.256  1.00  0.00     0.135 A 
ATOM     56  F   UNL A   1      37.431  31.031  31.854  1.00  0.00    -0.206 F 
ATOM     57  C   UNL A   1      35.934  31.750  30.200  1.00  0.00     0.059 A 
ATOM     58  C   UNL A   1      36.338  31.233  27.884  1.00  0.00     0.059 A 
ATOM     59  F   UNL A   1      38.226  30.051  27.245  1.00  0.00    -0.206 F 
ATOM     60  C   UNL A   1      35.575  31.860  28.858  1.00  0.00     0.060 A 
BRANCH  60  61
ATOM     61  S   UNL A   1      34.194  32.934  28.393  1.00  0.00     0.124 S 
ATOM     62  O   UNL A   1      33.745  33.434  29.688  1.00  0.00    -0.237 OA
ATOM     63  O   UNL A   1      34.842  33.909  27.522  1.00  0.00    -0.237 OA
ATOM     64  O   UNL A   1      33.258  32.034  27.726  1.00  0.00    -0.744 OA
ENDBRANCH  60  61
ENDBRANCH  28  53
BRANCH  40  65
ATOM     65  C   UNL A   1      42.651  28.898  33.565  1.00  0.00     0.058 A 
ATOM     66  C   UNL A   1      42.572  27.510  33.378  1.00  0.00     0.135 A 
ATOM     67  C   UNL A   1      42.508  29.375  34.880  1.00  0.00     0.135 A 
ATOM     68  F   UNL A   1      42.805  26.970  32.175  1.00  0.00    -0.206 F 
ATOM     69  C   UNL A   1      42.329  26.639  34.446  1.00  0.00     0.059 A 
ATOM     70  C   UNL A   1      42.315  28.524  35.965  1.00  0.00     0.059 A 
ATOM     71  F   UNL A   1      42.626  30.689  35.134  1.00  0.00    -0.206 F 
ATOM     72  C   UNL A   1      42.221  27.154  35.740  1.00  0.00     0.060 A 
BRANCH  72  73
ATOM     73  S   UNL A   1      42.048  26.017  37.136  1.00  0.00     0.124 S 
ATOM     74  O   UNL A   1      42.311  24.720  36.521  1.00  0.00    -0.237 OA
ATOM     75  O   UNL A   1      43.072  26.500  38.059  1.00  0.00    -0.237 OA
ATOM     76  O   UNL A   1      40.672  26.225  37.582  1.00  0.00    -0.744 OA
ENDBRANCH  72  73
ENDBRANCH  40  65
ENDBRANCH  14  15
ENDBRANCH   7   9
ENDBRANCH   6   7
ENDBRANCH   5   6
ENDBRANCH   4   5
ENDBRANCH   3   4
ENDBRANCH   2   3
ENDBRANCH   1   2
BRANCH   1  77
ATOM     77  O   UNL A   1      39.650  21.549  26.934  1.00  0.00    -0.377 OA
BRANCH  77  78
ATOM     78  C   UNL A   1      39.106  22.705  26.311  1.00  0.00     0.188 C 
BRANCH  78  79
ATOM     79  C   UNL A   1      37.735  22.651  25.614  1.00  0.00     0.188 C 
BRANCH  79  80
ATOM     80  O   UNL A   1      36.958  21.483  25.806  1.00  0.00    -0.376 OA
BRANCH  80  81
ATOM     81  C   UNL A   1      35.560  21.768  25.936  1.00  0.00     0.202 C 
BRANCH  81  82
ATOM     82  C   UNL A   1      34.792  21.219  24.729  1.00  0.00     0.261 C 
BRANCH  82  83
ATOM     83  O   UNL A   1      33.473  20.702  25.068  1.00  0.00    -0.460 OA
BRANCH  83  84
ATOM     84  C   UNL A   1      32.456  21.018  24.238  1.00  0.00     0.338 C 
ATOM     85  O   UNL A   1      32.107  20.368  23.257  1.00  0.00    -0.246 OA
BRANCH  84  86
ATOM     86  C   UNL A   1      31.837  22.316  24.595  1.00  0.00     0.069 A 
ATOM     87  C   UNL A   1      31.076  22.305  25.770  1.00  0.00     0.016 A 
ATOM     88  C   UNL A   1      32.090  23.561  23.933  1.00  0.00     0.014 A 
ATOM     89  C   UNL A   1      30.620  23.494  26.323  1.00  0.00     0.003 A 
ATOM     90  C   UNL A   1      31.706  24.757  24.574  1.00  0.00     0.049 A 
ATOM     91  C   UNL A   1      32.617  23.995  22.684  1.00  0.00     0.029 A 
ATOM     92  C   UNL A   1      30.959  24.731  25.763  1.00  0.00     0.027 A 
ATOM     93  N   UNL A   1      32.205  25.826  23.833  1.00  0.00    -0.343 N 
ATOM     94  C   UNL A   1      32.704  25.359  22.654  1.00  0.00     0.087 A 
BRANCH  93  95
ATOM     95  C   UNL A   1      32.032  27.251  24.103  1.00  0.00     0.157 C 
BRANCH  95  96
ATOM     96  C   UNL A   1      30.894  27.916  23.364  1.00  0.00    -0.025 A 
ATOM     97  C   UNL A   1      29.557  27.538  23.556  1.00  0.00     0.025 A 
ATOM     98  C   UNL A   1      31.142  29.001  22.514  1.00  0.00     0.025 A 
ATOM     99  C   UNL A   1      28.551  28.262  22.936  1.00  0.00     0.111 A 
ATOM    100  C   UNL A   1      30.067  29.674  21.949  1.00  0.00     0.111 A 
ATOM    101  N   UNL A   1      28.778  29.345  22.179  1.00  0.00    -0.265 NA
ENDBRANCH  95  96
ENDBRANCH  93  95
ENDBRANCH  84  86
ENDBRANCH  83  84
ENDBRANCH  82  83
ENDBRANCH  81  82
ENDBRANCH  80  81
ENDBRANCH  79  80
ENDBRANCH  78  79
ENDBRANCH  77  78
ENDBRANCH   1  77
TORSDOF 25
ENDMDL
