MODEL 1
REMARK VINA RESULT:      -8.4      0.000      0.000
REMARK SMILES Cc1nn(Cc2ccc(Cl)cc2Cl)c(C)c1NC(=O)c1c(C(=O)OCCOCCOCCOCCOC(=O)c2ccc(-c3c4nc(c(-c5c(F)cc(S(=O)(=O)[O-])cc5F)c5ccc([nH]5)c(-c5c(F)cc(S(=O)(=O)[O-])cc5F)c5nc(c(-c6c(F)cc(S(=O)(=O)[O-])cc6F)c6ccc3[nH]6)C=C5)C=C4)cc2)cnn1C
REMARK SMILES IDX 29 1 28 2 27 3 26 4 25 5 24 6 22 7 23 8 21 9 20 10 107 11
REMARK SMILES IDX 105 12 106 13 108 14 18 15 17 16 19 18 16 19 1 20 2 21 3 22
REMARK SMILES IDX 4 23 14 24 15 25 5 26 6 27 7 28 12 29 8 30 11 31 13 32 9 33
REMARK SMILES IDX 10 34 30 35 31 36 32 37 33 38 34 39 35 40 36 41 37 42 38 43
REMARK SMILES IDX 39 44 40 45 104 46 41 47 103 48 42 49 43 50 44 51 97 52
REMARK SMILES IDX 45 53 102 54 96 55 98 56 46 57 101 58 95 59 94 60 47 62
REMARK SMILES IDX 81 63 60 64 80 65 61 66 64 67 79 68 99 69 62 70 63 71 78 73
REMARK SMILES IDX 100 74 65 75 48 76 49 77 58 78 50 79 51 80 57 81 59 82 52 83
REMARK SMILES IDX 53 84 54 85 55 86 56 87 82 88 83 89 92 90 84 91 85 92 91 93
REMARK SMILES IDX 93 94 86 95 87 96 88 97 89 98 90 99 66 100 67 101 76 102
REMARK SMILES IDX 68 103 69 104 75 105 77 106 70 107 71 108 72 109 73 110
REMARK SMILES IDX 74 111
REMARK H PARENT 17 17 98 61 64 72
REMARK Flexibility Score: inf
ROOT
ATOM      1  C   UNL A   1      44.491  26.648  34.530  1.00  0.00     0.188 C 
ENDROOT
BRANCH   1   2
ATOM      2  C   UNL A   1      43.792  27.713  35.381  1.00  0.00     0.188 C 
BRANCH   2   3
ATOM      3  O   UNL A   1      42.526  28.226  34.962  1.00  0.00    -0.376 OA
BRANCH   3   4
ATOM      4  C   UNL A   1      42.192  28.226  33.582  1.00  0.00     0.202 C 
BRANCH   4   5
ATOM      5  C   UNL A   1      42.184  29.599  32.911  1.00  0.00     0.261 C 
BRANCH   5   6
ATOM      6  O   UNL A   1      40.877  30.169  32.729  1.00  0.00    -0.460 OA
BRANCH   6   7
ATOM      7  C   UNL A   1      40.158  29.679  31.677  1.00  0.00     0.342 C 
ATOM      8  O   UNL A   1      40.642  29.175  30.674  1.00  0.00    -0.246 OA
BRANCH   7   9
ATOM      9  C   UNL A   1      38.734  29.877  31.838  1.00  0.00     0.111 A 
ATOM     10  C   UNL A   1      37.995  31.002  31.487  1.00  0.00     0.140 A 
ATOM     11  N   UNL A   1      36.806  30.861  32.151  1.00  0.00    -0.262 N 
ATOM     12  C   UNL A   1      37.800  29.032  32.475  1.00  0.00     0.151 A 
ATOM     13  N   UNL A   1      36.620  29.626  32.661  1.00  0.00    -0.180 NA
ATOM     14  C   UNL A   1      35.766  31.853  32.307  1.00  0.00     0.174 C 
BRANCH  10  15
ATOM     15  C   UNL A   1      38.386  32.183  30.774  1.00  0.00     0.274 C 
ATOM     16  N   UNL A   1      37.977  32.381  29.474  1.00  0.00    -0.317 N 
ATOM     17  H   UNL A   1      38.458  33.108  29.018  1.00  0.00     0.170 HD
ATOM     18  O   UNL A   1      39.117  33.030  31.287  1.00  0.00    -0.267 OA
BRANCH  16  19
ATOM     19  C   UNL A   1      37.024  31.765  28.679  1.00  0.00     0.085 A 
ATOM     20  C   UNL A   1      38.382  29.604  28.045  1.00  0.00     0.071 C 
ATOM     21  C   UNL A   1      37.195  30.497  28.042  1.00  0.00     0.083 A 
ATOM     22  N   UNL A   1      36.078  30.095  27.424  1.00  0.00    -0.175 NA
ATOM     23  N   UNL A   1      35.193  31.075  27.684  1.00  0.00    -0.263 N 
ATOM     24  C   UNL A   1      35.802  32.200  28.198  1.00  0.00     0.060 A 
ATOM     25  C   UNL A   1      35.146  33.517  28.068  1.00  0.00     0.069 C 
BRANCH  23  26
ATOM     26  C   UNL A   1      33.765  30.755  27.781  1.00  0.00     0.181 C 
BRANCH  26  27
ATOM     27  C   UNL A   1      33.204  29.941  26.645  1.00  0.00    -0.008 A 
ATOM     28  C   UNL A   1      33.779  28.687  26.366  1.00  0.00     0.009 A 
ATOM     29  C   UNL A   1      32.048  30.314  25.934  1.00  0.00     0.047 A 
ATOM     30  C   UNL A   1      33.193  27.817  25.444  1.00  0.00     0.021 A 
ATOM     31  C   UNL A   1      31.475  29.451  24.995  1.00  0.00     0.041 A 
ATOM     32  Cl  UNL A   1      31.242  31.818  26.204  1.00  0.00    -0.084 Cl
ATOM     33  C   UNL A   1      32.041  28.201  24.768  1.00  0.00     0.042 A 
ATOM     34  Cl  UNL A   1      31.297  27.119  23.663  1.00  0.00    -0.084 Cl
ENDBRANCH  26  27
ENDBRANCH  23  26
ENDBRANCH  16  19
ENDBRANCH  10  15
ENDBRANCH   7   9
ENDBRANCH   6   7
ENDBRANCH   5   6
ENDBRANCH   4   5
ENDBRANCH   3   4
ENDBRANCH   2   3
ENDBRANCH   1   2
BRANCH   1  35
ATOM     35  O   UNL A   1      43.889  26.470  33.252  1.00  0.00    -0.377 OA
BRANCH  35  36
ATOM     36  C   UNL A   1      44.067  25.175  32.686  1.00  0.00     0.188 C 
BRANCH  36  37
ATOM     37  C   UNL A   1      45.246  24.405  33.283  1.00  0.00     0.188 C 
BRANCH  37  38
ATOM     38  O   UNL A   1      44.856  23.078  33.660  1.00  0.00    -0.376 OA
BRANCH  38  39
ATOM     39  C   UNL A   1      45.867  22.354  34.365  1.00  0.00     0.202 C 
BRANCH  39  40
ATOM     40  C   UNL A   1      46.983  23.253  34.882  1.00  0.00     0.261 C 
BRANCH  40  41
ATOM     41  O   UNL A   1      48.242  23.042  34.250  1.00  0.00    -0.460 OA
BRANCH  41  42
ATOM     42  C   UNL A   1      49.239  23.899  34.563  1.00  0.00     0.338 C 
ATOM     43  O   UNL A   1      49.816  23.995  35.628  1.00  0.00    -0.246 OA
BRANCH  42  44
ATOM     44  C   UNL A   1      49.349  24.844  33.437  1.00  0.00     0.060 A 
ATOM     45  C   UNL A   1      48.503  25.949  33.454  1.00  0.00     0.016 A 
ATOM     46  C   UNL A   1      50.078  24.503  32.284  1.00  0.00     0.016 A 
ATOM     47  C   UNL A   1      48.241  26.592  32.260  1.00  0.00     0.010 A 
ATOM     48  C   UNL A   1      49.797  25.128  31.086  1.00  0.00     0.010 A 
ATOM     49  C   UNL A   1      48.828  26.123  31.077  1.00  0.00    -0.014 A 
BRANCH  49  50
ATOM     50  C   UNL A   1      48.415  26.745  29.838  1.00  0.00     0.031 A 
ATOM     51  C   UNL A   1      47.566  27.936  29.985  1.00  0.00     0.074 A 
ATOM     52  C   UNL A   1      48.734  26.299  28.612  1.00  0.00     0.049 A 
ATOM     53  N   UNL A   1      46.281  27.982  29.901  1.00  0.00    -0.248 NA
ATOM     54  C   UNL A   1      48.207  29.199  30.362  1.00  0.00     0.031 C 
ATOM     55  C   UNL A   1      49.767  25.342  28.221  1.00  0.00     0.029 A 
ATOM     56  N   UNL A   1      48.191  26.690  27.425  1.00  0.00    -0.354 N 
ATOM     57  C   UNL A   1      45.955  29.326  29.989  1.00  0.00     0.074 A 
ATOM     58  C   UNL A   1      47.148  30.007  30.434  1.00  0.00     0.031 C 
ATOM     59  C   UNL A   1      49.890  25.359  26.874  1.00  0.00     0.029 A 
ATOM     60  C   UNL A   1      48.860  26.220  26.307  1.00  0.00     0.049 A 
ATOM     61  H   UNL A   1      47.389  27.258  27.367  1.00  0.00     0.167 HD
ATOM     62  C   UNL A   1      44.796  29.811  29.470  1.00  0.00     0.037 A 
ATOM     63  C   UNL A   1      48.601  26.564  25.022  1.00  0.00     0.037 A 
ATOM     64  C   UNL A   1      43.859  28.764  29.142  1.00  0.00     0.049 A 
ATOM     65  C   UNL A   1      47.182  27.011  24.958  1.00  0.00     0.074 A 
ATOM     66  C   UNL A   1      43.286  27.716  29.841  1.00  0.00     0.029 A 
ATOM     67  N   UNL A   1      43.640  28.479  27.815  1.00  0.00    -0.354 N 
ATOM     68  N   UNL A   1      46.154  26.220  25.094  1.00  0.00    -0.248 NA
ATOM     69  C   UNL A   1      46.885  28.432  25.087  1.00  0.00     0.031 C 
ATOM     70  C   UNL A   1      43.183  26.646  28.903  1.00  0.00     0.029 A 
ATOM     71  C   UNL A   1      43.676  27.112  27.684  1.00  0.00     0.049 A 
ATOM     72  H   UNL A   1      43.487  29.132  27.094  1.00  0.00     0.167 HD
ATOM     73  C   UNL A   1      45.190  26.987  25.730  1.00  0.00     0.074 A 
ATOM     74  C   UNL A   1      45.646  28.363  25.580  1.00  0.00     0.031 C 
ATOM     75  C   UNL A   1      44.258  26.420  26.554  1.00  0.00     0.037 A 
BRANCH  62  76
ATOM     76  C   UNL A   1      44.655  31.213  28.951  1.00  0.00     0.058 A 
ATOM     77  C   UNL A   1      43.695  32.073  29.514  1.00  0.00     0.135 A 
ATOM     78  C   UNL A   1      45.259  31.654  27.754  1.00  0.00     0.135 A 
ATOM     79  F   UNL A   1      43.042  31.725  30.635  1.00  0.00    -0.206 F 
ATOM     80  C   UNL A   1      43.328  33.272  28.904  1.00  0.00     0.059 A 
ATOM     81  C   UNL A   1      44.954  32.871  27.161  1.00  0.00     0.059 A 
ATOM     82  F   UNL A   1      46.100  30.876  27.057  1.00  0.00    -0.206 F 
ATOM     83  C   UNL A   1      43.956  33.653  27.720  1.00  0.00     0.060 A 
BRANCH  83  84
ATOM     84  S   UNL A   1      43.411  35.142  26.865  1.00  0.00     0.124 S 
ATOM     85  O   UNL A   1      44.566  36.013  27.048  1.00  0.00    -0.237 OA
ATOM     86  O   UNL A   1      43.187  34.654  25.507  1.00  0.00    -0.237 OA
ATOM     87  O   UNL A   1      42.205  35.520  27.594  1.00  0.00    -0.744 OA
ENDBRANCH  83  84
ENDBRANCH  62  76
BRANCH  63  88
ATOM     88  C   UNL A   1      49.558  26.775  23.907  1.00  0.00     0.058 A 
ATOM     89  C   UNL A   1      49.248  26.339  22.605  1.00  0.00     0.135 A 
ATOM     90  C   UNL A   1      50.653  27.653  24.020  1.00  0.00     0.135 A 
ATOM     91  F   UNL A   1      48.216  25.508  22.395  1.00  0.00    -0.206 F 
ATOM     92  C   UNL A   1      49.928  26.810  21.478  1.00  0.00     0.059 A 
ATOM     93  C   UNL A   1      51.359  28.121  22.913  1.00  0.00     0.059 A 
ATOM     94  F   UNL A   1      51.016  28.169  25.202  1.00  0.00    -0.206 F 
ATOM     95  C   UNL A   1      50.967  27.723  21.643  1.00  0.00     0.060 A 
BRANCH  95  96
ATOM     96  S   UNL A   1      51.698  28.508  20.189  1.00  0.00     0.124 S 
ATOM     97  O   UNL A   1      51.658  29.919  20.557  1.00  0.00    -0.237 OA
ATOM     98  O   UNL A   1      53.024  27.898  20.142  1.00  0.00    -0.237 OA
ATOM     99  O   UNL A   1      50.800  28.117  19.105  1.00  0.00    -0.744 OA
ENDBRANCH  95  96
ENDBRANCH  63  88
BRANCH  75 100
ATOM    100  C   UNL A   1      44.030  24.934  26.449  1.00  0.00     0.058 A 
ATOM    101  C   UNL A   1      44.789  23.963  27.124  1.00  0.00     0.135 A 
ATOM    102  C   UNL A   1      42.932  24.478  25.700  1.00  0.00     0.135 A 
ATOM    103  F   UNL A   1      45.776  24.316  27.962  1.00  0.00    -0.206 F 
ATOM    104  C   UNL A   1      44.519  22.599  26.997  1.00  0.00     0.059 A 
ATOM    105  C   UNL A   1      42.621  23.124  25.590  1.00  0.00     0.059 A 
ATOM    106  F   UNL A   1      42.122  25.357  25.088  1.00  0.00    -0.206 F 
ATOM    107  C   UNL A   1      43.436  22.187  26.222  1.00  0.00     0.060 A 
BRANCH 107 108
ATOM    108  S   UNL A   1      43.054  20.425  26.103  1.00  0.00     0.124 S 
ATOM    109  O   UNL A   1      42.797  20.074  27.495  1.00  0.00    -0.237 OA
ATOM    110  O   UNL A   1      41.892  20.407  25.219  1.00  0.00    -0.237 OA
ATOM    111  O   UNL A   1      44.269  19.853  25.528  1.00  0.00    -0.744 OA
ENDBRANCH 107 108
ENDBRANCH  75 100
ENDBRANCH  49  50
ENDBRANCH  42  44
ENDBRANCH  41  42
ENDBRANCH  40  41
ENDBRANCH  39  40
ENDBRANCH  38  39
ENDBRANCH  37  38
ENDBRANCH  36  37
ENDBRANCH  35  36
ENDBRANCH   1  35
TORSDOF 27
ENDMDL
MODEL 2
REMARK VINA RESULT:      -8.4      5.065     10.691
REMARK SMILES Cc1nn(Cc2ccc(Cl)cc2Cl)c(C)c1NC(=O)c1c(C(=O)OCCOCCOCCOCCOC(=O)c2ccc(-c3c4nc(c(-c5c(F)cc(S(=O)(=O)[O-])cc5F)c5ccc([nH]5)c(-c5c(F)cc(S(=O)(=O)[O-])cc5F)c5nc(c(-c6c(F)cc(S(=O)(=O)[O-])cc6F)c6ccc3[nH]6)C=C5)C=C4)cc2)cnn1C
REMARK SMILES IDX 29 1 28 2 27 3 26 4 25 5 24 6 22 7 23 8 21 9 20 10 107 11
REMARK SMILES IDX 105 12 106 13 108 14 18 15 17 16 19 18 16 19 1 20 2 21 3 22
REMARK SMILES IDX 4 23 14 24 15 25 5 26 6 27 7 28 12 29 8 30 11 31 13 32 9 33
REMARK SMILES IDX 10 34 30 35 31 36 32 37 33 38 34 39 35 40 36 41 37 42 38 43
REMARK SMILES IDX 39 44 40 45 104 46 41 47 103 48 42 49 43 50 44 51 97 52
REMARK SMILES IDX 45 53 102 54 96 55 98 56 46 57 101 58 95 59 94 60 47 62
REMARK SMILES IDX 81 63 60 64 80 65 61 66 64 67 79 68 99 69 62 70 63 71 78 73
REMARK SMILES IDX 100 74 65 75 48 76 49 77 58 78 50 79 51 80 57 81 59 82 52 83
REMARK SMILES IDX 53 84 54 85 55 86 56 87 82 88 83 89 92 90 84 91 85 92 91 93
REMARK SMILES IDX 93 94 86 95 87 96 88 97 89 98 90 99 66 100 67 101 76 102
REMARK SMILES IDX 68 103 69 104 75 105 77 106 70 107 71 108 72 109 73 110
REMARK SMILES IDX 74 111
REMARK H PARENT 17 17 98 61 64 72
REMARK Flexibility Score: inf
ROOT
ATOM      1  C   UNL A   1      34.782  32.478  30.387  1.00  0.00     0.188 C 
ENDROOT
BRANCH   1   2
ATOM      2  C   UNL A   1      35.207  32.110  28.962  1.00  0.00     0.188 C 
BRANCH   2   3
ATOM      3  O   UNL A   1      34.777  30.868  28.400  1.00  0.00    -0.376 OA
BRANCH   3   4
ATOM      4  C   UNL A   1      34.096  30.862  27.155  1.00  0.00     0.202 C 
BRANCH   4   5
ATOM      5  C   UNL A   1      33.192  29.654  26.909  1.00  0.00     0.261 C 
BRANCH   5   6
ATOM      6  O   UNL A   1      33.436  28.965  25.672  1.00  0.00    -0.460 OA
BRANCH   6   7
ATOM      7  C   UNL A   1      32.491  29.136  24.702  1.00  0.00     0.342 C 
ATOM      8  O   UNL A   1      31.433  29.728  24.854  1.00  0.00    -0.246 OA
BRANCH   7   9
ATOM      9  C   UNL A   1      32.842  28.475  23.463  1.00  0.00     0.111 A 
ATOM     10  C   UNL A   1      32.035  27.643  22.694  1.00  0.00     0.140 A 
ATOM     11  N   UNL A   1      32.900  26.997  21.854  1.00  0.00    -0.262 N 
ATOM     12  C   UNL A   1      34.096  28.440  22.816  1.00  0.00     0.151 A 
ATOM     13  N   UNL A   1      34.133  27.542  21.828  1.00  0.00    -0.180 NA
ATOM     14  C   UNL A   1      32.613  25.865  21.001  1.00  0.00     0.174 C 
BRANCH  10  15
ATOM     15  C   UNL A   1      30.644  27.319  22.827  1.00  0.00     0.274 C 
ATOM     16  N   UNL A   1      30.250  26.216  23.549  1.00  0.00    -0.317 N 
ATOM     17  H   UNL A   1      29.307  25.973  23.411  1.00  0.00     0.170 HD
ATOM     18  O   UNL A   1      29.773  27.994  22.278  1.00  0.00    -0.267 OA
BRANCH  16  19
ATOM     19  C   UNL A   1      30.914  25.380  24.434  1.00  0.00     0.085 A 
ATOM     20  C   UNL A   1      30.794  26.904  26.575  1.00  0.00     0.071 C 
ATOM     21  C   UNL A   1      31.149  25.679  25.812  1.00  0.00     0.083 A 
ATOM     22  N   UNL A   1      31.717  24.652  26.455  1.00  0.00    -0.175 NA
ATOM     23  N   UNL A   1      31.821  23.697  25.512  1.00  0.00    -0.263 N 
ATOM     24  C   UNL A   1      31.598  24.193  24.246  1.00  0.00     0.060 A 
ATOM     25  C   UNL A   1      32.150  23.487  23.071  1.00  0.00     0.069 C 
BRANCH  23  26
ATOM     26  C   UNL A   1      31.755  22.285  25.902  1.00  0.00     0.181 C 
BRANCH  26  27
ATOM     27  C   UNL A   1      33.033  21.507  25.738  1.00  0.00    -0.008 A 
ATOM     28  C   UNL A   1      33.015  20.337  24.954  1.00  0.00     0.009 A 
ATOM     29  C   UNL A   1      34.274  21.962  26.221  1.00  0.00     0.047 A 
ATOM     30  C   UNL A   1      34.199  19.674  24.625  1.00  0.00     0.021 A 
ATOM     31  C   UNL A   1      35.457  21.285  25.909  1.00  0.00     0.041 A 
ATOM     32  Cl  UNL A   1      34.425  23.395  27.175  1.00  0.00    -0.084 Cl
ATOM     33  C   UNL A   1      35.415  20.155  25.099  1.00  0.00     0.042 A 
ATOM     34  Cl  UNL A   1      36.875  19.365  24.664  1.00  0.00    -0.084 Cl
ENDBRANCH  26  27
ENDBRANCH  23  26
ENDBRANCH  16  19
ENDBRANCH  10  15
ENDBRANCH   7   9
ENDBRANCH   6   7
ENDBRANCH   5   6
ENDBRANCH   4   5
ENDBRANCH   3   4
ENDBRANCH   2   3
ENDBRANCH   1   2
BRANCH   1  35
ATOM     35  O   UNL A   1      35.588  31.862  31.388  1.00  0.00    -0.377 OA
BRANCH  35  36
ATOM     36  C   UNL A   1      35.411  32.388  32.700  1.00  0.00     0.188 C 
BRANCH  36  37
ATOM     37  C   UNL A   1      36.712  32.486  33.499  1.00  0.00     0.188 C 
BRANCH  37  38
ATOM     38  O   UNL A   1      36.445  32.645  34.898  1.00  0.00    -0.376 OA
BRANCH  38  39
ATOM     39  C   UNL A   1      36.943  33.867  35.448  1.00  0.00     0.202 C 
BRANCH  39  40
ATOM     40  C   UNL A   1      38.217  34.345  34.763  1.00  0.00     0.261 C 
BRANCH  40  41
ATOM     41  O   UNL A   1      39.417  33.867  35.365  1.00  0.00    -0.460 OA
BRANCH  41  42
ATOM     42  C   UNL A   1      40.560  34.016  34.659  1.00  0.00     0.338 C 
ATOM     43  O   UNL A   1      40.933  35.009  34.067  1.00  0.00    -0.246 OA
BRANCH  42  44
ATOM     44  C   UNL A   1      41.169  32.676  34.561  1.00  0.00     0.060 A 
ATOM     45  C   UNL A   1      42.377  32.481  35.224  1.00  0.00     0.016 A 
ATOM     46  C   UNL A   1      40.689  31.738  33.631  1.00  0.00     0.016 A 
ATOM     47  C   UNL A   1      43.191  31.445  34.809  1.00  0.00     0.010 A 
ATOM     48  C   UNL A   1      41.512  30.719  33.198  1.00  0.00     0.010 A 
ATOM     49  C   UNL A   1      42.784  30.626  33.746  1.00  0.00    -0.014 A 
BRANCH  49  50
ATOM     50  C   UNL A   1      43.731  29.646  33.263  1.00  0.00     0.031 A 
ATOM     51  C   UNL A   1      43.761  28.379  34.009  1.00  0.00     0.074 A 
ATOM     52  C   UNL A   1      44.564  29.830  32.225  1.00  0.00     0.049 A 
ATOM     53  N   UNL A   1      44.595  28.049  34.935  1.00  0.00    -0.248 NA
ATOM     54  C   UNL A   1      42.690  27.409  33.767  1.00  0.00     0.031 C 
ATOM     55  C   UNL A   1      44.521  30.851  31.182  1.00  0.00     0.029 A 
ATOM     56  N   UNL A   1      45.627  29.054  31.874  1.00  0.00    -0.354 N 
ATOM     57  C   UNL A   1      44.298  26.732  35.246  1.00  0.00     0.074 A 
ATOM     58  C   UNL A   1      43.026  26.444  34.625  1.00  0.00     0.031 C 
ATOM     59  C   UNL A   1      45.413  30.527  30.217  1.00  0.00     0.029 A 
ATOM     60  C   UNL A   1      46.175  29.360  30.639  1.00  0.00     0.049 A 
ATOM     61  H   UNL A   1      45.978  28.336  32.449  1.00  0.00     0.167 HD
ATOM     62  C   UNL A   1      45.226  25.906  35.796  1.00  0.00     0.037 A 
ATOM     63  C   UNL A   1      47.151  28.662  30.007  1.00  0.00     0.037 A 
ATOM     64  C   UNL A   1      46.374  26.623  36.295  1.00  0.00     0.049 A 
ATOM     65  C   UNL A   1      47.922  27.930  31.050  1.00  0.00     0.074 A 
ATOM     66  C   UNL A   1      46.559  27.669  37.181  1.00  0.00     0.029 A 
ATOM     67  N   UNL A   1      47.558  26.519  35.603  1.00  0.00    -0.354 N 
ATOM     68  N   UNL A   1      48.709  28.501  31.920  1.00  0.00    -0.248 NA
ATOM     69  C   UNL A   1      47.554  26.556  31.364  1.00  0.00     0.031 C 
ATOM     70  C   UNL A   1      47.643  28.429  36.650  1.00  0.00     0.029 A 
ATOM     71  C   UNL A   1      48.071  27.788  35.488  1.00  0.00     0.049 A 
ATOM     72  H   UNL A   1      47.962  25.690  35.256  1.00  0.00     0.167 HD
ATOM     73  C   UNL A   1      48.594  27.733  33.068  1.00  0.00     0.074 A 
ATOM     74  C   UNL A   1      47.979  26.488  32.628  1.00  0.00     0.031 C 
ATOM     75  C   UNL A   1      48.752  28.283  34.310  1.00  0.00     0.037 A 
BRANCH  62  76
ATOM     76  C   UNL A   1      45.235  24.421  35.572  1.00  0.00     0.058 A 
ATOM     77  C   UNL A   1      45.156  23.549  36.673  1.00  0.00     0.135 A 
ATOM     78  C   UNL A   1      45.572  23.832  34.334  1.00  0.00     0.135 A 
ATOM     79  F   UNL A   1      44.874  24.020  37.897  1.00  0.00    -0.206 F 
ATOM     80  C   UNL A   1      45.436  22.188  36.558  1.00  0.00     0.059 A 
ATOM     81  C   UNL A   1      45.796  22.470  34.185  1.00  0.00     0.059 A 
ATOM     82  F   UNL A   1      45.795  24.569  33.237  1.00  0.00    -0.206 F 
ATOM     83  C   UNL A   1      45.768  21.663  35.310  1.00  0.00     0.060 A 
BRANCH  83  84
ATOM     84  S   UNL A   1      46.241  19.931  35.172  1.00  0.00     0.124 S 
ATOM     85  O   UNL A   1      47.107  19.966  34.000  1.00  0.00    -0.237 OA
ATOM     86  O   UNL A   1      46.904  19.687  36.450  1.00  0.00    -0.237 OA
ATOM     87  O   UNL A   1      44.962  19.251  34.998  1.00  0.00    -0.744 OA
ENDBRANCH  83  84
ENDBRANCH  62  76
BRANCH  63  88
ATOM     88  C   UNL A   1      47.301  28.384  28.557  1.00  0.00     0.058 A 
ATOM     89  C   UNL A   1      48.448  28.811  27.861  1.00  0.00     0.135 A 
ATOM     90  C   UNL A   1      46.482  27.454  27.887  1.00  0.00     0.135 A 
ATOM     91  F   UNL A   1      49.294  29.689  28.420  1.00  0.00    -0.206 F 
ATOM     92  C   UNL A   1      48.803  28.286  26.615  1.00  0.00     0.059 A 
ATOM     93  C   UNL A   1      46.806  26.932  26.636  1.00  0.00     0.059 A 
ATOM     94  F   UNL A   1      45.388  26.942  28.465  1.00  0.00    -0.206 F 
ATOM     95  C   UNL A   1      47.987  27.325  26.023  1.00  0.00     0.060 A 
BRANCH  95  96
ATOM     96  S   UNL A   1      48.550  26.479  24.530  1.00  0.00     0.124 S 
ATOM     97  O   UNL A   1      49.809  25.890  24.974  1.00  0.00    -0.237 OA
ATOM     98  O   UNL A   1      47.461  25.541  24.276  1.00  0.00    -0.237 OA
ATOM     99  O   UNL A   1      48.674  27.559  23.554  1.00  0.00    -0.744 OA
ENDBRANCH  95  96
ENDBRANCH  63  88
BRANCH  75 100
ATOM    100  C   UNL A   1      49.447  29.616  34.412  1.00  0.00     0.058 A 
ATOM    101  C   UNL A   1      48.818  30.858  34.218  1.00  0.00     0.135 A 
ATOM    102  C   UNL A   1      50.792  29.640  34.815  1.00  0.00     0.135 A 
ATOM    103  F   UNL A   1      47.503  30.934  33.956  1.00  0.00    -0.206 F 
ATOM    104  C   UNL A   1      49.513  32.062  34.340  1.00  0.00     0.059 A 
ATOM    105  C   UNL A   1      51.496  30.831  34.980  1.00  0.00     0.059 A 
ATOM    106  F   UNL A   1      51.435  28.493  35.087  1.00  0.00    -0.206 F 
ATOM    107  C   UNL A   1      50.855  32.040  34.716  1.00  0.00     0.060 A 
BRANCH 107 108
ATOM    108  S   UNL A   1      51.740  33.601  34.928  1.00  0.00     0.124 S 
ATOM    109  O   UNL A   1      51.128  34.137  36.139  1.00  0.00    -0.237 OA
ATOM    110  O   UNL A   1      53.129  33.170  35.056  1.00  0.00    -0.237 OA
ATOM    111  O   UNL A   1      51.437  34.332  33.699  1.00  0.00    -0.744 OA
ENDBRANCH 107 108
ENDBRANCH  75 100
ENDBRANCH  49  50
ENDBRANCH  42  44
ENDBRANCH  41  42
ENDBRANCH  40  41
ENDBRANCH  39  40
ENDBRANCH  38  39
ENDBRANCH  37  38
ENDBRANCH  36  37
ENDBRANCH  35  36
ENDBRANCH   1  35
TORSDOF 27
ENDMDL
MODEL 3
REMARK VINA RESULT:      -8.2      8.922     13.631
REMARK SMILES Cc1nn(Cc2ccc(Cl)cc2Cl)c(C)c1NC(=O)c1c(C(=O)OCCOCCOCCOCCOC(=O)c2ccc(-c3c4nc(c(-c5c(F)cc(S(=O)(=O)[O-])cc5F)c5ccc([nH]5)c(-c5c(F)cc(S(=O)(=O)[O-])cc5F)c5nc(c(-c6c(F)cc(S(=O)(=O)[O-])cc6F)c6ccc3[nH]6)C=C5)C=C4)cc2)cnn1C
REMARK SMILES IDX 29 1 28 2 27 3 26 4 25 5 24 6 22 7 23 8 21 9 20 10 107 11
REMARK SMILES IDX 105 12 106 13 108 14 18 15 17 16 19 18 16 19 1 20 2 21 3 22
REMARK SMILES IDX 4 23 14 24 15 25 5 26 6 27 7 28 12 29 8 30 11 31 13 32 9 33
REMARK SMILES IDX 10 34 30 35 31 36 32 37 33 38 34 39 35 40 36 41 37 42 38 43
REMARK SMILES IDX 39 44 40 45 104 46 41 47 103 48 42 49 43 50 44 51 97 52
REMARK SMILES IDX 45 53 102 54 96 55 98 56 46 57 101 58 95 59 94 60 47 62
REMARK SMILES IDX 81 63 60 64 80 65 61 66 64 67 79 68 99 69 62 70 63 71 78 73
REMARK SMILES IDX 100 74 65 75 48 76 49 77 58 78 50 79 51 80 57 81 59 82 52 83
REMARK SMILES IDX 53 84 54 85 55 86 56 87 82 88 83 89 92 90 84 91 85 92 91 93
REMARK SMILES IDX 93 94 86 95 87 96 88 97 89 98 90 99 66 100 67 101 76 102
REMARK SMILES IDX 68 103 69 104 75 105 77 106 70 107 71 108 72 109 73 110
REMARK SMILES IDX 74 111
REMARK H PARENT 17 17 98 61 64 72
REMARK Flexibility Score: inf
ROOT
ATOM      1  C   UNL A   1      35.031  32.166  30.558  1.00  0.00     0.188 C 
ENDROOT
BRANCH   1   2
ATOM      2  C   UNL A   1      35.248  32.172  29.042  1.00  0.00     0.188 C 
BRANCH   2   3
ATOM      3  O   UNL A   1      34.879  31.022  28.277  1.00  0.00    -0.376 OA
BRANCH   3   4
ATOM      4  C   UNL A   1      33.695  31.052  27.496  1.00  0.00     0.202 C 
BRANCH   4   5
ATOM      5  C   UNL A   1      33.057  29.689  27.222  1.00  0.00     0.261 C 
BRANCH   5   6
ATOM      6  O   UNL A   1      33.319  29.157  25.914  1.00  0.00    -0.460 OA
BRANCH   6   7
ATOM      7  C   UNL A   1      32.399  29.466  24.953  1.00  0.00     0.342 C 
ATOM      8  O   UNL A   1      31.438  30.202  25.118  1.00  0.00    -0.246 OA
BRANCH   7   9
ATOM      9  C   UNL A   1      32.640  28.767  23.709  1.00  0.00     0.111 A 
ATOM     10  C   UNL A   1      31.735  27.997  22.987  1.00  0.00     0.140 A 
ATOM     11  N   UNL A   1      32.507  27.274  22.118  1.00  0.00    -0.262 N 
ATOM     12  C   UNL A   1      33.857  28.623  23.009  1.00  0.00     0.151 A 
ATOM     13  N   UNL A   1      33.778  27.717  22.032  1.00  0.00    -0.180 NA
ATOM     14  C   UNL A   1      32.091  26.162  21.292  1.00  0.00     0.174 C 
BRANCH  10  15
ATOM     15  C   UNL A   1      30.330  27.790  23.183  1.00  0.00     0.274 C 
ATOM     16  N   UNL A   1      29.876  26.680  23.859  1.00  0.00    -0.317 N 
ATOM     17  H   UNL A   1      28.908  26.531  23.764  1.00  0.00     0.170 HD
ATOM     18  O   UNL A   1      29.496  28.573  22.730  1.00  0.00    -0.267 OA
BRANCH  16  19
ATOM     19  C   UNL A   1      30.507  25.733  24.650  1.00  0.00     0.085 A 
ATOM     20  C   UNL A   1      30.832  27.187  26.817  1.00  0.00     0.071 C 
ATOM     21  C   UNL A   1      30.928  25.951  25.998  1.00  0.00     0.083 A 
ATOM     22  N   UNL A   1      31.412  24.835  26.556  1.00  0.00    -0.175 NA
ATOM     23  N   UNL A   1      31.279  23.906  25.591  1.00  0.00    -0.263 N 
ATOM     24  C   UNL A   1      30.993  24.470  24.366  1.00  0.00     0.060 A 
ATOM     25  C   UNL A   1      31.312  23.734  23.125  1.00  0.00     0.069 C 
BRANCH  23  26
ATOM     26  C   UNL A   1      31.058  22.504  25.961  1.00  0.00     0.181 C 
BRANCH  26  27
ATOM     27  C   UNL A   1      32.234  21.587  25.755  1.00  0.00    -0.008 A 
ATOM     28  C   UNL A   1      32.235  20.731  24.637  1.00  0.00     0.009 A 
ATOM     29  C   UNL A   1      33.393  21.636  26.553  1.00  0.00     0.047 A 
ATOM     30  C   UNL A   1      33.369  19.988  24.302  1.00  0.00     0.021 A 
ATOM     31  C   UNL A   1      34.520  20.875  26.228  1.00  0.00     0.041 A 
ATOM     32  Cl  UNL A   1      33.518  22.663  27.937  1.00  0.00    -0.084 Cl
ATOM     33  C   UNL A   1      34.507  20.069  25.095  1.00  0.00     0.042 A 
ATOM     34  Cl  UNL A   1      35.915  19.187  24.663  1.00  0.00    -0.084 Cl
ENDBRANCH  26  27
ENDBRANCH  23  26
ENDBRANCH  16  19
ENDBRANCH  10  15
ENDBRANCH   7   9
ENDBRANCH   6   7
ENDBRANCH   5   6
ENDBRANCH   4   5
ENDBRANCH   3   4
ENDBRANCH   2   3
ENDBRANCH   1   2
BRANCH   1  35
ATOM     35  O   UNL A   1      35.981  31.366  31.256  1.00  0.00    -0.377 OA
BRANCH  35  36
ATOM     36  C   UNL A   1      36.603  32.012  32.364  1.00  0.00     0.188 C 
BRANCH  36  37
ATOM     37  C   UNL A   1      37.979  32.593  32.037  1.00  0.00     0.188 C 
BRANCH  37  38
ATOM     38  O   UNL A   1      38.446  32.125  30.765  1.00  0.00    -0.376 OA
BRANCH  38  39
ATOM     39  C   UNL A   1      39.434  31.095  30.854  1.00  0.00     0.202 C 
BRANCH  39  40
ATOM     40  C   UNL A   1      40.845  31.644  31.017  1.00  0.00     0.261 C 
BRANCH  40  41
ATOM     41  O   UNL A   1      41.078  32.870  30.329  1.00  0.00    -0.460 OA
BRANCH  41  42
ATOM     42  C   UNL A   1      42.337  33.105  29.901  1.00  0.00     0.338 C 
ATOM     43  O   UNL A   1      43.050  32.352  29.269  1.00  0.00    -0.246 OA
BRANCH  42  44
ATOM     44  C   UNL A   1      42.766  34.368  30.532  1.00  0.00     0.060 A 
ATOM     45  C   UNL A   1      42.755  35.508  29.734  1.00  0.00     0.016 A 
ATOM     46  C   UNL A   1      43.400  34.362  31.786  1.00  0.00     0.016 A 
ATOM     47  C   UNL A   1      43.546  36.576  30.110  1.00  0.00     0.010 A 
ATOM     48  C   UNL A   1      44.211  35.418  32.149  1.00  0.00     0.010 A 
ATOM     49  C   UNL A   1      44.328  36.487  31.270  1.00  0.00    -0.014 A 
BRANCH  49  50
ATOM     50  C   UNL A   1      45.239  37.576  31.543  1.00  0.00     0.031 A 
ATOM     51  C   UNL A   1      44.922  38.378  32.734  1.00  0.00     0.074 A 
ATOM     52  C   UNL A   1      46.304  37.893  30.788  1.00  0.00     0.049 A 
ATOM     53  N   UNL A   1      44.296  39.505  32.760  1.00  0.00    -0.248 NA
ATOM     54  C   UNL A   1      45.250  37.823  34.049  1.00  0.00     0.031 C 
ATOM     55  C   UNL A   1      46.971  37.099  29.760  1.00  0.00     0.029 A 
ATOM     56  N   UNL A   1      47.051  39.031  30.853  1.00  0.00    -0.354 N 
ATOM     57  C   UNL A   1      44.346  39.923  34.080  1.00  0.00     0.074 A 
ATOM     58  C   UNL A   1      44.792  38.786  34.851  1.00  0.00     0.031 C 
ATOM     59  C   UNL A   1      48.129  37.710  29.419  1.00  0.00     0.029 A 
ATOM     60  C   UNL A   1      48.214  38.994  30.102  1.00  0.00     0.049 A 
ATOM     61  H   UNL A   1      46.786  39.813  31.387  1.00  0.00     0.167 HD
ATOM     62  C   UNL A   1      44.238  41.236  34.413  1.00  0.00     0.037 A 
ATOM     63  C   UNL A   1      49.185  39.940  30.095  1.00  0.00     0.037 A 
ATOM     64  C   UNL A   1      43.757  42.044  33.319  1.00  0.00     0.049 A 
ATOM     65  C   UNL A   1      48.560  41.225  30.513  1.00  0.00     0.074 A 
ATOM     66  C   UNL A   1      42.645  42.005  32.496  1.00  0.00     0.029 A 
ATOM     67  N   UNL A   1      44.644  42.888  32.694  1.00  0.00    -0.354 N 
ATOM     68  N   UNL A   1      47.711  41.901  29.789  1.00  0.00    -0.248 NA
ATOM     69  C   UNL A   1      48.610  41.608  31.918  1.00  0.00     0.031 C 
ATOM     70  C   UNL A   1      43.107  42.434  31.215  1.00  0.00     0.029 A 
ATOM     71  C   UNL A   1      44.464  42.733  31.341  1.00  0.00     0.049 A 
ATOM     72  H   UNL A   1      45.287  43.490  33.134  1.00  0.00     0.167 HD
ATOM     73  C   UNL A   1      46.842  42.481  30.700  1.00  0.00     0.074 A 
ATOM     74  C   UNL A   1      47.519  42.374  31.986  1.00  0.00     0.031 C 
ATOM     75  C   UNL A   1      45.541  42.744  30.373  1.00  0.00     0.037 A 
BRANCH  62  76
ATOM     76  C   UNL A   1      44.892  41.828  35.629  1.00  0.00     0.058 A 
ATOM     77  C   UNL A   1      46.283  41.712  35.800  1.00  0.00     0.135 A 
ATOM     78  C   UNL A   1      44.163  42.282  36.750  1.00  0.00     0.135 A 
ATOM     79  F   UNL A   1      47.057  41.257  34.801  1.00  0.00    -0.206 F 
ATOM     80  C   UNL A   1      46.903  41.988  37.017  1.00  0.00     0.059 A 
ATOM     81  C   UNL A   1      44.767  42.620  37.953  1.00  0.00     0.059 A 
ATOM     82  F   UNL A   1      42.823  42.322  36.753  1.00  0.00    -0.206 F 
ATOM     83  C   UNL A   1      46.132  42.429  38.091  1.00  0.00     0.060 A 
BRANCH  83  84
ATOM     84  S   UNL A   1      46.905  42.679  39.698  1.00  0.00     0.124 S 
ATOM     85  O   UNL A   1      45.869  43.430  40.397  1.00  0.00    -0.237 OA
ATOM     86  O   UNL A   1      47.120  41.309  40.155  1.00  0.00    -0.237 OA
ATOM     87  O   UNL A   1      48.117  43.421  39.370  1.00  0.00    -0.744 OA
ENDBRANCH  83  84
ENDBRANCH  62  76
BRANCH  63  88
ATOM     88  C   UNL A   1      50.656  39.758  30.000  1.00  0.00     0.058 A 
ATOM     89  C   UNL A   1      51.302  39.791  28.750  1.00  0.00     0.135 A 
ATOM     90  C   UNL A   1      51.492  39.840  31.130  1.00  0.00     0.135 A 
ATOM     91  F   UNL A   1      50.590  39.728  27.615  1.00  0.00    -0.206 F 
ATOM     92  C   UNL A   1      52.682  39.978  28.628  1.00  0.00     0.059 A 
ATOM     93  C   UNL A   1      52.872  40.006  31.034  1.00  0.00     0.059 A 
ATOM     94  F   UNL A   1      50.989  39.862  32.372  1.00  0.00    -0.206 F 
ATOM     95  C   UNL A   1      53.455  40.111  29.779  1.00  0.00     0.060 A 
BRANCH  95  96
ATOM     96  S   UNL A   1      55.195  40.578  29.632  1.00  0.00     0.124 S 
ATOM     97  O   UNL A   1      55.773  39.391  29.012  1.00  0.00    -0.237 OA
ATOM     98  O   UNL A   1      55.126  41.769  28.791  1.00  0.00    -0.237 OA
ATOM     99  O   UNL A   1      55.597  40.821  31.015  1.00  0.00    -0.744 OA
ENDBRANCH  95  96
ENDBRANCH  63  88
BRANCH  75 100
ATOM    100  C   UNL A   1      45.169  42.779  28.913  1.00  0.00     0.058 A 
ATOM    101  C   UNL A   1      45.308  43.906  28.084  1.00  0.00     0.135 A 
ATOM    102  C   UNL A   1      44.737  41.590  28.304  1.00  0.00     0.135 A 
ATOM    103  F   UNL A   1      45.834  45.049  28.553  1.00  0.00    -0.206 F 
ATOM    104  C   UNL A   1      44.959  43.872  26.733  1.00  0.00     0.059 A 
ATOM    105  C   UNL A   1      44.419  41.523  26.950  1.00  0.00     0.059 A 
ATOM    106  F   UNL A   1      44.650  40.458  29.022  1.00  0.00    -0.206 F 
ATOM    107  C   UNL A   1      44.508  42.677  26.174  1.00  0.00     0.060 A 
BRANCH 107 108
ATOM    108  S   UNL A   1      44.109  42.620  24.413  1.00  0.00     0.124 S 
ATOM    109  O   UNL A   1      45.380  42.211  23.825  1.00  0.00    -0.237 OA
ATOM    110  O   UNL A   1      43.037  41.631  24.357  1.00  0.00    -0.237 OA
ATOM    111  O   UNL A   1      43.695  43.990  24.115  1.00  0.00    -0.744 OA
ENDBRANCH 107 108
ENDBRANCH  75 100
ENDBRANCH  49  50
ENDBRANCH  42  44
ENDBRANCH  41  42
ENDBRANCH  40  41
ENDBRANCH  39  40
ENDBRANCH  38  39
ENDBRANCH  37  38
ENDBRANCH  36  37
ENDBRANCH  35  36
ENDBRANCH   1  35
TORSDOF 27
ENDMDL
