MODEL 1
REMARK VINA RESULT:     -10.5      0.000      0.000
REMARK SMILES O=C(CCC(=O)N1CCc2[nH]c3ccc(F)cc3c2C1)OCCOCCOCCOCCOC(=O)c1ccc(-c2c3nc(c(-c4c(F)cc(S(=O)(=O)[O-])cc4F)c4ccc([nH]4)c(-c4c(F)cc(S(=O)(=O)[O-])cc4F)c4nc(c(-c5c(F)cc(S(=O)(=O)[O-])cc5F)c5ccc2[nH]5)C=C4)C=C3)cc1
REMARK SMILES IDX 27 1 26 2 25 3 24 4 23 5 22 6 21 7 2 8 1 9 3 10 4 11 5 12
REMARK SMILES IDX 6 13 7 14 8 15 20 16 9 17 19 18 10 19 18 20 11 21 12 22
REMARK SMILES IDX 17 23 13 25 15 26 14 27 16 28 28 29 29 30 30 31 31 32 32 33
REMARK SMILES IDX 33 34 34 35 35 36 36 37 37 38 101 39 38 40 100 41 39 42
REMARK SMILES IDX 40 43 41 44 94 45 42 46 99 47 93 48 95 49 43 50 98 51 92 52
REMARK SMILES IDX 91 53 44 55 78 56 57 57 77 58 58 59 61 60 76 61 96 62 59 63
REMARK SMILES IDX 60 64 75 66 97 67 62 68 45 69 46 70 55 71 47 72 48 73 54 74
REMARK SMILES IDX 56 75 49 76 50 77 51 78 52 79 53 80 79 81 80 82 89 83 81 84
REMARK SMILES IDX 82 85 88 86 90 87 83 88 84 89 85 90 86 91 87 92 63 93 64 94
REMARK SMILES IDX 73 95 65 96 66 97 72 98 74 99 67 100 68 101 69 102 70 103
REMARK SMILES IDX 71 104
REMARK H PARENT 11 24 95 54 61 65
REMARK Flexibility Score: inf
ROOT
ATOM      1  O   UNL A   1      31.401  24.842  27.174  1.00  0.00    -0.377 OA
ENDROOT
BRANCH   1   2
ATOM      2  C   UNL A   1      32.054  23.625  26.869  1.00  0.00     0.188 C 
BRANCH   2   3
ATOM      3  C   UNL A   1      33.545  23.757  26.483  1.00  0.00     0.188 C 
BRANCH   3   4
ATOM      4  O   UNL A   1      34.363  22.619  26.730  1.00  0.00    -0.376 OA
BRANCH   4   5
ATOM      5  C   UNL A   1      34.897  21.813  25.692  1.00  0.00     0.202 C 
BRANCH   5   6
ATOM      6  C   UNL A   1      34.100  20.594  25.241  1.00  0.00     0.261 C 
BRANCH   6   7
ATOM      7  O   UNL A   1      32.846  20.966  24.652  1.00  0.00    -0.463 OA
BRANCH   7   8
ATOM      8  C   UNL A   1      32.442  20.554  23.432  1.00  0.00     0.306 C 
ATOM      9  O   UNL A   1      32.304  19.358  23.180  1.00  0.00    -0.252 OA
BRANCH   8  10
ATOM     10  C   UNL A   1      32.061  21.605  22.462  1.00  0.00     0.132 C 
BRANCH  10  11
ATOM     11  C   UNL A   1      31.961  22.921  23.204  1.00  0.00     0.112 C 
BRANCH  11  12
ATOM     12  C   UNL A   1      32.906  23.977  22.675  1.00  0.00     0.223 C 
ATOM     13  O   UNL A   1      33.943  23.580  22.135  1.00  0.00    -0.275 OA
BRANCH  12  14
ATOM     14  N   UNL A   1      32.651  25.326  22.841  1.00  0.00    -0.338 N 
ATOM     15  C   UNL A   1      33.514  26.366  23.431  1.00  0.00     0.126 C 
ATOM     16  C   UNL A   1      31.284  25.741  22.529  1.00  0.00     0.157 C 
ATOM     17  C   UNL A   1      33.558  27.629  22.492  1.00  0.00     0.075 C 
ATOM     18  C   UNL A   1      31.107  27.224  22.581  1.00  0.00     0.000 A 
ATOM     19  C   UNL A   1      32.150  28.097  22.392  1.00  0.00     0.023 A 
ATOM     20  C   UNL A   1      29.965  28.020  22.871  1.00  0.00     0.008 A 
ATOM     21  N   UNL A   1      31.630  29.342  22.185  1.00  0.00    -0.358 N 
ATOM     22  C   UNL A   1      30.269  29.318  22.450  1.00  0.00     0.046 A 
ATOM     23  C   UNL A   1      28.662  27.738  23.325  1.00  0.00     0.050 A 
ATOM     24  H   UNL A   1      32.141  30.132  21.895  1.00  0.00     0.166 HD
ATOM     25  C   UNL A   1      29.277  30.307  22.330  1.00  0.00     0.030 A 
ATOM     26  C   UNL A   1      27.670  28.701  23.183  1.00  0.00     0.123 A 
ATOM     27  C   UNL A   1      27.961  29.956  22.670  1.00  0.00     0.041 A 
ATOM     28  F   UNL A   1      26.401  28.386  23.480  1.00  0.00    -0.207 F 
ENDBRANCH  12  14
ENDBRANCH  11  12
ENDBRANCH  10  11
ENDBRANCH   8  10
ENDBRANCH   7   8
ENDBRANCH   6   7
ENDBRANCH   5   6
ENDBRANCH   4   5
ENDBRANCH   3   4
ENDBRANCH   2   3
ENDBRANCH   1   2
BRANCH   1  29
ATOM     29  C   UNL A   1      31.708  25.903  26.287  1.00  0.00     0.188 C 
BRANCH  29  30
ATOM     30  C   UNL A   1      31.375  27.307  26.850  1.00  0.00     0.188 C 
BRANCH  30  31
ATOM     31  O   UNL A   1      31.438  28.424  25.975  1.00  0.00    -0.376 OA
BRANCH  31  32
ATOM     32  C   UNL A   1      32.608  29.223  26.059  1.00  0.00     0.202 C 
BRANCH  32  33
ATOM     33  C   UNL A   1      32.471  30.710  26.485  1.00  0.00     0.261 C 
BRANCH  33  34
ATOM     34  O   UNL A   1      33.284  31.137  27.610  1.00  0.00    -0.460 OA
BRANCH  34  35
ATOM     35  C   UNL A   1      33.426  32.480  27.851  1.00  0.00     0.338 C 
ATOM     36  O   UNL A   1      32.557  33.306  27.749  1.00  0.00    -0.246 OA
BRANCH  35  37
ATOM     37  C   UNL A   1      34.730  32.722  28.590  1.00  0.00     0.060 A 
ATOM     38  C   UNL A   1      35.866  31.919  28.462  1.00  0.00     0.016 A 
ATOM     39  C   UNL A   1      34.695  33.671  29.632  1.00  0.00     0.016 A 
ATOM     40  C   UNL A   1      36.900  32.012  29.419  1.00  0.00     0.010 A 
ATOM     41  C   UNL A   1      35.711  33.736  30.604  1.00  0.00     0.010 A 
ATOM     42  C   UNL A   1      36.823  32.898  30.522  1.00  0.00    -0.014 A 
BRANCH  42  43
ATOM     43  C   UNL A   1      38.041  33.125  31.352  1.00  0.00     0.031 A 
ATOM     44  C   UNL A   1      39.171  33.666  30.550  1.00  0.00     0.074 A 
ATOM     45  C   UNL A   1      38.252  33.044  32.697  1.00  0.00     0.049 A 
ATOM     46  N   UNL A   1      40.357  33.176  30.495  1.00  0.00    -0.248 NA
ATOM     47  C   UNL A   1      38.958  34.813  29.655  1.00  0.00     0.031 C 
ATOM     48  C   UNL A   1      37.235  32.880  33.732  1.00  0.00     0.029 A 
ATOM     49  N   UNL A   1      39.419  33.181  33.445  1.00  0.00    -0.354 N 
ATOM     50  C   UNL A   1      41.101  34.014  29.681  1.00  0.00     0.074 A 
ATOM     51  C   UNL A   1      40.170  34.957  29.113  1.00  0.00     0.031 C 
ATOM     52  C   UNL A   1      37.782  33.104  34.951  1.00  0.00     0.029 A 
ATOM     53  C   UNL A   1      39.213  33.346  34.821  1.00  0.00     0.049 A 
ATOM     54  H   UNL A   1      40.317  33.163  33.040  1.00  0.00     0.167 HD
ATOM     55  C   UNL A   1      42.458  33.920  29.638  1.00  0.00     0.037 A 
ATOM     56  C   UNL A   1      40.093  33.708  35.805  1.00  0.00     0.037 A 
ATOM     57  C   UNL A   1      42.918  32.672  30.198  1.00  0.00     0.049 A 
ATOM     58  C   UNL A   1      41.491  33.527  35.370  1.00  0.00     0.074 A 
ATOM     59  C   UNL A   1      42.439  31.405  29.948  1.00  0.00     0.029 A 
ATOM     60  N   UNL A   1      43.628  32.594  31.386  1.00  0.00    -0.354 N 
ATOM     61  N   UNL A   1      42.171  32.426  35.453  1.00  0.00    -0.248 NA
ATOM     62  C   UNL A   1      42.133  34.601  34.630  1.00  0.00     0.031 C 
ATOM     63  C   UNL A   1      42.317  30.863  31.238  1.00  0.00     0.029 A 
ATOM     64  C   UNL A   1      43.100  31.552  32.135  1.00  0.00     0.049 A 
ATOM     65  H   UNL A   1      44.375  33.177  31.652  1.00  0.00     0.167 HD
ATOM     66  C   UNL A   1      42.985  32.483  34.351  1.00  0.00     0.074 A 
ATOM     67  C   UNL A   1      43.065  33.892  33.997  1.00  0.00     0.031 C 
ATOM     68  C   UNL A   1      43.145  31.379  33.576  1.00  0.00     0.037 A 
BRANCH  55  69
ATOM     69  C   UNL A   1      43.368  35.024  29.241  1.00  0.00     0.058 A 
ATOM     70  C   UNL A   1      43.539  36.123  30.099  1.00  0.00     0.135 A 
ATOM     71  C   UNL A   1      43.831  35.165  27.919  1.00  0.00     0.135 A 
ATOM     72  F   UNL A   1      43.174  36.050  31.388  1.00  0.00    -0.206 F 
ATOM     73  C   UNL A   1      44.009  37.344  29.632  1.00  0.00     0.059 A 
ATOM     74  C   UNL A   1      44.342  36.363  27.442  1.00  0.00     0.059 A 
ATOM     75  F   UNL A   1      43.705  34.181  27.017  1.00  0.00    -0.206 F 
ATOM     76  C   UNL A   1      44.362  37.462  28.288  1.00  0.00     0.060 A 
BRANCH  76  77
ATOM     77  S   UNL A   1      44.717  39.097  27.627  1.00  0.00     0.124 S 
ATOM     78  O   UNL A   1      46.110  38.945  27.225  1.00  0.00    -0.237 OA
ATOM     79  O   UNL A   1      43.744  39.202  26.544  1.00  0.00    -0.237 OA
ATOM     80  O   UNL A   1      44.479  39.978  28.767  1.00  0.00    -0.744 OA
ENDBRANCH  76  77
ENDBRANCH  55  69
BRANCH  56  81
ATOM     81  C   UNL A   1      39.897  34.477  37.071  1.00  0.00     0.058 A 
ATOM     82  C   UNL A   1      40.207  33.901  38.327  1.00  0.00     0.135 A 
ATOM     83  C   UNL A   1      39.843  35.879  37.030  1.00  0.00     0.135 A 
ATOM     84  F   UNL A   1      40.259  32.569  38.476  1.00  0.00    -0.206 F 
ATOM     85  C   UNL A   1      40.579  34.673  39.431  1.00  0.00     0.059 A 
ATOM     86  C   UNL A   1      40.194  36.668  38.124  1.00  0.00     0.059 A 
ATOM     87  F   UNL A   1      39.572  36.522  35.885  1.00  0.00    -0.206 F 
ATOM     88  C   UNL A   1      40.613  36.058  39.303  1.00  0.00     0.060 A 
BRANCH  88  89
ATOM     89  S   UNL A   1      41.344  37.050  40.626  1.00  0.00     0.124 S 
ATOM     90  O   UNL A   1      40.825  38.382  40.332  1.00  0.00    -0.237 OA
ATOM     91  O   UNL A   1      40.810  36.407  41.822  1.00  0.00    -0.237 OA
ATOM     92  O   UNL A   1      42.779  36.880  40.421  1.00  0.00    -0.744 OA
ENDBRANCH  88  89
ENDBRANCH  56  81
BRANCH  68  93
ATOM     93  C   UNL A   1      42.887  29.982  34.188  1.00  0.00     0.058 A 
ATOM     94  C   UNL A   1      43.867  29.106  34.710  1.00  0.00     0.135 A 
ATOM     95  C   UNL A   1      41.559  29.552  34.371  1.00  0.00     0.135 A 
ATOM     96  F   UNL A   1      45.166  29.435  34.719  1.00  0.00    -0.206 F 
ATOM     97  C   UNL A   1      43.550  27.909  35.377  1.00  0.00     0.059 A 
ATOM     98  C   UNL A   1      41.219  28.399  35.107  1.00  0.00     0.059 A 
ATOM     99  F   UNL A   1      40.546  30.305  33.916  1.00  0.00    -0.206 F 
ATOM    100  C   UNL A   1      42.223  27.604  35.650  1.00  0.00     0.060 A 
BRANCH 100 101
ATOM    101  S   UNL A   1      41.852  26.340  36.903  1.00  0.00     0.124 S 
ATOM    102  O   UNL A   1      41.787  25.110  36.123  1.00  0.00    -0.237 OA
ATOM    103  O   UNL A   1      42.995  26.436  37.807  1.00  0.00    -0.237 OA
ATOM    104  O   UNL A   1      40.586  26.787  37.477  1.00  0.00    -0.744 OA
ENDBRANCH 100 101
ENDBRANCH  68  93
ENDBRANCH  42  43
ENDBRANCH  35  37
ENDBRANCH  34  35
ENDBRANCH  33  34
ENDBRANCH  32  33
ENDBRANCH  31  32
ENDBRANCH  30  31
ENDBRANCH  29  30
ENDBRANCH   1  29
TORSDOF 26
ENDMDL
MODEL 2
REMARK VINA RESULT:     -10.4      4.216      9.599
REMARK SMILES O=C(CCC(=O)N1CCc2[nH]c3ccc(F)cc3c2C1)OCCOCCOCCOCCOC(=O)c1ccc(-c2c3nc(c(-c4c(F)cc(S(=O)(=O)[O-])cc4F)c4ccc([nH]4)c(-c4c(F)cc(S(=O)(=O)[O-])cc4F)c4nc(c(-c5c(F)cc(S(=O)(=O)[O-])cc5F)c5ccc2[nH]5)C=C4)C=C3)cc1
REMARK SMILES IDX 27 1 26 2 25 3 24 4 23 5 22 6 21 7 2 8 1 9 3 10 4 11 5 12
REMARK SMILES IDX 6 13 7 14 8 15 20 16 9 17 19 18 10 19 18 20 11 21 12 22
REMARK SMILES IDX 17 23 13 25 15 26 14 27 16 28 28 29 29 30 30 31 31 32 32 33
REMARK SMILES IDX 33 34 34 35 35 36 36 37 37 38 101 39 38 40 100 41 39 42
REMARK SMILES IDX 40 43 41 44 94 45 42 46 99 47 93 48 95 49 43 50 98 51 92 52
REMARK SMILES IDX 91 53 44 55 78 56 57 57 77 58 58 59 61 60 76 61 96 62 59 63
REMARK SMILES IDX 60 64 75 66 97 67 62 68 45 69 46 70 55 71 47 72 48 73 54 74
REMARK SMILES IDX 56 75 49 76 50 77 51 78 52 79 53 80 79 81 80 82 89 83 81 84
REMARK SMILES IDX 82 85 88 86 90 87 83 88 84 89 85 90 86 91 87 92 63 93 64 94
REMARK SMILES IDX 73 95 65 96 66 97 72 98 74 99 67 100 68 101 69 102 70 103
REMARK SMILES IDX 71 104
REMARK H PARENT 11 24 95 54 61 65
REMARK Flexibility Score: inf
ROOT
ATOM      1  O   UNL A   1      32.096  28.018  25.697  1.00  0.00    -0.377 OA
ENDROOT
BRANCH   1   2
ATOM      2  C   UNL A   1      31.649  27.012  26.584  1.00  0.00     0.188 C 
BRANCH   2   3
ATOM      3  C   UNL A   1      30.506  26.120  26.046  1.00  0.00     0.188 C 
BRANCH   3   4
ATOM      4  O   UNL A   1      30.393  24.824  26.623  1.00  0.00    -0.376 OA
BRANCH   4   5
ATOM      5  C   UNL A   1      31.517  24.049  27.005  1.00  0.00     0.202 C 
BRANCH   5   6
ATOM      6  C   UNL A   1      32.315  23.348  25.912  1.00  0.00     0.261 C 
BRANCH   6   7
ATOM      7  O   UNL A   1      31.935  21.972  25.775  1.00  0.00    -0.463 OA
BRANCH   7   8
ATOM      8  C   UNL A   1      32.341  21.181  24.759  1.00  0.00     0.306 C 
ATOM      9  O   UNL A   1      32.045  19.987  24.727  1.00  0.00    -0.252 OA
BRANCH   8  10
ATOM     10  C   UNL A   1      33.048  21.840  23.638  1.00  0.00     0.132 C 
BRANCH  10  11
ATOM     11  C   UNL A   1      32.103  22.839  23.004  1.00  0.00     0.112 C 
BRANCH  11  12
ATOM     12  C   UNL A   1      32.818  23.932  22.238  1.00  0.00     0.223 C 
ATOM     13  O   UNL A   1      33.644  23.574  21.393  1.00  0.00    -0.275 OA
BRANCH  12  14
ATOM     14  N   UNL A   1      32.599  25.269  22.513  1.00  0.00    -0.338 N 
ATOM     15  C   UNL A   1      33.491  26.234  23.183  1.00  0.00     0.126 C 
ATOM     16  C   UNL A   1      31.244  25.745  22.239  1.00  0.00     0.157 C 
ATOM     17  C   UNL A   1      33.569  27.567  22.349  1.00  0.00     0.075 C 
ATOM     18  C   UNL A   1      31.108  27.224  22.410  1.00  0.00     0.000 A 
ATOM     19  C   UNL A   1      32.175  28.080  22.290  1.00  0.00     0.023 A 
ATOM     20  C   UNL A   1      29.988  28.025  22.766  1.00  0.00     0.008 A 
ATOM     21  N   UNL A   1      31.689  29.352  22.186  1.00  0.00    -0.358 N 
ATOM     22  C   UNL A   1      30.329  29.343  22.450  1.00  0.00     0.046 A 
ATOM     23  C   UNL A   1      28.678  27.743  23.199  1.00  0.00     0.050 A 
ATOM     24  H   UNL A   1      32.222  30.148  21.958  1.00  0.00     0.166 HD
ATOM     25  C   UNL A   1      29.364  30.366  22.413  1.00  0.00     0.030 A 
ATOM     26  C   UNL A   1      27.713  28.741  23.137  1.00  0.00     0.123 A 
ATOM     27  C   UNL A   1      28.039  30.025  22.727  1.00  0.00     0.041 A 
ATOM     28  F   UNL A   1      26.436  28.439  23.411  1.00  0.00    -0.207 F 
ENDBRANCH  12  14
ENDBRANCH  11  12
ENDBRANCH  10  11
ENDBRANCH   8  10
ENDBRANCH   7   8
ENDBRANCH   6   7
ENDBRANCH   5   6
ENDBRANCH   4   5
ENDBRANCH   3   4
ENDBRANCH   2   3
ENDBRANCH   1   2
BRANCH   1  29
ATOM     29  C   UNL A   1      31.952  29.337  26.194  1.00  0.00     0.188 C 
BRANCH  29  30
ATOM     30  C   UNL A   1      33.296  30.058  26.459  1.00  0.00     0.188 C 
BRANCH  30  31
ATOM     31  O   UNL A   1      33.411  30.884  27.609  1.00  0.00    -0.376 OA
BRANCH  31  32
ATOM     32  C   UNL A   1      34.554  31.723  27.670  1.00  0.00     0.202 C 
BRANCH  32  33
ATOM     33  C   UNL A   1      34.659  32.763  28.819  1.00  0.00     0.261 C 
BRANCH  33  34
ATOM     34  O   UNL A   1      34.163  32.342  30.117  1.00  0.00    -0.460 OA
BRANCH  34  35
ATOM     35  C   UNL A   1      34.891  32.660  31.237  1.00  0.00     0.338 C 
ATOM     36  O   UNL A   1      34.464  33.209  32.218  1.00  0.00    -0.246 OA
BRANCH  35  37
ATOM     37  C   UNL A   1      36.215  31.919  31.200  1.00  0.00     0.060 A 
ATOM     38  C   UNL A   1      37.464  32.544  31.152  1.00  0.00     0.016 A 
ATOM     39  C   UNL A   1      36.152  30.531  30.964  1.00  0.00     0.016 A 
ATOM     40  C   UNL A   1      38.606  31.799  30.786  1.00  0.00     0.010 A 
ATOM     41  C   UNL A   1      37.286  29.799  30.565  1.00  0.00     0.010 A 
ATOM     42  C   UNL A   1      38.529  30.423  30.455  1.00  0.00    -0.014 A 
BRANCH  42  43
ATOM     43  C   UNL A   1      39.792  29.642  30.316  1.00  0.00     0.031 A 
ATOM     44  C   UNL A   1      40.407  29.336  31.635  1.00  0.00     0.074 A 
ATOM     45  C   UNL A   1      40.392  29.070  29.234  1.00  0.00     0.049 A 
ATOM     46  N   UNL A   1      41.620  29.587  31.976  1.00  0.00    -0.248 NA
ATOM     47  C   UNL A   1      39.589  28.771  32.718  1.00  0.00     0.031 C 
ATOM     48  C   UNL A   1      39.823  28.921  27.897  1.00  0.00     0.029 A 
ATOM     49  N   UNL A   1      41.615  28.414  29.112  1.00  0.00    -0.354 N 
ATOM     50  C   UNL A   1      41.788  29.093  33.259  1.00  0.00     0.074 A 
ATOM     51  C   UNL A   1      40.482  28.682  33.708  1.00  0.00     0.031 C 
ATOM     52  C   UNL A   1      40.592  28.082  27.162  1.00  0.00     0.029 A 
ATOM     53  C   UNL A   1      41.769  27.683  27.925  1.00  0.00     0.049 A 
ATOM     54  H   UNL A   1      42.315  28.458  29.803  1.00  0.00     0.167 HD
ATOM     55  C   UNL A   1      43.030  28.962  33.798  1.00  0.00     0.037 A 
ATOM     56  C   UNL A   1      42.726  26.773  27.571  1.00  0.00     0.037 A 
ATOM     57  C   UNL A   1      44.009  29.725  33.060  1.00  0.00     0.049 A 
ATOM     58  C   UNL A   1      43.922  26.888  28.427  1.00  0.00     0.074 A 
ATOM     59  C   UNL A   1      43.914  31.029  32.629  1.00  0.00     0.029 A 
ATOM     60  N   UNL A   1      45.014  29.136  32.309  1.00  0.00    -0.354 N 
ATOM     61  N   UNL A   1      44.915  27.698  28.232  1.00  0.00    -0.248 NA
ATOM     62  C   UNL A   1      43.943  26.171  29.692  1.00  0.00     0.031 C 
ATOM     63  C   UNL A   1      44.348  30.944  31.295  1.00  0.00     0.029 A 
ATOM     64  C   UNL A   1      45.088  29.802  31.093  1.00  0.00     0.049 A 
ATOM     65  H   UNL A   1      45.575  28.378  32.588  1.00  0.00     0.167 HD
ATOM     66  C   UNL A   1      45.316  28.007  29.507  1.00  0.00     0.074 A 
ATOM     67  C   UNL A   1      44.832  26.919  30.343  1.00  0.00     0.031 C 
ATOM     68  C   UNL A   1      45.596  29.296  29.830  1.00  0.00     0.037 A 
BRANCH  55  69
ATOM     69  C   UNL A   1      43.382  28.019  34.890  1.00  0.00     0.058 A 
ATOM     70  C   UNL A   1      43.724  28.521  36.156  1.00  0.00     0.135 A 
ATOM     71  C   UNL A   1      43.681  26.667  34.634  1.00  0.00     0.135 A 
ATOM     72  F   UNL A   1      43.425  29.784  36.496  1.00  0.00    -0.206 F 
ATOM     73  C   UNL A   1      44.456  27.766  37.064  1.00  0.00     0.059 A 
ATOM     74  C   UNL A   1      44.374  25.882  35.543  1.00  0.00     0.059 A 
ATOM     75  F   UNL A   1      43.406  26.093  33.454  1.00  0.00    -0.206 F 
ATOM     76  C   UNL A   1      44.814  26.462  36.723  1.00  0.00     0.060 A 
BRANCH  76  77
ATOM     77  S   UNL A   1      45.975  25.581  37.778  1.00  0.00     0.124 S 
ATOM     78  O   UNL A   1      45.969  26.419  38.971  1.00  0.00    -0.237 OA
ATOM     79  O   UNL A   1      45.335  24.276  37.907  1.00  0.00    -0.237 OA
ATOM     80  O   UNL A   1      47.211  25.596  37.000  1.00  0.00    -0.744 OA
ENDBRANCH  76  77
ENDBRANCH  55  69
BRANCH  56  81
ATOM     81  C   UNL A   1      42.662  25.561  26.698  1.00  0.00     0.058 A 
ATOM     82  C   UNL A   1      43.312  25.537  25.441  1.00  0.00     0.135 A 
ATOM     83  C   UNL A   1      42.365  24.313  27.265  1.00  0.00     0.135 A 
ATOM     84  F   UNL A   1      43.618  26.678  24.804  1.00  0.00    -0.206 F 
ATOM     85  C   UNL A   1      43.764  24.350  24.856  1.00  0.00     0.059 A 
ATOM     86  C   UNL A   1      42.791  23.117  26.691  1.00  0.00     0.059 A 
ATOM     87  F   UNL A   1      41.764  24.227  28.460  1.00  0.00    -0.206 F 
ATOM     88  C   UNL A   1      43.536  23.147  25.516  1.00  0.00     0.060 A 
BRANCH  88  89
ATOM     89  S   UNL A   1      44.340  21.644  24.914  1.00  0.00     0.124 S 
ATOM     90  O   UNL A   1      44.477  21.920  23.488  1.00  0.00    -0.237 OA
ATOM     91  O   UNL A   1      45.581  21.630  25.683  1.00  0.00    -0.237 OA
ATOM     92  O   UNL A   1      43.388  20.591  25.257  1.00  0.00    -0.744 OA
ENDBRANCH  88  89
ENDBRANCH  56  81
BRANCH  68  93
ATOM     93  C   UNL A   1      45.989  30.288  28.711  1.00  0.00     0.058 A 
ATOM     94  C   UNL A   1      45.098  30.964  27.845  1.00  0.00     0.135 A 
ATOM     95  C   UNL A   1      47.336  30.675  28.583  1.00  0.00     0.135 A 
ATOM     96  F   UNL A   1      43.772  30.792  27.932  1.00  0.00    -0.206 F 
ATOM     97  C   UNL A   1      45.512  31.958  26.940  1.00  0.00     0.059 A 
ATOM     98  C   UNL A   1      47.760  31.723  27.742  1.00  0.00     0.059 A 
ATOM     99  F   UNL A   1      48.270  30.099  29.356  1.00  0.00    -0.206 F 
ATOM    100  C   UNL A   1      46.830  32.395  26.955  1.00  0.00     0.060 A 
BRANCH 100 101
ATOM    101  S   UNL A   1      47.241  33.973  26.149  1.00  0.00     0.124 S 
ATOM    102  O   UNL A   1      46.107  34.195  25.260  1.00  0.00    -0.237 OA
ATOM    103  O   UNL A   1      47.330  34.898  27.276  1.00  0.00    -0.237 OA
ATOM    104  O   UNL A   1      48.513  33.699  25.488  1.00  0.00    -0.744 OA
ENDBRANCH 100 101
ENDBRANCH  68  93
ENDBRANCH  42  43
ENDBRANCH  35  37
ENDBRANCH  34  35
ENDBRANCH  33  34
ENDBRANCH  32  33
ENDBRANCH  31  32
ENDBRANCH  30  31
ENDBRANCH  29  30
ENDBRANCH   1  29
TORSDOF 26
ENDMDL
MODEL 3
REMARK VINA RESULT:     -10.3      5.010      8.060
REMARK SMILES O=C(CCC(=O)N1CCc2[nH]c3ccc(F)cc3c2C1)OCCOCCOCCOCCOC(=O)c1ccc(-c2c3nc(c(-c4c(F)cc(S(=O)(=O)[O-])cc4F)c4ccc([nH]4)c(-c4c(F)cc(S(=O)(=O)[O-])cc4F)c4nc(c(-c5c(F)cc(S(=O)(=O)[O-])cc5F)c5ccc2[nH]5)C=C4)C=C3)cc1
REMARK SMILES IDX 27 1 26 2 25 3 24 4 23 5 22 6 21 7 2 8 1 9 3 10 4 11 5 12
REMARK SMILES IDX 6 13 7 14 8 15 20 16 9 17 19 18 10 19 18 20 11 21 12 22
REMARK SMILES IDX 17 23 13 25 15 26 14 27 16 28 28 29 29 30 30 31 31 32 32 33
REMARK SMILES IDX 33 34 34 35 35 36 36 37 37 38 101 39 38 40 100 41 39 42
REMARK SMILES IDX 40 43 41 44 94 45 42 46 99 47 93 48 95 49 43 50 98 51 92 52
REMARK SMILES IDX 91 53 44 55 78 56 57 57 77 58 58 59 61 60 76 61 96 62 59 63
REMARK SMILES IDX 60 64 75 66 97 67 62 68 45 69 46 70 55 71 47 72 48 73 54 74
REMARK SMILES IDX 56 75 49 76 50 77 51 78 52 79 53 80 79 81 80 82 89 83 81 84
REMARK SMILES IDX 82 85 88 86 90 87 83 88 84 89 85 90 86 91 87 92 63 93 64 94
REMARK SMILES IDX 73 95 65 96 66 97 72 98 74 99 67 100 68 101 69 102 70 103
REMARK SMILES IDX 71 104
REMARK H PARENT 11 24 95 54 61 65
REMARK Flexibility Score: inf
ROOT
ATOM      1  O   UNL A   1      42.421  18.532  26.776  1.00  0.00    -0.377 OA
ENDROOT
BRANCH   1   2
ATOM      2  C   UNL A   1      42.234  19.927  26.649  1.00  0.00     0.188 C 
BRANCH   2   3
ATOM      3  C   UNL A   1      40.792  20.424  26.901  1.00  0.00     0.188 C 
BRANCH   3   4
ATOM      4  O   UNL A   1      40.630  21.402  27.922  1.00  0.00    -0.376 OA
BRANCH   4   5
ATOM      5  C   UNL A   1      40.357  22.766  27.647  1.00  0.00     0.202 C 
BRANCH   5   6
ATOM      6  C   UNL A   1      39.837  23.133  26.262  1.00  0.00     0.261 C 
BRANCH   6   7
ATOM      7  O   UNL A   1      38.405  23.083  26.200  1.00  0.00    -0.463 OA
BRANCH   7   8
ATOM      8  C   UNL A   1      37.720  22.312  25.328  1.00  0.00     0.306 C 
ATOM      9  O   UNL A   1      37.837  21.088  25.336  1.00  0.00    -0.252 OA
BRANCH   8  10
ATOM     10  C   UNL A   1      36.741  22.998  24.454  1.00  0.00     0.132 C 
BRANCH  10  11
ATOM     11  C   UNL A   1      35.583  22.055  24.209  1.00  0.00     0.112 C 
BRANCH  11  12
ATOM     12  C   UNL A   1      34.499  22.156  25.260  1.00  0.00     0.223 C 
ATOM     13  O   UNL A   1      34.422  21.231  26.075  1.00  0.00    -0.275 OA
BRANCH  12  14
ATOM     14  N   UNL A   1      33.599  23.205  25.272  1.00  0.00    -0.338 N 
ATOM     15  C   UNL A   1      32.359  23.370  24.490  1.00  0.00     0.126 C 
ATOM     16  C   UNL A   1      34.015  24.371  26.050  1.00  0.00     0.157 C 
ATOM     17  C   UNL A   1      31.179  23.811  25.434  1.00  0.00     0.075 C 
ATOM     18  C   UNL A   1      32.943  25.409  26.151  1.00  0.00     0.000 A 
ATOM     19  C   UNL A   1      31.610  25.103  26.031  1.00  0.00     0.023 A 
ATOM     20  C   UNL A   1      33.019  26.819  26.311  1.00  0.00     0.008 A 
ATOM     21  N   UNL A   1      30.888  26.173  26.475  1.00  0.00    -0.358 N 
ATOM     22  C   UNL A   1      31.741  27.245  26.683  1.00  0.00     0.046 A 
ATOM     23  C   UNL A   1      34.075  27.752  26.305  1.00  0.00     0.050 A 
ATOM     24  H   UNL A   1      29.914  26.180  26.625  1.00  0.00     0.166 HD
ATOM     25  C   UNL A   1      31.511  28.536  27.189  1.00  0.00     0.030 A 
ATOM     26  C   UNL A   1      33.863  29.021  26.831  1.00  0.00     0.123 A 
ATOM     27  C   UNL A   1      32.611  29.403  27.291  1.00  0.00     0.041 A 
ATOM     28  F   UNL A   1      34.899  29.861  26.960  1.00  0.00    -0.207 F 
ENDBRANCH  12  14
ENDBRANCH  11  12
ENDBRANCH  10  11
ENDBRANCH   8  10
ENDBRANCH   7   8
ENDBRANCH   6   7
ENDBRANCH   5   6
ENDBRANCH   4   5
ENDBRANCH   3   4
ENDBRANCH   2   3
ENDBRANCH   1   2
BRANCH   1  29
ATOM     29  C   UNL A   1      43.585  18.042  26.133  1.00  0.00     0.188 C 
BRANCH  29  30
ATOM     30  C   UNL A   1      44.104  18.955  24.995  1.00  0.00     0.188 C 
BRANCH  30  31
ATOM     31  O   UNL A   1      45.404  18.719  24.472  1.00  0.00    -0.376 OA
BRANCH  31  32
ATOM     32  C   UNL A   1      46.313  19.807  24.528  1.00  0.00     0.202 C 
BRANCH  32  33
ATOM     33  C   UNL A   1      45.962  21.030  25.420  1.00  0.00     0.261 C 
BRANCH  33  34
ATOM     34  O   UNL A   1      45.910  22.320  24.755  1.00  0.00    -0.460 OA
BRANCH  34  35
ATOM     35  C   UNL A   1      44.702  22.774  24.288  1.00  0.00     0.338 C 
ATOM     36  O   UNL A   1      44.040  22.252  23.430  1.00  0.00    -0.246 OA
BRANCH  35  37
ATOM     37  C   UNL A   1      44.162  23.827  25.240  1.00  0.00     0.060 A 
ATOM     38  C   UNL A   1      43.069  24.651  24.960  1.00  0.00     0.016 A 
ATOM     39  C   UNL A   1      44.963  24.134  26.358  1.00  0.00     0.016 A 
ATOM     40  C   UNL A   1      42.847  25.808  25.739  1.00  0.00     0.010 A 
ATOM     41  C   UNL A   1      44.760  25.306  27.110  1.00  0.00     0.010 A 
ATOM     42  C   UNL A   1      43.708  26.170  26.805  1.00  0.00    -0.014 A 
BRANCH  42  43
ATOM     43  C   UNL A   1      43.287  27.256  27.736  1.00  0.00     0.031 A 
ATOM     44  C   UNL A   1      44.228  28.407  27.713  1.00  0.00     0.074 A 
ATOM     45  C   UNL A   1      42.159  27.426  28.483  1.00  0.00     0.049 A 
ATOM     46  N   UNL A   1      44.796  28.934  28.738  1.00  0.00    -0.248 NA
ATOM     47  C   UNL A   1      44.655  28.987  26.432  1.00  0.00     0.031 C 
ATOM     48  C   UNL A   1      40.938  26.627  28.416  1.00  0.00     0.029 A 
ATOM     49  N   UNL A   1      41.820  28.409  29.410  1.00  0.00    -0.354 N 
ATOM     50  C   UNL A   1      45.543  30.006  28.277  1.00  0.00     0.074 A 
ATOM     51  C   UNL A   1      45.498  29.941  26.838  1.00  0.00     0.031 C 
ATOM     52  C   UNL A   1      39.949  27.242  29.107  1.00  0.00     0.029 A 
ATOM     53  C   UNL A   1      40.461  28.445  29.752  1.00  0.00     0.049 A 
ATOM     54  H   UNL A   1      42.481  29.030  29.793  1.00  0.00     0.167 HD
ATOM     55  C   UNL A   1      46.045  30.929  29.142  1.00  0.00     0.037 A 
ATOM     56  C   UNL A   1      39.755  29.384  30.451  1.00  0.00     0.037 A 
ATOM     57  C   UNL A   1      46.030  30.442  30.501  1.00  0.00     0.049 A 
ATOM     58  C   UNL A   1      40.649  30.257  31.235  1.00  0.00     0.074 A 
ATOM     59  C   UNL A   1      46.450  29.215  30.964  1.00  0.00     0.029 A 
ATOM     60  N   UNL A   1      45.204  30.969  31.482  1.00  0.00    -0.354 N 
ATOM     61  N   UNL A   1      41.096  30.007  32.426  1.00  0.00    -0.248 NA
ATOM     62  C   UNL A   1      41.232  31.420  30.584  1.00  0.00     0.031 C 
ATOM     63  C   UNL A   1      45.391  28.824  31.800  1.00  0.00     0.029 A 
ATOM     64  C   UNL A   1      44.642  29.912  32.184  1.00  0.00     0.049 A 
ATOM     65  H   UNL A   1      45.044  31.925  31.649  1.00  0.00     0.167 HD
ATOM     66  C   UNL A   1      42.342  30.581  32.416  1.00  0.00     0.074 A 
ATOM     67  C   UNL A   1      42.301  31.581  31.361  1.00  0.00     0.031 C 
ATOM     68  C   UNL A   1      43.398  29.903  32.934  1.00  0.00     0.037 A 
BRANCH  55  69
ATOM     69  C   UNL A   1      46.395  32.325  28.777  1.00  0.00     0.058 A 
ATOM     70  C   UNL A   1      45.374  33.228  28.437  1.00  0.00     0.135 A 
ATOM     71  C   UNL A   1      47.715  32.701  28.462  1.00  0.00     0.135 A 
ATOM     72  F   UNL A   1      44.096  32.968  28.751  1.00  0.00    -0.206 F 
ATOM     73  C   UNL A   1      45.635  34.373  27.695  1.00  0.00     0.059 A 
ATOM     74  C   UNL A   1      48.002  33.861  27.758  1.00  0.00     0.059 A 
ATOM     75  F   UNL A   1      48.760  31.906  28.733  1.00  0.00    -0.206 F 
ATOM     76  C   UNL A   1      46.949  34.652  27.322  1.00  0.00     0.060 A 
BRANCH  76  77
ATOM     77  S   UNL A   1      47.252  35.981  26.148  1.00  0.00     0.124 S 
ATOM     78  O   UNL A   1      48.087  36.876  26.941  1.00  0.00    -0.237 OA
ATOM     79  O   UNL A   1      47.920  35.276  25.060  1.00  0.00    -0.237 OA
ATOM     80  O   UNL A   1      45.910  36.472  25.844  1.00  0.00    -0.744 OA
ENDBRANCH  76  77
ENDBRANCH  55  69
BRANCH  56  81
ATOM     81  C   UNL A   1      38.333  29.833  30.345  1.00  0.00     0.058 A 
ATOM     82  C   UNL A   1      37.532  29.989  31.501  1.00  0.00     0.135 A 
ATOM     83  C   UNL A   1      37.908  30.523  29.199  1.00  0.00     0.135 A 
ATOM     84  F   UNL A   1      37.840  29.353  32.640  1.00  0.00    -0.206 F 
ATOM     85  C   UNL A   1      36.461  30.887  31.552  1.00  0.00     0.059 A 
ATOM     86  C   UNL A   1      36.833  31.410  29.223  1.00  0.00     0.059 A 
ATOM     87  F   UNL A   1      38.606  30.453  28.057  1.00  0.00    -0.206 F 
ATOM     88  C   UNL A   1      36.150  31.627  30.416  1.00  0.00     0.060 A 
BRANCH  88  89
ATOM     89  S   UNL A   1      34.951  32.975  30.541  1.00  0.00     0.124 S 
ATOM     90  O   UNL A   1      35.802  34.111  30.876  1.00  0.00    -0.237 OA
ATOM     91  O   UNL A   1      34.364  32.988  29.204  1.00  0.00    -0.237 OA
ATOM     92  O   UNL A   1      34.055  32.532  31.605  1.00  0.00    -0.744 OA
ENDBRANCH  88  89
ENDBRANCH  56  81
BRANCH  68  93
ATOM     93  C   UNL A   1      43.145  28.793  33.982  1.00  0.00     0.058 A 
ATOM     94  C   UNL A   1      43.144  28.958  35.387  1.00  0.00     0.135 A 
ATOM     95  C   UNL A   1      42.758  27.514  33.541  1.00  0.00     0.135 A 
ATOM     96  F   UNL A   1      43.372  30.151  35.952  1.00  0.00    -0.206 F 
ATOM     97  C   UNL A   1      42.770  27.937  36.279  1.00  0.00     0.059 A 
ATOM     98  C   UNL A   1      42.303  26.505  34.413  1.00  0.00     0.059 A 
ATOM     99  F   UNL A   1      42.722  27.245  32.227  1.00  0.00    -0.206 F 
ATOM    100  C   UNL A   1      42.267  26.741  35.784  1.00  0.00     0.060 A 
BRANCH 100 101
ATOM    101  S   UNL A   1      41.352  25.641  36.907  1.00  0.00     0.124 S 
ATOM    102  O   UNL A   1      42.413  24.897  37.575  1.00  0.00    -0.237 OA
ATOM    103  O   UNL A   1      40.627  26.580  37.759  1.00  0.00    -0.237 OA
ATOM    104  O   UNL A   1      40.507  24.860  36.009  1.00  0.00    -0.744 OA
ENDBRANCH 100 101
ENDBRANCH  68  93
ENDBRANCH  42  43
ENDBRANCH  35  37
ENDBRANCH  34  35
ENDBRANCH  33  34
ENDBRANCH  32  33
ENDBRANCH  31  32
ENDBRANCH  30  31
ENDBRANCH  29  30
ENDBRANCH   1  29
TORSDOF 26
ENDMDL
