MODEL 1
REMARK VINA RESULT:      -7.2      0.000      0.000
REMARK SMILES O=C(OCCOCCOCCOCCOC(=O)c1cc(Cl)c2c(c1)[C@H]1C=CC[C@H]1[C@H](c1ccc(S(=O)(=O)N3CCOCC3)cc1)N2)c1ccc(-c2c3nc(c(-c4c(F)cc(S(=O)(=O)[O-])cc4F)c4ccc([nH]4)c(-c4c(F)cc(S(=O)(=O)[O-])cc4F)c4nc(c(-c5c(F)cc(S(=O)(=O)[O-])cc5F)c5ccc2[nH]5)C=C4)C=C3)cc1
REMARK SMILES IDX 9 1 8 2 7 3 6 4 5 5 4 6 3 7 2 8 1 9 47 10 48 11 112 12 49 13
REMARK SMILES IDX 111 14 50 15 51 16 52 17 105 18 53 19 110 20 104 21 106 22
REMARK SMILES IDX 54 23 109 24 103 25 102 26 55 28 89 29 68 30 88 31 69 32
REMARK SMILES IDX 72 33 87 34 107 35 70 36 71 37 86 39 108 40 73 41 56 42
REMARK SMILES IDX 57 43 66 44 58 45 59 46 65 47 67 48 60 49 61 50 62 51 63 52
REMARK SMILES IDX 64 53 90 54 91 55 100 56 92 57 93 58 99 59 101 60 94 61
REMARK SMILES IDX 95 62 96 63 97 64 98 65 74 66 75 67 84 68 76 69 77 70 83 71
REMARK SMILES IDX 85 72 78 73 79 74 80 75 81 76 82 77 10 78 11 79 12 80 13 81
REMARK SMILES IDX 14 82 15 83 16 84 17 85 18 86 19 87 24 88 20 89 23 90 21 91
REMARK SMILES IDX 22 92 25 93 46 94 26 95 29 96 30 97 27 99 28 100 31 101
REMARK SMILES IDX 32 102 45 103 33 104 44 105 34 106 35 107 36 108 37 109
REMARK SMILES IDX 38 110 39 111 43 112 40 113 42 114 41 115
REMARK H PARENT 106 27 72 38 46 98
REMARK Flexibility Score: inf
ROOT
ATOM      1  O   UNL A   1      53.684  28.733  22.063  1.00  0.00    -0.377 OA
ENDROOT
BRANCH   1   2
ATOM      2  C   UNL A   1      54.126  27.390  22.059  1.00  0.00     0.188 C 
BRANCH   2   3
ATOM      3  C   UNL A   1      54.606  26.817  23.390  1.00  0.00     0.188 C 
BRANCH   3   4
ATOM      4  O   UNL A   1      55.714  27.502  23.970  1.00  0.00    -0.376 OA
BRANCH   4   5
ATOM      5  C   UNL A   1      55.634  27.715  25.371  1.00  0.00     0.202 C 
BRANCH   5   6
ATOM      6  C   UNL A   1      54.458  28.625  25.717  1.00  0.00     0.261 C 
BRANCH   6   7
ATOM      7  O   UNL A   1      53.513  27.960  26.575  1.00  0.00    -0.460 OA
BRANCH   7   8
ATOM      8  C   UNL A   1      52.290  27.434  26.336  1.00  0.00     0.338 C 
ATOM      9  O   UNL A   1      52.128  26.891  25.241  1.00  0.00    -0.246 OA
BRANCH   8  10
ATOM     10  C   UNL A   1      51.100  27.491  27.255  1.00  0.00     0.060 A 
ATOM     11  C   UNL A   1      49.766  27.242  26.920  1.00  0.00     0.016 A 
ATOM     12  C   UNL A   1      51.371  27.824  28.600  1.00  0.00     0.016 A 
ATOM     13  C   UNL A   1      48.744  27.319  27.869  1.00  0.00     0.010 A 
ATOM     14  C   UNL A   1      50.349  27.964  29.546  1.00  0.00     0.010 A 
ATOM     15  C   UNL A   1      49.025  27.747  29.166  1.00  0.00    -0.014 A 
BRANCH  15  16
ATOM     16  C   UNL A   1      47.906  28.262  29.980  1.00  0.00     0.031 A 
ATOM     17  C   UNL A   1      47.297  27.308  30.972  1.00  0.00     0.074 A 
ATOM     18  C   UNL A   1      47.500  29.539  29.900  1.00  0.00     0.049 A 
ATOM     19  N   UNL A   1      46.390  27.526  31.884  1.00  0.00    -0.248 NA
ATOM     20  C   UNL A   1      47.818  25.926  30.961  1.00  0.00     0.031 C 
ATOM     21  C   UNL A   1      48.080  30.562  29.030  1.00  0.00     0.029 A 
ATOM     22  N   UNL A   1      46.504  30.196  30.575  1.00  0.00    -0.354 N 
ATOM     23  C   UNL A   1      46.277  26.332  32.587  1.00  0.00     0.074 A 
ATOM     24  C   UNL A   1      47.183  25.384  31.987  1.00  0.00     0.031 C 
ATOM     25  C   UNL A   1      47.414  31.717  29.214  1.00  0.00     0.029 A 
ATOM     26  C   UNL A   1      46.353  31.508  30.198  1.00  0.00     0.049 A 
ATOM     27  H   UNL A   1      45.949  29.766  31.266  1.00  0.00     0.167 HD
ATOM     28  C   UNL A   1      45.478  26.051  33.640  1.00  0.00     0.037 A 
ATOM     29  C   UNL A   1      45.444  32.420  30.598  1.00  0.00     0.037 A 
ATOM     30  C   UNL A   1      44.496  26.963  34.149  1.00  0.00     0.049 A 
ATOM     31  C   UNL A   1      44.432  32.020  31.642  1.00  0.00     0.074 A 
ATOM     32  C   UNL A   1      43.564  26.757  35.147  1.00  0.00     0.029 A 
ATOM     33  N   UNL A   1      44.294  28.246  33.662  1.00  0.00    -0.354 N 
ATOM     34  N   UNL A   1      44.337  30.894  32.311  1.00  0.00    -0.248 NA
ATOM     35  C   UNL A   1      43.395  33.006  31.979  1.00  0.00     0.031 C 
ATOM     36  C   UNL A   1      42.762  27.900  35.227  1.00  0.00     0.029 A 
ATOM     37  C   UNL A   1      43.228  28.835  34.313  1.00  0.00     0.049 A 
ATOM     38  H   UNL A   1      44.833  28.675  32.958  1.00  0.00     0.167 HD
ATOM     39  C   UNL A   1      43.244  31.040  33.158  1.00  0.00     0.074 A 
ATOM     40  C   UNL A   1      42.714  32.370  32.925  1.00  0.00     0.031 C 
ATOM     41  C   UNL A   1      42.724  30.161  34.051  1.00  0.00     0.037 A 
BRANCH  28  42
ATOM     42  C   UNL A   1      45.609  24.689  34.251  1.00  0.00     0.058 A 
ATOM     43  C   UNL A   1      46.378  24.483  35.408  1.00  0.00     0.135 A 
ATOM     44  C   UNL A   1      44.981  23.577  33.670  1.00  0.00     0.135 A 
ATOM     45  F   UNL A   1      47.029  25.507  35.981  1.00  0.00    -0.206 F 
ATOM     46  C   UNL A   1      46.525  23.215  35.963  1.00  0.00     0.059 A 
ATOM     47  C   UNL A   1      45.101  22.304  34.218  1.00  0.00     0.059 A 
ATOM     48  F   UNL A   1      44.257  23.722  32.549  1.00  0.00    -0.206 F 
ATOM     49  C   UNL A   1      45.883  22.133  35.360  1.00  0.00     0.060 A 
BRANCH  49  50
ATOM     50  S   UNL A   1      46.091  20.495  36.091  1.00  0.00     0.124 S 
ATOM     51  O   UNL A   1      45.753  20.754  37.487  1.00  0.00    -0.237 OA
ATOM     52  O   UNL A   1      45.125  19.697  35.343  1.00  0.00    -0.237 OA
ATOM     53  O   UNL A   1      47.493  20.182  35.833  1.00  0.00    -0.744 OA
ENDBRANCH  49  50
ENDBRANCH  28  42
BRANCH  29  54
ATOM     54  C   UNL A   1      45.432  33.780  29.995  1.00  0.00     0.058 A 
ATOM     55  C   UNL A   1      46.187  34.827  30.543  1.00  0.00     0.135 A 
ATOM     56  C   UNL A   1      44.662  34.060  28.854  1.00  0.00     0.135 A 
ATOM     57  F   UNL A   1      46.928  34.617  31.641  1.00  0.00    -0.206 F 
ATOM     58  C   UNL A   1      46.180  36.102  29.983  1.00  0.00     0.059 A 
ATOM     59  C   UNL A   1      44.654  35.321  28.265  1.00  0.00     0.059 A 
ATOM     60  F   UNL A   1      43.921  33.094  28.290  1.00  0.00    -0.206 F 
ATOM     61  C   UNL A   1      45.413  36.338  28.840  1.00  0.00     0.060 A 
BRANCH  61  62
ATOM     62  S   UNL A   1      45.453  37.982  28.092  1.00  0.00     0.124 S 
ATOM     63  O   UNL A   1      44.079  38.127  27.622  1.00  0.00    -0.237 OA
ATOM     64  O   UNL A   1      45.834  38.822  29.223  1.00  0.00    -0.237 OA
ATOM     65  O   UNL A   1      46.465  37.852  27.048  1.00  0.00    -0.744 OA
ENDBRANCH  61  62
ENDBRANCH  29  54
BRANCH  41  66
ATOM     66  C   UNL A   1      41.527  30.597  34.843  1.00  0.00     0.058 A 
ATOM     67  C   UNL A   1      41.662  31.391  35.991  1.00  0.00     0.135 A 
ATOM     68  C   UNL A   1      40.231  30.313  34.384  1.00  0.00     0.135 A 
ATOM     69  F   UNL A   1      42.881  31.686  36.470  1.00  0.00    -0.206 F 
ATOM     70  C   UNL A   1      40.549  31.888  36.660  1.00  0.00     0.059 A 
ATOM     71  C   UNL A   1      39.106  30.819  35.023  1.00  0.00     0.059 A 
ATOM     72  F   UNL A   1      40.053  29.568  33.280  1.00  0.00    -0.206 F 
ATOM     73  C   UNL A   1      39.275  31.604  36.163  1.00  0.00     0.060 A 
BRANCH  73  74
ATOM     74  S   UNL A   1      37.844  32.316  37.000  1.00  0.00     0.124 S 
ATOM     75  O   UNL A   1      38.442  33.455  37.687  1.00  0.00    -0.237 OA
ATOM     76  O   UNL A   1      36.960  32.641  35.885  1.00  0.00    -0.237 OA
ATOM     77  O   UNL A   1      37.382  31.233  37.864  1.00  0.00    -0.744 OA
ENDBRANCH  73  74
ENDBRANCH  41  66
ENDBRANCH  15  16
ENDBRANCH   8  10
ENDBRANCH   7   8
ENDBRANCH   6   7
ENDBRANCH   5   6
ENDBRANCH   4   5
ENDBRANCH   3   4
ENDBRANCH   2   3
ENDBRANCH   1   2
BRANCH   1  78
ATOM     78  C   UNL A   1      52.401  29.037  22.593  1.00  0.00     0.188 C 
BRANCH  78  79
ATOM     79  C   UNL A   1      51.125  29.078  21.734  1.00  0.00     0.188 C 
BRANCH  79  80
ATOM     80  O   UNL A   1      50.519  27.813  21.510  1.00  0.00    -0.376 OA
BRANCH  80  81
ATOM     81  C   UNL A   1      49.870  27.247  22.645  1.00  0.00     0.202 C 
BRANCH  81  82
ATOM     82  C   UNL A   1      48.362  27.504  22.619  1.00  0.00     0.261 C 
BRANCH  82  83
ATOM     83  O   UNL A   1      47.727  27.547  23.910  1.00  0.00    -0.460 OA
BRANCH  83  84
ATOM     84  C   UNL A   1      47.134  26.421  24.367  1.00  0.00     0.338 C 
ATOM     85  O   UNL A   1      47.515  25.273  24.241  1.00  0.00    -0.246 OA
BRANCH  84  86
ATOM     86  C   UNL A   1      45.986  26.839  25.201  1.00  0.00     0.062 A 
ATOM     87  C   UNL A   1      45.951  28.115  25.755  1.00  0.00     0.038 A 
ATOM     88  C   UNL A   1      45.002  25.897  25.529  1.00  0.00     0.022 A 
ATOM     89  C   UNL A   1      44.908  28.447  26.616  1.00  0.00     0.065 A 
ATOM     90  C   UNL A   1      44.003  26.206  26.472  1.00  0.00    -0.015 A 
ATOM     91  Cl  UNL A   1      44.872  30.056  27.263  1.00  0.00    -0.082 Cl
ATOM     92  C   UNL A   1      43.923  27.505  26.991  1.00  0.00     0.057 A 
ATOM     93  C   UNL A   1      43.058  25.132  26.935  1.00  0.00     0.049 C 
ATOM     94  N   UNL A   1      42.859  27.877  27.794  1.00  0.00    -0.376 N 
ATOM     95  C   UNL A   1      43.568  24.261  28.058  1.00  0.00    -0.023 C 
ATOM     96  C   UNL A   1      41.741  25.654  27.536  1.00  0.00     0.031 C 
ATOM     97  C   UNL A   1      41.959  26.917  28.405  1.00  0.00     0.114 C 
ATOM     98  H   UNL A   1      42.705  28.835  27.957  1.00  0.00     0.161 HD
ATOM     99  C   UNL A   1      42.566  23.883  28.864  1.00  0.00    -0.030 C 
ATOM    100  C   UNL A   1      41.266  24.474  28.411  1.00  0.00     0.034 C 
BRANCH  97 101
ATOM    101  C   UNL A   1      40.636  27.627  28.668  1.00  0.00    -0.025 A 
ATOM    102  C   UNL A   1      40.010  27.541  29.926  1.00  0.00     0.007 A 
ATOM    103  C   UNL A   1      40.023  28.382  27.656  1.00  0.00     0.007 A 
ATOM    104  C   UNL A   1      38.825  28.229  30.183  1.00  0.00     0.022 A 
ATOM    105  C   UNL A   1      38.822  29.049  27.903  1.00  0.00     0.022 A 
ATOM    106  C   UNL A   1      38.246  29.000  29.174  1.00  0.00     0.082 A 
BRANCH 106 107
ATOM    107  S   UNL A   1      36.785  29.952  29.522  1.00  0.00     0.243 S 
ATOM    108  O   UNL A   1      36.092  30.142  28.275  1.00  0.00    -0.207 OA
ATOM    109  O   UNL A   1      36.136  29.330  30.667  1.00  0.00    -0.207 OA
BRANCH 107 110
ATOM    110  N   UNL A   1      37.387  31.422  30.052  1.00  0.00    -0.193 NA
ATOM    111  C   UNL A   1      38.778  31.843  29.799  1.00  0.00     0.131 C 
ATOM    112  C   UNL A   1      36.643  32.260  31.012  1.00  0.00     0.131 C 
ATOM    113  C   UNL A   1      39.513  32.192  31.100  1.00  0.00     0.177 C 
ATOM    114  C   UNL A   1      37.484  32.486  32.271  1.00  0.00     0.177 C 
ATOM    115  O   UNL A   1      38.753  33.072  31.939  1.00  0.00    -0.379 OA
ENDBRANCH 107 110
ENDBRANCH 106 107
ENDBRANCH  97 101
ENDBRANCH  84  86
ENDBRANCH  83  84
ENDBRANCH  82  83
ENDBRANCH  81  82
ENDBRANCH  80  81
ENDBRANCH  79  80
ENDBRANCH  78  79
ENDBRANCH   1  78
TORSDOF 26
ENDMDL
MODEL 2
REMARK VINA RESULT:      -7.1      3.918      8.394
REMARK SMILES O=C(OCCOCCOCCOCCOC(=O)c1cc(Cl)c2c(c1)[C@H]1C=CC[C@H]1[C@H](c1ccc(S(=O)(=O)N3CCOCC3)cc1)N2)c1ccc(-c2c3nc(c(-c4c(F)cc(S(=O)(=O)[O-])cc4F)c4ccc([nH]4)c(-c4c(F)cc(S(=O)(=O)[O-])cc4F)c4nc(c(-c5c(F)cc(S(=O)(=O)[O-])cc5F)c5ccc2[nH]5)C=C4)C=C3)cc1
REMARK SMILES IDX 9 1 8 2 7 3 6 4 5 5 4 6 3 7 2 8 1 9 47 10 48 11 112 12 49 13
REMARK SMILES IDX 111 14 50 15 51 16 52 17 105 18 53 19 110 20 104 21 106 22
REMARK SMILES IDX 54 23 109 24 103 25 102 26 55 28 89 29 68 30 88 31 69 32
REMARK SMILES IDX 72 33 87 34 107 35 70 36 71 37 86 39 108 40 73 41 56 42
REMARK SMILES IDX 57 43 66 44 58 45 59 46 65 47 67 48 60 49 61 50 62 51 63 52
REMARK SMILES IDX 64 53 90 54 91 55 100 56 92 57 93 58 99 59 101 60 94 61
REMARK SMILES IDX 95 62 96 63 97 64 98 65 74 66 75 67 84 68 76 69 77 70 83 71
REMARK SMILES IDX 85 72 78 73 79 74 80 75 81 76 82 77 10 78 11 79 12 80 13 81
REMARK SMILES IDX 14 82 15 83 16 84 17 85 18 86 19 87 24 88 20 89 23 90 21 91
REMARK SMILES IDX 22 92 25 93 46 94 26 95 29 96 30 97 27 99 28 100 31 101
REMARK SMILES IDX 32 102 45 103 33 104 44 105 34 106 35 107 36 108 37 109
REMARK SMILES IDX 38 110 39 111 43 112 40 113 42 114 41 115
REMARK H PARENT 106 27 72 38 46 98
REMARK Flexibility Score: inf
ROOT
ATOM      1  O   UNL A   1      48.049  25.236  26.194  1.00  0.00    -0.377 OA
ENDROOT
BRANCH   1   2
ATOM      2  C   UNL A   1      47.507  24.596  27.331  1.00  0.00     0.188 C 
BRANCH   2   3
ATOM      3  C   UNL A   1      46.128  23.961  27.175  1.00  0.00     0.188 C 
BRANCH   3   4
ATOM      4  O   UNL A   1      46.137  22.642  26.631  1.00  0.00    -0.376 OA
BRANCH   4   5
ATOM      5  C   UNL A   1      46.027  22.565  25.217  1.00  0.00     0.202 C 
BRANCH   5   6
ATOM      6  C   UNL A   1      44.570  22.397  24.793  1.00  0.00     0.261 C 
BRANCH   6   7
ATOM      7  O   UNL A   1      43.692  22.360  25.933  1.00  0.00    -0.460 OA
BRANCH   7   8
ATOM      8  C   UNL A   1      42.482  22.919  26.160  1.00  0.00     0.338 C 
ATOM      9  O   UNL A   1      41.504  22.316  25.713  1.00  0.00    -0.246 OA
BRANCH   8  10
ATOM     10  C   UNL A   1      42.220  24.225  26.861  1.00  0.00     0.060 A 
ATOM     11  C   UNL A   1      42.950  25.410  26.732  1.00  0.00     0.016 A 
ATOM     12  C   UNL A   1      41.110  24.249  27.733  1.00  0.00     0.016 A 
ATOM     13  C   UNL A   1      42.603  26.567  27.433  1.00  0.00     0.010 A 
ATOM     14  C   UNL A   1      40.787  25.383  28.486  1.00  0.00     0.010 A 
ATOM     15  C   UNL A   1      41.564  26.535  28.362  1.00  0.00    -0.014 A 
BRANCH  15  16
ATOM     16  C   UNL A   1      41.530  27.590  29.395  1.00  0.00     0.031 A 
ATOM     17  C   UNL A   1      42.632  27.567  30.420  1.00  0.00     0.074 A 
ATOM     18  C   UNL A   1      40.612  28.569  29.378  1.00  0.00     0.049 A 
ATOM     19  N   UNL A   1      42.909  28.429  31.359  1.00  0.00    -0.248 NA
ATOM     20  C   UNL A   1      43.578  26.435  30.345  1.00  0.00     0.031 C 
ATOM     21  C   UNL A   1      39.555  28.724  28.380  1.00  0.00     0.029 A 
ATOM     22  N   UNL A   1      40.432  29.628  30.230  1.00  0.00    -0.354 N 
ATOM     23  C   UNL A   1      44.087  27.976  31.943  1.00  0.00     0.074 A 
ATOM     24  C   UNL A   1      44.462  26.753  31.276  1.00  0.00     0.031 C 
ATOM     25  C   UNL A   1      38.823  29.812  28.688  1.00  0.00     0.029 A 
ATOM     26  C   UNL A   1      39.349  30.412  29.913  1.00  0.00     0.049 A 
ATOM     27  H   UNL A   1      41.023  29.809  30.995  1.00  0.00     0.167 HD
ATOM     28  C   UNL A   1      44.790  28.531  32.953  1.00  0.00     0.037 A 
ATOM     29  C   UNL A   1      38.843  31.482  30.559  1.00  0.00     0.037 A 
ATOM     30  C   UNL A   1      44.343  29.679  33.687  1.00  0.00     0.049 A 
ATOM     31  C   UNL A   1      39.539  31.969  31.805  1.00  0.00     0.074 A 
ATOM     32  C   UNL A   1      44.920  30.275  34.791  1.00  0.00     0.029 A 
ATOM     33  N   UNL A   1      43.178  30.379  33.409  1.00  0.00    -0.354 N 
ATOM     34  N   UNL A   1      40.658  31.543  32.345  1.00  0.00    -0.248 NA
ATOM     35  C   UNL A   1      38.902  33.073  32.539  1.00  0.00     0.031 C 
ATOM     36  C   UNL A   1      44.072  31.305  35.214  1.00  0.00     0.029 A 
ATOM     37  C   UNL A   1      42.996  31.381  34.342  1.00  0.00     0.049 A 
ATOM     38  H   UNL A   1      42.571  30.191  32.656  1.00  0.00     0.167 HD
ATOM     39  C   UNL A   1      40.868  32.334  33.469  1.00  0.00     0.074 A 
ATOM     40  C   UNL A   1      39.764  33.273  33.528  1.00  0.00     0.031 C 
ATOM     41  C   UNL A   1      41.880  32.295  34.372  1.00  0.00     0.037 A 
BRANCH  28  42
ATOM     42  C   UNL A   1      46.073  27.859  33.343  1.00  0.00     0.058 A 
ATOM     43  C   UNL A   1      46.126  26.971  34.429  1.00  0.00     0.135 A 
ATOM     44  C   UNL A   1      47.260  28.116  32.642  1.00  0.00     0.135 A 
ATOM     45  F   UNL A   1      45.025  26.720  35.155  1.00  0.00    -0.206 F 
ATOM     46  C   UNL A   1      47.319  26.366  34.812  1.00  0.00     0.059 A 
ATOM     47  C   UNL A   1      48.461  27.510  32.997  1.00  0.00     0.059 A 
ATOM     48  F   UNL A   1      47.263  28.978  31.613  1.00  0.00    -0.206 F 
ATOM     49  C   UNL A   1      48.481  26.643  34.089  1.00  0.00     0.060 A 
BRANCH  49  50
ATOM     50  S   UNL A   1      50.020  25.854  34.605  1.00  0.00     0.124 S 
ATOM     51  O   UNL A   1      49.723  25.514  35.993  1.00  0.00    -0.237 OA
ATOM     52  O   UNL A   1      50.115  24.726  33.683  1.00  0.00    -0.237 OA
ATOM     53  O   UNL A   1      51.020  26.900  34.416  1.00  0.00    -0.744 OA
ENDBRANCH  49  50
ENDBRANCH  28  42
BRANCH  29  54
ATOM     54  C   UNL A   1      37.606  32.142  30.060  1.00  0.00     0.058 A 
ATOM     55  C   UNL A   1      36.337  31.604  30.319  1.00  0.00     0.135 A 
ATOM     56  C   UNL A   1      37.670  33.329  29.313  1.00  0.00     0.135 A 
ATOM     57  F   UNL A   1      36.222  30.464  31.016  1.00  0.00    -0.206 F 
ATOM     58  C   UNL A   1      35.176  32.217  29.855  1.00  0.00     0.059 A 
ATOM     59  C   UNL A   1      36.523  33.971  28.854  1.00  0.00     0.059 A 
ATOM     60  F   UNL A   1      38.858  33.886  29.036  1.00  0.00    -0.206 F 
ATOM     61  C   UNL A   1      35.279  33.404  29.127  1.00  0.00     0.060 A 
BRANCH  61  62
ATOM     62  S   UNL A   1      33.764  34.219  28.575  1.00  0.00     0.124 S 
ATOM     63  O   UNL A   1      33.091  33.139  27.861  1.00  0.00    -0.237 OA
ATOM     64  O   UNL A   1      33.158  34.623  29.840  1.00  0.00    -0.237 OA
ATOM     65  O   UNL A   1      34.254  35.314  27.745  1.00  0.00    -0.744 OA
ENDBRANCH  61  62
ENDBRANCH  29  54
BRANCH  41  66
ATOM     66  C   UNL A   1      41.850  33.285  35.498  1.00  0.00     0.058 A 
ATOM     67  C   UNL A   1      42.473  34.537  35.385  1.00  0.00     0.135 A 
ATOM     68  C   UNL A   1      41.095  33.024  36.652  1.00  0.00     0.135 A 
ATOM     69  F   UNL A   1      43.208  34.831  34.300  1.00  0.00    -0.206 F 
ATOM     70  C   UNL A   1      42.350  35.498  36.382  1.00  0.00     0.059 A 
ATOM     71  C   UNL A   1      40.939  33.979  37.650  1.00  0.00     0.059 A 
ATOM     72  F   UNL A   1      40.469  31.845  36.799  1.00  0.00    -0.206 F 
ATOM     73  C   UNL A   1      41.573  35.212  37.508  1.00  0.00     0.060 A 
BRANCH  73  74
ATOM     74  S   UNL A   1      41.365  36.496  38.759  1.00  0.00     0.124 S 
ATOM     75  O   UNL A   1      42.563  37.301  38.556  1.00  0.00    -0.237 OA
ATOM     76  O   UNL A   1      40.107  37.119  38.360  1.00  0.00    -0.237 OA
ATOM     77  O   UNL A   1      41.316  35.745  40.010  1.00  0.00    -0.744 OA
ENDBRANCH  73  74
ENDBRANCH  41  66
ENDBRANCH  15  16
ENDBRANCH   8  10
ENDBRANCH   7   8
ENDBRANCH   6   7
ENDBRANCH   5   6
ENDBRANCH   4   5
ENDBRANCH   3   4
ENDBRANCH   2   3
ENDBRANCH   1   2
BRANCH   1  78
ATOM     78  C   UNL A   1      48.197  26.648  26.199  1.00  0.00     0.188 C 
BRANCH  78  79
ATOM     79  C   UNL A   1      49.052  27.401  27.233  1.00  0.00     0.188 C 
BRANCH  79  80
ATOM     80  O   UNL A   1      49.542  28.660  26.796  1.00  0.00    -0.376 OA
BRANCH  80  81
ATOM     81  C   UNL A   1      50.321  29.369  27.757  1.00  0.00     0.202 C 
BRANCH  81  82
ATOM     82  C   UNL A   1      49.444  29.996  28.842  1.00  0.00     0.261 C 
BRANCH  82  83
ATOM     83  O   UNL A   1      48.606  31.080  28.401  1.00  0.00    -0.460 OA
BRANCH  83  84
ATOM     84  C   UNL A   1      47.266  30.921  28.474  1.00  0.00     0.338 C 
ATOM     85  O   UNL A   1      46.603  29.981  28.079  1.00  0.00    -0.246 OA
BRANCH  84  86
ATOM     86  C   UNL A   1      46.735  32.045  29.274  1.00  0.00     0.062 A 
ATOM     87  C   UNL A   1      46.876  32.046  30.659  1.00  0.00     0.038 A 
ATOM     88  C   UNL A   1      45.981  33.040  28.638  1.00  0.00     0.022 A 
ATOM     89  C   UNL A   1      46.279  33.068  31.396  1.00  0.00     0.065 A 
ATOM     90  C   UNL A   1      45.302  34.015  29.393  1.00  0.00    -0.015 A 
ATOM     91  Cl  UNL A   1      46.502  33.062  33.115  1.00  0.00    -0.082 Cl
ATOM     92  C   UNL A   1      45.485  34.063  30.782  1.00  0.00     0.057 A 
ATOM     93  C   UNL A   1      44.367  34.972  28.707  1.00  0.00     0.049 C 
ATOM     94  N   UNL A   1      44.959  35.105  31.525  1.00  0.00    -0.376 N 
ATOM     95  C   UNL A   1      42.965  34.457  28.483  1.00  0.00    -0.023 C 
ATOM     96  C   UNL A   1      44.088  36.268  29.488  1.00  0.00     0.031 C 
ATOM     97  C   UNL A   1      43.950  36.010  31.009  1.00  0.00     0.114 C 
ATOM     98  H   UNL A   1      45.284  35.238  32.444  1.00  0.00     0.161 HD
ATOM     99  C   UNL A   1      42.069  35.450  28.573  1.00  0.00    -0.030 C 
ATOM    100  C   UNL A   1      42.744  36.747  28.899  1.00  0.00     0.034 C 
BRANCH  97 101
ATOM    101  C   UNL A   1      44.058  37.315  31.790  1.00  0.00    -0.025 A 
ATOM    102  C   UNL A   1      43.200  37.580  32.873  1.00  0.00     0.007 A 
ATOM    103  C   UNL A   1      45.021  38.274  31.439  1.00  0.00     0.007 A 
ATOM    104  C   UNL A   1      43.329  38.750  33.619  1.00  0.00     0.022 A 
ATOM    105  C   UNL A   1      45.133  39.460  32.166  1.00  0.00     0.022 A 
ATOM    106  C   UNL A   1      44.313  39.678  33.274  1.00  0.00     0.082 A 
BRANCH 106 107
ATOM    107  S   UNL A   1      44.544  41.130  34.275  1.00  0.00     0.243 S 
ATOM    108  O   UNL A   1      44.332  40.743  35.644  1.00  0.00    -0.207 OA
ATOM    109  O   UNL A   1      45.788  41.750  33.842  1.00  0.00    -0.207 OA
BRANCH 107 110
ATOM    110  N   UNL A   1      43.307  42.147  33.787  1.00  0.00    -0.193 NA
ATOM    111  C   UNL A   1      42.535  41.918  32.550  1.00  0.00     0.131 C 
ATOM    112  C   UNL A   1      43.088  43.459  34.427  1.00  0.00     0.131 C 
ATOM    113  C   UNL A   1      42.575  43.137  31.620  1.00  0.00     0.177 C 
ATOM    114  C   UNL A   1      43.198  44.575  33.385  1.00  0.00     0.177 C 
ATOM    115  O   UNL A   1      42.276  44.359  32.306  1.00  0.00    -0.379 OA
ENDBRANCH 107 110
ENDBRANCH 106 107
ENDBRANCH  97 101
ENDBRANCH  84  86
ENDBRANCH  83  84
ENDBRANCH  82  83
ENDBRANCH  81  82
ENDBRANCH  80  81
ENDBRANCH  79  80
ENDBRANCH  78  79
ENDBRANCH   1  78
TORSDOF 26
ENDMDL
MODEL 3
REMARK VINA RESULT:      -6.8      5.557     12.242
REMARK SMILES O=C(OCCOCCOCCOCCOC(=O)c1cc(Cl)c2c(c1)[C@H]1C=CC[C@H]1[C@H](c1ccc(S(=O)(=O)N3CCOCC3)cc1)N2)c1ccc(-c2c3nc(c(-c4c(F)cc(S(=O)(=O)[O-])cc4F)c4ccc([nH]4)c(-c4c(F)cc(S(=O)(=O)[O-])cc4F)c4nc(c(-c5c(F)cc(S(=O)(=O)[O-])cc5F)c5ccc2[nH]5)C=C4)C=C3)cc1
REMARK SMILES IDX 9 1 8 2 7 3 6 4 5 5 4 6 3 7 2 8 1 9 47 10 48 11 112 12 49 13
REMARK SMILES IDX 111 14 50 15 51 16 52 17 105 18 53 19 110 20 104 21 106 22
REMARK SMILES IDX 54 23 109 24 103 25 102 26 55 28 89 29 68 30 88 31 69 32
REMARK SMILES IDX 72 33 87 34 107 35 70 36 71 37 86 39 108 40 73 41 56 42
REMARK SMILES IDX 57 43 66 44 58 45 59 46 65 47 67 48 60 49 61 50 62 51 63 52
REMARK SMILES IDX 64 53 90 54 91 55 100 56 92 57 93 58 99 59 101 60 94 61
REMARK SMILES IDX 95 62 96 63 97 64 98 65 74 66 75 67 84 68 76 69 77 70 83 71
REMARK SMILES IDX 85 72 78 73 79 74 80 75 81 76 82 77 10 78 11 79 12 80 13 81
REMARK SMILES IDX 14 82 15 83 16 84 17 85 18 86 19 87 24 88 20 89 23 90 21 91
REMARK SMILES IDX 22 92 25 93 46 94 26 95 29 96 30 97 27 99 28 100 31 101
REMARK SMILES IDX 32 102 45 103 33 104 44 105 34 106 35 107 36 108 37 109
REMARK SMILES IDX 38 110 39 111 43 112 40 113 42 114 41 115
REMARK H PARENT 106 27 72 38 46 98
REMARK Flexibility Score: inf
ROOT
ATOM      1  O   UNL A   1      34.025  28.062  26.368  1.00  0.00    -0.377 OA
ENDROOT
BRANCH   1   2
ATOM      2  C   UNL A   1      33.471  29.316  26.022  1.00  0.00     0.188 C 
BRANCH   2   3
ATOM      3  C   UNL A   1      33.621  30.442  27.042  1.00  0.00     0.188 C 
BRANCH   3   4
ATOM      4  O   UNL A   1      34.718  30.290  27.941  1.00  0.00    -0.376 OA
BRANCH   4   5
ATOM      5  C   UNL A   1      35.755  31.250  27.804  1.00  0.00     0.202 C 
BRANCH   5   6
ATOM      6  C   UNL A   1      35.406  32.536  28.549  1.00  0.00     0.261 C 
BRANCH   6   7
ATOM      7  O   UNL A   1      36.019  32.572  29.851  1.00  0.00    -0.460 OA
BRANCH   7   8
ATOM      8  C   UNL A   1      35.792  33.346  30.936  1.00  0.00     0.338 C 
ATOM      9  O   UNL A   1      34.861  34.151  30.854  1.00  0.00    -0.246 OA
BRANCH   8  10
ATOM     10  C   UNL A   1      36.593  33.354  32.210  1.00  0.00     0.060 A 
ATOM     11  C   UNL A   1      37.352  34.411  32.720  1.00  0.00     0.016 A 
ATOM     12  C   UNL A   1      36.562  32.164  32.969  1.00  0.00     0.016 A 
ATOM     13  C   UNL A   1      38.050  34.300  33.924  1.00  0.00     0.010 A 
ATOM     14  C   UNL A   1      37.305  32.019  34.146  1.00  0.00     0.010 A 
ATOM     15  C   UNL A   1      38.084  33.082  34.603  1.00  0.00    -0.014 A 
BRANCH  15  16
ATOM     16  C   UNL A   1      39.174  32.864  35.574  1.00  0.00     0.031 A 
ATOM     17  C   UNL A   1      38.810  32.964  37.032  1.00  0.00     0.074 A 
ATOM     18  C   UNL A   1      40.410  32.515  35.186  1.00  0.00     0.049 A 
ATOM     19  N   UNL A   1      39.533  32.710  38.087  1.00  0.00    -0.248 NA
ATOM     20  C   UNL A   1      37.422  33.367  37.338  1.00  0.00     0.031 C 
ATOM     21  C   UNL A   1      40.840  32.311  33.803  1.00  0.00     0.029 A 
ATOM     22  N   UNL A   1      41.533  32.258  35.930  1.00  0.00    -0.354 N 
ATOM     23  C   UNL A   1      38.676  32.864  39.170  1.00  0.00     0.074 A 
ATOM     24  C   UNL A   1      37.388  33.258  38.655  1.00  0.00     0.031 C 
ATOM     25  C   UNL A   1      42.144  31.976  33.798  1.00  0.00     0.029 A 
ATOM     26  C   UNL A   1      42.640  31.962  35.173  1.00  0.00     0.049 A 
ATOM     27  H   UNL A   1      41.543  32.284  36.914  1.00  0.00     0.167 HD
ATOM     28  C   UNL A   1      38.945  32.696  40.483  1.00  0.00     0.037 A 
ATOM     29  C   UNL A   1      43.910  31.726  35.562  1.00  0.00     0.037 A 
ATOM     30  C   UNL A   1      40.259  32.423  40.990  1.00  0.00     0.049 A 
ATOM     31  C   UNL A   1      44.228  31.735  37.036  1.00  0.00     0.074 A 
ATOM     32  C   UNL A   1      40.673  32.327  42.304  1.00  0.00     0.029 A 
ATOM     33  N   UNL A   1      41.381  32.244  40.195  1.00  0.00    -0.354 N 
ATOM     34  N   UNL A   1      43.411  31.870  38.055  1.00  0.00    -0.248 NA
ATOM     35  C   UNL A   1      45.639  31.575  37.417  1.00  0.00     0.031 C 
ATOM     36  C   UNL A   1      42.060  32.144  42.304  1.00  0.00     0.029 A 
ATOM     37  C   UNL A   1      42.499  32.074  40.989  1.00  0.00     0.049 A 
ATOM     38  H   UNL A   1      41.381  32.237  39.210  1.00  0.00     0.167 HD
ATOM     39  C   UNL A   1      44.203  31.794  39.196  1.00  0.00     0.074 A 
ATOM     40  C   UNL A   1      45.565  31.592  38.742  1.00  0.00     0.031 C 
ATOM     41  C   UNL A   1      43.842  31.880  40.501  1.00  0.00     0.037 A 
BRANCH  28  42
ATOM     42  C   UNL A   1      37.804  32.865  41.441  1.00  0.00     0.058 A 
ATOM     43  C   UNL A   1      37.020  31.769  41.837  1.00  0.00     0.135 A 
ATOM     44  C   UNL A   1      37.477  34.129  41.952  1.00  0.00     0.135 A 
ATOM     45  F   UNL A   1      37.269  30.545  41.348  1.00  0.00    -0.206 F 
ATOM     46  C   UNL A   1      35.943  31.925  42.704  1.00  0.00     0.059 A 
ATOM     47  C   UNL A   1      36.414  34.306  42.832  1.00  0.00     0.059 A 
ATOM     48  F   UNL A   1      38.181  35.210  41.581  1.00  0.00    -0.206 F 
ATOM     49  C   UNL A   1      35.648  33.198  43.195  1.00  0.00     0.060 A 
BRANCH  49  50
ATOM     50  S   UNL A   1      34.243  33.382  44.313  1.00  0.00     0.124 S 
ATOM     51  O   UNL A   1      33.279  32.456  43.725  1.00  0.00    -0.237 OA
ATOM     52  O   UNL A   1      34.810  32.976  45.594  1.00  0.00    -0.237 OA
ATOM     53  O   UNL A   1      33.900  34.797  44.201  1.00  0.00    -0.744 OA
ENDBRANCH  49  50
ENDBRANCH  28  42
BRANCH  29  54
ATOM     54  C   UNL A   1      44.972  31.489  34.547  1.00  0.00     0.058 A 
ATOM     55  C   UNL A   1      45.586  32.554  33.871  1.00  0.00     0.135 A 
ATOM     56  C   UNL A   1      45.396  30.187  34.232  1.00  0.00     0.135 A 
ATOM     57  F   UNL A   1      45.207  33.816  34.125  1.00  0.00    -0.206 F 
ATOM     58  C   UNL A   1      46.579  32.339  32.920  1.00  0.00     0.059 A 
ATOM     59  C   UNL A   1      46.401  29.948  33.300  1.00  0.00     0.059 A 
ATOM     60  F   UNL A   1      44.842  29.132  34.848  1.00  0.00    -0.206 F 
ATOM     61  C   UNL A   1      46.985  31.031  32.645  1.00  0.00     0.060 A 
BRANCH  61  62
ATOM     62  S   UNL A   1      48.312  30.767  31.448  1.00  0.00     0.124 S 
ATOM     63  O   UNL A   1      47.771  31.416  30.259  1.00  0.00    -0.237 OA
ATOM     64  O   UNL A   1      49.437  31.441  32.089  1.00  0.00    -0.237 OA
ATOM     65  O   UNL A   1      48.419  29.313  31.379  1.00  0.00    -0.744 OA
ENDBRANCH  61  62
ENDBRANCH  29  54
BRANCH  41  66
ATOM     66  C   UNL A   1      44.923  31.757  41.533  1.00  0.00     0.058 A 
ATOM     67  C   UNL A   1      45.313  30.507  42.035  1.00  0.00     0.135 A 
ATOM     68  C   UNL A   1      45.650  32.888  41.937  1.00  0.00     0.135 A 
ATOM     69  F   UNL A   1      44.646  29.397  41.680  1.00  0.00    -0.206 F 
ATOM     70  C   UNL A   1      46.390  30.383  42.907  1.00  0.00     0.059 A 
ATOM     71  C   UNL A   1      46.744  32.784  42.787  1.00  0.00     0.059 A 
ATOM     72  F   UNL A   1      45.322  34.105  41.471  1.00  0.00    -0.206 F 
ATOM     73  C   UNL A   1      47.105  31.526  43.270  1.00  0.00     0.060 A 
BRANCH  73  74
ATOM     74  S   UNL A   1      48.543  31.339  44.344  1.00  0.00     0.124 S 
ATOM     75  O   UNL A   1      48.060  30.364  45.314  1.00  0.00    -0.237 OA
ATOM     76  O   UNL A   1      49.563  30.859  43.417  1.00  0.00    -0.237 OA
ATOM     77  O   UNL A   1      48.759  32.687  44.860  1.00  0.00    -0.744 OA
ENDBRANCH  73  74
ENDBRANCH  41  66
ENDBRANCH  15  16
ENDBRANCH   8  10
ENDBRANCH   7   8
ENDBRANCH   6   7
ENDBRANCH   5   6
ENDBRANCH   4   5
ENDBRANCH   3   4
ENDBRANCH   2   3
ENDBRANCH   1   2
BRANCH   1  78
ATOM     78  C   UNL A   1      33.236  26.891  26.212  1.00  0.00     0.188 C 
BRANCH  78  79
ATOM     79  C   UNL A   1      33.722  25.643  25.455  1.00  0.00     0.188 C 
BRANCH  79  80
ATOM     80  O   UNL A   1      33.025  24.447  25.770  1.00  0.00    -0.376 OA
BRANCH  80  81
ATOM     81  C   UNL A   1      33.780  23.484  26.500  1.00  0.00     0.202 C 
BRANCH  81  82
ATOM     82  C   UNL A   1      34.744  22.717  25.594  1.00  0.00     0.261 C 
BRANCH  82  83
ATOM     83  O   UNL A   1      36.139  22.999  25.807  1.00  0.00    -0.460 OA
BRANCH  83  84
ATOM     84  C   UNL A   1      37.020  21.981  25.691  1.00  0.00     0.338 C 
ATOM     85  O   UNL A   1      36.806  20.849  25.300  1.00  0.00    -0.246 OA
BRANCH  84  86
ATOM     86  C   UNL A   1      38.363  22.528  25.982  1.00  0.00     0.062 A 
ATOM     87  C   UNL A   1      39.462  21.679  26.063  1.00  0.00     0.038 A 
ATOM     88  C   UNL A   1      38.492  23.887  26.300  1.00  0.00     0.022 A 
ATOM     89  C   UNL A   1      40.696  22.208  26.437  1.00  0.00     0.065 A 
ATOM     90  C   UNL A   1      39.717  24.398  26.767  1.00  0.00    -0.015 A 
ATOM     91  Cl  UNL A   1      42.054  21.132  26.495  1.00  0.00    -0.082 Cl
ATOM     92  C   UNL A   1      40.845  23.567  26.797  1.00  0.00     0.057 A 
ATOM     93  C   UNL A   1      39.794  25.817  27.260  1.00  0.00     0.049 C 
ATOM     94  N   UNL A   1      42.092  24.084  27.099  1.00  0.00    -0.376 N 
ATOM     95  C   UNL A   1      39.387  26.025  28.699  1.00  0.00    -0.023 C 
ATOM     96  C   UNL A   1      41.209  26.420  27.260  1.00  0.00     0.031 C 
ATOM     97  C   UNL A   1      42.278  25.391  27.702  1.00  0.00     0.114 C 
ATOM     98  H   UNL A   1      42.888  23.543  26.896  1.00  0.00     0.161 HD
ATOM     99  C   UNL A   1      40.103  27.007  29.263  1.00  0.00    -0.030 C 
ATOM    100  C   UNL A   1      41.102  27.561  28.294  1.00  0.00     0.034 C 
BRANCH  97 101
ATOM    101  C   UNL A   1      43.677  25.873  27.334  1.00  0.00    -0.025 A 
ATOM    102  C   UNL A   1      44.131  25.820  26.003  1.00  0.00     0.007 A 
ATOM    103  C   UNL A   1      44.535  26.381  28.321  1.00  0.00     0.007 A 
ATOM    104  C   UNL A   1      45.391  26.305  25.656  1.00  0.00     0.022 A 
ATOM    105  C   UNL A   1      45.809  26.841  27.982  1.00  0.00     0.022 A 
ATOM    106  C   UNL A   1      46.218  26.835  26.648  1.00  0.00     0.082 A 
BRANCH 106 107
ATOM    107  S   UNL A   1      47.789  27.538  26.200  1.00  0.00     0.243 S 
ATOM    108  O   UNL A   1      47.643  28.111  24.888  1.00  0.00    -0.207 OA
ATOM    109  O   UNL A   1      48.236  28.334  27.334  1.00  0.00    -0.207 OA
BRANCH 107 110
ATOM    110  N   UNL A   1      48.807  26.211  26.115  1.00  0.00    -0.193 NA
ATOM    111  C   UNL A   1      48.826  25.162  27.152  1.00  0.00     0.131 C 
ATOM    112  C   UNL A   1      49.912  26.147  25.139  1.00  0.00     0.131 C 
ATOM    113  C   UNL A   1      50.230  24.962  27.735  1.00  0.00     0.177 C 
ATOM    114  C   UNL A   1      51.248  25.989  25.869  1.00  0.00     0.177 C 
ATOM    115  O   UNL A   1      51.232  24.831  26.718  1.00  0.00    -0.379 OA
ENDBRANCH 107 110
ENDBRANCH 106 107
ENDBRANCH  97 101
ENDBRANCH  84  86
ENDBRANCH  83  84
ENDBRANCH  82  83
ENDBRANCH  81  82
ENDBRANCH  80  81
ENDBRANCH  79  80
ENDBRANCH  78  79
ENDBRANCH   1  78
TORSDOF 26
ENDMDL
