MODEL 1
REMARK VINA RESULT:      -9.8      0.000      0.000
REMARK SMILES O=C(COc1cccc(/C=C2/SC(=S)N(NC(=O)c3ccccc3F)C2=O)c1)OCCOCCOCCOCCOC(=O)c1ccc(-c2c3nc(c(-c4c(F)cc(S(=O)(=O)[O-])cc4F)c4ccc([nH]4)c(-c4c(F)cc(S(=O)(=O)[O-])cc4F)c4nc(c(-c5c(F)cc(S(=O)(=O)[O-])cc5F)c5ccc2[nH]5)C=C4)C=C3)cc1
REMARK SMILES IDX 34 1 33 2 32 3 31 4 30 5 29 6 2 7 1 8 3 9 4 10 5 11 6 12
REMARK SMILES IDX 28 13 7 14 9 15 8 16 10 17 11 18 12 19 26 20 13 21 15 22
REMARK SMILES IDX 27 23 14 24 16 25 17 26 18 28 19 29 20 30 24 31 21 32 23 33
REMARK SMILES IDX 25 34 22 35 35 36 36 37 37 38 38 39 39 40 40 41 41 42 42 43
REMARK SMILES IDX 43 44 44 45 45 46 109 47 46 48 108 49 47 50 48 51 49 52
REMARK SMILES IDX 102 53 50 54 107 55 101 56 103 57 51 58 106 59 100 60 99 61
REMARK SMILES IDX 52 63 86 64 65 65 85 66 66 67 69 68 84 69 104 70 67 71 68 72
REMARK SMILES IDX 83 74 105 75 70 76 53 77 54 78 63 79 55 80 56 81 62 82 64 83
REMARK SMILES IDX 57 84 58 85 59 86 60 87 61 88 87 89 88 90 97 91 89 92 90 93
REMARK SMILES IDX 96 94 98 95 91 96 92 97 93 98 94 99 95 100 71 101 72 102
REMARK SMILES IDX 81 103 73 104 74 105 80 106 82 107 75 108 76 109 77 110
REMARK SMILES IDX 78 111 79 112
REMARK H PARENT 16 27 103 62 69 73
REMARK Flexibility Score: inf
ROOT
ATOM      1  C   UNL A   1      38.994  21.391  25.833  1.00  0.00     0.188 C 
ENDROOT
BRANCH   1   2
ATOM      2  C   UNL A   1      37.597  21.207  25.196  1.00  0.00     0.188 C 
BRANCH   2   3
ATOM      3  O   UNL A   1      37.220  20.041  24.462  1.00  0.00    -0.376 OA
BRANCH   3   4
ATOM      4  C   UNL A   1      37.083  18.786  25.104  1.00  0.00     0.202 C 
BRANCH   4   5
ATOM      5  C   UNL A   1      35.907  17.909  24.693  1.00  0.00     0.261 C 
BRANCH   5   6
ATOM      6  O   UNL A   1      35.598  16.823  25.578  1.00  0.00    -0.461 OA
BRANCH   6   7
ATOM      7  C   UNL A   1      34.577  15.963  25.410  1.00  0.00     0.344 C 
ATOM      8  O   UNL A   1      34.814  14.785  25.133  1.00  0.00    -0.248 OA
BRANCH   7   9
ATOM      9  C   UNL A   1      33.137  16.458  25.526  1.00  0.00     0.351 C 
BRANCH   9  10
ATOM     10  O   UNL A   1      32.766  17.740  25.984  1.00  0.00    -0.482 OA
BRANCH  10  11
ATOM     11  C   UNL A   1      32.717  18.747  25.062  1.00  0.00     0.120 A 
ATOM     12  C   UNL A   1      32.134  18.408  23.844  1.00  0.00     0.046 A 
ATOM     13  C   UNL A   1      33.312  19.999  25.205  1.00  0.00     0.054 A 
ATOM     14  C   UNL A   1      32.142  19.317  22.785  1.00  0.00     0.004 A 
ATOM     15  C   UNL A   1      33.444  20.863  24.116  1.00  0.00    -0.021 A 
ATOM     16  C   UNL A   1      32.810  20.538  22.916  1.00  0.00     0.008 A 
BRANCH  15  17
ATOM     17  C   UNL A   1      34.300  22.055  24.218  1.00  0.00     0.029 C 
ATOM     18  C   UNL A   1      33.910  23.255  24.689  1.00  0.00     0.082 C 
ATOM     19  S   UNL A   1      34.994  24.582  24.901  1.00  0.00    -0.052 SA
ATOM     20  C   UNL A   1      32.552  23.664  25.166  1.00  0.00     0.285 C 
ATOM     21  C   UNL A   1      33.790  25.547  25.757  1.00  0.00     0.168 C 
ATOM     22  N   UNL A   1      32.640  24.803  25.934  1.00  0.00    -0.198 N 
ATOM     23  O   UNL A   1      31.518  23.109  24.833  1.00  0.00    -0.266 OA
ATOM     24  S   UNL A   1      34.012  27.146  26.157  1.00  0.00    -0.050 S 
BRANCH  22  25
ATOM     25  N   UNL A   1      31.525  25.377  26.584  1.00  0.00    -0.254 N 
ATOM     26  C   UNL A   1      30.567  26.260  26.122  1.00  0.00     0.273 C 
ATOM     27  H   UNL A   1      31.410  25.102  27.522  1.00  0.00     0.192 HD
ATOM     28  O   UNL A   1      29.651  26.570  26.890  1.00  0.00    -0.267 OA
BRANCH  26  29
ATOM     29  C   UNL A   1      30.605  26.958  24.818  1.00  0.00     0.077 A 
ATOM     30  C   UNL A   1      30.933  28.327  24.837  1.00  0.00     0.017 A 
ATOM     31  C   UNL A   1      30.358  26.350  23.591  1.00  0.00     0.136 A 
ATOM     32  C   UNL A   1      31.124  29.034  23.647  1.00  0.00     0.001 A 
ATOM     33  C   UNL A   1      30.577  27.044  22.399  1.00  0.00     0.040 A 
ATOM     34  F   UNL A   1      29.958  25.073  23.516  1.00  0.00    -0.206 F 
ATOM     35  C   UNL A   1      30.981  28.380  22.426  1.00  0.00     0.003 A 
ENDBRANCH  26  29
ENDBRANCH  22  25
ENDBRANCH  15  17
ENDBRANCH  10  11
ENDBRANCH   9  10
ENDBRANCH   7   9
ENDBRANCH   6   7
ENDBRANCH   5   6
ENDBRANCH   4   5
ENDBRANCH   3   4
ENDBRANCH   2   3
ENDBRANCH   1   2
BRANCH   1  36
ATOM     36  O   UNL A   1      39.901  20.314  25.636  1.00  0.00    -0.377 OA
BRANCH  36  37
ATOM     37  C   UNL A   1      40.907  20.185  26.634  1.00  0.00     0.188 C 
BRANCH  37  38
ATOM     38  C   UNL A   1      42.265  19.698  26.102  1.00  0.00     0.188 C 
BRANCH  38  39
ATOM     39  O   UNL A   1      42.933  20.710  25.360  1.00  0.00    -0.376 OA
BRANCH  39  40
ATOM     40  C   UNL A   1      44.108  21.285  25.906  1.00  0.00     0.202 C 
BRANCH  40  41
ATOM     41  C   UNL A   1      44.244  22.803  25.737  1.00  0.00     0.261 C 
BRANCH  41  42
ATOM     42  O   UNL A   1      43.554  23.607  26.704  1.00  0.00    -0.460 OA
BRANCH  42  43
ATOM     43  C   UNL A   1      42.318  24.058  26.395  1.00  0.00     0.338 C 
ATOM     44  O   UNL A   1      41.510  23.529  25.652  1.00  0.00    -0.246 OA
BRANCH  43  45
ATOM     45  C   UNL A   1      42.030  25.186  27.310  1.00  0.00     0.060 A 
ATOM     46  C   UNL A   1      42.856  26.318  27.283  1.00  0.00     0.016 A 
ATOM     47  C   UNL A   1      40.903  25.155  28.136  1.00  0.00     0.016 A 
ATOM     48  C   UNL A   1      42.563  27.419  28.091  1.00  0.00     0.010 A 
ATOM     49  C   UNL A   1      40.629  26.242  28.965  1.00  0.00     0.010 A 
ATOM     50  C   UNL A   1      41.468  27.369  28.962  1.00  0.00    -0.014 A 
BRANCH  50  51
ATOM     51  C   UNL A   1      41.301  28.387  30.025  1.00  0.00     0.031 A 
ATOM     52  C   UNL A   1      42.146  28.247  31.262  1.00  0.00     0.074 A 
ATOM     53  C   UNL A   1      40.387  29.369  29.923  1.00  0.00     0.049 A 
ATOM     54  N   UNL A   1      42.083  28.900  32.389  1.00  0.00    -0.248 NA
ATOM     55  C   UNL A   1      43.204  27.220  31.221  1.00  0.00     0.031 C 
ATOM     56  C   UNL A   1      39.545  29.629  28.757  1.00  0.00     0.029 A 
ATOM     57  N   UNL A   1      39.995  30.316  30.839  1.00  0.00    -0.354 N 
ATOM     58  C   UNL A   1      43.069  28.351  33.200  1.00  0.00     0.074 A 
ATOM     59  C   UNL A   1      43.718  27.309  32.438  1.00  0.00     0.031 C 
ATOM     60  C   UNL A   1      38.707  30.643  29.041  1.00  0.00     0.029 A 
ATOM     61  C   UNL A   1      38.924  31.073  30.421  1.00  0.00     0.049 A 
ATOM     62  H   UNL A   1      40.438  30.442  31.709  1.00  0.00     0.167 HD
ATOM     63  C   UNL A   1      43.395  28.684  34.469  1.00  0.00     0.037 A 
ATOM     64  C   UNL A   1      38.181  31.974  31.097  1.00  0.00     0.037 A 
ATOM     65  C   UNL A   1      42.748  29.730  35.213  1.00  0.00     0.049 A 
ATOM     66  C   UNL A   1      38.525  32.278  32.537  1.00  0.00     0.074 A 
ATOM     67  C   UNL A   1      43.045  30.186  36.484  1.00  0.00     0.029 A 
ATOM     68  N   UNL A   1      41.665  30.467  34.762  1.00  0.00    -0.354 N 
ATOM     69  N   UNL A   1      39.499  31.795  33.275  1.00  0.00    -0.248 NA
ATOM     70  C   UNL A   1      37.667  33.243  33.241  1.00  0.00     0.031 C 
ATOM     71  C   UNL A   1      42.100  31.157  36.827  1.00  0.00     0.029 A 
ATOM     72  C   UNL A   1      41.250  31.345  35.747  1.00  0.00     0.049 A 
ATOM     73  H   UNL A   1      41.251  30.380  33.873  1.00  0.00     0.167 HD
ATOM     74  C   UNL A   1      39.380  32.412  34.518  1.00  0.00     0.074 A 
ATOM     75  C   UNL A   1      38.253  33.316  34.429  1.00  0.00     0.031 C 
ATOM     76  C   UNL A   1      40.132  32.245  35.634  1.00  0.00     0.037 A 
BRANCH  63  77
ATOM     77  C   UNL A   1      44.474  27.896  35.154  1.00  0.00     0.058 A 
ATOM     78  C   UNL A   1      45.813  28.311  35.150  1.00  0.00     0.135 A 
ATOM     79  C   UNL A   1      44.142  26.752  35.897  1.00  0.00     0.135 A 
ATOM     80  F   UNL A   1      46.187  29.385  34.435  1.00  0.00    -0.206 F 
ATOM     81  C   UNL A   1      46.787  27.622  35.863  1.00  0.00     0.059 A 
ATOM     82  C   UNL A   1      45.095  26.059  36.636  1.00  0.00     0.059 A 
ATOM     83  F   UNL A   1      42.876  26.305  35.921  1.00  0.00    -0.206 F 
ATOM     84  C   UNL A   1      46.417  26.502  36.612  1.00  0.00     0.060 A 
BRANCH  84  85
ATOM     85  S   UNL A   1      47.683  25.655  37.580  1.00  0.00     0.124 S 
ATOM     86  O   UNL A   1      48.845  26.507  37.348  1.00  0.00    -0.237 OA
ATOM     87  O   UNL A   1      47.124  25.700  38.927  1.00  0.00    -0.237 OA
ATOM     88  O   UNL A   1      47.747  24.330  36.973  1.00  0.00    -0.744 OA
ENDBRANCH  84  85
ENDBRANCH  63  77
BRANCH  64  89
ATOM     89  C   UNL A   1      36.996  32.616  30.459  1.00  0.00     0.058 A 
ATOM     90  C   UNL A   1      37.090  33.875  29.852  1.00  0.00     0.135 A 
ATOM     91  C   UNL A   1      35.729  32.011  30.509  1.00  0.00     0.135 A 
ATOM     92  F   UNL A   1      38.273  34.506  29.796  1.00  0.00    -0.206 F 
ATOM     93  C   UNL A   1      35.970  34.529  29.347  1.00  0.00     0.059 A 
ATOM     94  C   UNL A   1      34.596  32.634  29.990  1.00  0.00     0.059 A 
ATOM     95  F   UNL A   1      35.582  30.802  31.073  1.00  0.00    -0.206 F 
ATOM     96  C   UNL A   1      34.724  33.902  29.424  1.00  0.00     0.060 A 
BRANCH  96  97
ATOM     97  S   UNL A   1      33.279  34.785  28.793  1.00  0.00     0.124 S 
ATOM     98  O   UNL A   1      32.537  35.052  30.021  1.00  0.00    -0.237 OA
ATOM     99  O   UNL A   1      33.891  35.946  28.154  1.00  0.00    -0.237 OA
ATOM    100  O   UNL A   1      32.656  33.827  27.888  1.00  0.00    -0.744 OA
ENDBRANCH  96  97
ENDBRANCH  64  89
BRANCH  76 101
ATOM    101  C   UNL A   1      39.783  33.066  36.846  1.00  0.00     0.058 A 
ATOM    102  C   UNL A   1      38.799  32.651  37.754  1.00  0.00     0.135 A 
ATOM    103  C   UNL A   1      40.505  34.233  37.146  1.00  0.00     0.135 A 
ATOM    104  F   UNL A   1      38.077  31.545  37.512  1.00  0.00    -0.206 F 
ATOM    105  C   UNL A   1      38.535  33.370  38.916  1.00  0.00     0.059 A 
ATOM    106  C   UNL A   1      40.276  34.952  38.315  1.00  0.00     0.059 A 
ATOM    107  F   UNL A   1      41.465  34.667  36.315  1.00  0.00    -0.206 F 
ATOM    108  C   UNL A   1      39.284  34.515  39.192  1.00  0.00     0.060 A 
BRANCH 108 109
ATOM    109  S   UNL A   1      38.972  35.402  40.732  1.00  0.00     0.124 S 
ATOM    110  O   UNL A   1      38.699  36.751  40.246  1.00  0.00    -0.237 OA
ATOM    111  O   UNL A   1      37.827  34.682  41.282  1.00  0.00    -0.237 OA
ATOM    112  O   UNL A   1      40.220  35.245  41.476  1.00  0.00    -0.744 OA
ENDBRANCH 108 109
ENDBRANCH  76 101
ENDBRANCH  50  51
ENDBRANCH  43  45
ENDBRANCH  42  43
ENDBRANCH  41  42
ENDBRANCH  40  41
ENDBRANCH  39  40
ENDBRANCH  38  39
ENDBRANCH  37  38
ENDBRANCH  36  37
ENDBRANCH   1  36
TORSDOF 28
ENDMDL
MODEL 2
REMARK VINA RESULT:      -9.6      1.698      7.763
REMARK SMILES O=C(COc1cccc(/C=C2/SC(=S)N(NC(=O)c3ccccc3F)C2=O)c1)OCCOCCOCCOCCOC(=O)c1ccc(-c2c3nc(c(-c4c(F)cc(S(=O)(=O)[O-])cc4F)c4ccc([nH]4)c(-c4c(F)cc(S(=O)(=O)[O-])cc4F)c4nc(c(-c5c(F)cc(S(=O)(=O)[O-])cc5F)c5ccc2[nH]5)C=C4)C=C3)cc1
REMARK SMILES IDX 34 1 33 2 32 3 31 4 30 5 29 6 2 7 1 8 3 9 4 10 5 11 6 12
REMARK SMILES IDX 28 13 7 14 9 15 8 16 10 17 11 18 12 19 26 20 13 21 15 22
REMARK SMILES IDX 27 23 14 24 16 25 17 26 18 28 19 29 20 30 24 31 21 32 23 33
REMARK SMILES IDX 25 34 22 35 35 36 36 37 37 38 38 39 39 40 40 41 41 42 42 43
REMARK SMILES IDX 43 44 44 45 45 46 109 47 46 48 108 49 47 50 48 51 49 52
REMARK SMILES IDX 102 53 50 54 107 55 101 56 103 57 51 58 106 59 100 60 99 61
REMARK SMILES IDX 52 63 86 64 65 65 85 66 66 67 69 68 84 69 104 70 67 71 68 72
REMARK SMILES IDX 83 74 105 75 70 76 53 77 54 78 63 79 55 80 56 81 62 82 64 83
REMARK SMILES IDX 57 84 58 85 59 86 60 87 61 88 87 89 88 90 97 91 89 92 90 93
REMARK SMILES IDX 96 94 98 95 91 96 92 97 93 98 94 99 95 100 71 101 72 102
REMARK SMILES IDX 81 103 73 104 74 105 80 106 82 107 75 108 76 109 77 110
REMARK SMILES IDX 78 111 79 112
REMARK H PARENT 16 27 103 62 69 73
REMARK Flexibility Score: inf
ROOT
ATOM      1  C   UNL A   1      38.314  22.184  25.847  1.00  0.00     0.188 C 
ENDROOT
BRANCH   1   2
ATOM      2  C   UNL A   1      37.087  21.915  24.945  1.00  0.00     0.188 C 
BRANCH   2   3
ATOM      3  O   UNL A   1      36.829  20.651  24.331  1.00  0.00    -0.376 OA
BRANCH   3   4
ATOM      4  C   UNL A   1      36.470  19.522  25.107  1.00  0.00     0.202 C 
BRANCH   4   5
ATOM      5  C   UNL A   1      35.626  18.445  24.437  1.00  0.00     0.261 C 
BRANCH   5   6
ATOM      6  O   UNL A   1      35.740  17.126  24.991  1.00  0.00    -0.461 OA
BRANCH   6   7
ATOM      7  C   UNL A   1      34.826  16.150  24.841  1.00  0.00     0.344 C 
ATOM      8  O   UNL A   1      35.008  15.059  25.385  1.00  0.00    -0.248 OA
BRANCH   7   9
ATOM      9  C   UNL A   1      33.593  16.388  23.972  1.00  0.00     0.351 C 
BRANCH   9  10
ATOM     10  O   UNL A   1      32.419  17.036  24.410  1.00  0.00    -0.482 OA
BRANCH  10  11
ATOM     11  C   UNL A   1      32.297  18.369  24.136  1.00  0.00     0.120 A 
ATOM     12  C   UNL A   1      32.202  18.690  22.785  1.00  0.00     0.046 A 
ATOM     13  C   UNL A   1      32.398  19.395  25.073  1.00  0.00     0.054 A 
ATOM     14  C   UNL A   1      32.201  20.025  22.379  1.00  0.00     0.004 A 
ATOM     15  C   UNL A   1      32.532  20.726  24.672  1.00  0.00    -0.021 A 
ATOM     16  C   UNL A   1      32.381  21.043  23.321  1.00  0.00     0.008 A 
BRANCH  15  17
ATOM     17  C   UNL A   1      32.900  21.759  25.652  1.00  0.00     0.029 C 
ATOM     18  C   UNL A   1      32.439  23.024  25.660  1.00  0.00     0.082 C 
ATOM     19  S   UNL A   1      32.811  24.157  26.910  1.00  0.00    -0.052 SA
ATOM     20  C   UNL A   1      31.505  23.674  24.688  1.00  0.00     0.285 C 
ATOM     21  C   UNL A   1      31.650  25.341  26.308  1.00  0.00     0.168 C 
ATOM     22  N   UNL A   1      30.955  24.809  25.239  1.00  0.00    -0.198 N 
ATOM     23  O   UNL A   1      31.342  23.290  23.541  1.00  0.00    -0.266 OA
ATOM     24  S   UNL A   1      31.536  26.893  26.895  1.00  0.00    -0.050 S 
BRANCH  22  25
ATOM     25  N   UNL A   1      29.978  25.586  24.579  1.00  0.00    -0.254 N 
ATOM     26  C   UNL A   1      30.110  26.615  23.666  1.00  0.00     0.273 C 
ATOM     27  H   UNL A   1      29.049  25.357  24.807  1.00  0.00     0.192 HD
ATOM     28  O   UNL A   1      29.078  27.100  23.191  1.00  0.00    -0.267 OA
BRANCH  26  29
ATOM     29  C   UNL A   1      31.383  27.267  23.288  1.00  0.00     0.077 A 
ATOM     30  C   UNL A   1      32.281  26.509  22.512  1.00  0.00     0.017 A 
ATOM     31  C   UNL A   1      31.735  28.568  23.631  1.00  0.00     0.136 A 
ATOM     32  C   UNL A   1      33.444  27.086  21.996  1.00  0.00     0.001 A 
ATOM     33  C   UNL A   1      32.881  29.158  23.093  1.00  0.00     0.040 A 
ATOM     34  F   UNL A   1      30.962  29.308  24.438  1.00  0.00    -0.206 F 
ATOM     35  C   UNL A   1      33.725  28.425  22.258  1.00  0.00     0.003 A 
ENDBRANCH  26  29
ENDBRANCH  22  25
ENDBRANCH  15  17
ENDBRANCH  10  11
ENDBRANCH   9  10
ENDBRANCH   7   9
ENDBRANCH   6   7
ENDBRANCH   5   6
ENDBRANCH   4   5
ENDBRANCH   3   4
ENDBRANCH   2   3
ENDBRANCH   1   2
BRANCH   1  36
ATOM     36  O   UNL A   1      39.252  21.119  25.934  1.00  0.00    -0.377 OA
BRANCH  36  37
ATOM     37  C   UNL A   1      40.384  21.380  26.756  1.00  0.00     0.188 C 
BRANCH  37  38
ATOM     38  C   UNL A   1      41.735  21.139  26.065  1.00  0.00     0.188 C 
BRANCH  38  39
ATOM     39  O   UNL A   1      42.114  22.241  25.250  1.00  0.00    -0.376 OA
BRANCH  39  40
ATOM     40  C   UNL A   1      43.368  22.857  25.487  1.00  0.00     0.202 C 
BRANCH  40  41
ATOM     41  C   UNL A   1      43.423  24.368  25.229  1.00  0.00     0.261 C 
BRANCH  41  42
ATOM     42  O   UNL A   1      42.666  25.187  26.131  1.00  0.00    -0.460 OA
BRANCH  42  43
ATOM     43  C   UNL A   1      42.574  26.510  25.870  1.00  0.00     0.338 C 
ATOM     44  O   UNL A   1      42.434  27.032  24.778  1.00  0.00    -0.246 OA
BRANCH  43  45
ATOM     45  C   UNL A   1      42.432  27.198  27.173  1.00  0.00     0.060 A 
ATOM     46  C   UNL A   1      41.960  26.477  28.280  1.00  0.00     0.016 A 
ATOM     47  C   UNL A   1      42.834  28.528  27.318  1.00  0.00     0.016 A 
ATOM     48  C   UNL A   1      41.881  27.090  29.533  1.00  0.00     0.010 A 
ATOM     49  C   UNL A   1      42.726  29.148  28.563  1.00  0.00     0.010 A 
ATOM     50  C   UNL A   1      42.229  28.439  29.670  1.00  0.00    -0.014 A 
BRANCH  50  51
ATOM     51  C   UNL A   1      41.886  29.187  30.902  1.00  0.00     0.031 A 
ATOM     52  C   UNL A   1      40.656  30.053  30.871  1.00  0.00     0.074 A 
ATOM     53  C   UNL A   1      42.674  29.148  31.992  1.00  0.00     0.049 A 
ATOM     54  N   UNL A   1      40.229  30.919  31.747  1.00  0.00    -0.248 NA
ATOM     55  C   UNL A   1      39.795  29.926  29.680  1.00  0.00     0.031 C 
ATOM     56  C   UNL A   1      43.863  28.313  32.151  1.00  0.00     0.029 A 
ATOM     57  N   UNL A   1      42.601  29.857  33.166  1.00  0.00    -0.354 N 
ATOM     58  C   UNL A   1      39.068  31.460  31.208  1.00  0.00     0.074 A 
ATOM     59  C   UNL A   1      38.854  30.826  29.927  1.00  0.00     0.031 C 
ATOM     60  C   UNL A   1      44.433  28.588  33.339  1.00  0.00     0.029 A 
ATOM     61  C   UNL A   1      43.673  29.646  34.003  1.00  0.00     0.049 A 
ATOM     62  H   UNL A   1      41.854  30.459  33.388  1.00  0.00     0.167 HD
ATOM     63  C   UNL A   1      38.259  32.406  31.734  1.00  0.00     0.037 A 
ATOM     64  C   UNL A   1      44.019  30.272  35.147  1.00  0.00     0.037 A 
ATOM     65  C   UNL A   1      38.476  33.022  33.015  1.00  0.00     0.049 A 
ATOM     66  C   UNL A   1      43.131  31.374  35.679  1.00  0.00     0.074 A 
ATOM     67  C   UNL A   1      37.682  33.948  33.665  1.00  0.00     0.029 A 
ATOM     68  N   UNL A   1      39.574  32.790  33.828  1.00  0.00    -0.354 N 
ATOM     69  N   UNL A   1      42.002  31.836  35.191  1.00  0.00    -0.248 NA
ATOM     70  C   UNL A   1      43.566  32.047  36.912  1.00  0.00     0.031 C 
ATOM     71  C   UNL A   1      38.331  34.323  34.845  1.00  0.00     0.029 A 
ATOM     72  C   UNL A   1      39.502  33.589  34.955  1.00  0.00     0.049 A 
ATOM     73  H   UNL A   1      40.298  32.152  33.634  1.00  0.00     0.167 HD
ATOM     74  C   UNL A   1      41.586  32.835  36.067  1.00  0.00     0.074 A 
ATOM     75  C   UNL A   1      42.572  32.900  37.124  1.00  0.00     0.031 C 
ATOM     76  C   UNL A   1      40.490  33.631  36.002  1.00  0.00     0.037 A 
BRANCH  63  77
ATOM     77  C   UNL A   1      37.082  32.865  30.923  1.00  0.00     0.058 A 
ATOM     78  C   UNL A   1      37.206  33.834  29.917  1.00  0.00     0.135 A 
ATOM     79  C   UNL A   1      35.828  32.259  31.102  1.00  0.00     0.135 A 
ATOM     80  F   UNL A   1      38.377  34.461  29.721  1.00  0.00    -0.206 F 
ATOM     81  C   UNL A   1      36.128  34.184  29.112  1.00  0.00     0.059 A 
ATOM     82  C   UNL A   1      34.741  32.577  30.294  1.00  0.00     0.059 A 
ATOM     83  F   UNL A   1      35.654  31.335  32.061  1.00  0.00    -0.206 F 
ATOM     84  C   UNL A   1      34.902  33.543  29.301  1.00  0.00     0.060 A 
BRANCH  84  85
ATOM     85  S   UNL A   1      33.530  33.966  28.208  1.00  0.00     0.124 S 
ATOM     86  O   UNL A   1      34.200  34.785  27.203  1.00  0.00    -0.237 OA
ATOM     87  O   UNL A   1      33.077  32.655  27.756  1.00  0.00    -0.237 OA
ATOM     88  O   UNL A   1      32.604  34.680  29.082  1.00  0.00    -0.744 OA
ENDBRANCH  84  85
ENDBRANCH  63  77
BRANCH  64  89
ATOM     89  C   UNL A   1      45.289  29.930  35.848  1.00  0.00     0.058 A 
ATOM     90  C   UNL A   1      45.317  28.987  36.885  1.00  0.00     0.135 A 
ATOM     91  C   UNL A   1      46.488  30.595  35.541  1.00  0.00     0.135 A 
ATOM     92  F   UNL A   1      44.195  28.339  37.233  1.00  0.00    -0.206 F 
ATOM     93  C   UNL A   1      46.476  28.739  37.616  1.00  0.00     0.059 A 
ATOM     94  C   UNL A   1      47.667  30.347  36.242  1.00  0.00     0.059 A 
ATOM     95  F   UNL A   1      46.521  31.503  34.553  1.00  0.00    -0.206 F 
ATOM     96  C   UNL A   1      47.647  29.427  37.289  1.00  0.00     0.060 A 
BRANCH  96  97
ATOM     97  S   UNL A   1      49.129  29.112  38.274  1.00  0.00     0.124 S 
ATOM     98  O   UNL A   1      48.699  29.542  39.601  1.00  0.00    -0.237 OA
ATOM     99  O   UNL A   1      49.308  27.673  38.098  1.00  0.00    -0.237 OA
ATOM    100  O   UNL A   1      50.145  29.950  37.649  1.00  0.00    -0.744 OA
ENDBRANCH  96  97
ENDBRANCH  64  89
BRANCH  76 101
ATOM    101  C   UNL A   1      40.278  34.626  37.110  1.00  0.00     0.058 A 
ATOM    102  C   UNL A   1      40.898  35.884  37.094  1.00  0.00     0.135 A 
ATOM    103  C   UNL A   1      39.374  34.352  38.150  1.00  0.00     0.135 A 
ATOM    104  F   UNL A   1      41.774  36.194  36.125  1.00  0.00    -0.206 F 
ATOM    105  C   UNL A   1      40.638  36.834  38.077  1.00  0.00     0.059 A 
ATOM    106  C   UNL A   1      39.078  35.297  39.127  1.00  0.00     0.059 A 
ATOM    107  F   UNL A   1      38.745  33.168  38.204  1.00  0.00    -0.206 F 
ATOM    108  C   UNL A   1      39.721  36.534  39.085  1.00  0.00     0.060 A 
BRANCH 108 109
ATOM    109  S   UNL A   1      39.346  37.798  40.318  1.00  0.00     0.124 S 
ATOM    110  O   UNL A   1      40.614  38.517  40.397  1.00  0.00    -0.237 OA
ATOM    111  O   UNL A   1      38.243  38.525  39.696  1.00  0.00    -0.237 OA
ATOM    112  O   UNL A   1      38.990  37.024  41.504  1.00  0.00    -0.744 OA
ENDBRANCH 108 109
ENDBRANCH  76 101
ENDBRANCH  50  51
ENDBRANCH  43  45
ENDBRANCH  42  43
ENDBRANCH  41  42
ENDBRANCH  40  41
ENDBRANCH  39  40
ENDBRANCH  38  39
ENDBRANCH  37  38
ENDBRANCH  36  37
ENDBRANCH   1  36
TORSDOF 28
ENDMDL
MODEL 3
REMARK VINA RESULT:      -8.6      8.489     10.632
REMARK SMILES O=C(COc1cccc(/C=C2/SC(=S)N(NC(=O)c3ccccc3F)C2=O)c1)OCCOCCOCCOCCOC(=O)c1ccc(-c2c3nc(c(-c4c(F)cc(S(=O)(=O)[O-])cc4F)c4ccc([nH]4)c(-c4c(F)cc(S(=O)(=O)[O-])cc4F)c4nc(c(-c5c(F)cc(S(=O)(=O)[O-])cc5F)c5ccc2[nH]5)C=C4)C=C3)cc1
REMARK SMILES IDX 34 1 33 2 32 3 31 4 30 5 29 6 2 7 1 8 3 9 4 10 5 11 6 12
REMARK SMILES IDX 28 13 7 14 9 15 8 16 10 17 11 18 12 19 26 20 13 21 15 22
REMARK SMILES IDX 27 23 14 24 16 25 17 26 18 28 19 29 20 30 24 31 21 32 23 33
REMARK SMILES IDX 25 34 22 35 35 36 36 37 37 38 38 39 39 40 40 41 41 42 42 43
REMARK SMILES IDX 43 44 44 45 45 46 109 47 46 48 108 49 47 50 48 51 49 52
REMARK SMILES IDX 102 53 50 54 107 55 101 56 103 57 51 58 106 59 100 60 99 61
REMARK SMILES IDX 52 63 86 64 65 65 85 66 66 67 69 68 84 69 104 70 67 71 68 72
REMARK SMILES IDX 83 74 105 75 70 76 53 77 54 78 63 79 55 80 56 81 62 82 64 83
REMARK SMILES IDX 57 84 58 85 59 86 60 87 61 88 87 89 88 90 97 91 89 92 90 93
REMARK SMILES IDX 96 94 98 95 91 96 92 97 93 98 94 99 95 100 71 101 72 102
REMARK SMILES IDX 81 103 73 104 74 105 80 106 82 107 75 108 76 109 77 110
REMARK SMILES IDX 78 111 79 112
REMARK H PARENT 16 27 103 62 69 73
REMARK Flexibility Score: inf
ROOT
ATOM      1  C   UNL A   1      38.035  21.930  25.748  1.00  0.00     0.188 C 
ENDROOT
BRANCH   1   2
ATOM      2  C   UNL A   1      38.103  20.753  24.748  1.00  0.00     0.188 C 
BRANCH   2   3
ATOM      3  O   UNL A   1      37.490  19.485  24.990  1.00  0.00    -0.376 OA
BRANCH   3   4
ATOM      4  C   UNL A   1      36.084  19.330  24.927  1.00  0.00     0.202 C 
BRANCH   4   5
ATOM      5  C   UNL A   1      35.542  18.051  24.301  1.00  0.00     0.261 C 
BRANCH   5   6
ATOM      6  O   UNL A   1      35.390  16.935  25.191  1.00  0.00    -0.461 OA
BRANCH   6   7
ATOM      7  C   UNL A   1      34.547  15.906  24.992  1.00  0.00     0.344 C 
ATOM      8  O   UNL A   1      34.883  14.770  25.338  1.00  0.00    -0.248 OA
BRANCH   7   9
ATOM      9  C   UNL A   1      33.202  16.142  24.309  1.00  0.00     0.351 C 
BRANCH   9  10
ATOM     10  O   UNL A   1      32.185  16.979  24.814  1.00  0.00    -0.482 OA
BRANCH  10  11
ATOM     11  C   UNL A   1      32.202  18.291  24.434  1.00  0.00     0.120 A 
ATOM     12  C   UNL A   1      32.215  18.510  23.060  1.00  0.00     0.046 A 
ATOM     13  C   UNL A   1      32.345  19.376  25.296  1.00  0.00     0.054 A 
ATOM     14  C   UNL A   1      32.361  19.803  22.556  1.00  0.00     0.004 A 
ATOM     15  C   UNL A   1      32.624  20.654  24.806  1.00  0.00    -0.021 A 
ATOM     16  C   UNL A   1      32.580  20.873  23.429  1.00  0.00     0.008 A 
BRANCH  15  17
ATOM     17  C   UNL A   1      33.029  21.726  25.728  1.00  0.00     0.029 C 
ATOM     18  C   UNL A   1      32.540  22.981  25.725  1.00  0.00     0.082 C 
ATOM     19  S   UNL A   1      32.965  24.161  26.913  1.00  0.00    -0.052 SA
ATOM     20  C   UNL A   1      31.534  23.579  24.794  1.00  0.00     0.285 C 
ATOM     21  C   UNL A   1      31.742  25.301  26.349  1.00  0.00     0.168 C 
ATOM     22  N   UNL A   1      30.994  24.719  25.343  1.00  0.00    -0.198 N 
ATOM     23  O   UNL A   1      31.307  23.154  23.673  1.00  0.00    -0.266 OA
ATOM     24  S   UNL A   1      31.630  26.869  26.892  1.00  0.00    -0.050 S 
BRANCH  22  25
ATOM     25  N   UNL A   1      29.960  25.455  24.722  1.00  0.00    -0.254 N 
ATOM     26  C   UNL A   1      30.011  26.469  23.784  1.00  0.00     0.273 C 
ATOM     27  H   UNL A   1      29.051  25.202  25.004  1.00  0.00     0.192 HD
ATOM     28  O   UNL A   1      28.941  26.913  23.357  1.00  0.00    -0.267 OA
BRANCH  26  29
ATOM     29  C   UNL A   1      31.242  27.149  23.327  1.00  0.00     0.077 A 
ATOM     30  C   UNL A   1      32.172  26.372  22.610  1.00  0.00     0.017 A 
ATOM     31  C   UNL A   1      31.526  28.495  23.542  1.00  0.00     0.136 A 
ATOM     32  C   UNL A   1      33.296  26.960  22.024  1.00  0.00     0.001 A 
ATOM     33  C   UNL A   1      32.631  29.092  22.933  1.00  0.00     0.040 A 
ATOM     34  F   UNL A   1      30.722  29.264  24.290  1.00  0.00    -0.206 F 
ATOM     35  C   UNL A   1      33.505  28.331  22.156  1.00  0.00     0.003 A 
ENDBRANCH  26  29
ENDBRANCH  22  25
ENDBRANCH  15  17
ENDBRANCH  10  11
ENDBRANCH   9  10
ENDBRANCH   7   9
ENDBRANCH   6   7
ENDBRANCH   5   6
ENDBRANCH   4   5
ENDBRANCH   3   4
ENDBRANCH   2   3
ENDBRANCH   1   2
BRANCH   1  36
ATOM     36  O   UNL A   1      39.109  22.004  26.678  1.00  0.00    -0.377 OA
BRANCH  36  37
ATOM     37  C   UNL A   1      40.353  22.421  26.128  1.00  0.00     0.188 C 
BRANCH  37  38
ATOM     38  C   UNL A   1      41.497  21.413  26.321  1.00  0.00     0.188 C 
BRANCH  38  39
ATOM     39  O   UNL A   1      42.549  21.624  25.387  1.00  0.00    -0.376 OA
BRANCH  39  40
ATOM     40  C   UNL A   1      43.690  20.786  25.453  1.00  0.00     0.202 C 
BRANCH  40  41
ATOM     41  C   UNL A   1      45.026  21.458  25.116  1.00  0.00     0.261 C 
BRANCH  41  42
ATOM     42  O   UNL A   1      45.784  21.943  26.233  1.00  0.00    -0.460 OA
BRANCH  42  43
ATOM     43  C   UNL A   1      45.240  22.912  27.002  1.00  0.00     0.338 C 
ATOM     44  O   UNL A   1      44.431  22.766  27.901  1.00  0.00    -0.246 OA
BRANCH  43  45
ATOM     45  C   UNL A   1      45.987  24.159  26.717  1.00  0.00     0.060 A 
ATOM     46  C   UNL A   1      46.792  24.719  27.719  1.00  0.00     0.016 A 
ATOM     47  C   UNL A   1      45.949  24.729  25.442  1.00  0.00     0.016 A 
ATOM     48  C   UNL A   1      47.556  25.857  27.449  1.00  0.00     0.010 A 
ATOM     49  C   UNL A   1      46.688  25.883  25.183  1.00  0.00     0.010 A 
ATOM     50  C   UNL A   1      47.476  26.464  26.190  1.00  0.00    -0.014 A 
BRANCH  50  51
ATOM     51  C   UNL A   1      48.039  27.817  25.966  1.00  0.00     0.031 A 
ATOM     52  C   UNL A   1      49.481  27.910  25.547  1.00  0.00     0.074 A 
ATOM     53  C   UNL A   1      47.312  28.927  26.185  1.00  0.00     0.049 A 
ATOM     54  N   UNL A   1      50.248  28.959  25.442  1.00  0.00    -0.248 NA
ATOM     55  C   UNL A   1      50.149  26.639  25.209  1.00  0.00     0.031 C 
ATOM     56  C   UNL A   1      45.896  28.959  26.549  1.00  0.00     0.029 A 
ATOM     57  N   UNL A   1      47.682  30.250  26.160  1.00  0.00    -0.354 N 
ATOM     58  C   UNL A   1      51.493  28.479  25.052  1.00  0.00     0.074 A 
ATOM     59  C   UNL A   1      51.382  27.043  24.939  1.00  0.00     0.031 C 
ATOM     60  C   UNL A   1      45.527  30.237  26.754  1.00  0.00     0.029 A 
ATOM     61  C   UNL A   1      46.688  31.107  26.576  1.00  0.00     0.049 A 
ATOM     62  H   UNL A   1      48.572  30.556  25.871  1.00  0.00     0.167 HD
ATOM     63  C   UNL A   1      52.627  29.176  24.817  1.00  0.00     0.037 A 
ATOM     64  C   UNL A   1      46.732  32.432  26.827  1.00  0.00     0.037 A 
ATOM     65  C   UNL A   1      52.721  30.607  24.923  1.00  0.00     0.049 A 
ATOM     66  C   UNL A   1      48.032  33.176  26.621  1.00  0.00     0.074 A 
ATOM     67  C   UNL A   1      53.809  31.415  24.648  1.00  0.00     0.029 A 
ATOM     68  N   UNL A   1      51.700  31.438  25.354  1.00  0.00    -0.354 N 
ATOM     69  N   UNL A   1      49.187  32.721  26.194  1.00  0.00    -0.248 NA
ATOM     70  C   UNL A   1      48.037  34.612  26.938  1.00  0.00     0.031 C 
ATOM     71  C   UNL A   1      53.465  32.730  24.972  1.00  0.00     0.029 A 
ATOM     72  C   UNL A   1      52.144  32.747  25.396  1.00  0.00     0.049 A 
ATOM     73  H   UNL A   1      50.792  31.142  25.594  1.00  0.00     0.167 HD
ATOM     74  C   UNL A   1      50.046  33.816  26.173  1.00  0.00     0.074 A 
ATOM     75  C   UNL A   1      49.275  34.960  26.613  1.00  0.00     0.031 C 
ATOM     76  C   UNL A   1      51.356  33.873  25.826  1.00  0.00     0.037 A 
BRANCH  63  77
ATOM     77  C   UNL A   1      53.867  28.413  24.457  1.00  0.00     0.058 A 
ATOM     78  C   UNL A   1      54.236  28.182  23.123  1.00  0.00     0.135 A 
ATOM     79  C   UNL A   1      54.742  27.980  25.466  1.00  0.00     0.135 A 
ATOM     80  F   UNL A   1      53.423  28.553  22.122  1.00  0.00    -0.206 F 
ATOM     81  C   UNL A   1      55.433  27.552  22.802  1.00  0.00     0.059 A 
ATOM     82  C   UNL A   1      55.956  27.368  25.168  1.00  0.00     0.059 A 
ATOM     83  F   UNL A   1      54.429  28.164  26.758  1.00  0.00    -0.206 F 
ATOM     84  C   UNL A   1      56.291  27.158  23.831  1.00  0.00     0.060 A 
BRANCH  84  85
ATOM     85  S   UNL A   1      57.868  26.397  23.394  1.00  0.00     0.124 S 
ATOM     86  O   UNL A   1      57.718  26.221  21.953  1.00  0.00    -0.237 OA
ATOM     87  O   UNL A   1      58.829  27.412  23.811  1.00  0.00    -0.237 OA
ATOM     88  O   UNL A   1      57.882  25.165  24.177  1.00  0.00    -0.744 OA
ENDBRANCH  84  85
ENDBRANCH  63  77
BRANCH  64  89
ATOM     89  C   UNL A   1      45.537  33.145  27.362  1.00  0.00     0.058 A 
ATOM     90  C   UNL A   1      44.632  33.789  26.507  1.00  0.00     0.135 A 
ATOM     91  C   UNL A   1      45.317  33.257  28.744  1.00  0.00     0.135 A 
ATOM     92  F   UNL A   1      44.807  33.732  25.177  1.00  0.00    -0.206 F 
ATOM     93  C   UNL A   1      43.573  34.547  27.000  1.00  0.00     0.059 A 
ATOM     94  C   UNL A   1      44.251  33.989  29.263  1.00  0.00     0.059 A 
ATOM     95  F   UNL A   1      46.149  32.655  29.609  1.00  0.00    -0.206 F 
ATOM     96  C   UNL A   1      43.393  34.644  28.382  1.00  0.00     0.060 A 
BRANCH  96  97
ATOM     97  S   UNL A   1      42.031  35.661  28.999  1.00  0.00     0.124 S 
ATOM     98  O   UNL A   1      41.582  34.885  30.150  1.00  0.00    -0.237 OA
ATOM     99  O   UNL A   1      42.708  36.918  29.304  1.00  0.00    -0.237 OA
ATOM    100  O   UNL A   1      41.098  35.708  27.879  1.00  0.00    -0.744 OA
ENDBRANCH  96  97
ENDBRANCH  64  89
BRANCH  76 101
ATOM    101  C   UNL A   1      52.041  35.212  25.883  1.00  0.00     0.058 A 
ATOM    102  C   UNL A   1      52.860  35.571  26.962  1.00  0.00     0.135 A 
ATOM    103  C   UNL A   1      51.947  36.105  24.802  1.00  0.00     0.135 A 
ATOM    104  F   UNL A   1      52.980  34.756  28.022  1.00  0.00    -0.206 F 
ATOM    105  C   UNL A   1      53.556  36.776  26.974  1.00  0.00     0.059 A 
ATOM    106  C   UNL A   1      52.657  37.302  24.781  1.00  0.00     0.059 A 
ATOM    107  F   UNL A   1      51.186  35.802  23.739  1.00  0.00    -0.206 F 
ATOM    108  C   UNL A   1      53.454  37.631  25.876  1.00  0.00     0.060 A 
BRANCH 108 109
ATOM    109  S   UNL A   1      54.412  39.161  25.879  1.00  0.00     0.124 S 
ATOM    110  O   UNL A   1      53.879  39.841  27.055  1.00  0.00    -0.237 OA
ATOM    111  O   UNL A   1      55.782  38.673  25.996  1.00  0.00    -0.237 OA
ATOM    112  O   UNL A   1      54.079  39.775  24.595  1.00  0.00    -0.744 OA
ENDBRANCH 108 109
ENDBRANCH  76 101
ENDBRANCH  50  51
ENDBRANCH  43  45
ENDBRANCH  42  43
ENDBRANCH  41  42
ENDBRANCH  40  41
ENDBRANCH  39  40
ENDBRANCH  38  39
ENDBRANCH  37  38
ENDBRANCH  36  37
ENDBRANCH   1  36
TORSDOF 28
ENDMDL
