MODEL 1
REMARK VINA RESULT:      -9.4      0.000      0.000
REMARK SMILES CC(=O)c1c(C)nn(CC(=O)N2CCC[C@H](c3cccc(C(=O)OCCOCCOCCOCCOC(=O)c4ccc(-c5c6nc(c(-c7c(F)cc(S(=O)(=O)[O-])cc7F)c7ccc([nH]7)c(-c7c(F)cc(S(=O)(=O)[O-])cc7F)c7nc(c(-c8c(F)cc(S(=O)(=O)[O-])cc8F)c8ccc5[nH]8)C=C7)C=C6)cc4)c3)C2)c1C
REMARK SMILES IDX 29 1 28 2 27 3 26 4 25 5 24 6 22 7 23 8 21 9 17 10 18 11
REMARK SMILES IDX 105 12 19 13 20 14 16 15 12 16 13 17 106 18 14 19 15 20
REMARK SMILES IDX 10 21 11 22 9 23 8 24 4 25 5 26 107 27 6 28 7 29 108 30 2 31
REMARK SMILES IDX 1 32 3 33 30 34 31 35 32 36 33 37 34 38 35 39 36 40 37 41
REMARK SMILES IDX 38 42 39 43 40 44 104 45 41 46 103 47 42 48 43 49 44 50
REMARK SMILES IDX 97 51 45 52 102 53 96 54 98 55 46 56 101 57 95 58 94 59
REMARK SMILES IDX 47 61 81 62 60 63 80 64 61 65 64 66 79 67 99 68 62 69 63 70
REMARK SMILES IDX 78 72 100 73 65 74 48 75 49 76 58 77 50 78 51 79 57 80 59 81
REMARK SMILES IDX 52 82 53 83 54 84 55 85 56 86 82 87 83 88 92 89 84 90 85 91
REMARK SMILES IDX 91 92 93 93 86 94 87 95 88 96 89 97 90 98 66 99 67 100
REMARK SMILES IDX 76 101 68 102 69 103 75 104 77 105 70 106 71 107 72 108
REMARK SMILES IDX 73 109 74 110
REMARK H PARENT 98 60 64 71
REMARK Flexibility Score: inf
ROOT
ATOM      1  C   UNL A   1      37.133  31.382  28.591  1.00  0.00     0.188 C 
ENDROOT
BRANCH   1   2
ATOM      2  C   UNL A   1      36.066  30.639  27.758  1.00  0.00     0.188 C 
BRANCH   2   3
ATOM      3  O   UNL A   1      34.731  30.890  28.148  1.00  0.00    -0.376 OA
BRANCH   3   4
ATOM      4  C   UNL A   1      33.660  30.916  27.232  1.00  0.00     0.202 C 
BRANCH   4   5
ATOM      5  C   UNL A   1      32.511  29.896  27.214  1.00  0.00     0.261 C 
BRANCH   5   6
ATOM      6  O   UNL A   1      32.620  28.810  26.300  1.00  0.00    -0.460 OA
BRANCH   6   7
ATOM      7  C   UNL A   1      32.066  27.634  26.667  1.00  0.00     0.338 C 
ATOM      8  O   UNL A   1      30.996  27.464  27.220  1.00  0.00    -0.246 OA
BRANCH   7   9
ATOM      9  C   UNL A   1      32.881  26.571  26.036  1.00  0.00     0.060 A 
ATOM     10  C   UNL A   1      33.802  24.314  26.041  1.00  0.00    -0.042 A 
ATOM     11  C   UNL A   1      34.658  24.732  25.015  1.00  0.00     0.004 A 
ATOM     12  C   UNL A   1      32.962  25.288  26.598  1.00  0.00     0.019 A 
ATOM     13  C   UNL A   1      34.600  26.010  24.459  1.00  0.00     0.001 A 
ATOM     14  C   UNL A   1      33.679  26.923  24.945  1.00  0.00     0.016 A 
BRANCH  10  15
ATOM     15  C   UNL A   1      33.756  22.860  26.530  1.00  0.00     0.039 C 
ATOM     16  N   UNL A   1      32.384  21.866  24.671  1.00  0.00    -0.340 N 
ATOM     17  C   UNL A   1      31.189  21.801  25.526  1.00  0.00     0.119 C 
ATOM     18  C   UNL A   1      33.656  21.780  25.409  1.00  0.00     0.127 C 
ATOM     19  C   UNL A   1      31.240  22.764  26.709  1.00  0.00     0.022 C 
ATOM     20  C   UNL A   1      32.556  22.618  27.475  1.00  0.00     0.012 C 
BRANCH  16  21
ATOM     21  C   UNL A   1      32.211  22.180  23.328  1.00  0.00     0.244 C 
ATOM     22  O   UNL A   1      31.909  21.274  22.531  1.00  0.00    -0.273 OA
BRANCH  21  23
ATOM     23  C   UNL A   1      32.600  23.511  22.694  1.00  0.00     0.244 C 
BRANCH  23  24
ATOM     24  N   UNL A   1      31.745  24.676  22.826  1.00  0.00    -0.259 N 
ATOM     25  C   UNL A   1      30.852  26.687  22.716  1.00  0.00     0.061 A 
ATOM     26  C   UNL A   1      30.186  25.849  23.654  1.00  0.00     0.070 A 
ATOM     27  C   UNL A   1      31.832  25.876  22.151  1.00  0.00     0.047 A 
ATOM     28  C   UNL A   1      29.097  26.183  24.608  1.00  0.00     0.069 C 
ATOM     29  N   UNL A   1      30.660  24.598  23.615  1.00  0.00    -0.177 NA
ATOM     30  C   UNL A   1      32.893  26.125  21.142  1.00  0.00     0.067 C 
BRANCH  25  31
ATOM     31  C   UNL A   1      30.574  28.100  22.484  1.00  0.00     0.163 C 
ATOM     32  C   UNL A   1      31.685  29.104  22.638  1.00  0.00     0.093 C 
ATOM     33  O   UNL A   1      29.451  28.463  22.137  1.00  0.00    -0.294 OA
ENDBRANCH  25  31
ENDBRANCH  23  24
ENDBRANCH  21  23
ENDBRANCH  16  21
ENDBRANCH  10  15
ENDBRANCH   7   9
ENDBRANCH   6   7
ENDBRANCH   5   6
ENDBRANCH   4   5
ENDBRANCH   3   4
ENDBRANCH   2   3
ENDBRANCH   1   2
BRANCH   1  34
ATOM     34  O   UNL A   1      36.918  32.766  28.799  1.00  0.00    -0.377 OA
BRANCH  34  35
ATOM     35  C   UNL A   1      37.966  33.565  29.347  1.00  0.00     0.188 C 
BRANCH  35  36
ATOM     36  C   UNL A   1      38.511  33.421  30.799  1.00  0.00     0.188 C 
BRANCH  36  37
ATOM     37  O   UNL A   1      37.610  33.727  31.849  1.00  0.00    -0.376 OA
BRANCH  37  38
ATOM     38  C   UNL A   1      36.209  33.564  31.784  1.00  0.00     0.202 C 
BRANCH  38  39
ATOM     39  C   UNL A   1      35.590  32.272  32.297  1.00  0.00     0.261 C 
BRANCH  39  40
ATOM     40  O   UNL A   1      36.525  31.425  32.922  1.00  0.00    -0.460 OA
BRANCH  40  41
ATOM     41  C   UNL A   1      36.709  30.252  32.284  1.00  0.00     0.338 C 
ATOM     42  O   UNL A   1      36.066  29.798  31.361  1.00  0.00    -0.246 OA
BRANCH  41  43
ATOM     43  C   UNL A   1      37.808  29.564  32.957  1.00  0.00     0.060 A 
ATOM     44  C   UNL A   1      38.810  30.375  33.492  1.00  0.00     0.016 A 
ATOM     45  C   UNL A   1      37.995  28.214  32.638  1.00  0.00     0.016 A 
ATOM     46  C   UNL A   1      40.099  29.919  33.396  1.00  0.00     0.010 A 
ATOM     47  C   UNL A   1      39.279  27.785  32.496  1.00  0.00     0.010 A 
ATOM     48  C   UNL A   1      40.303  28.688  32.770  1.00  0.00    -0.014 A 
BRANCH  48  49
ATOM     49  C   UNL A   1      41.640  28.308  32.399  1.00  0.00     0.031 A 
ATOM     50  C   UNL A   1      42.412  27.859  33.573  1.00  0.00     0.074 A 
ATOM     51  C   UNL A   1      41.995  28.234  31.102  1.00  0.00     0.049 A 
ATOM     52  N   UNL A   1      43.322  28.515  34.212  1.00  0.00    -0.248 NA
ATOM     53  C   UNL A   1      41.910  26.675  34.297  1.00  0.00     0.031 C 
ATOM     54  C   UNL A   1      41.144  28.399  29.916  1.00  0.00     0.029 A 
ATOM     55  N   UNL A   1      43.187  27.865  30.569  1.00  0.00    -0.354 N 
ATOM     56  C   UNL A   1      43.698  27.661  35.242  1.00  0.00     0.074 A 
ATOM     57  C   UNL A   1      42.596  26.765  35.435  1.00  0.00     0.031 C 
ATOM     58  C   UNL A   1      41.786  27.903  28.834  1.00  0.00     0.029 A 
ATOM     59  C   UNL A   1      43.124  27.499  29.224  1.00  0.00     0.049 A 
ATOM     60  H   UNL A   1      44.025  27.858  31.086  1.00  0.00     0.167 HD
ATOM     61  C   UNL A   1      45.010  27.499  35.563  1.00  0.00     0.037 A 
ATOM     62  C   UNL A   1      44.091  26.804  28.565  1.00  0.00     0.037 A 
ATOM     63  C   UNL A   1      45.802  28.583  35.027  1.00  0.00     0.049 A 
ATOM     64  C   UNL A   1      45.338  26.947  29.376  1.00  0.00     0.074 A 
ATOM     65  C   UNL A   1      45.776  29.958  35.158  1.00  0.00     0.029 A 
ATOM     66  N   UNL A   1      46.539  28.323  33.895  1.00  0.00    -0.354 N 
ATOM     67  N   UNL A   1      45.955  28.086  29.558  1.00  0.00    -0.248 NA
ATOM     68  C   UNL A   1      45.588  25.938  30.397  1.00  0.00     0.031 C 
ATOM     69  C   UNL A   1      46.100  30.462  33.865  1.00  0.00     0.029 A 
ATOM     70  C   UNL A   1      46.384  29.378  33.033  1.00  0.00     0.049 A 
ATOM     71  H   UNL A   1      47.084  27.520  33.732  1.00  0.00     0.167 HD
ATOM     72  C   UNL A   1      46.319  28.089  30.899  1.00  0.00     0.074 A 
ATOM     73  C   UNL A   1      46.114  26.714  31.351  1.00  0.00     0.031 C 
ATOM     74  C   UNL A   1      46.460  29.259  31.592  1.00  0.00     0.037 A 
BRANCH  61  75
ATOM     75  C   UNL A   1      45.620  26.169  35.961  1.00  0.00     0.058 A 
ATOM     76  C   UNL A   1      45.528  25.097  35.053  1.00  0.00     0.135 A 
ATOM     77  C   UNL A   1      46.039  25.818  37.267  1.00  0.00     0.135 A 
ATOM     78  F   UNL A   1      45.151  25.308  33.782  1.00  0.00    -0.206 F 
ATOM     79  C   UNL A   1      45.739  23.772  35.437  1.00  0.00     0.059 A 
ATOM     80  C   UNL A   1      46.309  24.514  37.654  1.00  0.00     0.059 A 
ATOM     81  F   UNL A   1      46.127  26.691  38.274  1.00  0.00    -0.206 F 
ATOM     82  C   UNL A   1      46.113  23.492  36.747  1.00  0.00     0.060 A 
BRANCH  82  83
ATOM     83  S   UNL A   1      46.289  21.785  37.278  1.00  0.00     0.124 S 
ATOM     84  O   UNL A   1      45.721  21.840  38.620  1.00  0.00    -0.237 OA
ATOM     85  O   UNL A   1      45.501  21.077  36.274  1.00  0.00    -0.237 OA
ATOM     86  O   UNL A   1      47.730  21.558  37.210  1.00  0.00    -0.744 OA
ENDBRANCH  82  83
ENDBRANCH  61  75
BRANCH  62  87
ATOM     87  C   UNL A   1      43.908  25.720  27.558  1.00  0.00     0.058 A 
ATOM     88  C   UNL A   1      44.624  25.716  26.346  1.00  0.00     0.135 A 
ATOM     89  C   UNL A   1      43.238  24.521  27.879  1.00  0.00     0.135 A 
ATOM     90  F   UNL A   1      45.313  26.804  25.968  1.00  0.00    -0.206 F 
ATOM     91  C   UNL A   1      44.706  24.581  25.526  1.00  0.00     0.059 A 
ATOM     92  C   UNL A   1      43.297  23.382  27.075  1.00  0.00     0.059 A 
ATOM     93  F   UNL A   1      42.576  24.386  29.037  1.00  0.00    -0.206 F 
ATOM     94  C   UNL A   1      44.053  23.410  25.911  1.00  0.00     0.060 A 
BRANCH  94  95
ATOM     95  S   UNL A   1      44.288  21.891  24.953  1.00  0.00     0.124 S 
ATOM     96  O   UNL A   1      44.241  22.388  23.583  1.00  0.00    -0.237 OA
ATOM     97  O   UNL A   1      45.591  21.430  25.419  1.00  0.00    -0.237 OA
ATOM     98  O   UNL A   1      43.157  21.058  25.353  1.00  0.00    -0.744 OA
ENDBRANCH  94  95
ENDBRANCH  62  87
BRANCH  74  99
ATOM     99  C   UNL A   1      46.498  30.550  30.816  1.00  0.00     0.058 A 
ATOM    100  C   UNL A   1      47.639  31.072  30.180  1.00  0.00     0.135 A 
ATOM    101  C   UNL A   1      45.277  31.196  30.567  1.00  0.00     0.135 A 
ATOM    102  F   UNL A   1      48.825  30.454  30.283  1.00  0.00    -0.206 F 
ATOM    103  C   UNL A   1      47.574  32.205  29.364  1.00  0.00     0.059 A 
ATOM    104  C   UNL A   1      45.183  32.306  29.734  1.00  0.00     0.059 A 
ATOM    105  F   UNL A   1      44.141  30.709  31.094  1.00  0.00    -0.206 F 
ATOM    106  C   UNL A   1      46.338  32.814  29.146  1.00  0.00     0.060 A 
BRANCH 106 107
ATOM    107  S   UNL A   1      46.234  34.237  28.038  1.00  0.00     0.124 S 
ATOM    108  O   UNL A   1      45.041  33.930  27.256  1.00  0.00    -0.237 OA
ATOM    109  O   UNL A   1      46.111  35.356  28.969  1.00  0.00    -0.237 OA
ATOM    110  O   UNL A   1      47.493  34.189  27.299  1.00  0.00    -0.744 OA
ENDBRANCH 106 107
ENDBRANCH  74  99
ENDBRANCH  48  49
ENDBRANCH  41  43
ENDBRANCH  40  41
ENDBRANCH  39  40
ENDBRANCH  38  39
ENDBRANCH  37  38
ENDBRANCH  36  37
ENDBRANCH  35  36
ENDBRANCH  34  35
ENDBRANCH   1  34
TORSDOF 28
ENDMDL
MODEL 2
REMARK VINA RESULT:      -8.2      2.895      4.740
REMARK SMILES CC(=O)c1c(C)nn(CC(=O)N2CCC[C@H](c3cccc(C(=O)OCCOCCOCCOCCOC(=O)c4ccc(-c5c6nc(c(-c7c(F)cc(S(=O)(=O)[O-])cc7F)c7ccc([nH]7)c(-c7c(F)cc(S(=O)(=O)[O-])cc7F)c7nc(c(-c8c(F)cc(S(=O)(=O)[O-])cc8F)c8ccc5[nH]8)C=C7)C=C6)cc4)c3)C2)c1C
REMARK SMILES IDX 29 1 28 2 27 3 26 4 25 5 24 6 22 7 23 8 21 9 17 10 18 11
REMARK SMILES IDX 105 12 19 13 20 14 16 15 12 16 13 17 106 18 14 19 15 20
REMARK SMILES IDX 10 21 11 22 9 23 8 24 4 25 5 26 107 27 6 28 7 29 108 30 2 31
REMARK SMILES IDX 1 32 3 33 30 34 31 35 32 36 33 37 34 38 35 39 36 40 37 41
REMARK SMILES IDX 38 42 39 43 40 44 104 45 41 46 103 47 42 48 43 49 44 50
REMARK SMILES IDX 97 51 45 52 102 53 96 54 98 55 46 56 101 57 95 58 94 59
REMARK SMILES IDX 47 61 81 62 60 63 80 64 61 65 64 66 79 67 99 68 62 69 63 70
REMARK SMILES IDX 78 72 100 73 65 74 48 75 49 76 58 77 50 78 51 79 57 80 59 81
REMARK SMILES IDX 52 82 53 83 54 84 55 85 56 86 82 87 83 88 92 89 84 90 85 91
REMARK SMILES IDX 91 92 93 93 86 94 87 95 88 96 89 97 90 98 66 99 67 100
REMARK SMILES IDX 76 101 68 102 69 103 75 104 77 105 70 106 71 107 72 108
REMARK SMILES IDX 73 109 74 110
REMARK H PARENT 98 60 64 71
REMARK Flexibility Score: inf
ROOT
ATOM      1  C   UNL A   1      40.177  29.132  28.813  1.00  0.00     0.188 C 
ENDROOT
BRANCH   1   2
ATOM      2  C   UNL A   1      38.635  29.145  28.729  1.00  0.00     0.188 C 
BRANCH   2   3
ATOM      3  O   UNL A   1      38.108  29.816  27.603  1.00  0.00    -0.376 OA
BRANCH   3   4
ATOM      4  C   UNL A   1      36.727  30.017  27.410  1.00  0.00     0.202 C 
BRANCH   4   5
ATOM      5  C   UNL A   1      35.645  29.640  28.433  1.00  0.00     0.261 C 
BRANCH   5   6
ATOM      6  O   UNL A   1      34.493  28.964  27.942  1.00  0.00    -0.460 OA
BRANCH   6   7
ATOM      7  C   UNL A   1      33.470  29.726  27.497  1.00  0.00     0.338 C 
ATOM      8  O   UNL A   1      33.345  30.930  27.610  1.00  0.00    -0.246 OA
BRANCH   7   9
ATOM      9  C   UNL A   1      32.655  28.860  26.615  1.00  0.00     0.060 A 
ATOM     10  C   UNL A   1      31.511  28.459  24.500  1.00  0.00    -0.042 A 
ATOM     11  C   UNL A   1      30.874  27.379  25.125  1.00  0.00     0.004 A 
ATOM     12  C   UNL A   1      32.352  29.245  25.300  1.00  0.00     0.019 A 
ATOM     13  C   UNL A   1      31.152  26.998  26.438  1.00  0.00     0.001 A 
ATOM     14  C   UNL A   1      32.078  27.718  27.174  1.00  0.00     0.016 A 
BRANCH  10  15
ATOM     15  C   UNL A   1      31.325  28.768  23.008  1.00  0.00     0.039 C 
ATOM     16  N   UNL A   1      31.725  26.464  22.080  1.00  0.00    -0.340 N 
ATOM     17  C   UNL A   1      33.068  26.838  21.610  1.00  0.00     0.119 C 
ATOM     18  C   UNL A   1      30.777  27.591  22.144  1.00  0.00     0.127 C 
ATOM     19  C   UNL A   1      33.650  28.045  22.340  1.00  0.00     0.022 C 
ATOM     20  C   UNL A   1      32.655  29.207  22.352  1.00  0.00     0.012 C 
BRANCH  16  21
ATOM     21  C   UNL A   1      31.540  25.180  22.577  1.00  0.00     0.244 C 
ATOM     22  O   UNL A   1      30.533  24.941  23.267  1.00  0.00    -0.273 OA
BRANCH  21  23
ATOM     23  C   UNL A   1      32.598  24.083  22.556  1.00  0.00     0.244 C 
BRANCH  23  24
ATOM     24  N   UNL A   1      32.796  23.217  23.703  1.00  0.00    -0.259 N 
ATOM     25  C   UNL A   1      33.423  22.327  25.619  1.00  0.00     0.061 A 
ATOM     26  C   UNL A   1      32.751  21.393  24.781  1.00  0.00     0.070 A 
ATOM     27  C   UNL A   1      33.389  23.525  24.910  1.00  0.00     0.047 A 
ATOM     28  C   UNL A   1      32.540  19.935  24.977  1.00  0.00     0.069 C 
ATOM     29  N   UNL A   1      32.268  21.981  23.680  1.00  0.00    -0.177 NA
ATOM     30  C   UNL A   1      33.934  24.879  25.185  1.00  0.00     0.067 C 
BRANCH  25  31
ATOM     31  C   UNL A   1      34.051  22.029  26.900  1.00  0.00     0.163 C 
ATOM     32  C   UNL A   1      33.303  22.323  28.173  1.00  0.00     0.093 C 
ATOM     33  O   UNL A   1      35.168  21.515  26.939  1.00  0.00    -0.294 OA
ENDBRANCH  25  31
ENDBRANCH  23  24
ENDBRANCH  21  23
ENDBRANCH  16  21
ENDBRANCH  10  15
ENDBRANCH   7   9
ENDBRANCH   6   7
ENDBRANCH   5   6
ENDBRANCH   4   5
ENDBRANCH   3   4
ENDBRANCH   2   3
ENDBRANCH   1   2
BRANCH   1  34
ATOM     34  O   UNL A   1      40.737  29.249  30.107  1.00  0.00    -0.377 OA
BRANCH  34  35
ATOM     35  C   UNL A   1      40.115  28.582  31.205  1.00  0.00     0.188 C 
BRANCH  35  36
ATOM     36  C   UNL A   1      39.185  29.278  32.242  1.00  0.00     0.188 C 
BRANCH  36  37
ATOM     37  O   UNL A   1      39.295  30.687  32.348  1.00  0.00    -0.376 OA
BRANCH  37  38
ATOM     38  C   UNL A   1      38.238  31.556  32.696  1.00  0.00     0.202 C 
BRANCH  38  39
ATOM     39  C   UNL A   1      38.512  32.709  33.651  1.00  0.00     0.261 C 
BRANCH  39  40
ATOM     40  O   UNL A   1      38.618  32.298  34.994  1.00  0.00    -0.460 OA
BRANCH  40  41
ATOM     41  C   UNL A   1      39.671  32.831  35.644  1.00  0.00     0.338 C 
ATOM     42  O   UNL A   1      39.949  34.005  35.775  1.00  0.00    -0.246 OA
BRANCH  41  43
ATOM     43  C   UNL A   1      40.486  31.719  36.126  1.00  0.00     0.060 A 
ATOM     44  C   UNL A   1      41.787  32.031  36.521  1.00  0.00     0.016 A 
ATOM     45  C   UNL A   1      40.081  30.433  35.749  1.00  0.00     0.016 A 
ATOM     46  C   UNL A   1      42.766  31.120  36.220  1.00  0.00     0.010 A 
ATOM     47  C   UNL A   1      41.059  29.553  35.404  1.00  0.00     0.010 A 
ATOM     48  C   UNL A   1      42.383  29.963  35.541  1.00  0.00    -0.014 A 
BRANCH  48  49
ATOM     49  C   UNL A   1      43.401  29.126  34.962  1.00  0.00     0.031 A 
ATOM     50  C   UNL A   1      43.730  27.996  35.850  1.00  0.00     0.074 A 
ATOM     51  C   UNL A   1      43.811  29.325  33.695  1.00  0.00     0.049 A 
ATOM     52  N   UNL A   1      44.771  27.866  36.603  1.00  0.00    -0.248 NA
ATOM     53  C   UNL A   1      42.646  27.045  36.162  1.00  0.00     0.031 C 
ATOM     54  C   UNL A   1      43.276  30.269  32.705  1.00  0.00     0.029 A 
ATOM     55  N   UNL A   1      44.725  28.623  32.979  1.00  0.00    -0.354 N 
ATOM     56  C   UNL A   1      44.576  26.651  37.248  1.00  0.00     0.074 A 
ATOM     57  C   UNL A   1      43.165  26.403  37.207  1.00  0.00     0.031 C 
ATOM     58  C   UNL A   1      43.709  29.917  31.472  1.00  0.00     0.029 A 
ATOM     59  C   UNL A   1      44.635  28.806  31.598  1.00  0.00     0.049 A 
ATOM     60  H   UNL A   1      45.395  28.035  33.397  1.00  0.00     0.167 HD
ATOM     61  C   UNL A   1      45.604  25.772  37.394  1.00  0.00     0.037 A 
ATOM     62  C   UNL A   1      45.209  27.993  30.670  1.00  0.00     0.037 A 
ATOM     63  C   UNL A   1      46.873  26.437  37.202  1.00  0.00     0.049 A 
ATOM     64  C   UNL A   1      46.276  27.229  31.385  1.00  0.00     0.074 A 
ATOM     65  C   UNL A   1      47.501  27.514  37.796  1.00  0.00     0.029 A 
ATOM     66  N   UNL A   1      47.508  26.245  35.997  1.00  0.00    -0.354 N 
ATOM     67  N   UNL A   1      47.344  27.784  31.897  1.00  0.00    -0.248 NA
ATOM     68  C   UNL A   1      45.898  25.952  31.978  1.00  0.00     0.031 C 
ATOM     69  C   UNL A   1      48.163  28.193  36.732  1.00  0.00     0.029 A 
ATOM     70  C   UNL A   1      47.974  27.458  35.561  1.00  0.00     0.049 A 
ATOM     71  H   UNL A   1      47.610  25.385  35.529  1.00  0.00     0.167 HD
ATOM     72  C   UNL A   1      47.520  27.161  33.127  1.00  0.00     0.074 A 
ATOM     73  C   UNL A   1      46.629  26.003  33.096  1.00  0.00     0.031 C 
ATOM     74  C   UNL A   1      48.134  27.805  34.165  1.00  0.00     0.037 A 
BRANCH  61  75
ATOM     75  C   UNL A   1      45.449  24.269  37.267  1.00  0.00     0.058 A 
ATOM     76  C   UNL A   1      45.977  23.457  38.288  1.00  0.00     0.135 A 
ATOM     77  C   UNL A   1      45.060  23.582  36.091  1.00  0.00     0.135 A 
ATOM     78  F   UNL A   1      46.370  23.994  39.454  1.00  0.00    -0.206 F 
ATOM     79  C   UNL A   1      46.195  22.089  38.118  1.00  0.00     0.059 A 
ATOM     80  C   UNL A   1      45.215  22.214  35.923  1.00  0.00     0.059 A 
ATOM     81  F   UNL A   1      44.594  24.193  34.998  1.00  0.00    -0.206 F 
ATOM     82  C   UNL A   1      45.825  21.482  36.922  1.00  0.00     0.060 A 
BRANCH  82  83
ATOM     83  S   UNL A   1      46.191  19.744  36.653  1.00  0.00     0.124 S 
ATOM     84  O   UNL A   1      45.522  19.501  35.381  1.00  0.00    -0.237 OA
ATOM     85  O   UNL A   1      47.651  19.749  36.623  1.00  0.00    -0.237 OA
ATOM     86  O   UNL A   1      45.597  19.091  37.816  1.00  0.00    -0.744 OA
ENDBRANCH  82  83
ENDBRANCH  61  75
BRANCH  62  87
ATOM     87  C   UNL A   1      44.632  27.544  29.371  1.00  0.00     0.058 A 
ATOM     88  C   UNL A   1      43.478  26.741  29.321  1.00  0.00     0.135 A 
ATOM     89  C   UNL A   1      45.034  28.120  28.148  1.00  0.00     0.135 A 
ATOM     90  F   UNL A   1      43.005  26.169  30.439  1.00  0.00    -0.206 F 
ATOM     91  C   UNL A   1      42.743  26.555  28.140  1.00  0.00     0.059 A 
ATOM     92  C   UNL A   1      44.325  27.942  26.959  1.00  0.00     0.059 A 
ATOM     93  F   UNL A   1      46.081  28.954  28.085  1.00  0.00    -0.206 F 
ATOM     94  C   UNL A   1      43.166  27.177  26.966  1.00  0.00     0.060 A 
BRANCH  94  95
ATOM     95  S   UNL A   1      42.139  27.086  25.478  1.00  0.00     0.124 S 
ATOM     96  O   UNL A   1      40.801  26.954  26.042  1.00  0.00    -0.237 OA
ATOM     97  O   UNL A   1      42.431  28.355  24.821  1.00  0.00    -0.237 OA
ATOM     98  O   UNL A   1      42.643  25.901  24.788  1.00  0.00    -0.744 OA
ENDBRANCH  94  95
ENDBRANCH  62  87
BRANCH  74  99
ATOM     99  C   UNL A   1      48.874  29.086  33.875  1.00  0.00     0.058 A 
ATOM    100  C   UNL A   1      48.298  30.369  33.902  1.00  0.00     0.135 A 
ATOM    101  C   UNL A   1      50.268  29.014  33.730  1.00  0.00     0.135 A 
ATOM    102  F   UNL A   1      46.987  30.529  34.138  1.00  0.00    -0.206 F 
ATOM    103  C   UNL A   1      49.069  31.526  33.755  1.00  0.00     0.059 A 
ATOM    104  C   UNL A   1      51.059  30.152  33.615  1.00  0.00     0.059 A 
ATOM    105  F   UNL A   1      50.885  27.821  33.761  1.00  0.00    -0.206 F 
ATOM    106  C   UNL A   1      50.452  31.405  33.614  1.00  0.00     0.060 A 
BRANCH 106 107
ATOM    107  S   UNL A   1      51.464  32.897  33.493  1.00  0.00     0.124 S 
ATOM    108  O   UNL A   1      52.677  32.502  34.202  1.00  0.00    -0.237 OA
ATOM    109  O   UNL A   1      51.602  33.071  32.050  1.00  0.00    -0.237 OA
ATOM    110  O   UNL A   1      50.656  33.914  34.160  1.00  0.00    -0.744 OA
ENDBRANCH 106 107
ENDBRANCH  74  99
ENDBRANCH  48  49
ENDBRANCH  41  43
ENDBRANCH  40  41
ENDBRANCH  39  40
ENDBRANCH  38  39
ENDBRANCH  37  38
ENDBRANCH  36  37
ENDBRANCH  35  36
ENDBRANCH  34  35
ENDBRANCH   1  34
TORSDOF 28
ENDMDL
MODEL 3
REMARK VINA RESULT:      -7.7      3.030      4.447
REMARK SMILES CC(=O)c1c(C)nn(CC(=O)N2CCC[C@H](c3cccc(C(=O)OCCOCCOCCOCCOC(=O)c4ccc(-c5c6nc(c(-c7c(F)cc(S(=O)(=O)[O-])cc7F)c7ccc([nH]7)c(-c7c(F)cc(S(=O)(=O)[O-])cc7F)c7nc(c(-c8c(F)cc(S(=O)(=O)[O-])cc8F)c8ccc5[nH]8)C=C7)C=C6)cc4)c3)C2)c1C
REMARK SMILES IDX 29 1 28 2 27 3 26 4 25 5 24 6 22 7 23 8 21 9 17 10 18 11
REMARK SMILES IDX 105 12 19 13 20 14 16 15 12 16 13 17 106 18 14 19 15 20
REMARK SMILES IDX 10 21 11 22 9 23 8 24 4 25 5 26 107 27 6 28 7 29 108 30 2 31
REMARK SMILES IDX 1 32 3 33 30 34 31 35 32 36 33 37 34 38 35 39 36 40 37 41
REMARK SMILES IDX 38 42 39 43 40 44 104 45 41 46 103 47 42 48 43 49 44 50
REMARK SMILES IDX 97 51 45 52 102 53 96 54 98 55 46 56 101 57 95 58 94 59
REMARK SMILES IDX 47 61 81 62 60 63 80 64 61 65 64 66 79 67 99 68 62 69 63 70
REMARK SMILES IDX 78 72 100 73 65 74 48 75 49 76 58 77 50 78 51 79 57 80 59 81
REMARK SMILES IDX 52 82 53 83 54 84 55 85 56 86 82 87 83 88 92 89 84 90 85 91
REMARK SMILES IDX 91 92 93 93 86 94 87 95 88 96 89 97 90 98 66 99 67 100
REMARK SMILES IDX 76 101 68 102 69 103 75 104 77 105 70 106 71 107 72 108
REMARK SMILES IDX 73 109 74 110
REMARK H PARENT 98 60 64 71
REMARK Flexibility Score: inf
ROOT
ATOM      1  C   UNL A   1      40.139  29.118  28.833  1.00  0.00     0.188 C 
ENDROOT
BRANCH   1   2
ATOM      2  C   UNL A   1      38.606  29.306  28.783  1.00  0.00     0.188 C 
BRANCH   2   3
ATOM      3  O   UNL A   1      38.094  29.654  27.513  1.00  0.00    -0.376 OA
BRANCH   3   4
ATOM      4  C   UNL A   1      36.796  30.170  27.329  1.00  0.00     0.202 C 
BRANCH   4   5
ATOM      5  C   UNL A   1      35.950  30.808  28.441  1.00  0.00     0.261 C 
BRANCH   5   6
ATOM      6  O   UNL A   1      34.600  30.374  28.562  1.00  0.00    -0.460 OA
BRANCH   6   7
ATOM      7  C   UNL A   1      33.809  30.503  27.475  1.00  0.00     0.338 C 
ATOM      8  O   UNL A   1      33.745  31.452  26.718  1.00  0.00    -0.246 OA
BRANCH   7   9
ATOM      9  C   UNL A   1      33.223  29.166  27.222  1.00  0.00     0.060 A 
ATOM     10  C   UNL A   1      33.143  27.088  25.950  1.00  0.00    -0.042 A 
ATOM     11  C   UNL A   1      31.909  26.837  26.564  1.00  0.00     0.004 A 
ATOM     12  C   UNL A   1      33.754  28.315  26.240  1.00  0.00     0.019 A 
ATOM     13  C   UNL A   1      31.362  27.683  27.528  1.00  0.00     0.001 A 
ATOM     14  C   UNL A   1      32.041  28.834  27.889  1.00  0.00     0.016 A 
BRANCH  10  15
ATOM     15  C   UNL A   1      33.816  26.071  25.019  1.00  0.00     0.039 C 
ATOM     16  N   UNL A   1      32.515  26.542  22.918  1.00  0.00    -0.340 N 
ATOM     17  C   UNL A   1      31.724  25.313  23.079  1.00  0.00     0.119 C 
ATOM     18  C   UNL A   1      33.862  26.470  23.512  1.00  0.00     0.127 C 
ATOM     19  C   UNL A   1      31.698  24.794  24.514  1.00  0.00     0.022 C 
ATOM     20  C   UNL A   1      33.115  24.694  25.083  1.00  0.00     0.012 C 
BRANCH  16  21
ATOM     21  C   UNL A   1      31.879  27.669  22.412  1.00  0.00     0.244 C 
ATOM     22  O   UNL A   1      32.559  28.674  22.139  1.00  0.00    -0.273 OA
BRANCH  21  23
ATOM     23  C   UNL A   1      30.368  27.871  22.390  1.00  0.00     0.244 C 
BRANCH  23  24
ATOM     24  N   UNL A   1      29.796  29.201  22.292  1.00  0.00    -0.259 N 
ATOM     25  C   UNL A   1      29.010  31.218  22.702  1.00  0.00     0.061 A 
ATOM     26  C   UNL A   1      28.734  30.788  21.373  1.00  0.00     0.070 A 
ATOM     27  C   UNL A   1      29.753  30.183  23.261  1.00  0.00     0.047 A 
ATOM     28  C   UNL A   1      27.916  31.447  20.321  1.00  0.00     0.069 C 
ATOM     29  N   UNL A   1      29.327  29.619  21.104  1.00  0.00    -0.177 NA
ATOM     30  C   UNL A   1      30.327  29.965  24.613  1.00  0.00     0.067 C 
BRANCH  25  31
ATOM     31  C   UNL A   1      28.538  32.454  23.316  1.00  0.00     0.163 C 
ATOM     32  C   UNL A   1      29.455  33.646  23.371  1.00  0.00     0.093 C 
ATOM     33  O   UNL A   1      27.392  32.528  23.757  1.00  0.00    -0.294 OA
ENDBRANCH  25  31
ENDBRANCH  23  24
ENDBRANCH  21  23
ENDBRANCH  16  21
ENDBRANCH  10  15
ENDBRANCH   7   9
ENDBRANCH   6   7
ENDBRANCH   5   6
ENDBRANCH   4   5
ENDBRANCH   3   4
ENDBRANCH   2   3
ENDBRANCH   1   2
BRANCH   1  34
ATOM     34  O   UNL A   1      40.735  29.152  30.116  1.00  0.00    -0.377 OA
BRANCH  34  35
ATOM     35  C   UNL A   1      40.153  28.401  31.181  1.00  0.00     0.188 C 
BRANCH  35  36
ATOM     36  C   UNL A   1      39.124  28.976  32.200  1.00  0.00     0.188 C 
BRANCH  36  37
ATOM     37  O   UNL A   1      39.086  30.386  32.336  1.00  0.00    -0.376 OA
BRANCH  37  38
ATOM     38  C   UNL A   1      37.949  31.129  32.722  1.00  0.00     0.202 C 
BRANCH  38  39
ATOM     39  C   UNL A   1      38.133  32.365  33.590  1.00  0.00     0.261 C 
BRANCH  39  40
ATOM     40  O   UNL A   1      38.399  32.056  34.938  1.00  0.00    -0.460 OA
BRANCH  40  41
ATOM     41  C   UNL A   1      39.511  32.642  35.422  1.00  0.00     0.338 C 
ATOM     42  O   UNL A   1      39.806  33.819  35.392  1.00  0.00    -0.246 OA
BRANCH  41  43
ATOM     43  C   UNL A   1      40.363  31.578  35.948  1.00  0.00     0.060 A 
ATOM     44  C   UNL A   1      41.658  31.947  36.315  1.00  0.00     0.016 A 
ATOM     45  C   UNL A   1      39.994  30.265  35.636  1.00  0.00     0.016 A 
ATOM     46  C   UNL A   1      42.661  31.052  36.047  1.00  0.00     0.010 A 
ATOM     47  C   UNL A   1      40.995  29.398  35.323  1.00  0.00     0.010 A 
ATOM     48  C   UNL A   1      42.307  29.853  35.427  1.00  0.00    -0.014 A 
BRANCH  48  49
ATOM     49  C   UNL A   1      43.345  29.020  34.878  1.00  0.00     0.031 A 
ATOM     50  C   UNL A   1      43.681  27.915  35.794  1.00  0.00     0.074 A 
ATOM     51  C   UNL A   1      43.766  29.198  33.612  1.00  0.00     0.049 A 
ATOM     52  N   UNL A   1      44.715  27.817  36.562  1.00  0.00    -0.248 NA
ATOM     53  C   UNL A   1      42.607  26.954  36.115  1.00  0.00     0.031 C 
ATOM     54  C   UNL A   1      43.228  30.112  32.595  1.00  0.00     0.029 A 
ATOM     55  N   UNL A   1      44.699  28.495  32.922  1.00  0.00    -0.354 N 
ATOM     56  C   UNL A   1      44.530  26.613  37.231  1.00  0.00     0.074 A 
ATOM     57  C   UNL A   1      43.124  26.342  37.179  1.00  0.00     0.031 C 
ATOM     58  C   UNL A   1      43.682  29.740  31.376  1.00  0.00     0.029 A 
ATOM     59  C   UNL A   1      44.623  28.647  31.536  1.00  0.00     0.049 A 
ATOM     60  H   UNL A   1      45.373  27.927  33.360  1.00  0.00     0.167 HD
ATOM     61  C   UNL A   1      45.570  25.754  37.407  1.00  0.00     0.037 A 
ATOM     62  C   UNL A   1      45.220  27.823  30.633  1.00  0.00     0.037 A 
ATOM     63  C   UNL A   1      46.831  26.434  37.215  1.00  0.00     0.049 A 
ATOM     64  C   UNL A   1      46.290  27.091  31.376  1.00  0.00     0.074 A 
ATOM     65  C   UNL A   1      47.436  27.533  37.793  1.00  0.00     0.029 A 
ATOM     66  N   UNL A   1      47.482  26.226  36.022  1.00  0.00    -0.354 N 
ATOM     67  N   UNL A   1      47.343  27.674  31.888  1.00  0.00    -0.248 NA
ATOM     68  C   UNL A   1      45.925  25.822  31.992  1.00  0.00     0.031 C 
ATOM     69  C   UNL A   1      48.099  28.200  36.722  1.00  0.00     0.029 A 
ATOM     70  C   UNL A   1      47.935  27.437  35.566  1.00  0.00     0.049 A 
ATOM     71  H   UNL A   1      47.603  25.357  35.574  1.00  0.00     0.167 HD
ATOM     72  C   UNL A   1      47.514  27.081  33.134  1.00  0.00     0.074 A 
ATOM     73  C   UNL A   1      46.642  25.908  33.117  1.00  0.00     0.031 C 
ATOM     74  C   UNL A   1      48.106  27.755  34.164  1.00  0.00     0.037 A 
BRANCH  61  75
ATOM     75  C   UNL A   1      45.439  24.246  37.311  1.00  0.00     0.058 A 
ATOM     76  C   UNL A   1      45.897  23.468  38.391  1.00  0.00     0.135 A 
ATOM     77  C   UNL A   1      45.147  23.523  36.129  1.00  0.00     0.135 A 
ATOM     78  F   UNL A   1      46.196  24.041  39.568  1.00  0.00    -0.206 F 
ATOM     79  C   UNL A   1      46.140  22.099  38.276  1.00  0.00     0.059 A 
ATOM     80  C   UNL A   1      45.327  22.153  36.012  1.00  0.00     0.059 A 
ATOM     81  F   UNL A   1      44.757  24.098  34.988  1.00  0.00    -0.206 F 
ATOM     82  C   UNL A   1      45.867  21.455  37.073  1.00  0.00     0.060 A 
BRANCH  82  83
ATOM     83  S   UNL A   1      46.269  19.715  36.882  1.00  0.00     0.124 S 
ATOM     84  O   UNL A   1      45.689  19.426  35.576  1.00  0.00    -0.237 OA
ATOM     85  O   UNL A   1      47.728  19.738  36.947  1.00  0.00    -0.237 OA
ATOM     86  O   UNL A   1      45.607  19.089  38.022  1.00  0.00    -0.744 OA
ENDBRANCH  82  83
ENDBRANCH  61  75
BRANCH  62  87
ATOM     87  C   UNL A   1      44.666  27.338  29.338  1.00  0.00     0.058 A 
ATOM     88  C   UNL A   1      43.450  26.629  29.280  1.00  0.00     0.135 A 
ATOM     89  C   UNL A   1      45.168  27.796  28.102  1.00  0.00     0.135 A 
ATOM     90  F   UNL A   1      42.882  26.175  30.407  1.00  0.00    -0.206 F 
ATOM     91  C   UNL A   1      42.756  26.426  28.078  1.00  0.00     0.059 A 
ATOM     92  C   UNL A   1      44.501  27.598  26.893  1.00  0.00     0.059 A 
ATOM     93  F   UNL A   1      46.284  28.536  28.039  1.00  0.00    -0.206 F 
ATOM     94  C   UNL A   1      43.281  26.932  26.890  1.00  0.00     0.060 A 
BRANCH  94  95
ATOM     95  S   UNL A   1      42.317  26.827  25.361  1.00  0.00     0.124 S 
ATOM     96  O   UNL A   1      40.956  26.712  25.870  1.00  0.00    -0.237 OA
ATOM     97  O   UNL A   1      42.647  28.084  24.699  1.00  0.00    -0.237 OA
ATOM     98  O   UNL A   1      42.842  25.629  24.710  1.00  0.00    -0.744 OA
ENDBRANCH  94  95
ENDBRANCH  62  87
BRANCH  74  99
ATOM     99  C   UNL A   1      48.829  29.042  33.855  1.00  0.00     0.058 A 
ATOM    100  C   UNL A   1      48.234  30.316  33.847  1.00  0.00     0.135 A 
ATOM    101  C   UNL A   1      50.226  28.989  33.729  1.00  0.00     0.135 A 
ATOM    102  F   UNL A   1      46.918  30.460  34.063  1.00  0.00    -0.206 F 
ATOM    103  C   UNL A   1      48.989  31.481  33.684  1.00  0.00     0.059 A 
ATOM    104  C   UNL A   1      51.001  30.136  33.598  1.00  0.00     0.059 A 
ATOM    105  F   UNL A   1      50.861  27.806  33.793  1.00  0.00    -0.206 F 
ATOM    106  C   UNL A   1      50.375  31.379  33.562  1.00  0.00     0.060 A 
BRANCH 106 107
ATOM    107  S   UNL A   1      51.366  32.884  33.420  1.00  0.00     0.124 S 
ATOM    108  O   UNL A   1      52.575  32.524  34.154  1.00  0.00    -0.237 OA
ATOM    109  O   UNL A   1      51.520  33.027  31.976  1.00  0.00    -0.237 OA
ATOM    110  O   UNL A   1      50.532  33.903  34.053  1.00  0.00    -0.744 OA
ENDBRANCH 106 107
ENDBRANCH  74  99
ENDBRANCH  48  49
ENDBRANCH  41  43
ENDBRANCH  40  41
ENDBRANCH  39  40
ENDBRANCH  38  39
ENDBRANCH  37  38
ENDBRANCH  36  37
ENDBRANCH  35  36
ENDBRANCH  34  35
ENDBRANCH   1  34
TORSDOF 28
ENDMDL
