MODEL 1
REMARK VINA RESULT:      -9.1      0.000      0.000
REMARK SMILES O=C(Cc1ccc(S(=O)(=O)C[C@H]2CCCO2)cc1)OCCOCCOCCOCCOC(=O)c1ccc(-c2c3nc(c(-c4c(F)cc(S(=O)(=O)[O-])cc4F)c4ccc([nH]4)c(-c4c(F)cc(S(=O)(=O)[O-])cc4F)c4nc(c(-c5c(F)cc(S(=O)(=O)[O-])cc5F)c5ccc2[nH]5)C=C4)C=C3)cc1
REMARK SMILES IDX 24 1 23 2 22 3 21 4 20 5 19 6 2 7 1 8 3 9 4 10 5 11 18 12
REMARK SMILES IDX 6 13 17 14 7 15 8 16 9 17 10 18 11 19 12 20 13 21 16 22
REMARK SMILES IDX 14 23 15 24 25 25 26 26 27 27 28 28 29 29 30 30 31 31 32 32
REMARK SMILES IDX 33 33 34 34 35 35 99 36 36 37 98 38 37 39 38 40 39 41 92 42
REMARK SMILES IDX 40 43 97 44 91 45 93 46 41 47 96 48 90 49 89 50 42 52 76 53
REMARK SMILES IDX 55 54 75 55 56 56 59 57 74 58 94 59 57 60 58 61 73 63 95 64
REMARK SMILES IDX 60 65 43 66 44 67 53 68 45 69 46 70 52 71 54 72 47 73 48 74
REMARK SMILES IDX 49 75 50 76 51 77 77 78 78 79 87 80 79 81 80 82 86 83 88 84
REMARK SMILES IDX 81 85 82 86 83 87 84 88 85 89 61 90 62 91 71 92 63 93 64 94
REMARK SMILES IDX 70 95 72 96 65 97 66 98 67 99 68 100 69 101
REMARK H PARENT 93 51 59 62
REMARK Flexibility Score: inf
ROOT
ATOM      1  C   UNL A   1      32.503  30.376  26.248  1.00  0.00     0.188 C 
ENDROOT
BRANCH   1   2
ATOM      2  C   UNL A   1      31.701  29.325  25.492  1.00  0.00     0.188 C 
BRANCH   2   3
ATOM      3  O   UNL A   1      31.270  29.583  24.156  1.00  0.00    -0.376 OA
BRANCH   3   4
ATOM      4  C   UNL A   1      29.955  29.285  23.713  1.00  0.00     0.202 C 
BRANCH   4   5
ATOM      5  C   UNL A   1      29.730  28.232  22.635  1.00  0.00     0.261 C 
BRANCH   5   6
ATOM      6  O   UNL A   1      30.916  27.681  22.064  1.00  0.00    -0.463 OA
BRANCH   6   7
ATOM      7  C   UNL A   1      31.429  26.507  22.512  1.00  0.00     0.310 C 
ATOM      8  O   UNL A   1      30.745  25.486  22.468  1.00  0.00    -0.252 OA
BRANCH   7   9
ATOM      9  C   UNL A   1      32.785  26.515  23.200  1.00  0.00     0.158 C 
BRANCH   9  10
ATOM     10  C   UNL A   1      33.200  25.190  23.764  1.00  0.00    -0.037 A 
ATOM     11  C   UNL A   1      34.112  24.396  23.062  1.00  0.00     0.005 A 
ATOM     12  C   UNL A   1      32.737  24.777  25.021  1.00  0.00     0.005 A 
ATOM     13  C   UNL A   1      34.664  23.274  23.668  1.00  0.00     0.020 A 
ATOM     14  C   UNL A   1      33.298  23.667  25.640  1.00  0.00     0.020 A 
ATOM     15  C   UNL A   1      34.307  22.961  24.981  1.00  0.00     0.067 A 
BRANCH  15  16
ATOM     16  S   UNL A   1      35.250  21.750  25.867  1.00  0.00     0.180 S 
ATOM     17  O   UNL A   1      36.624  22.221  25.831  1.00  0.00    -0.224 OA
ATOM     18  O   UNL A   1      34.602  21.523  27.146  1.00  0.00    -0.224 OA
BRANCH  16  19
ATOM     19  C   UNL A   1      35.178  20.244  24.934  1.00  0.00     0.174 C 
BRANCH  19  20
ATOM     20  C   UNL A   1      33.874  19.457  24.949  1.00  0.00     0.133 C 
ATOM     21  C   UNL A   1      32.653  20.134  24.345  1.00  0.00     0.035 C 
ATOM     22  O   UNL A   1      34.000  18.164  24.350  1.00  0.00    -0.377 OA
ATOM     23  C   UNL A   1      32.341  19.313  23.119  1.00  0.00     0.031 C 
ATOM     24  C   UNL A   1      32.881  17.949  23.475  1.00  0.00     0.160 C 
ENDBRANCH  19  20
ENDBRANCH  16  19
ENDBRANCH  15  16
ENDBRANCH   9  10
ENDBRANCH   7   9
ENDBRANCH   6   7
ENDBRANCH   5   6
ENDBRANCH   4   5
ENDBRANCH   3   4
ENDBRANCH   2   3
ENDBRANCH   1   2
BRANCH   1  25
ATOM     25  O   UNL A   1      33.876  30.053  26.369  1.00  0.00    -0.377 OA
BRANCH  25  26
ATOM     26  C   UNL A   1      34.465  30.453  27.589  1.00  0.00     0.188 C 
BRANCH  26  27
ATOM     27  C   UNL A   1      34.086  31.856  28.109  1.00  0.00     0.188 C 
BRANCH  27  28
ATOM     28  O   UNL A   1      34.519  32.355  29.369  1.00  0.00    -0.376 OA
BRANCH  28  29
ATOM     29  C   UNL A   1      35.521  31.687  30.113  1.00  0.00     0.202 C 
BRANCH  29  30
ATOM     30  C   UNL A   1      35.591  31.881  31.634  1.00  0.00     0.261 C 
BRANCH  30  31
ATOM     31  O   UNL A   1      36.894  31.737  32.207  1.00  0.00    -0.460 OA
BRANCH  31  32
ATOM     32  C   UNL A   1      37.861  32.536  31.693  1.00  0.00     0.338 C 
ATOM     33  O   UNL A   1      37.954  33.747  31.806  1.00  0.00    -0.246 OA
BRANCH  32  34
ATOM     34  C   UNL A   1      38.939  31.675  31.151  1.00  0.00     0.060 A 
ATOM     35  C   UNL A   1      39.683  30.895  32.051  1.00  0.00     0.016 A 
ATOM     36  C   UNL A   1      39.154  31.563  29.775  1.00  0.00     0.016 A 
ATOM     37  C   UNL A   1      40.659  30.017  31.581  1.00  0.00     0.010 A 
ATOM     38  C   UNL A   1      40.156  30.713  29.306  1.00  0.00     0.010 A 
ATOM     39  C   UNL A   1      40.934  29.966  30.210  1.00  0.00    -0.014 A 
BRANCH  39  40
ATOM     40  C   UNL A   1      42.214  29.394  29.734  1.00  0.00     0.031 A 
ATOM     41  C   UNL A   1      43.374  30.342  29.613  1.00  0.00     0.074 A 
ATOM     42  C   UNL A   1      42.335  28.108  29.365  1.00  0.00     0.049 A 
ATOM     43  N   UNL A   1      44.545  30.159  29.068  1.00  0.00    -0.248 NA
ATOM     44  C   UNL A   1      43.169  31.689  30.172  1.00  0.00     0.031 C 
ATOM     45  C   UNL A   1      41.293  27.092  29.476  1.00  0.00     0.029 A 
ATOM     46  N   UNL A   1      43.391  27.453  28.782  1.00  0.00    -0.354 N 
ATOM     47  C   UNL A   1      45.205  31.376  29.190  1.00  0.00     0.074 A 
ATOM     48  C   UNL A   1      44.301  32.290  29.850  1.00  0.00     0.031 C 
ATOM     49  C   UNL A   1      41.747  25.947  28.935  1.00  0.00     0.029 A 
ATOM     50  C   UNL A   1      43.095  26.165  28.405  1.00  0.00     0.049 A 
ATOM     51  H   UNL A   1      44.276  27.865  28.648  1.00  0.00     0.167 HD
ATOM     52  C   UNL A   1      46.450  31.707  28.779  1.00  0.00     0.037 A 
ATOM     53  C   UNL A   1      43.812  25.286  27.675  1.00  0.00     0.037 A 
ATOM     54  C   UNL A   1      47.331  30.795  28.103  1.00  0.00     0.049 A 
ATOM     55  C   UNL A   1      45.179  25.681  27.177  1.00  0.00     0.074 A 
ATOM     56  C   UNL A   1      48.621  31.015  27.659  1.00  0.00     0.029 A 
ATOM     57  N   UNL A   1      47.001  29.492  27.756  1.00  0.00    -0.354 N 
ATOM     58  N   UNL A   1      45.809  26.825  27.321  1.00  0.00    -0.248 NA
ATOM     59  C   UNL A   1      45.933  24.673  26.419  1.00  0.00     0.031 C 
ATOM     60  C   UNL A   1      49.052  29.862  26.995  1.00  0.00     0.029 A 
ATOM     61  C   UNL A   1      48.053  28.903  27.080  1.00  0.00     0.049 A 
ATOM     62  H   UNL A   1      46.144  29.053  27.960  1.00  0.00     0.167 HD
ATOM     63  C   UNL A   1      47.044  26.664  26.697  1.00  0.00     0.074 A 
ATOM     64  C   UNL A   1      47.069  25.314  26.172  1.00  0.00     0.031 C 
ATOM     65  C   UNL A   1      48.063  27.550  26.576  1.00  0.00     0.037 A 
BRANCH  52  66
ATOM     66  C   UNL A   1      46.886  33.127  28.999  1.00  0.00     0.058 A 
ATOM     67  C   UNL A   1      46.838  34.088  27.975  1.00  0.00     0.135 A 
ATOM     68  C   UNL A   1      47.402  33.521  30.244  1.00  0.00     0.135 A 
ATOM     69  F   UNL A   1      46.377  33.757  26.758  1.00  0.00    -0.206 F 
ATOM     70  C   UNL A   1      47.335  35.373  28.162  1.00  0.00     0.059 A 
ATOM     71  C   UNL A   1      47.875  34.811  30.463  1.00  0.00     0.059 A 
ATOM     72  F   UNL A   1      47.476  32.641  31.255  1.00  0.00    -0.206 F 
ATOM     73  C   UNL A   1      47.860  35.722  29.408  1.00  0.00     0.060 A 
BRANCH  73  74
ATOM     74  S   UNL A   1      48.540  37.379  29.627  1.00  0.00     0.124 S 
ATOM     75  O   UNL A   1      49.152  37.615  28.323  1.00  0.00    -0.237 OA
ATOM     76  O   UNL A   1      47.350  38.170  29.919  1.00  0.00    -0.237 OA
ATOM     77  O   UNL A   1      49.473  37.219  30.738  1.00  0.00    -0.744 OA
ENDBRANCH  73  74
ENDBRANCH  52  66
BRANCH  53  78
ATOM     78  C   UNL A   1      43.228  23.957  27.355  1.00  0.00     0.058 A 
ATOM     79  C   UNL A   1      42.803  23.644  26.057  1.00  0.00     0.135 A 
ATOM     80  C   UNL A   1      43.138  22.952  28.332  1.00  0.00     0.135 A 
ATOM     81  F   UNL A   1      42.853  24.575  25.091  1.00  0.00    -0.206 F 
ATOM     82  C   UNL A   1      42.326  22.377  25.732  1.00  0.00     0.059 A 
ATOM     83  C   UNL A   1      42.685  21.672  28.027  1.00  0.00     0.059 A 
ATOM     84  F   UNL A   1      43.537  23.199  29.590  1.00  0.00    -0.206 F 
ATOM     85  C   UNL A   1      42.286  21.393  26.721  1.00  0.00     0.060 A 
BRANCH  85  86
ATOM     86  S   UNL A   1      41.778  19.721  26.258  1.00  0.00     0.124 S 
ATOM     87  O   UNL A   1      42.528  19.515  25.025  1.00  0.00    -0.237 OA
ATOM     88  O   UNL A   1      42.219  18.942  27.412  1.00  0.00    -0.237 OA
ATOM     89  O   UNL A   1      40.331  19.839  26.109  1.00  0.00    -0.744 OA
ENDBRANCH  85  86
ENDBRANCH  53  78
BRANCH  65  90
ATOM     90  C   UNL A   1      49.324  27.090  25.895  1.00  0.00     0.058 A 
ATOM     91  C   UNL A   1      49.486  27.167  24.504  1.00  0.00     0.135 A 
ATOM     92  C   UNL A   1      50.422  26.668  26.662  1.00  0.00     0.135 A 
ATOM     93  F   UNL A   1      48.465  27.558  23.725  1.00  0.00    -0.206 F 
ATOM     94  C   UNL A   1      50.694  26.840  23.896  1.00  0.00     0.059 A 
ATOM     95  C   UNL A   1      51.647  26.361  26.078  1.00  0.00     0.059 A 
ATOM     96  F   UNL A   1      50.321  26.588  27.998  1.00  0.00    -0.206 F 
ATOM     97  C   UNL A   1      51.772  26.446  24.693  1.00  0.00     0.060 A 
BRANCH  97  98
ATOM     98  S   UNL A   1      53.354  26.091  23.899  1.00  0.00     0.124 S 
ATOM     99  O   UNL A   1      52.991  26.134  22.487  1.00  0.00    -0.237 OA
ATOM    100  O   UNL A   1      54.194  27.187  24.372  1.00  0.00    -0.237 OA
ATOM    101  O   UNL A   1      53.706  24.772  24.417  1.00  0.00    -0.744 OA
ENDBRANCH  97  98
ENDBRANCH  65  90
ENDBRANCH  39  40
ENDBRANCH  32  34
ENDBRANCH  31  32
ENDBRANCH  30  31
ENDBRANCH  29  30
ENDBRANCH  28  29
ENDBRANCH  27  28
ENDBRANCH  26  27
ENDBRANCH  25  26
ENDBRANCH   1  25
TORSDOF 27
ENDMDL
MODEL 2
REMARK VINA RESULT:      -8.7      1.079      1.932
REMARK SMILES O=C(Cc1ccc(S(=O)(=O)C[C@H]2CCCO2)cc1)OCCOCCOCCOCCOC(=O)c1ccc(-c2c3nc(c(-c4c(F)cc(S(=O)(=O)[O-])cc4F)c4ccc([nH]4)c(-c4c(F)cc(S(=O)(=O)[O-])cc4F)c4nc(c(-c5c(F)cc(S(=O)(=O)[O-])cc5F)c5ccc2[nH]5)C=C4)C=C3)cc1
REMARK SMILES IDX 24 1 23 2 22 3 21 4 20 5 19 6 2 7 1 8 3 9 4 10 5 11 18 12
REMARK SMILES IDX 6 13 17 14 7 15 8 16 9 17 10 18 11 19 12 20 13 21 16 22
REMARK SMILES IDX 14 23 15 24 25 25 26 26 27 27 28 28 29 29 30 30 31 31 32 32
REMARK SMILES IDX 33 33 34 34 35 35 99 36 36 37 98 38 37 39 38 40 39 41 92 42
REMARK SMILES IDX 40 43 97 44 91 45 93 46 41 47 96 48 90 49 89 50 42 52 76 53
REMARK SMILES IDX 55 54 75 55 56 56 59 57 74 58 94 59 57 60 58 61 73 63 95 64
REMARK SMILES IDX 60 65 43 66 44 67 53 68 45 69 46 70 52 71 54 72 47 73 48 74
REMARK SMILES IDX 49 75 50 76 51 77 77 78 78 79 87 80 79 81 80 82 86 83 88 84
REMARK SMILES IDX 81 85 82 86 83 87 84 88 85 89 61 90 62 91 71 92 63 93 64 94
REMARK SMILES IDX 70 95 72 96 65 97 66 98 67 99 68 100 69 101
REMARK H PARENT 93 51 59 62
REMARK Flexibility Score: inf
ROOT
ATOM      1  C   UNL A   1      32.463  30.417  26.278  1.00  0.00     0.188 C 
ENDROOT
BRANCH   1   2
ATOM      2  C   UNL A   1      31.720  29.317  25.531  1.00  0.00     0.188 C 
BRANCH   2   3
ATOM      3  O   UNL A   1      31.361  29.503  24.162  1.00  0.00    -0.376 OA
BRANCH   3   4
ATOM      4  C   UNL A   1      30.052  29.243  23.681  1.00  0.00     0.202 C 
BRANCH   4   5
ATOM      5  C   UNL A   1      29.831  28.208  22.585  1.00  0.00     0.261 C 
BRANCH   5   6
ATOM      6  O   UNL A   1      31.018  27.622  22.051  1.00  0.00    -0.463 OA
BRANCH   6   7
ATOM      7  C   UNL A   1      31.489  26.440  22.522  1.00  0.00     0.310 C 
ATOM      8  O   UNL A   1      30.857  25.406  22.318  1.00  0.00    -0.252 OA
BRANCH   7   9
ATOM      9  C   UNL A   1      32.713  26.447  23.426  1.00  0.00     0.158 C 
BRANCH   9  10
ATOM     10  C   UNL A   1      33.147  25.089  23.889  1.00  0.00    -0.037 A 
ATOM     11  C   UNL A   1      34.211  24.449  23.248  1.00  0.00     0.005 A 
ATOM     12  C   UNL A   1      32.541  24.492  25.004  1.00  0.00     0.005 A 
ATOM     13  C   UNL A   1      34.759  23.295  23.797  1.00  0.00     0.020 A 
ATOM     14  C   UNL A   1      33.094  23.349  25.568  1.00  0.00     0.020 A 
ATOM     15  C   UNL A   1      34.241  22.797  24.994  1.00  0.00     0.067 A 
BRANCH  15  16
ATOM     16  S   UNL A   1      35.141  21.544  25.868  1.00  0.00     0.180 S 
ATOM     17  O   UNL A   1      36.527  21.980  25.860  1.00  0.00    -0.224 OA
ATOM     18  O   UNL A   1      34.469  21.307  27.133  1.00  0.00    -0.224 OA
BRANCH  16  19
ATOM     19  C   UNL A   1      35.043  20.060  24.903  1.00  0.00     0.174 C 
BRANCH  19  20
ATOM     20  C   UNL A   1      33.734  19.281  24.921  1.00  0.00     0.133 C 
ATOM     21  C   UNL A   1      32.607  19.807  24.046  1.00  0.00     0.035 C 
ATOM     22  O   UNL A   1      33.911  17.892  24.623  1.00  0.00    -0.377 OA
ATOM     23  C   UNL A   1      32.432  18.746  22.988  1.00  0.00     0.031 C 
ATOM     24  C   UNL A   1      32.903  17.491  23.682  1.00  0.00     0.160 C 
ENDBRANCH  19  20
ENDBRANCH  16  19
ENDBRANCH  15  16
ENDBRANCH   9  10
ENDBRANCH   7   9
ENDBRANCH   6   7
ENDBRANCH   5   6
ENDBRANCH   4   5
ENDBRANCH   3   4
ENDBRANCH   2   3
ENDBRANCH   1   2
BRANCH   1  25
ATOM     25  O   UNL A   1      33.831  30.122  26.495  1.00  0.00    -0.377 OA
BRANCH  25  26
ATOM     26  C   UNL A   1      34.360  30.652  27.693  1.00  0.00     0.188 C 
BRANCH  26  27
ATOM     27  C   UNL A   1      33.988  32.113  28.023  1.00  0.00     0.188 C 
BRANCH  27  28
ATOM     28  O   UNL A   1      34.379  32.755  29.230  1.00  0.00    -0.376 OA
BRANCH  28  29
ATOM     29  C   UNL A   1      35.328  32.162  30.097  1.00  0.00     0.202 C 
BRANCH  29  30
ATOM     30  C   UNL A   1      35.320  32.525  31.589  1.00  0.00     0.261 C 
BRANCH  30  31
ATOM     31  O   UNL A   1      36.588  32.428  32.246  1.00  0.00    -0.460 OA
BRANCH  31  32
ATOM     32  C   UNL A   1      37.586  33.186  31.728  1.00  0.00     0.338 C 
ATOM     33  O   UNL A   1      37.672  34.403  31.747  1.00  0.00    -0.246 OA
BRANCH  32  34
ATOM     34  C   UNL A   1      38.693  32.288  31.323  1.00  0.00     0.060 A 
ATOM     35  C   UNL A   1      39.247  31.437  32.293  1.00  0.00     0.016 A 
ATOM     36  C   UNL A   1      39.118  32.214  29.995  1.00  0.00     0.016 A 
ATOM     37  C   UNL A   1      40.241  30.524  31.943  1.00  0.00     0.010 A 
ATOM     38  C   UNL A   1      40.140  31.328  29.651  1.00  0.00     0.010 A 
ATOM     39  C   UNL A   1      40.727  30.508  30.631  1.00  0.00    -0.014 A 
BRANCH  39  40
ATOM     40  C   UNL A   1      42.038  29.885  30.337  1.00  0.00     0.031 A 
ATOM     41  C   UNL A   1      43.247  30.770  30.447  1.00  0.00     0.074 A 
ATOM     42  C   UNL A   1      42.154  28.610  29.930  1.00  0.00     0.049 A 
ATOM     43  N   UNL A   1      44.481  30.545  30.086  1.00  0.00    -0.248 NA
ATOM     44  C   UNL A   1      43.021  32.104  31.031  1.00  0.00     0.031 C 
ATOM     45  C   UNL A   1      41.060  27.650  29.826  1.00  0.00     0.029 A 
ATOM     46  N   UNL A   1      43.256  27.921  29.491  1.00  0.00    -0.354 N 
ATOM     47  C   UNL A   1      45.171  31.717  30.370  1.00  0.00     0.074 A 
ATOM     48  C   UNL A   1      44.218  32.653  30.922  1.00  0.00     0.031 C 
ATOM     49  C   UNL A   1      41.538  26.504  29.309  1.00  0.00     0.029 A 
ATOM     50  C   UNL A   1      42.962  26.668  29.010  1.00  0.00     0.049 A 
ATOM     51  H   UNL A   1      44.170  28.288  29.519  1.00  0.00     0.167 HD
ATOM     52  C   UNL A   1      46.480  31.994  30.177  1.00  0.00     0.037 A 
ATOM     53  C   UNL A   1      43.744  25.780  28.361  1.00  0.00     0.037 A 
ATOM     54  C   UNL A   1      47.413  31.062  29.606  1.00  0.00     0.049 A 
ATOM     55  C   UNL A   1      45.191  26.117  28.105  1.00  0.00     0.074 A 
ATOM     56  C   UNL A   1      48.766  31.227  29.383  1.00  0.00     0.029 A 
ATOM     57  N   UNL A   1      47.080  29.795  29.149  1.00  0.00    -0.354 N 
ATOM     58  N   UNL A   1      45.845  27.217  28.402  1.00  0.00    -0.248 NA
ATOM     59  C   UNL A   1      46.006  25.100  27.428  1.00  0.00     0.031 C 
ATOM     60  C   UNL A   1      49.242  30.080  28.741  1.00  0.00     0.029 A 
ATOM     61  C   UNL A   1      48.196  29.175  28.620  1.00  0.00     0.049 A 
ATOM     62  H   UNL A   1      46.180  29.396  29.194  1.00  0.00     0.167 HD
ATOM     63  C   UNL A   1      47.154  27.012  27.974  1.00  0.00     0.074 A 
ATOM     64  C   UNL A   1      47.198  25.685  27.396  1.00  0.00     0.031 C 
ATOM     65  C   UNL A   1      48.222  27.845  28.060  1.00  0.00     0.037 A 
BRANCH  52  66
ATOM     66  C   UNL A   1      46.944  33.378  30.532  1.00  0.00     0.058 A 
ATOM     67  C   UNL A   1      47.375  33.710  31.827  1.00  0.00     0.135 A 
ATOM     68  C   UNL A   1      46.912  34.400  29.569  1.00  0.00     0.135 A 
ATOM     69  F   UNL A   1      47.401  32.777  32.791  1.00  0.00    -0.206 F 
ATOM     70  C   UNL A   1      47.708  35.016  32.168  1.00  0.00     0.059 A 
ATOM     71  C   UNL A   1      47.272  35.707  29.880  1.00  0.00     0.059 A 
ATOM     72  F   UNL A   1      46.501  34.139  28.319  1.00  0.00    -0.206 F 
ATOM     73  C   UNL A   1      47.644  36.009  31.189  1.00  0.00     0.060 A 
BRANCH  73  74
ATOM     74  S   UNL A   1      48.038  37.708  31.653  1.00  0.00     0.124 S 
ATOM     75  O   UNL A   1      47.778  38.417  30.404  1.00  0.00    -0.237 OA
ATOM     76  O   UNL A   1      47.091  37.965  32.734  1.00  0.00    -0.237 OA
ATOM     77  O   UNL A   1      49.439  37.636  32.054  1.00  0.00    -0.744 OA
ENDBRANCH  73  74
ENDBRANCH  52  66
BRANCH  53  78
ATOM     78  C   UNL A   1      43.154  24.499  27.889  1.00  0.00     0.058 A 
ATOM     79  C   UNL A   1      43.085  23.378  28.728  1.00  0.00     0.135 A 
ATOM     80  C   UNL A   1      42.594  24.389  26.606  1.00  0.00     0.135 A 
ATOM     81  F   UNL A   1      43.621  23.427  29.958  1.00  0.00    -0.206 F 
ATOM     82  C   UNL A   1      42.467  22.200  28.320  1.00  0.00     0.059 A 
ATOM     83  C   UNL A   1      41.952  23.230  26.183  1.00  0.00     0.059 A 
ATOM     84  F   UNL A   1      42.630  25.436  25.765  1.00  0.00    -0.206 F 
ATOM     85  C   UNL A   1      41.889  22.141  27.051  1.00  0.00     0.060 A 
BRANCH  85  86
ATOM     86  S   UNL A   1      40.986  20.648  26.580  1.00  0.00     0.124 S 
ATOM     87  O   UNL A   1      39.729  21.205  26.092  1.00  0.00    -0.237 OA
ATOM     88  O   UNL A   1      41.866  20.070  25.568  1.00  0.00    -0.237 OA
ATOM     89  O   UNL A   1      40.904  19.897  27.829  1.00  0.00    -0.744 OA
ENDBRANCH  85  86
ENDBRANCH  53  78
BRANCH  65  90
ATOM     90  C   UNL A   1      49.551  27.342  27.565  1.00  0.00     0.058 A 
ATOM     91  C   UNL A   1      50.505  26.790  28.431  1.00  0.00     0.135 A 
ATOM     92  C   UNL A   1      49.822  27.315  26.187  1.00  0.00     0.135 A 
ATOM     93  F   UNL A   1      50.297  26.795  29.758  1.00  0.00    -0.206 F 
ATOM     94  C   UNL A   1      51.684  26.230  27.949  1.00  0.00     0.059 A 
ATOM     95  C   UNL A   1      50.982  26.738  25.680  1.00  0.00     0.059 A 
ATOM     96  F   UNL A   1      48.935  27.822  25.314  1.00  0.00    -0.206 F 
ATOM     97  C   UNL A   1      51.910  26.201  26.571  1.00  0.00     0.060 A 
BRANCH  97  98
ATOM     98  S   UNL A   1      53.411  25.411  25.952  1.00  0.00     0.124 S 
ATOM     99  O   UNL A   1      52.908  24.102  25.547  1.00  0.00    -0.237 OA
ATOM    100  O   UNL A   1      53.808  26.302  24.867  1.00  0.00    -0.237 OA
ATOM    101  O   UNL A   1      54.297  25.411  27.112  1.00  0.00    -0.744 OA
ENDBRANCH  97  98
ENDBRANCH  65  90
ENDBRANCH  39  40
ENDBRANCH  32  34
ENDBRANCH  31  32
ENDBRANCH  30  31
ENDBRANCH  29  30
ENDBRANCH  28  29
ENDBRANCH  27  28
ENDBRANCH  26  27
ENDBRANCH  25  26
ENDBRANCH   1  25
TORSDOF 27
ENDMDL
MODEL 3
REMARK VINA RESULT:      -8.2      1.565      2.487
REMARK SMILES O=C(Cc1ccc(S(=O)(=O)C[C@H]2CCCO2)cc1)OCCOCCOCCOCCOC(=O)c1ccc(-c2c3nc(c(-c4c(F)cc(S(=O)(=O)[O-])cc4F)c4ccc([nH]4)c(-c4c(F)cc(S(=O)(=O)[O-])cc4F)c4nc(c(-c5c(F)cc(S(=O)(=O)[O-])cc5F)c5ccc2[nH]5)C=C4)C=C3)cc1
REMARK SMILES IDX 24 1 23 2 22 3 21 4 20 5 19 6 2 7 1 8 3 9 4 10 5 11 18 12
REMARK SMILES IDX 6 13 17 14 7 15 8 16 9 17 10 18 11 19 12 20 13 21 16 22
REMARK SMILES IDX 14 23 15 24 25 25 26 26 27 27 28 28 29 29 30 30 31 31 32 32
REMARK SMILES IDX 33 33 34 34 35 35 99 36 36 37 98 38 37 39 38 40 39 41 92 42
REMARK SMILES IDX 40 43 97 44 91 45 93 46 41 47 96 48 90 49 89 50 42 52 76 53
REMARK SMILES IDX 55 54 75 55 56 56 59 57 74 58 94 59 57 60 58 61 73 63 95 64
REMARK SMILES IDX 60 65 43 66 44 67 53 68 45 69 46 70 52 71 54 72 47 73 48 74
REMARK SMILES IDX 49 75 50 76 51 77 77 78 78 79 87 80 79 81 80 82 86 83 88 84
REMARK SMILES IDX 81 85 82 86 83 87 84 88 85 89 61 90 62 91 71 92 63 93 64 94
REMARK SMILES IDX 70 95 72 96 65 97 66 98 67 99 68 100 69 101
REMARK H PARENT 93 51 59 62
REMARK Flexibility Score: inf
ROOT
ATOM      1  C   UNL A   1      32.184  29.530  27.056  1.00  0.00     0.188 C 
ENDROOT
BRANCH   1   2
ATOM      2  C   UNL A   1      31.835  28.235  26.334  1.00  0.00     0.188 C 
BRANCH   2   3
ATOM      3  O   UNL A   1      31.139  28.279  25.089  1.00  0.00    -0.376 OA
BRANCH   3   4
ATOM      4  C   UNL A   1      30.326  27.208  24.637  1.00  0.00     0.202 C 
BRANCH   4   5
ATOM      5  C   UNL A   1      30.054  27.028  23.149  1.00  0.00     0.261 C 
BRANCH   5   6
ATOM      6  O   UNL A   1      31.047  27.568  22.278  1.00  0.00    -0.463 OA
BRANCH   6   7
ATOM      7  C   UNL A   1      31.908  26.760  21.610  1.00  0.00     0.310 C 
ATOM      8  O   UNL A   1      31.494  26.048  20.697  1.00  0.00    -0.252 OA
BRANCH   7   9
ATOM      9  C   UNL A   1      33.339  26.640  22.113  1.00  0.00     0.158 C 
BRANCH   9  10
ATOM     10  C   UNL A   1      33.606  25.414  22.932  1.00  0.00    -0.037 A 
ATOM     11  C   UNL A   1      33.450  25.464  24.320  1.00  0.00     0.005 A 
ATOM     12  C   UNL A   1      33.941  24.203  22.310  1.00  0.00     0.005 A 
ATOM     13  C   UNL A   1      33.486  24.291  25.064  1.00  0.00     0.020 A 
ATOM     14  C   UNL A   1      33.961  23.024  23.045  1.00  0.00     0.020 A 
ATOM     15  C   UNL A   1      33.669  23.072  24.409  1.00  0.00     0.067 A 
BRANCH  15  16
ATOM     16  S   UNL A   1      33.377  21.564  25.295  1.00  0.00     0.180 S 
ATOM     17  O   UNL A   1      32.079  21.726  25.927  1.00  0.00    -0.224 OA
ATOM     18  O   UNL A   1      33.599  20.456  24.382  1.00  0.00    -0.224 OA
BRANCH  16  19
ATOM     19  C   UNL A   1      34.591  21.471  26.584  1.00  0.00     0.174 C 
BRANCH  19  20
ATOM     20  C   UNL A   1      36.056  21.633  26.199  1.00  0.00     0.133 C 
ATOM     21  C   UNL A   1      36.518  20.924  24.935  1.00  0.00     0.035 C 
ATOM     22  O   UNL A   1      36.456  23.003  26.106  1.00  0.00    -0.377 OA
ATOM     23  C   UNL A   1      36.850  22.044  23.982  1.00  0.00     0.031 C 
ATOM     24  C   UNL A   1      37.223  23.180  24.904  1.00  0.00     0.160 C 
ENDBRANCH  19  20
ENDBRANCH  16  19
ENDBRANCH  15  16
ENDBRANCH   9  10
ENDBRANCH   7   9
ENDBRANCH   6   7
ENDBRANCH   5   6
ENDBRANCH   4   5
ENDBRANCH   3   4
ENDBRANCH   2   3
ENDBRANCH   1   2
BRANCH   1  25
ATOM     25  O   UNL A   1      33.357  30.149  26.559  1.00  0.00    -0.377 OA
BRANCH  25  26
ATOM     26  C   UNL A   1      34.268  30.560  27.558  1.00  0.00     0.188 C 
BRANCH  26  27
ATOM     27  C   UNL A   1      34.176  32.033  28.010  1.00  0.00     0.188 C 
BRANCH  27  28
ATOM     28  O   UNL A   1      34.829  32.525  29.173  1.00  0.00    -0.376 OA
BRANCH  28  29
ATOM     29  C   UNL A   1      35.921  31.829  29.746  1.00  0.00     0.202 C 
BRANCH  29  30
ATOM     30  C   UNL A   1      35.832  31.351  31.202  1.00  0.00     0.261 C 
BRANCH  30  31
ATOM     31  O   UNL A   1      37.083  31.009  31.808  1.00  0.00    -0.460 OA
BRANCH  31  32
ATOM     32  C   UNL A   1      37.914  32.045  32.081  1.00  0.00     0.338 C 
ATOM     33  O   UNL A   1      37.634  33.083  32.658  1.00  0.00    -0.246 OA
BRANCH  32  34
ATOM     34  C   UNL A   1      39.301  31.628  31.765  1.00  0.00     0.060 A 
ATOM     35  C   UNL A   1      39.798  31.893  30.479  1.00  0.00     0.016 A 
ATOM     36  C   UNL A   1      40.130  31.070  32.741  1.00  0.00     0.016 A 
ATOM     37  C   UNL A   1      41.120  31.584  30.158  1.00  0.00     0.010 A 
ATOM     38  C   UNL A   1      41.441  30.725  32.409  1.00  0.00     0.010 A 
ATOM     39  C   UNL A   1      41.926  30.948  31.108  1.00  0.00    -0.014 A 
BRANCH  39  40
ATOM     40  C   UNL A   1      43.149  30.232  30.678  1.00  0.00     0.031 A 
ATOM     41  C   UNL A   1      44.430  31.017  30.688  1.00  0.00     0.074 A 
ATOM     42  C   UNL A   1      43.123  28.963  30.239  1.00  0.00     0.049 A 
ATOM     43  N   UNL A   1      45.602  30.704  30.206  1.00  0.00    -0.248 NA
ATOM     44  C   UNL A   1      44.369  32.348  31.314  1.00  0.00     0.031 C 
ATOM     45  C   UNL A   1      41.949  28.095  30.223  1.00  0.00     0.029 A 
ATOM     46  N   UNL A   1      44.119  28.201  29.683  1.00  0.00    -0.354 N 
ATOM     47  C   UNL A   1      46.408  31.810  30.444  1.00  0.00     0.074 A 
ATOM     48  C   UNL A   1      45.591  32.804  31.101  1.00  0.00     0.031 C 
ATOM     49  C   UNL A   1      42.283  26.928  29.641  1.00  0.00     0.029 A 
ATOM     50  C   UNL A   1      43.681  26.987  29.210  1.00  0.00     0.049 A 
ATOM     51  H   UNL A   1      45.058  28.494  29.630  1.00  0.00     0.167 HD
ATOM     52  C   UNL A   1      47.712  31.988  30.131  1.00  0.00     0.037 A 
ATOM     53  C   UNL A   1      44.323  26.058  28.473  1.00  0.00     0.037 A 
ATOM     54  C   UNL A   1      48.508  31.001  29.456  1.00  0.00     0.049 A 
ATOM     55  C   UNL A   1      45.762  26.287  28.086  1.00  0.00     0.074 A 
ATOM     56  C   UNL A   1      49.843  31.065  29.107  1.00  0.00     0.029 A 
ATOM     57  N   UNL A   1      48.032  29.776  29.010  1.00  0.00    -0.354 N 
ATOM     58  N   UNL A   1      46.528  27.324  28.339  1.00  0.00    -0.248 NA
ATOM     59  C   UNL A   1      46.426  25.226  27.315  1.00  0.00     0.031 C 
ATOM     60  C   UNL A   1      50.162  29.901  28.402  1.00  0.00     0.029 A 
ATOM     61  C   UNL A   1      49.040  29.084  28.365  1.00  0.00     0.049 A 
ATOM     62  H   UNL A   1      47.112  29.449  29.133  1.00  0.00     0.167 HD
ATOM     63  C   UNL A   1      47.770  27.028  27.783  1.00  0.00     0.074 A 
ATOM     64  C   UNL A   1      47.652  25.717  27.179  1.00  0.00     0.031 C 
ATOM     65  C   UNL A   1      48.905  27.771  27.781  1.00  0.00     0.037 A 
BRANCH  52  66
ATOM     66  C   UNL A   1      48.317  33.322  30.464  1.00  0.00     0.058 A 
ATOM     67  C   UNL A   1      48.929  33.573  31.703  1.00  0.00     0.135 A 
ATOM     68  C   UNL A   1      48.241  34.380  29.544  1.00  0.00     0.135 A 
ATOM     69  F   UNL A   1      49.006  32.604  32.629  1.00  0.00    -0.206 F 
ATOM     70  C   UNL A   1      49.398  34.839  32.037  1.00  0.00     0.059 A 
ATOM     71  C   UNL A   1      48.732  35.646  29.845  1.00  0.00     0.059 A 
ATOM     72  F   UNL A   1      47.660  34.197  28.348  1.00  0.00    -0.206 F 
ATOM     73  C   UNL A   1      49.286  35.871  31.104  1.00  0.00     0.060 A 
BRANCH  73  74
ATOM     74  S   UNL A   1      49.859  37.520  31.565  1.00  0.00     0.124 S 
ATOM     75  O   UNL A   1      50.273  37.306  32.948  1.00  0.00    -0.237 OA
ATOM     76  O   UNL A   1      50.938  37.754  30.610  1.00  0.00    -0.237 OA
ATOM     77  O   UNL A   1      48.675  38.354  31.386  1.00  0.00    -0.744 OA
ENDBRANCH  73  74
ENDBRANCH  52  66
BRANCH  53  78
ATOM     78  C   UNL A   1      43.591  24.840  28.037  1.00  0.00     0.058 A 
ATOM     79  C   UNL A   1      43.049  24.741  26.748  1.00  0.00     0.135 A 
ATOM     80  C   UNL A   1      43.470  23.726  28.883  1.00  0.00     0.135 A 
ATOM     81  F   UNL A   1      43.125  25.784  25.907  1.00  0.00    -0.206 F 
ATOM     82  C   UNL A   1      42.429  23.576  26.306  1.00  0.00     0.059 A 
ATOM     83  C   UNL A   1      42.873  22.543  28.457  1.00  0.00     0.059 A 
ATOM     84  F   UNL A   1      43.976  23.768  30.126  1.00  0.00    -0.206 F 
ATOM     85  C   UNL A   1      42.360  22.476  27.163  1.00  0.00     0.060 A 
BRANCH  85  86
ATOM     86  S   UNL A   1      41.660  20.933  26.536  1.00  0.00     0.124 S 
ATOM     87  O   UNL A   1      40.340  21.365  26.093  1.00  0.00    -0.237 OA
ATOM     88  O   UNL A   1      42.605  20.579  25.481  1.00  0.00    -0.237 OA
ATOM     89  O   UNL A   1      41.682  20.056  27.704  1.00  0.00    -0.744 OA
ENDBRANCH  85  86
ENDBRANCH  53  78
BRANCH  65  90
ATOM     90  C   UNL A   1      50.137  27.178  27.152  1.00  0.00     0.058 A 
ATOM     91  C   UNL A   1      50.927  26.229  27.816  1.00  0.00     0.135 A 
ATOM     92  C   UNL A   1      50.463  27.488  25.821  1.00  0.00     0.135 A 
ATOM     93  F   UNL A   1      50.661  25.902  29.091  1.00  0.00    -0.206 F 
ATOM     94  C   UNL A   1      52.000  25.609  27.184  1.00  0.00     0.059 A 
ATOM     95  C   UNL A   1      51.515  26.862  25.161  1.00  0.00     0.059 A 
ATOM     96  F   UNL A   1      49.731  28.383  25.137  1.00  0.00    -0.206 F 
ATOM     97  C   UNL A   1      52.281  25.925  25.853  1.00  0.00     0.060 A 
BRANCH  97  98
ATOM     98  S   UNL A   1      53.632  25.063  25.022  1.00  0.00     0.124 S 
ATOM     99  O   UNL A   1      54.790  25.539  25.773  1.00  0.00    -0.237 OA
ATOM    100  O   UNL A   1      53.278  23.662  25.222  1.00  0.00    -0.237 OA
ATOM    101  O   UNL A   1      53.540  25.536  23.644  1.00  0.00    -0.744 OA
ENDBRANCH  97  98
ENDBRANCH  65  90
ENDBRANCH  39  40
ENDBRANCH  32  34
ENDBRANCH  31  32
ENDBRANCH  30  31
ENDBRANCH  29  30
ENDBRANCH  28  29
ENDBRANCH  27  28
ENDBRANCH  26  27
ENDBRANCH  25  26
ENDBRANCH   1  25
TORSDOF 27
ENDMDL
