MODEL 1
REMARK VINA RESULT:      -7.0      0.000      0.000
REMARK SMILES COc1ccc(N2C(=O)/C(=C/c3c(C(=O)OCCOCCOCCOCCOC(=O)c4ccc(-c5c6nc(c(-c7c(F)cc(S(=O)(=O)[O-])cc7F)c7ccc([nH]7)c(-c7c(F)cc(S(=O)(=O)[O-])cc7F)c7nc(c(-c8c(F)cc(S(=O)(=O)[O-])cc8F)c8ccc5[nH]8)C=C7)C=C6)cc4)[nH]c4cc(OC)ccc34)SC2=S)cc1
REMARK SMILES IDX 22 1 21 2 20 3 19 4 18 5 17 6 16 7 14 8 15 9 13 10 12 11
REMARK SMILES IDX 105 12 97 13 98 14 104 15 99 17 103 18 100 19 11 20 7 21
REMARK SMILES IDX 8 22 107 23 9 24 10 25 106 26 108 27 6 28 3 29 4 30 110 31
REMARK SMILES IDX 5 32 109 33 2 34 1 35 101 36 102 37 23 38 24 39 25 40 26 41
REMARK SMILES IDX 27 42 28 43 29 44 30 45 31 46 32 47 96 48 33 49 95 50 34 51
REMARK SMILES IDX 35 52 36 53 89 54 37 55 94 56 88 57 90 58 38 59 93 60 87 61
REMARK SMILES IDX 86 62 39 64 73 65 52 66 72 67 53 68 56 69 71 70 91 71 54 72
REMARK SMILES IDX 55 73 70 75 92 76 57 77 40 78 41 79 50 80 42 81 43 82 49 83
REMARK SMILES IDX 51 84 44 85 45 86 46 87 47 88 48 89 74 90 75 91 84 92 76 93
REMARK SMILES IDX 77 94 83 95 85 96 78 97 79 98 80 99 81 100 82 101 58 102
REMARK SMILES IDX 59 103 68 104 60 105 61 106 67 107 69 108 62 109 63 110
REMARK SMILES IDX 64 111 65 112 66 113
REMARK H PARENT 97 16 90 63 56 74
REMARK Flexibility Score: inf
ROOT
ATOM      1  O   UNL A   1      52.530  32.152  26.497  1.00  0.00    -0.377 OA
ENDROOT
BRANCH   1   2
ATOM      2  C   UNL A   1      52.922  33.087  25.496  1.00  0.00     0.188 C 
BRANCH   2   3
ATOM      3  C   UNL A   1      52.316  32.893  24.085  1.00  0.00     0.188 C 
BRANCH   3   4
ATOM      4  O   UNL A   1      53.104  32.725  22.905  1.00  0.00    -0.376 OA
BRANCH   4   5
ATOM      5  C   UNL A   1      53.253  31.421  22.365  1.00  0.00     0.202 C 
BRANCH   5   6
ATOM      6  C   UNL A   1      52.750  31.331  20.918  1.00  0.00     0.261 C 
BRANCH   6   7
ATOM      7  O   UNL A   1      52.376  29.993  20.553  1.00  0.00    -0.459 OA
BRANCH   7   8
ATOM      8  C   UNL A   1      51.034  29.770  20.531  1.00  0.00     0.355 C 
ATOM      9  O   UNL A   1      50.170  30.626  20.691  1.00  0.00    -0.244 OA
BRANCH   8  10
ATOM     10  C   UNL A   1      50.737  28.413  20.128  1.00  0.00     0.133 A 
ATOM     11  C   UNL A   1      49.831  27.428  20.518  1.00  0.00     0.016 A 
ATOM     12  C   UNL A   1      50.162  26.224  19.809  1.00  0.00     0.008 A 
ATOM     13  N   UNL A   1      51.559  27.835  19.187  1.00  0.00    -0.348 N 
ATOM     14  C   UNL A   1      51.319  26.493  19.080  1.00  0.00     0.050 A 
ATOM     15  C   UNL A   1      49.648  24.908  19.764  1.00  0.00     0.015 A 
ATOM     16  H   UNL A   1      52.231  28.323  18.660  1.00  0.00     0.167 HD
ATOM     17  C   UNL A   1      52.056  25.511  18.415  1.00  0.00     0.073 A 
ATOM     18  C   UNL A   1      50.347  23.912  19.060  1.00  0.00     0.047 A 
ATOM     19  C   UNL A   1      51.549  24.213  18.423  1.00  0.00     0.120 A 
BRANCH  11  20
ATOM     20  C   UNL A   1      48.887  27.534  21.598  1.00  0.00     0.032 C 
ATOM     21  N   UNL A   1      48.735  26.538  25.009  1.00  0.00    -0.261 N 
ATOM     22  C   UNL A   1      48.113  27.169  23.914  1.00  0.00     0.270 C 
ATOM     23  C   UNL A   1      50.135  26.561  24.936  1.00  0.00     0.152 C 
ATOM     24  O   UNL A   1      46.929  27.383  23.687  1.00  0.00    -0.268 OA
ATOM     25  C   UNL A   1      49.146  27.559  22.912  1.00  0.00     0.081 C 
ATOM     26  S   UNL A   1      50.655  27.698  23.686  1.00  0.00    -0.054 SA
ATOM     27  S   UNL A   1      51.351  25.678  25.684  1.00  0.00    -0.051 S 
BRANCH  21  28
ATOM     28  C   UNL A   1      47.954  25.900  26.058  1.00  0.00     0.051 A 
ATOM     29  C   UNL A   1      46.355  24.656  28.091  1.00  0.00     0.119 A 
ATOM     30  C   UNL A   1      47.100  25.797  28.360  1.00  0.00     0.048 A 
ATOM     31  C   UNL A   1      46.433  24.114  26.825  1.00  0.00     0.048 A 
ATOM     32  C   UNL A   1      47.874  26.416  27.363  1.00  0.00     0.030 A 
ATOM     33  C   UNL A   1      47.241  24.710  25.849  1.00  0.00     0.030 A 
BRANCH  29  34
ATOM     34  O   UNL A   1      45.587  24.167  29.105  1.00  0.00    -0.497 OA
ATOM     35  C   UNL A   1      44.497  23.331  28.726  1.00  0.00     0.278 C 
ENDBRANCH  29  34
ENDBRANCH  21  28
ENDBRANCH  11  20
BRANCH  19  36
ATOM     36  O   UNL A   1      52.347  23.249  17.868  1.00  0.00    -0.497 OA
ATOM     37  C   UNL A   1      51.870  21.936  18.141  1.00  0.00     0.278 C 
ENDBRANCH  19  36
ENDBRANCH   8  10
ENDBRANCH   7   8
ENDBRANCH   6   7
ENDBRANCH   5   6
ENDBRANCH   4   5
ENDBRANCH   3   4
ENDBRANCH   2   3
ENDBRANCH   1   2
BRANCH   1  38
ATOM     38  C   UNL A   1      51.998  30.923  25.999  1.00  0.00     0.188 C 
BRANCH  38  39
ATOM     39  C   UNL A   1      53.086  29.954  25.523  1.00  0.00     0.188 C 
BRANCH  39  40
ATOM     40  O   UNL A   1      53.549  29.127  26.589  1.00  0.00    -0.376 OA
BRANCH  40  41
ATOM     41  C   UNL A   1      54.473  28.107  26.226  1.00  0.00     0.202 C 
BRANCH  41  42
ATOM     42  C   UNL A   1      54.553  26.966  27.250  1.00  0.00     0.261 C 
BRANCH  42  43
ATOM     43  O   UNL A   1      54.176  27.343  28.587  1.00  0.00    -0.460 OA
BRANCH  43  44
ATOM     44  C   UNL A   1      54.082  26.330  29.477  1.00  0.00     0.338 C 
ATOM     45  O   UNL A   1      54.957  25.534  29.770  1.00  0.00    -0.246 OA
BRANCH  44  46
ATOM     46  C   UNL A   1      52.791  26.425  30.182  1.00  0.00     0.060 A 
ATOM     47  C   UNL A   1      51.647  25.934  29.544  1.00  0.00     0.016 A 
ATOM     48  C   UNL A   1      52.693  27.066  31.419  1.00  0.00     0.016 A 
ATOM     49  C   UNL A   1      50.390  26.148  30.109  1.00  0.00     0.010 A 
ATOM     50  C   UNL A   1      51.432  27.291  31.978  1.00  0.00     0.010 A 
ATOM     51  C   UNL A   1      50.272  26.878  31.301  1.00  0.00    -0.014 A 
BRANCH  51  52
ATOM     52  C   UNL A   1      48.932  27.357  31.726  1.00  0.00     0.031 A 
ATOM     53  C   UNL A   1      48.290  26.742  32.936  1.00  0.00     0.074 A 
ATOM     54  C   UNL A   1      48.279  28.317  31.051  1.00  0.00     0.049 A 
ATOM     55  N   UNL A   1      47.180  27.078  33.539  1.00  0.00    -0.248 NA
ATOM     56  C   UNL A   1      48.980  25.587  33.532  1.00  0.00     0.031 C 
ATOM     57  C   UNL A   1      48.754  28.940  29.824  1.00  0.00     0.029 A 
ATOM     58  N   UNL A   1      47.068  28.923  31.293  1.00  0.00    -0.354 N 
ATOM     59  C   UNL A   1      47.026  26.169  34.577  1.00  0.00     0.074 A 
ATOM     60  C   UNL A   1      48.147  25.254  34.507  1.00  0.00     0.031 C 
ATOM     61  C   UNL A   1      47.833  29.827  29.412  1.00  0.00     0.029 A 
ATOM     62  C   UNL A   1      46.726  29.868  30.355  1.00  0.00     0.049 A 
ATOM     63  H   UNL A   1      46.500  28.700  32.065  1.00  0.00     0.167 HD
ATOM     64  C   UNL A   1      46.045  26.107  35.507  1.00  0.00     0.037 A 
ATOM     65  C   UNL A   1      45.663  30.693  30.267  1.00  0.00     0.037 A 
ATOM     66  C   UNL A   1      44.934  27.018  35.584  1.00  0.00     0.049 A 
ATOM     67  C   UNL A   1      44.639  30.667  31.367  1.00  0.00     0.074 A 
ATOM     68  C   UNL A   1      43.933  27.080  36.539  1.00  0.00     0.029 A 
ATOM     69  N   UNL A   1      44.666  28.019  34.663  1.00  0.00    -0.354 N 
ATOM     70  N   UNL A   1      44.591  29.897  32.427  1.00  0.00    -0.248 NA
ATOM     71  C   UNL A   1      43.541  31.638  31.276  1.00  0.00     0.031 C 
ATOM     72  C   UNL A   1      43.043  28.099  36.178  1.00  0.00     0.029 A 
ATOM     73  C   UNL A   1      43.506  28.691  35.016  1.00  0.00     0.049 A 
ATOM     74  H   UNL A   1      45.220  28.223  33.875  1.00  0.00     0.167 HD
ATOM     75  C   UNL A   1      43.466  30.302  33.134  1.00  0.00     0.074 A 
ATOM     76  C   UNL A   1      42.891  31.414  32.407  1.00  0.00     0.031 C 
ATOM     77  C   UNL A   1      42.942  29.788  34.275  1.00  0.00     0.037 A 
BRANCH  64  78
ATOM     78  C   UNL A   1      46.132  24.995  36.508  1.00  0.00     0.058 A 
ATOM     79  C   UNL A   1      46.789  25.162  37.738  1.00  0.00     0.135 A 
ATOM     80  C   UNL A   1      45.553  23.747  36.233  1.00  0.00     0.135 A 
ATOM     81  F   UNL A   1      47.380  26.330  38.035  1.00  0.00    -0.206 F 
ATOM     82  C   UNL A   1      46.890  24.120  38.651  1.00  0.00     0.059 A 
ATOM     83  C   UNL A   1      45.624  22.697  37.142  1.00  0.00     0.059 A 
ATOM     84  F   UNL A   1      44.924  23.536  35.066  1.00  0.00    -0.206 F 
ATOM     85  C   UNL A   1      46.308  22.889  38.342  1.00  0.00     0.060 A 
BRANCH  85  86
ATOM     86  S   UNL A   1      46.446  21.543  39.535  1.00  0.00     0.124 S 
ATOM     87  O   UNL A   1      45.435  21.921  40.518  1.00  0.00    -0.237 OA
ATOM     88  O   UNL A   1      46.134  20.370  38.724  1.00  0.00    -0.237 OA
ATOM     89  O   UNL A   1      47.830  21.634  39.990  1.00  0.00    -0.744 OA
ENDBRANCH  85  86
ENDBRANCH  64  78
BRANCH  65  90
ATOM     90  C   UNL A   1      45.545  31.667  29.143  1.00  0.00     0.058 A 
ATOM     91  C   UNL A   1      46.232  32.890  29.175  1.00  0.00     0.135 A 
ATOM     92  C   UNL A   1      44.762  31.396  28.009  1.00  0.00     0.135 A 
ATOM     93  F   UNL A   1      47.007  33.199  30.226  1.00  0.00    -0.206 F 
ATOM     94  C   UNL A   1      46.145  33.810  28.135  1.00  0.00     0.059 A 
ATOM     95  C   UNL A   1      44.699  32.278  26.933  1.00  0.00     0.059 A 
ATOM     96  F   UNL A   1      44.080  30.243  27.923  1.00  0.00    -0.206 F 
ATOM     97  C   UNL A   1      45.398  33.483  27.004  1.00  0.00     0.060 A 
BRANCH  97  98
ATOM     98  S   UNL A   1      45.466  34.588  25.576  1.00  0.00     0.124 S 
ATOM     99  O   UNL A   1      44.753  33.814  24.567  1.00  0.00    -0.237 OA
ATOM    100  O   UNL A   1      44.777  35.776  26.074  1.00  0.00    -0.237 OA
ATOM    101  O   UNL A   1      46.898  34.758  25.353  1.00  0.00    -0.744 OA
ENDBRANCH  97  98
ENDBRANCH  65  90
BRANCH  77 102
ATOM    102  C   UNL A   1      41.691  30.447  34.782  1.00  0.00     0.058 A 
ATOM    103  C   UNL A   1      41.750  31.527  35.678  1.00  0.00     0.135 A 
ATOM    104  C   UNL A   1      40.428  29.948  34.432  1.00  0.00     0.135 A 
ATOM    105  F   UNL A   1      42.936  32.033  36.050  1.00  0.00    -0.206 F 
ATOM    106  C   UNL A   1      40.601  32.047  36.262  1.00  0.00     0.059 A 
ATOM    107  C   UNL A   1      39.264  30.470  34.984  1.00  0.00     0.059 A 
ATOM    108  F   UNL A   1      40.319  28.924  33.570  1.00  0.00    -0.206 F 
ATOM    109  C   UNL A   1      39.363  31.498  35.923  1.00  0.00     0.060 A 
BRANCH 109 110
ATOM    110  S   UNL A   1      37.879  32.130  36.731  1.00  0.00     0.124 S 
ATOM    111  O   UNL A   1      37.035  32.448  35.584  1.00  0.00    -0.237 OA
ATOM    112  O   UNL A   1      37.447  30.994  37.539  1.00  0.00    -0.237 OA
ATOM    113  O   UNL A   1      38.372  33.277  37.488  1.00  0.00    -0.744 OA
ENDBRANCH 109 110
ENDBRANCH  77 102
ENDBRANCH  51  52
ENDBRANCH  44  46
ENDBRANCH  43  44
ENDBRANCH  42  43
ENDBRANCH  41  42
ENDBRANCH  40  41
ENDBRANCH  39  40
ENDBRANCH  38  39
ENDBRANCH   1  38
TORSDOF 27
ENDMDL
MODEL 2
REMARK VINA RESULT:      -6.5      6.417     11.924
REMARK SMILES COc1ccc(N2C(=O)/C(=C/c3c(C(=O)OCCOCCOCCOCCOC(=O)c4ccc(-c5c6nc(c(-c7c(F)cc(S(=O)(=O)[O-])cc7F)c7ccc([nH]7)c(-c7c(F)cc(S(=O)(=O)[O-])cc7F)c7nc(c(-c8c(F)cc(S(=O)(=O)[O-])cc8F)c8ccc5[nH]8)C=C7)C=C6)cc4)[nH]c4cc(OC)ccc34)SC2=S)cc1
REMARK SMILES IDX 22 1 21 2 20 3 19 4 18 5 17 6 16 7 14 8 15 9 13 10 12 11
REMARK SMILES IDX 105 12 97 13 98 14 104 15 99 17 103 18 100 19 11 20 7 21
REMARK SMILES IDX 8 22 107 23 9 24 10 25 106 26 108 27 6 28 3 29 4 30 110 31
REMARK SMILES IDX 5 32 109 33 2 34 1 35 101 36 102 37 23 38 24 39 25 40 26 41
REMARK SMILES IDX 27 42 28 43 29 44 30 45 31 46 32 47 96 48 33 49 95 50 34 51
REMARK SMILES IDX 35 52 36 53 89 54 37 55 94 56 88 57 90 58 38 59 93 60 87 61
REMARK SMILES IDX 86 62 39 64 73 65 52 66 72 67 53 68 56 69 71 70 91 71 54 72
REMARK SMILES IDX 55 73 70 75 92 76 57 77 40 78 41 79 50 80 42 81 43 82 49 83
REMARK SMILES IDX 51 84 44 85 45 86 46 87 47 88 48 89 74 90 75 91 84 92 76 93
REMARK SMILES IDX 77 94 83 95 85 96 78 97 79 98 80 99 81 100 82 101 58 102
REMARK SMILES IDX 59 103 68 104 60 105 61 106 67 107 69 108 62 109 63 110
REMARK SMILES IDX 64 111 65 112 66 113
REMARK H PARENT 97 16 90 63 56 74
REMARK Flexibility Score: inf
ROOT
ATOM      1  O   UNL A   1      37.821  30.723  28.425  1.00  0.00    -0.377 OA
ENDROOT
BRANCH   1   2
ATOM      2  C   UNL A   1      38.232  29.416  28.032  1.00  0.00     0.188 C 
BRANCH   2   3
ATOM      3  C   UNL A   1      39.707  29.036  28.309  1.00  0.00     0.188 C 
BRANCH   3   4
ATOM      4  O   UNL A   1      40.240  27.730  28.081  1.00  0.00    -0.376 OA
BRANCH   4   5
ATOM      5  C   UNL A   1      39.858  26.676  28.951  1.00  0.00     0.202 C 
BRANCH   5   6
ATOM      6  C   UNL A   1      40.232  25.297  28.392  1.00  0.00     0.261 C 
BRANCH   6   7
ATOM      7  O   UNL A   1      40.058  25.220  26.968  1.00  0.00    -0.459 OA
BRANCH   7   8
ATOM      8  C   UNL A   1      39.043  24.406  26.569  1.00  0.00     0.355 C 
ATOM      9  O   UNL A   1      37.886  24.760  26.372  1.00  0.00    -0.244 OA
BRANCH   8  10
ATOM     10  C   UNL A   1      39.534  23.086  26.239  1.00  0.00     0.133 A 
ATOM     11  C   UNL A   1      38.973  21.818  26.090  1.00  0.00     0.016 A 
ATOM     12  C   UNL A   1      40.048  20.885  25.900  1.00  0.00     0.008 A 
ATOM     13  N   UNL A   1      40.894  22.929  26.102  1.00  0.00    -0.348 N 
ATOM     14  C   UNL A   1      41.233  21.605  26.033  1.00  0.00     0.050 A 
ATOM     15  C   UNL A   1      40.146  19.488  25.704  1.00  0.00     0.015 A 
ATOM     16  H   UNL A   1      41.539  23.671  26.059  1.00  0.00     0.167 HD
ATOM     17  C   UNL A   1      42.494  21.008  26.105  1.00  0.00     0.073 A 
ATOM     18  C   UNL A   1      41.409  18.871  25.723  1.00  0.00     0.047 A 
ATOM     19  C   UNL A   1      42.558  19.625  25.952  1.00  0.00     0.120 A 
BRANCH  11  20
ATOM     20  C   UNL A   1      37.594  21.477  26.314  1.00  0.00     0.032 C 
ATOM     21  N   UNL A   1      34.422  22.763  25.350  1.00  0.00    -0.261 N 
ATOM     22  C   UNL A   1      35.159  21.794  26.057  1.00  0.00     0.270 C 
ATOM     23  C   UNL A   1      35.124  23.309  24.266  1.00  0.00     0.152 C 
ATOM     24  O   UNL A   1      34.839  21.084  27.002  1.00  0.00    -0.268 OA
ATOM     25  C   UNL A   1      36.547  21.734  25.517  1.00  0.00     0.081 C 
ATOM     26  S   UNL A   1      36.557  22.331  23.924  1.00  0.00    -0.054 SA
ATOM     27  S   UNL A   1      34.945  24.703  23.350  1.00  0.00    -0.051 S 
BRANCH  21  28
ATOM     28  C   UNL A   1      33.086  23.156  25.775  1.00  0.00     0.051 A 
ATOM     29  C   UNL A   1      30.433  23.933  26.546  1.00  0.00     0.119 A 
ATOM     30  C   UNL A   1      31.523  24.759  26.789  1.00  0.00     0.048 A 
ATOM     31  C   UNL A   1      30.666  22.708  25.956  1.00  0.00     0.048 A 
ATOM     32  C   UNL A   1      32.822  24.386  26.401  1.00  0.00     0.030 A 
ATOM     33  C   UNL A   1      31.968  22.325  25.612  1.00  0.00     0.030 A 
BRANCH  29  34
ATOM     34  O   UNL A   1      29.207  24.409  26.903  1.00  0.00    -0.497 OA
ATOM     35  C   UNL A   1      28.654  25.420  26.063  1.00  0.00     0.278 C 
ENDBRANCH  29  34
ENDBRANCH  21  28
ENDBRANCH  11  20
BRANCH  19  36
ATOM     36  O   UNL A   1      43.786  19.051  26.144  1.00  0.00    -0.497 OA
ATOM     37  C   UNL A   1      44.571  19.054  24.957  1.00  0.00     0.278 C 
ENDBRANCH  19  36
ENDBRANCH   8  10
ENDBRANCH   7   8
ENDBRANCH   6   7
ENDBRANCH   5   6
ENDBRANCH   4   5
ENDBRANCH   3   4
ENDBRANCH   2   3
ENDBRANCH   1   2
BRANCH   1  38
ATOM     38  C   UNL A   1      38.650  31.346  29.408  1.00  0.00     0.188 C 
BRANCH  38  39
ATOM     39  C   UNL A   1      38.305  32.822  29.628  1.00  0.00     0.188 C 
BRANCH  39  40
ATOM     40  O   UNL A   1      38.065  33.100  31.007  1.00  0.00    -0.376 OA
BRANCH  40  41
ATOM     41  C   UNL A   1      36.811  33.704  31.309  1.00  0.00     0.202 C 
BRANCH  41  42
ATOM     42  C   UNL A   1      36.485  33.709  32.809  1.00  0.00     0.261 C 
BRANCH  42  43
ATOM     43  O   UNL A   1      36.990  32.570  33.530  1.00  0.00    -0.460 OA
BRANCH  43  44
ATOM     44  C   UNL A   1      37.406  32.813  34.793  1.00  0.00     0.338 C 
ATOM     45  O   UNL A   1      36.764  33.342  35.682  1.00  0.00    -0.246 OA
BRANCH  44  46
ATOM     46  C   UNL A   1      38.724  32.184  34.996  1.00  0.00     0.060 A 
ATOM     47  C   UNL A   1      39.864  32.879  34.577  1.00  0.00     0.016 A 
ATOM     48  C   UNL A   1      38.831  30.891  35.515  1.00  0.00     0.016 A 
ATOM     49  C   UNL A   1      41.110  32.252  34.608  1.00  0.00     0.010 A 
ATOM     50  C   UNL A   1      40.079  30.261  35.533  1.00  0.00     0.010 A 
ATOM     51  C   UNL A   1      41.215  30.920  35.033  1.00  0.00    -0.014 A 
BRANCH  51  52
ATOM     52  C   UNL A   1      42.474  30.175  34.776  1.00  0.00     0.031 A 
ATOM     53  C   UNL A   1      43.431  29.952  35.912  1.00  0.00     0.074 A 
ATOM     54  C   UNL A   1      42.782  29.708  33.555  1.00  0.00     0.049 A 
ATOM     55  N   UNL A   1      44.531  29.246  35.935  1.00  0.00    -0.248 NA
ATOM     56  C   UNL A   1      43.117  30.628  37.180  1.00  0.00     0.031 C 
ATOM     57  C   UNL A   1      41.981  29.920  32.359  1.00  0.00     0.029 A 
ATOM     58  N   UNL A   1      43.858  28.973  33.118  1.00  0.00    -0.354 N 
ATOM     59  C   UNL A   1      45.051  29.401  37.212  1.00  0.00     0.074 A 
ATOM     60  C   UNL A   1      44.156  30.288  37.928  1.00  0.00     0.031 C 
ATOM     61  C   UNL A   1      42.606  29.343  31.319  1.00  0.00     0.029 A 
ATOM     62  C   UNL A   1      43.824  28.690  31.773  1.00  0.00     0.049 A 
ATOM     63  H   UNL A   1      44.585  28.677  33.712  1.00  0.00     0.167 HD
ATOM     64  C   UNL A   1      46.167  28.850  37.742  1.00  0.00     0.037 A 
ATOM     65  C   UNL A   1      44.655  27.971  30.992  1.00  0.00     0.037 A 
ATOM     66  C   UNL A   1      47.055  27.964  37.036  1.00  0.00     0.049 A 
ATOM     67  C   UNL A   1      45.834  27.292  31.629  1.00  0.00     0.074 A 
ATOM     68  C   UNL A   1      48.169  27.296  37.517  1.00  0.00     0.029 A 
ATOM     69  N   UNL A   1      46.940  27.632  35.696  1.00  0.00    -0.354 N 
ATOM     70  N   UNL A   1      46.227  27.329  32.880  1.00  0.00    -0.248 NA
ATOM     71  C   UNL A   1      46.667  26.451  30.759  1.00  0.00     0.031 C 
ATOM     72  C   UNL A   1      48.745  26.583  36.458  1.00  0.00     0.029 A 
ATOM     73  C   UNL A   1      47.973  26.784  35.326  1.00  0.00     0.049 A 
ATOM     74  H   UNL A   1      46.229  27.950  35.095  1.00  0.00     0.167 HD
ATOM     75  C   UNL A   1      47.344  26.506  32.947  1.00  0.00     0.074 A 
ATOM     76  C   UNL A   1      47.535  25.948  31.624  1.00  0.00     0.031 C 
ATOM     77  C   UNL A   1      48.154  26.248  34.004  1.00  0.00     0.037 A 
BRANCH  64  78
ATOM     78  C   UNL A   1      46.493  29.214  39.160  1.00  0.00     0.058 A 
ATOM     79  C   UNL A   1      47.298  30.323  39.467  1.00  0.00     0.135 A 
ATOM     80  C   UNL A   1      45.996  28.445  40.221  1.00  0.00     0.135 A 
ATOM     81  F   UNL A   1      47.818  31.075  38.483  1.00  0.00    -0.206 F 
ATOM     82  C   UNL A   1      47.620  30.641  40.780  1.00  0.00     0.059 A 
ATOM     83  C   UNL A   1      46.288  28.757  41.544  1.00  0.00     0.059 A 
ATOM     84  F   UNL A   1      45.231  27.369  39.977  1.00  0.00    -0.206 F 
ATOM     85  C   UNL A   1      47.113  29.849  41.813  1.00  0.00     0.060 A 
BRANCH  85  86
ATOM     86  S   UNL A   1      47.538  30.270  43.515  1.00  0.00     0.124 S 
ATOM     87  O   UNL A   1      46.425  29.672  44.248  1.00  0.00    -0.237 OA
ATOM     88  O   UNL A   1      48.832  29.619  43.688  1.00  0.00    -0.237 OA
ATOM     89  O   UNL A   1      47.571  31.729  43.505  1.00  0.00    -0.744 OA
ENDBRANCH  85  86
ENDBRANCH  64  78
BRANCH  65  90
ATOM     90  C   UNL A   1      44.367  27.787  29.539  1.00  0.00     0.058 A 
ATOM     91  C   UNL A   1      44.792  28.736  28.596  1.00  0.00     0.135 A 
ATOM     92  C   UNL A   1      43.682  26.660  29.057  1.00  0.00     0.135 A 
ATOM     93  F   UNL A   1      45.464  29.827  28.995  1.00  0.00    -0.206 F 
ATOM     94  C   UNL A   1      44.545  28.582  27.235  1.00  0.00     0.059 A 
ATOM     95  C   UNL A   1      43.466  26.459  27.696  1.00  0.00     0.059 A 
ATOM     96  F   UNL A   1      43.249  25.720  29.912  1.00  0.00    -0.206 F 
ATOM     97  C   UNL A   1      43.905  27.426  26.791  1.00  0.00     0.060 A 
BRANCH  97  98
ATOM     98  S   UNL A   1      43.780  27.138  25.011  1.00  0.00     0.124 S 
ATOM     99  O   UNL A   1      43.622  25.690  24.955  1.00  0.00    -0.237 OA
ATOM    100  O   UNL A   1      42.601  27.924  24.656  1.00  0.00    -0.237 OA
ATOM    101  O   UNL A   1      45.043  27.661  24.500  1.00  0.00    -0.744 OA
ENDBRANCH  97  98
ENDBRANCH  65  90
BRANCH  77 102
ATOM    102  C   UNL A   1      49.304  25.317  33.743  1.00  0.00     0.058 A 
ATOM    103  C   UNL A   1      49.190  23.937  33.976  1.00  0.00     0.135 A 
ATOM    104  C   UNL A   1      50.548  25.816  33.331  1.00  0.00     0.135 A 
ATOM    105  F   UNL A   1      48.021  23.414  34.380  1.00  0.00    -0.206 F 
ATOM    106  C   UNL A   1      50.288  23.092  33.876  1.00  0.00     0.059 A 
ATOM    107  C   UNL A   1      51.654  24.984  33.199  1.00  0.00     0.059 A 
ATOM    108  F   UNL A   1      50.705  27.127  33.084  1.00  0.00    -0.206 F 
ATOM    109  C   UNL A   1      51.522  23.629  33.504  1.00  0.00     0.060 A 
BRANCH 109 110
ATOM    110  S   UNL A   1      52.961  22.542  33.438  1.00  0.00     0.124 S 
ATOM    111  O   UNL A   1      53.871  23.315  32.599  1.00  0.00    -0.237 OA
ATOM    112  O   UNL A   1      53.339  22.428  34.843  1.00  0.00    -0.237 OA
ATOM    113  O   UNL A   1      52.432  21.322  32.836  1.00  0.00    -0.744 OA
ENDBRANCH 109 110
ENDBRANCH  77 102
ENDBRANCH  51  52
ENDBRANCH  44  46
ENDBRANCH  43  44
ENDBRANCH  42  43
ENDBRANCH  41  42
ENDBRANCH  40  41
ENDBRANCH  39  40
ENDBRANCH  38  39
ENDBRANCH   1  38
TORSDOF 27
ENDMDL
MODEL 3
REMARK VINA RESULT:      -6.3      6.194     12.780
REMARK SMILES COc1ccc(N2C(=O)/C(=C/c3c(C(=O)OCCOCCOCCOCCOC(=O)c4ccc(-c5c6nc(c(-c7c(F)cc(S(=O)(=O)[O-])cc7F)c7ccc([nH]7)c(-c7c(F)cc(S(=O)(=O)[O-])cc7F)c7nc(c(-c8c(F)cc(S(=O)(=O)[O-])cc8F)c8ccc5[nH]8)C=C7)C=C6)cc4)[nH]c4cc(OC)ccc34)SC2=S)cc1
REMARK SMILES IDX 22 1 21 2 20 3 19 4 18 5 17 6 16 7 14 8 15 9 13 10 12 11
REMARK SMILES IDX 105 12 97 13 98 14 104 15 99 17 103 18 100 19 11 20 7 21
REMARK SMILES IDX 8 22 107 23 9 24 10 25 106 26 108 27 6 28 3 29 4 30 110 31
REMARK SMILES IDX 5 32 109 33 2 34 1 35 101 36 102 37 23 38 24 39 25 40 26 41
REMARK SMILES IDX 27 42 28 43 29 44 30 45 31 46 32 47 96 48 33 49 95 50 34 51
REMARK SMILES IDX 35 52 36 53 89 54 37 55 94 56 88 57 90 58 38 59 93 60 87 61
REMARK SMILES IDX 86 62 39 64 73 65 52 66 72 67 53 68 56 69 71 70 91 71 54 72
REMARK SMILES IDX 55 73 70 75 92 76 57 77 40 78 41 79 50 80 42 81 43 82 49 83
REMARK SMILES IDX 51 84 44 85 45 86 46 87 47 88 48 89 74 90 75 91 84 92 76 93
REMARK SMILES IDX 77 94 83 95 85 96 78 97 79 98 80 99 81 100 82 101 58 102
REMARK SMILES IDX 59 103 68 104 60 105 61 106 67 107 69 108 62 109 63 110
REMARK SMILES IDX 64 111 65 112 66 113
REMARK H PARENT 97 16 90 63 56 74
REMARK Flexibility Score: inf
ROOT
ATOM      1  O   UNL A   1      39.084  32.368  30.327  1.00  0.00    -0.377 OA
ENDROOT
BRANCH   1   2
ATOM      2  C   UNL A   1      40.439  31.988  30.548  1.00  0.00     0.188 C 
BRANCH   2   3
ATOM      3  C   UNL A   1      40.684  30.817  31.531  1.00  0.00     0.188 C 
BRANCH   3   4
ATOM      4  O   UNL A   1      40.300  29.468  31.262  1.00  0.00    -0.376 OA
BRANCH   4   5
ATOM      5  C   UNL A   1      40.878  28.427  32.034  1.00  0.00     0.202 C 
BRANCH   5   6
ATOM      6  C   UNL A   1      42.319  28.119  31.608  1.00  0.00     0.261 C 
BRANCH   6   7
ATOM      7  O   UNL A   1      42.463  28.053  30.180  1.00  0.00    -0.459 OA
BRANCH   7   8
ATOM      8  C   UNL A   1      43.722  28.304  29.730  1.00  0.00     0.355 C 
ATOM      9  O   UNL A   1      44.705  27.602  29.943  1.00  0.00    -0.244 OA
BRANCH   8  10
ATOM     10  C   UNL A   1      43.734  29.426  28.817  1.00  0.00     0.133 A 
ATOM     11  C   UNL A   1      43.954  29.603  27.451  1.00  0.00     0.016 A 
ATOM     12  C   UNL A   1      43.971  31.016  27.192  1.00  0.00     0.008 A 
ATOM     13  N   UNL A   1      43.582  30.684  29.354  1.00  0.00    -0.348 N 
ATOM     14  C   UNL A   1      43.853  31.652  28.426  1.00  0.00     0.050 A 
ATOM     15  C   UNL A   1      44.150  31.827  26.048  1.00  0.00     0.015 A 
ATOM     16  H   UNL A   1      43.314  30.865  30.283  1.00  0.00     0.167 HD
ATOM     17  C   UNL A   1      44.024  33.027  28.603  1.00  0.00     0.073 A 
ATOM     18  C   UNL A   1      44.275  33.219  26.197  1.00  0.00     0.047 A 
ATOM     19  C   UNL A   1      44.242  33.798  27.464  1.00  0.00     0.120 A 
BRANCH  11  20
ATOM     20  C   UNL A   1      44.323  28.573  26.519  1.00  0.00     0.032 C 
ATOM     21  N   UNL A   1      43.572  25.131  26.034  1.00  0.00    -0.261 N 
ATOM     22  C   UNL A   1      44.269  26.279  25.609  1.00  0.00     0.270 C 
ATOM     23  C   UNL A   1      42.396  25.429  26.737  1.00  0.00     0.152 C 
ATOM     24  O   UNL A   1      45.283  26.387  24.931  1.00  0.00    -0.268 OA
ATOM     25  C   UNL A   1      43.610  27.495  26.165  1.00  0.00     0.081 C 
ATOM     26  S   UNL A   1      41.988  27.137  26.533  1.00  0.00    -0.054 SA
ATOM     27  S   UNL A   1      41.413  24.554  27.779  1.00  0.00    -0.051 S 
BRANCH  21  28
ATOM     28  C   UNL A   1      44.091  23.795  25.783  1.00  0.00     0.051 A 
ATOM     29  C   UNL A   1      45.144  21.183  25.230  1.00  0.00     0.119 A 
ATOM     30  C   UNL A   1      43.775  21.419  25.238  1.00  0.00     0.048 A 
ATOM     31  C   UNL A   1      45.986  22.233  25.533  1.00  0.00     0.048 A 
ATOM     32  C   UNL A   1      43.258  22.700  25.495  1.00  0.00     0.030 A 
ATOM     33  C   UNL A   1      45.461  23.496  25.833  1.00  0.00     0.030 A 
BRANCH  29  34
ATOM     34  O   UNL A   1      45.551  19.923  24.907  1.00  0.00    -0.497 OA
ATOM     35  C   UNL A   1      44.965  19.349  23.741  1.00  0.00     0.278 C 
ENDBRANCH  29  34
ENDBRANCH  21  28
ENDBRANCH  11  20
BRANCH  19  36
ATOM     36  O   UNL A   1      44.524  35.121  27.674  1.00  0.00    -0.497 OA
ATOM     37  C   UNL A   1      43.513  35.771  28.436  1.00  0.00     0.278 C 
ENDBRANCH  19  36
ENDBRANCH   8  10
ENDBRANCH   7   8
ENDBRANCH   6   7
ENDBRANCH   5   6
ENDBRANCH   4   5
ENDBRANCH   3   4
ENDBRANCH   2   3
ENDBRANCH   1   2
BRANCH   1  38
ATOM     38  C   UNL A   1      38.392  31.592  29.346  1.00  0.00     0.188 C 
BRANCH  38  39
ATOM     39  C   UNL A   1      37.168  32.314  28.772  1.00  0.00     0.188 C 
BRANCH  39  40
ATOM     40  O   UNL A   1      36.454  33.016  29.788  1.00  0.00    -0.376 OA
BRANCH  40  41
ATOM     41  C   UNL A   1      35.347  32.325  30.358  1.00  0.00     0.202 C 
BRANCH  41  42
ATOM     42  C   UNL A   1      35.569  31.925  31.824  1.00  0.00     0.261 C 
BRANCH  42  43
ATOM     43  O   UNL A   1      34.804  32.694  32.770  1.00  0.00    -0.460 OA
BRANCH  43  44
ATOM     44  C   UNL A   1      35.160  33.991  32.897  1.00  0.00     0.338 C 
ATOM     45  O   UNL A   1      34.598  34.953  32.403  1.00  0.00    -0.246 OA
BRANCH  44  46
ATOM     46  C   UNL A   1      36.258  34.097  33.876  1.00  0.00     0.060 A 
ATOM     47  C   UNL A   1      37.496  34.578  33.436  1.00  0.00     0.016 A 
ATOM     48  C   UNL A   1      36.096  33.649  35.188  1.00  0.00     0.016 A 
ATOM     49  C   UNL A   1      38.598  34.543  34.291  1.00  0.00     0.010 A 
ATOM     50  C   UNL A   1      37.204  33.604  36.040  1.00  0.00     0.010 A 
ATOM     51  C   UNL A   1      38.470  34.003  35.579  1.00  0.00    -0.014 A 
BRANCH  51  52
ATOM     52  C   UNL A   1      39.695  33.693  36.358  1.00  0.00     0.031 A 
ATOM     53  C   UNL A   1      40.133  34.647  37.433  1.00  0.00     0.074 A 
ATOM     54  C   UNL A   1      40.424  32.590  36.121  1.00  0.00     0.049 A 
ATOM     55  N   UNL A   1      41.107  34.522  38.297  1.00  0.00    -0.248 NA
ATOM     56  C   UNL A   1      39.390  35.913  37.533  1.00  0.00     0.031 C 
ATOM     57  C   UNL A   1      40.152  31.628  35.063  1.00  0.00     0.029 A 
ATOM     58  N   UNL A   1      41.550  32.104  36.741  1.00  0.00    -0.354 N 
ATOM     59  C   UNL A   1      41.105  35.697  39.036  1.00  0.00     0.074 A 
ATOM     60  C   UNL A   1      40.048  36.531  38.502  1.00  0.00     0.031 C 
ATOM     61  C   UNL A   1      41.100  30.676  35.099  1.00  0.00     0.029 A 
ATOM     62  C   UNL A   1      42.019  30.933  36.196  1.00  0.00     0.049 A 
ATOM     63  H   UNL A   1      41.979  32.553  37.505  1.00  0.00     0.167 HD
ATOM     64  C   UNL A   1      41.907  36.045  40.069  1.00  0.00     0.037 A 
ATOM     65  C   UNL A   1      43.051  30.138  36.545  1.00  0.00     0.037 A 
ATOM     66  C   UNL A   1      42.955  35.217  40.605  1.00  0.00     0.049 A 
ATOM     67  C   UNL A   1      43.864  30.502  37.754  1.00  0.00     0.074 A 
ATOM     68  C   UNL A   1      43.768  35.456  41.701  1.00  0.00     0.029 A 
ATOM     69  N   UNL A   1      43.346  33.996  40.079  1.00  0.00    -0.354 N 
ATOM     70  N   UNL A   1      43.750  31.549  38.536  1.00  0.00    -0.248 NA
ATOM     71  C   UNL A   1      44.926  29.567  38.148  1.00  0.00     0.031 C 
ATOM     72  C   UNL A   1      44.671  34.392  41.818  1.00  0.00     0.029 A 
ATOM     73  C   UNL A   1      44.401  33.478  40.814  1.00  0.00     0.049 A 
ATOM     74  H   UNL A   1      42.934  33.561  39.298  1.00  0.00     0.167 HD
ATOM     75  C   UNL A   1      44.717  31.389  39.521  1.00  0.00     0.074 A 
ATOM     76  C   UNL A   1      45.373  30.123  39.264  1.00  0.00     0.031 C 
ATOM     77  C   UNL A   1      45.048  32.223  40.538  1.00  0.00     0.037 A 
BRANCH  64  78
ATOM     78  C   UNL A   1      41.684  37.400  40.671  1.00  0.00     0.058 A 
ATOM     79  C   UNL A   1      40.891  37.573  41.816  1.00  0.00     0.135 A 
ATOM     80  C   UNL A   1      42.268  38.537  40.094  1.00  0.00     0.135 A 
ATOM     81  F   UNL A   1      40.289  36.518  42.389  1.00  0.00    -0.206 F 
ATOM     82  C   UNL A   1      40.664  38.834  42.355  1.00  0.00     0.059 A 
ATOM     83  C   UNL A   1      42.072  39.806  40.629  1.00  0.00     0.059 A 
ATOM     84  F   UNL A   1      43.027  38.424  38.992  1.00  0.00    -0.206 F 
ATOM     85  C   UNL A   1      41.256  39.945  41.752  1.00  0.00     0.060 A 
BRANCH  85  86
ATOM     86  S   UNL A   1      40.954  41.577  42.459  1.00  0.00     0.124 S 
ATOM     87  O   UNL A   1      41.373  41.375  43.843  1.00  0.00    -0.237 OA
ATOM     88  O   UNL A   1      41.819  42.434  41.654  1.00  0.00    -0.237 OA
ATOM     89  O   UNL A   1      39.522  41.773  42.259  1.00  0.00    -0.744 OA
ENDBRANCH  85  86
ENDBRANCH  64  78
BRANCH  65  90
ATOM     90  C   UNL A   1      43.333  28.880  35.792  1.00  0.00     0.058 A 
ATOM     91  C   UNL A   1      44.457  28.777  34.959  1.00  0.00     0.135 A 
ATOM     92  C   UNL A   1      42.502  27.753  35.898  1.00  0.00     0.135 A 
ATOM     93  F   UNL A   1      45.296  29.816  34.829  1.00  0.00    -0.206 F 
ATOM     94  C   UNL A   1      44.747  27.612  34.255  1.00  0.00     0.059 A 
ATOM     95  C   UNL A   1      42.797  26.560  35.243  1.00  0.00     0.059 A 
ATOM     96  F   UNL A   1      41.410  27.794  36.677  1.00  0.00    -0.206 F 
ATOM     97  C   UNL A   1      43.925  26.498  34.424  1.00  0.00     0.060 A 
BRANCH  97  98
ATOM     98  S   UNL A   1      44.429  24.933  33.676  1.00  0.00     0.124 S 
ATOM     99  O   UNL A   1      43.568  23.981  34.369  1.00  0.00    -0.237 OA
ATOM    100  O   UNL A   1      44.127  25.157  32.264  1.00  0.00    -0.237 OA
ATOM    101  O   UNL A   1      45.851  24.853  33.993  1.00  0.00    -0.744 OA
ENDBRANCH  97  98
ENDBRANCH  65  90
BRANCH  77 102
ATOM    102  C   UNL A   1      46.165  31.764  41.431  1.00  0.00     0.058 A 
ATOM    103  C   UNL A   1      47.501  32.102  41.156  1.00  0.00     0.135 A 
ATOM    104  C   UNL A   1      45.910  30.920  42.521  1.00  0.00     0.135 A 
ATOM    105  F   UNL A   1      47.796  32.899  40.117  1.00  0.00    -0.206 F 
ATOM    106  C   UNL A   1      48.551  31.563  41.890  1.00  0.00     0.059 A 
ATOM    107  C   UNL A   1      46.943  30.391  43.286  1.00  0.00     0.059 A 
ATOM    108  F   UNL A   1      44.649  30.578  42.832  1.00  0.00    -0.206 F 
ATOM    109  C   UNL A   1      48.262  30.693  42.942  1.00  0.00     0.060 A 
BRANCH 109 110
ATOM    110  S   UNL A   1      49.627  29.943  43.854  1.00  0.00     0.124 S 
ATOM    111  O   UNL A   1      49.432  28.528  43.559  1.00  0.00    -0.237 OA
ATOM    112  O   UNL A   1      50.798  30.562  43.239  1.00  0.00    -0.237 OA
ATOM    113  O   UNL A   1      49.368  30.342  45.234  1.00  0.00    -0.744 OA
ENDBRANCH 109 110
ENDBRANCH  77 102
ENDBRANCH  51  52
ENDBRANCH  44  46
ENDBRANCH  43  44
ENDBRANCH  42  43
ENDBRANCH  41  42
ENDBRANCH  40  41
ENDBRANCH  39  40
ENDBRANCH  38  39
ENDBRANCH   1  38
TORSDOF 27
ENDMDL
