MODEL 1
REMARK VINA RESULT:      -9.7      0.000      0.000
REMARK SMILES Cc1ccc(C(=O)N2C[C@@H](C(=O)OCCOCCOCCOCCOC(=O)c3ccc(-c4c5nc(c(-c6c(F)cc(S(=O)(=O)[O-])cc6F)c6ccc([nH]6)c(-c6c(F)cc(S(=O)(=O)[O-])cc6F)c6nc(c(-c7c(F)cc(S(=O)(=O)[O-])cc7F)c7ccc4[nH]7)C=C6)C=C5)cc3)C[C@H](C(=O)N3CCOCC3)C2)cc1F
REMARK SMILES IDX 20 1 19 2 18 3 17 4 16 5 15 6 14 7 13 8 11 9 12 10 10 11
REMARK SMILES IDX 8 12 9 13 104 14 95 15 94 16 6 17 7 18 5 19 1 20 2 21 3 22
REMARK SMILES IDX 106 23 4 24 105 25 107 26 96 27 97 28 98 29 99 30 103 31
REMARK SMILES IDX 100 32 102 33 101 34 21 35 22 36 23 37 24 38 25 39 26 40
REMARK SMILES IDX 27 41 28 42 29 43 93 44 30 45 92 46 31 47 32 48 33 49 86 50
REMARK SMILES IDX 34 51 91 52 85 53 87 54 35 55 90 56 84 57 83 58 36 60 70 61
REMARK SMILES IDX 49 62 69 63 50 64 53 65 68 66 88 67 51 68 52 69 67 71 89 72
REMARK SMILES IDX 54 73 37 74 38 75 47 76 39 77 40 78 46 79 48 80 41 81 42 82
REMARK SMILES IDX 43 83 44 84 45 85 71 86 72 87 81 88 73 89 74 90 80 91 82 92
REMARK SMILES IDX 75 93 76 94 77 95 78 96 79 97 55 98 56 99 65 100 57 101
REMARK SMILES IDX 58 102 64 103 66 104 59 105 60 106 61 107 62 108 63 109
REMARK H PARENT 87 59 53 70
REMARK Flexibility Score: inf
ROOT
ATOM      1  C   UNL A   1      39.131  23.526  26.655  1.00  0.00     0.188 C 
ENDROOT
BRANCH   1   2
ATOM      2  O   UNL A   1      38.675  22.171  26.652  1.00  0.00    -0.377 OA
BRANCH   2   3
ATOM      3  C   UNL A   1      38.669  21.491  25.403  1.00  0.00     0.188 C 
BRANCH   3   4
ATOM      4  C   UNL A   1      37.348  21.344  24.660  1.00  0.00     0.188 C 
BRANCH   4   5
ATOM      5  O   UNL A   1      36.935  22.525  24.018  1.00  0.00    -0.376 OA
BRANCH   5   6
ATOM      6  C   UNL A   1      35.901  23.300  24.592  1.00  0.00     0.202 C 
BRANCH   6   7
ATOM      7  C   UNL A   1      34.659  22.741  25.337  1.00  0.00     0.261 C 
BRANCH   7   8
ATOM      8  O   UNL A   1      33.403  22.533  24.671  1.00  0.00    -0.463 OA
BRANCH   8   9
ATOM      9  C   UNL A   1      32.306  22.782  25.407  1.00  0.00     0.310 C 
ATOM     10  O   UNL A   1      31.710  21.915  26.043  1.00  0.00    -0.252 OA
BRANCH   9  11
ATOM     11  C   UNL A   1      31.799  24.214  25.387  1.00  0.00     0.119 C 
ATOM     12  N   UNL A   1      32.374  26.352  26.325  1.00  0.00    -0.337 N 
ATOM     13  C   UNL A   1      32.412  24.923  26.567  1.00  0.00     0.135 C 
ATOM     14  C   UNL A   1      31.063  26.972  26.105  1.00  0.00     0.133 C 
ATOM     15  C   UNL A   1      30.167  26.175  25.128  1.00  0.00     0.099 C 
ATOM     16  C   UNL A   1      30.324  24.641  25.280  1.00  0.00     0.032 C 
BRANCH  12  17
ATOM     17  C   UNL A   1      33.574  26.999  26.104  1.00  0.00     0.254 C 
ATOM     18  O   UNL A   1      34.625  26.411  25.867  1.00  0.00    -0.269 OA
BRANCH  17  19
ATOM     19  C   UNL A   1      33.613  28.449  26.387  1.00  0.00     0.042 A 
ATOM     20  C   UNL A   1      33.433  32.412  28.011  1.00  0.00     0.047 C 
ATOM     21  C   UNL A   1      33.508  31.057  27.378  1.00  0.00    -0.015 A 
ATOM     22  C   UNL A   1      32.398  30.517  26.724  1.00  0.00     0.007 A 
ATOM     23  C   UNL A   1      34.672  30.288  27.497  1.00  0.00     0.126 A 
ATOM     24  C   UNL A   1      32.448  29.215  26.235  1.00  0.00     0.014 A 
ATOM     25  C   UNL A   1      34.735  28.989  27.013  1.00  0.00     0.053 A 
ATOM     26  F   UNL A   1      35.737  30.793  28.135  1.00  0.00    -0.207 F 
ENDBRANCH  17  19
ENDBRANCH  12  17
BRANCH  15  27
ATOM     27  C   UNL A   1      30.235  26.843  23.730  1.00  0.00     0.227 C 
ATOM     28  O   UNL A   1      29.329  27.617  23.398  1.00  0.00    -0.275 OA
ATOM     29  N   UNL A   1      31.416  26.820  23.017  1.00  0.00    -0.338 N 
ATOM     30  C   UNL A   1      31.910  25.643  22.310  1.00  0.00     0.148 C 
ATOM     31  C   UNL A   1      31.880  28.051  22.379  1.00  0.00     0.148 C 
ATOM     32  C   UNL A   1      33.443  25.673  22.240  1.00  0.00     0.181 C 
ATOM     33  C   UNL A   1      33.412  28.038  22.296  1.00  0.00     0.181 C 
ATOM     34  O   UNL A   1      33.887  26.879  21.588  1.00  0.00    -0.378 OA
ENDBRANCH  15  27
ENDBRANCH   9  11
ENDBRANCH   8   9
ENDBRANCH   7   8
ENDBRANCH   6   7
ENDBRANCH   5   6
ENDBRANCH   4   5
ENDBRANCH   3   4
ENDBRANCH   2   3
ENDBRANCH   1   2
BRANCH   1  35
ATOM     35  C   UNL A   1      40.616  23.732  26.340  1.00  0.00     0.188 C 
BRANCH  35  36
ATOM     36  O   UNL A   1      41.458  23.335  27.423  1.00  0.00    -0.376 OA
BRANCH  36  37
ATOM     37  C   UNL A   1      42.624  24.114  27.601  1.00  0.00     0.202 C 
BRANCH  37  38
ATOM     38  C   UNL A   1      42.489  25.640  27.671  1.00  0.00     0.261 C 
BRANCH  38  39
ATOM     39  O   UNL A   1      41.998  26.412  26.568  1.00  0.00    -0.460 OA
BRANCH  39  40
ATOM     40  C   UNL A   1      42.707  27.509  26.242  1.00  0.00     0.338 C 
ATOM     41  O   UNL A   1      43.850  27.569  25.843  1.00  0.00    -0.246 OA
BRANCH  40  42
ATOM     42  C   UNL A   1      41.976  28.751  26.523  1.00  0.00     0.060 A 
ATOM     43  C   UNL A   1      42.707  29.633  27.340  1.00  0.00     0.016 A 
ATOM     44  C   UNL A   1      40.605  28.561  26.672  1.00  0.00     0.016 A 
ATOM     45  C   UNL A   1      42.160  29.988  28.554  1.00  0.00     0.010 A 
ATOM     46  C   UNL A   1      40.066  28.911  27.883  1.00  0.00     0.010 A 
ATOM     47  C   UNL A   1      40.880  29.524  28.846  1.00  0.00    -0.014 A 
BRANCH  47  48
ATOM     48  C   UNL A   1      40.274  29.720  30.139  1.00  0.00     0.031 A 
ATOM     49  C   UNL A   1      39.452  30.926  30.322  1.00  0.00     0.074 A 
ATOM     50  C   UNL A   1      40.417  28.804  31.119  1.00  0.00     0.049 A 
ATOM     51  N   UNL A   1      39.300  31.530  31.448  1.00  0.00    -0.248 NA
ATOM     52  C   UNL A   1      38.817  31.607  29.194  1.00  0.00     0.031 C 
ATOM     53  C   UNL A   1      39.517  28.654  32.253  1.00  0.00     0.029 A 
ATOM     54  N   UNL A   1      41.461  27.905  31.374  1.00  0.00    -0.354 N 
ATOM     55  C   UNL A   1      38.331  32.486  31.253  1.00  0.00     0.074 A 
ATOM     56  C   UNL A   1      38.152  32.581  29.822  1.00  0.00     0.031 C 
ATOM     57  C   UNL A   1      40.119  27.902  33.184  1.00  0.00     0.029 A 
ATOM     58  C   UNL A   1      41.498  27.700  32.762  1.00  0.00     0.049 A 
ATOM     59  H   UNL A   1      42.056  27.494  30.705  1.00  0.00     0.167 HD
ATOM     60  C   UNL A   1      37.633  32.969  32.315  1.00  0.00     0.037 A 
ATOM     61  C   UNL A   1      42.572  27.854  33.587  1.00  0.00     0.037 A 
ATOM     62  C   UNL A   1      38.019  32.296  33.546  1.00  0.00     0.049 A 
ATOM     63  C   UNL A   1      42.331  28.820  34.711  1.00  0.00     0.074 A 
ATOM     64  C   UNL A   1      37.528  31.139  34.128  1.00  0.00     0.029 A 
ATOM     65  N   UNL A   1      39.233  32.568  34.158  1.00  0.00    -0.354 N 
ATOM     66  N   UNL A   1      41.358  29.680  34.717  1.00  0.00    -0.248 NA
ATOM     67  C   UNL A   1      43.228  28.969  35.852  1.00  0.00     0.031 C 
ATOM     68  C   UNL A   1      38.458  30.703  35.093  1.00  0.00     0.029 A 
ATOM     69  C   UNL A   1      39.514  31.596  35.103  1.00  0.00     0.049 A 
ATOM     70  H   UNL A   1      39.810  33.338  33.951  1.00  0.00     0.167 HD
ATOM     71  C   UNL A   1      41.532  30.546  35.761  1.00  0.00     0.074 A 
ATOM     72  C   UNL A   1      42.684  30.028  36.474  1.00  0.00     0.031 C 
ATOM     73  C   UNL A   1      40.731  31.640  35.899  1.00  0.00     0.037 A 
BRANCH  60  74
ATOM     74  C   UNL A   1      36.350  33.738  32.140  1.00  0.00     0.058 A 
ATOM     75  C   UNL A   1      36.189  35.008  32.732  1.00  0.00     0.135 A 
ATOM     76  C   UNL A   1      35.231  33.250  31.439  1.00  0.00     0.135 A 
ATOM     77  F   UNL A   1      37.190  35.617  33.380  1.00  0.00    -0.206 F 
ATOM     78  C   UNL A   1      34.983  35.701  32.712  1.00  0.00     0.059 A 
ATOM     79  C   UNL A   1      33.996  33.907  31.441  1.00  0.00     0.059 A 
ATOM     80  F   UNL A   1      35.307  32.114  30.728  1.00  0.00    -0.206 F 
ATOM     81  C   UNL A   1      33.882  35.133  32.088  1.00  0.00     0.060 A 
BRANCH  81  82
ATOM     82  S   UNL A   1      32.317  36.022  32.154  1.00  0.00     0.124 S 
ATOM     83  O   UNL A   1      32.155  36.463  30.771  1.00  0.00    -0.237 OA
ATOM     84  O   UNL A   1      31.398  34.981  32.600  1.00  0.00    -0.237 OA
ATOM     85  O   UNL A   1      32.574  37.090  33.116  1.00  0.00    -0.744 OA
ENDBRANCH  81  82
ENDBRANCH  60  74
BRANCH  61  86
ATOM     86  C   UNL A   1      43.915  27.701  33.006  1.00  0.00     0.058 A 
ATOM     87  C   UNL A   1      44.504  28.803  32.380  1.00  0.00     0.135 A 
ATOM     88  C   UNL A   1      44.711  26.594  33.338  1.00  0.00     0.135 A 
ATOM     89  F   UNL A   1      43.767  29.874  32.045  1.00  0.00    -0.206 F 
ATOM     90  C   UNL A   1      45.873  28.874  32.227  1.00  0.00     0.059 A 
ATOM     91  C   UNL A   1      46.089  26.651  33.223  1.00  0.00     0.059 A 
ATOM     92  F   UNL A   1      44.168  25.524  33.935  1.00  0.00    -0.206 F 
ATOM     93  C   UNL A   1      46.650  27.832  32.742  1.00  0.00     0.060 A 
BRANCH  93  94
ATOM     94  S   UNL A   1      48.259  28.341  33.357  1.00  0.00     0.124 S 
ATOM     95  O   UNL A   1      48.106  29.781  33.536  1.00  0.00    -0.237 OA
ATOM     96  O   UNL A   1      48.232  27.551  34.583  1.00  0.00    -0.237 OA
ATOM     97  O   UNL A   1      49.184  27.931  32.308  1.00  0.00    -0.744 OA
ENDBRANCH  93  94
ENDBRANCH  61  86
BRANCH  73  98
ATOM     98  C   UNL A   1      40.957  32.779  36.856  1.00  0.00     0.058 A 
ATOM     99  C   UNL A   1      42.061  33.646  36.803  1.00  0.00     0.135 A 
ATOM    100  C   UNL A   1      39.972  33.099  37.820  1.00  0.00     0.135 A 
ATOM    101  F   UNL A   1      42.994  33.537  35.848  1.00  0.00    -0.206 F 
ATOM    102  C   UNL A   1      42.228  34.694  37.707  1.00  0.00     0.059 A 
ATOM    103  C   UNL A   1      40.087  34.178  38.688  1.00  0.00     0.059 A 
ATOM    104  F   UNL A   1      38.851  32.373  37.946  1.00  0.00    -0.206 F 
ATOM    105  C   UNL A   1      41.239  34.948  38.652  1.00  0.00     0.060 A 
BRANCH 105 106
ATOM    106  S   UNL A   1      41.436  36.312  39.807  1.00  0.00     0.124 S 
ATOM    107  O   UNL A   1      41.743  35.601  41.044  1.00  0.00    -0.237 OA
ATOM    108  O   UNL A   1      42.539  37.072  39.227  1.00  0.00    -0.237 OA
ATOM    109  O   UNL A   1      40.136  36.975  39.764  1.00  0.00    -0.744 OA
ENDBRANCH 105 106
ENDBRANCH  73  98
ENDBRANCH  47  48
ENDBRANCH  40  42
ENDBRANCH  39  40
ENDBRANCH  38  39
ENDBRANCH  37  38
ENDBRANCH  36  37
ENDBRANCH  35  36
ENDBRANCH   1  35
TORSDOF 26
ENDMDL
MODEL 2
REMARK VINA RESULT:      -9.1      3.949      8.153
REMARK SMILES Cc1ccc(C(=O)N2C[C@@H](C(=O)OCCOCCOCCOCCOC(=O)c3ccc(-c4c5nc(c(-c6c(F)cc(S(=O)(=O)[O-])cc6F)c6ccc([nH]6)c(-c6c(F)cc(S(=O)(=O)[O-])cc6F)c6nc(c(-c7c(F)cc(S(=O)(=O)[O-])cc7F)c7ccc4[nH]7)C=C6)C=C5)cc3)C[C@H](C(=O)N3CCOCC3)C2)cc1F
REMARK SMILES IDX 20 1 19 2 18 3 17 4 16 5 15 6 14 7 13 8 11 9 12 10 10 11
REMARK SMILES IDX 8 12 9 13 104 14 95 15 94 16 6 17 7 18 5 19 1 20 2 21 3 22
REMARK SMILES IDX 106 23 4 24 105 25 107 26 96 27 97 28 98 29 99 30 103 31
REMARK SMILES IDX 100 32 102 33 101 34 21 35 22 36 23 37 24 38 25 39 26 40
REMARK SMILES IDX 27 41 28 42 29 43 93 44 30 45 92 46 31 47 32 48 33 49 86 50
REMARK SMILES IDX 34 51 91 52 85 53 87 54 35 55 90 56 84 57 83 58 36 60 70 61
REMARK SMILES IDX 49 62 69 63 50 64 53 65 68 66 88 67 51 68 52 69 67 71 89 72
REMARK SMILES IDX 54 73 37 74 38 75 47 76 39 77 40 78 46 79 48 80 41 81 42 82
REMARK SMILES IDX 43 83 44 84 45 85 71 86 72 87 81 88 73 89 74 90 80 91 82 92
REMARK SMILES IDX 75 93 76 94 77 95 78 96 79 97 55 98 56 99 65 100 57 101
REMARK SMILES IDX 58 102 64 103 66 104 59 105 60 106 61 107 62 108 63 109
REMARK H PARENT 87 59 53 70
REMARK Flexibility Score: inf
ROOT
ATOM      1  C   UNL A   1      33.366  28.067  24.888  1.00  0.00     0.188 C 
ENDROOT
BRANCH   1   2
ATOM      2  O   UNL A   1      33.657  26.674  24.753  1.00  0.00    -0.377 OA
BRANCH   2   3
ATOM      3  C   UNL A   1      32.926  25.950  23.771  1.00  0.00     0.188 C 
BRANCH   3   4
ATOM      4  C   UNL A   1      33.647  25.506  22.506  1.00  0.00     0.188 C 
BRANCH   4   5
ATOM      5  O   UNL A   1      34.495  24.402  22.705  1.00  0.00    -0.376 OA
BRANCH   5   6
ATOM      6  C   UNL A   1      34.454  23.711  23.937  1.00  0.00     0.202 C 
BRANCH   6   7
ATOM      7  C   UNL A   1      35.594  22.834  24.521  1.00  0.00     0.261 C 
BRANCH   7   8
ATOM      8  O   UNL A   1      36.597  23.376  25.397  1.00  0.00    -0.463 OA
BRANCH   8   9
ATOM      9  C   UNL A   1      37.766  22.712  25.423  1.00  0.00     0.310 C 
ATOM     10  O   UNL A   1      37.938  21.628  24.869  1.00  0.00    -0.252 OA
BRANCH   9  11
ATOM     11  C   UNL A   1      38.883  23.359  26.224  1.00  0.00     0.119 C 
ATOM     12  N   UNL A   1      41.110  22.846  26.968  1.00  0.00    -0.337 N 
ATOM     13  C   UNL A   1      39.822  22.262  26.652  1.00  0.00     0.135 C 
ATOM     14  C   UNL A   1      41.158  23.865  28.021  1.00  0.00     0.133 C 
ATOM     15  C   UNL A   1      40.035  24.922  27.899  1.00  0.00     0.099 C 
ATOM     16  C   UNL A   1      38.693  24.322  27.410  1.00  0.00     0.032 C 
BRANCH  12  17
ATOM     17  C   UNL A   1      42.167  22.569  26.122  1.00  0.00     0.254 C 
ATOM     18  O   UNL A   1      42.230  21.559  25.427  1.00  0.00    -0.269 OA
BRANCH  17  19
ATOM     19  C   UNL A   1      43.361  23.433  26.239  1.00  0.00     0.042 A 
ATOM     20  C   UNL A   1      47.046  25.576  25.799  1.00  0.00     0.047 C 
ATOM     21  C   UNL A   1      45.755  24.853  26.021  1.00  0.00    -0.015 A 
ATOM     22  C   UNL A   1      45.735  23.620  26.677  1.00  0.00     0.007 A 
ATOM     23  C   UNL A   1      44.559  25.374  25.510  1.00  0.00     0.126 A 
ATOM     24  C   UNL A   1      44.543  22.909  26.780  1.00  0.00     0.014 A 
ATOM     25  C   UNL A   1      43.364  24.676  25.608  1.00  0.00     0.053 A 
ATOM     26  F   UNL A   1      44.571  26.550  24.868  1.00  0.00    -0.207 F 
ENDBRANCH  17  19
ENDBRANCH  12  17
BRANCH  15  27
ATOM     27  C   UNL A   1      40.620  26.197  27.239  1.00  0.00     0.227 C 
ATOM     28  O   UNL A   1      40.604  26.286  26.006  1.00  0.00    -0.275 OA
ATOM     29  N   UNL A   1      40.859  27.319  28.006  1.00  0.00    -0.338 N 
ATOM     30  C   UNL A   1      41.995  27.451  28.912  1.00  0.00     0.148 C 
ATOM     31  C   UNL A   1      40.432  28.624  27.503  1.00  0.00     0.148 C 
ATOM     32  C   UNL A   1      41.640  28.390  30.073  1.00  0.00     0.181 C 
ATOM     33  C   UNL A   1      40.113  29.548  28.685  1.00  0.00     0.181 C 
ATOM     34  O   UNL A   1      41.244  29.679  29.566  1.00  0.00    -0.378 OA
ENDBRANCH  15  27
ENDBRANCH   9  11
ENDBRANCH   8   9
ENDBRANCH   7   8
ENDBRANCH   6   7
ENDBRANCH   5   6
ENDBRANCH   4   5
ENDBRANCH   3   4
ENDBRANCH   2   3
ENDBRANCH   1   2
BRANCH   1  35
ATOM     35  C   UNL A   1      33.408  28.623  26.315  1.00  0.00     0.188 C 
BRANCH  35  36
ATOM     36  O   UNL A   1      34.724  28.592  26.868  1.00  0.00    -0.376 OA
BRANCH  36  37
ATOM     37  C   UNL A   1      35.065  29.696  27.683  1.00  0.00     0.202 C 
BRANCH  37  38
ATOM     38  C   UNL A   1      36.513  30.202  27.671  1.00  0.00     0.261 C 
BRANCH  38  39
ATOM     39  O   UNL A   1      37.001  31.136  28.644  1.00  0.00    -0.460 OA
BRANCH  39  40
ATOM     40  C   UNL A   1      36.317  32.289  28.763  1.00  0.00     0.338 C 
ATOM     41  O   UNL A   1      36.036  33.084  27.892  1.00  0.00    -0.246 OA
BRANCH  40  42
ATOM     42  C   UNL A   1      35.990  32.604  30.159  1.00  0.00     0.060 A 
ATOM     43  C   UNL A   1      36.493  33.855  30.562  1.00  0.00     0.016 A 
ATOM     44  C   UNL A   1      36.011  31.489  30.994  1.00  0.00     0.016 A 
ATOM     45  C   UNL A   1      37.387  33.883  31.610  1.00  0.00     0.010 A 
ATOM     46  C   UNL A   1      36.905  31.519  32.033  1.00  0.00     0.010 A 
ATOM     47  C   UNL A   1      37.656  32.681  32.260  1.00  0.00    -0.014 A 
BRANCH  47  48
ATOM     48  C   UNL A   1      38.676  32.574  33.274  1.00  0.00     0.031 A 
ATOM     49  C   UNL A   1      38.380  33.160  34.591  1.00  0.00     0.074 A 
ATOM     50  C   UNL A   1      39.829  31.917  33.034  1.00  0.00     0.049 A 
ATOM     51  N   UNL A   1      39.274  33.634  35.386  1.00  0.00    -0.248 NA
ATOM     52  C   UNL A   1      37.008  33.350  35.062  1.00  0.00     0.031 C 
ATOM     53  C   UNL A   1      40.693  31.354  34.060  1.00  0.00     0.029 A 
ATOM     54  N   UNL A   1      40.530  31.726  31.835  1.00  0.00    -0.354 N 
ATOM     55  C   UNL A   1      38.637  33.915  36.571  1.00  0.00     0.074 A 
ATOM     56  C   UNL A   1      37.222  33.842  36.285  1.00  0.00     0.031 C 
ATOM     57  C   UNL A   1      41.886  31.079  33.515  1.00  0.00     0.029 A 
ATOM     58  C   UNL A   1      41.891  31.629  32.167  1.00  0.00     0.049 A 
ATOM     59  H   UNL A   1      40.142  31.671  30.932  1.00  0.00     0.167 HD
ATOM     60  C   UNL A   1      39.353  33.992  37.724  1.00  0.00     0.037 A 
ATOM     61  C   UNL A   1      42.917  32.366  31.654  1.00  0.00     0.037 A 
ATOM     62  C   UNL A   1      40.756  33.680  37.490  1.00  0.00     0.049 A 
ATOM     63  C   UNL A   1      43.710  33.098  32.698  1.00  0.00     0.074 A 
ATOM     64  C   UNL A   1      41.419  32.464  37.509  1.00  0.00     0.029 A 
ATOM     65  N   UNL A   1      41.592  34.583  36.853  1.00  0.00    -0.354 N 
ATOM     66  N   UNL A   1      43.280  33.304  33.906  1.00  0.00    -0.248 NA
ATOM     67  C   UNL A   1      44.988  33.749  32.430  1.00  0.00     0.031 C 
ATOM     68  C   UNL A   1      42.663  32.632  36.866  1.00  0.00     0.029 A 
ATOM     69  C   UNL A   1      42.760  33.951  36.462  1.00  0.00     0.049 A 
ATOM     70  H   UNL A   1      41.386  35.533  36.700  1.00  0.00     0.167 HD
ATOM     71  C   UNL A   1      44.127  34.170  34.540  1.00  0.00     0.074 A 
ATOM     72  C   UNL A   1      45.208  34.377  33.597  1.00  0.00     0.031 C 
ATOM     73  C   UNL A   1      43.818  34.671  35.770  1.00  0.00     0.037 A 
BRANCH  60  74
ATOM     74  C   UNL A   1      38.693  33.949  39.076  1.00  0.00     0.058 A 
ATOM     75  C   UNL A   1      37.901  32.844  39.452  1.00  0.00     0.135 A 
ATOM     76  C   UNL A   1      38.769  34.989  40.021  1.00  0.00     0.135 A 
ATOM     77  F   UNL A   1      37.787  31.760  38.674  1.00  0.00    -0.206 F 
ATOM     78  C   UNL A   1      37.165  32.811  40.632  1.00  0.00     0.059 A 
ATOM     79  C   UNL A   1      38.005  34.999  41.193  1.00  0.00     0.059 A 
ATOM     80  F   UNL A   1      39.592  36.033  39.831  1.00  0.00    -0.206 F 
ATOM     81  C   UNL A   1      37.200  33.903  41.486  1.00  0.00     0.060 A 
BRANCH  81  82
ATOM     82  S   UNL A   1      36.170  33.859  42.963  1.00  0.00     0.124 S 
ATOM     83  O   UNL A   1      36.684  34.990  43.731  1.00  0.00    -0.237 OA
ATOM     84  O   UNL A   1      34.834  34.026  42.403  1.00  0.00    -0.237 OA
ATOM     85  O   UNL A   1      36.454  32.546  43.534  1.00  0.00    -0.744 OA
ENDBRANCH  81  82
ENDBRANCH  60  74
BRANCH  61  86
ATOM     86  C   UNL A   1      42.752  32.931  30.306  1.00  0.00     0.058 A 
ATOM     87  C   UNL A   1      42.153  34.188  30.174  1.00  0.00     0.135 A 
ATOM     88  C   UNL A   1      43.447  32.386  29.216  1.00  0.00     0.135 A 
ATOM     89  F   UNL A   1      41.476  34.733  31.197  1.00  0.00    -0.206 F 
ATOM     90  C   UNL A   1      42.370  34.953  29.047  1.00  0.00     0.059 A 
ATOM     91  C   UNL A   1      43.704  33.143  28.086  1.00  0.00     0.059 A 
ATOM     92  F   UNL A   1      44.026  31.181  29.317  1.00  0.00    -0.206 F 
ATOM     93  C   UNL A   1      43.225  34.451  28.062  1.00  0.00     0.060 A 
BRANCH  93  94
ATOM     94  S   UNL A   1      44.171  35.706  27.192  1.00  0.00     0.124 S 
ATOM     95  O   UNL A   1      43.322  36.888  27.288  1.00  0.00    -0.237 OA
ATOM     96  O   UNL A   1      45.329  35.693  28.080  1.00  0.00    -0.237 OA
ATOM     97  O   UNL A   1      44.339  35.156  25.853  1.00  0.00    -0.744 OA
ENDBRANCH  93  94
ENDBRANCH  61  86
BRANCH  73  98
ATOM     98  C   UNL A   1      44.540  35.791  36.468  1.00  0.00     0.058 A 
ATOM     99  C   UNL A   1      44.106  37.127  36.473  1.00  0.00     0.135 A 
ATOM    100  C   UNL A   1      45.672  35.512  37.270  1.00  0.00     0.135 A 
ATOM    101  F   UNL A   1      42.969  37.498  35.868  1.00  0.00    -0.206 F 
ATOM    102  C   UNL A   1      44.802  38.134  37.139  1.00  0.00     0.059 A 
ATOM    103  C   UNL A   1      46.344  36.489  37.995  1.00  0.00     0.059 A 
ATOM    104  F   UNL A   1      46.163  34.269  37.383  1.00  0.00    -0.206 F 
ATOM    105  C   UNL A   1      45.926  37.806  37.892  1.00  0.00     0.060 A 
BRANCH 105 106
ATOM    106  S   UNL A   1      46.817  39.096  38.774  1.00  0.00     0.124 S 
ATOM    107  O   UNL A   1      48.198  38.647  38.622  1.00  0.00    -0.237 OA
ATOM    108  O   UNL A   1      46.461  40.301  38.032  1.00  0.00    -0.237 OA
ATOM    109  O   UNL A   1      46.269  39.015  40.124  1.00  0.00    -0.744 OA
ENDBRANCH 105 106
ENDBRANCH  73  98
ENDBRANCH  47  48
ENDBRANCH  40  42
ENDBRANCH  39  40
ENDBRANCH  38  39
ENDBRANCH  37  38
ENDBRANCH  36  37
ENDBRANCH  35  36
ENDBRANCH   1  35
TORSDOF 26
ENDMDL
MODEL 3
REMARK VINA RESULT:      -9.0      7.306     14.698
REMARK SMILES Cc1ccc(C(=O)N2C[C@@H](C(=O)OCCOCCOCCOCCOC(=O)c3ccc(-c4c5nc(c(-c6c(F)cc(S(=O)(=O)[O-])cc6F)c6ccc([nH]6)c(-c6c(F)cc(S(=O)(=O)[O-])cc6F)c6nc(c(-c7c(F)cc(S(=O)(=O)[O-])cc7F)c7ccc4[nH]7)C=C6)C=C5)cc3)C[C@H](C(=O)N3CCOCC3)C2)cc1F
REMARK SMILES IDX 20 1 19 2 18 3 17 4 16 5 15 6 14 7 13 8 11 9 12 10 10 11
REMARK SMILES IDX 8 12 9 13 104 14 95 15 94 16 6 17 7 18 5 19 1 20 2 21 3 22
REMARK SMILES IDX 106 23 4 24 105 25 107 26 96 27 97 28 98 29 99 30 103 31
REMARK SMILES IDX 100 32 102 33 101 34 21 35 22 36 23 37 24 38 25 39 26 40
REMARK SMILES IDX 27 41 28 42 29 43 93 44 30 45 92 46 31 47 32 48 33 49 86 50
REMARK SMILES IDX 34 51 91 52 85 53 87 54 35 55 90 56 84 57 83 58 36 60 70 61
REMARK SMILES IDX 49 62 69 63 50 64 53 65 68 66 88 67 51 68 52 69 67 71 89 72
REMARK SMILES IDX 54 73 37 74 38 75 47 76 39 77 40 78 46 79 48 80 41 81 42 82
REMARK SMILES IDX 43 83 44 84 45 85 71 86 72 87 81 88 73 89 74 90 80 91 82 92
REMARK SMILES IDX 75 93 76 94 77 95 78 96 79 97 55 98 56 99 65 100 57 101
REMARK SMILES IDX 58 102 64 103 66 104 59 105 60 106 61 107 62 108 63 109
REMARK H PARENT 87 59 53 70
REMARK Flexibility Score: inf
ROOT
ATOM      1  C   UNL A   1      46.258  43.312  34.306  1.00  0.00     0.188 C 
ENDROOT
BRANCH   1   2
ATOM      2  O   UNL A   1      44.978  43.283  33.669  1.00  0.00    -0.377 OA
BRANCH   2   3
ATOM      3  C   UNL A   1      44.334  42.019  33.565  1.00  0.00     0.188 C 
BRANCH   3   4
ATOM      4  C   UNL A   1      42.830  41.947  33.791  1.00  0.00     0.188 C 
BRANCH   4   5
ATOM      5  O   UNL A   1      42.119  41.484  32.670  1.00  0.00    -0.376 OA
BRANCH   5   6
ATOM      6  C   UNL A   1      42.270  42.148  31.431  1.00  0.00     0.202 C 
BRANCH   6   7
ATOM      7  C   UNL A   1      42.650  41.475  30.085  1.00  0.00     0.261 C 
BRANCH   7   8
ATOM      8  O   UNL A   1      41.808  40.491  29.462  1.00  0.00    -0.463 OA
BRANCH   8   9
ATOM      9  C   UNL A   1      41.819  40.483  28.118  1.00  0.00     0.310 C 
ATOM     10  O   UNL A   1      40.797  40.438  27.436  1.00  0.00    -0.252 OA
BRANCH   9  11
ATOM     11  C   UNL A   1      43.189  40.494  27.462  1.00  0.00     0.119 C 
ATOM     12  N   UNL A   1      44.283  41.491  25.567  1.00  0.00    -0.337 N 
ATOM     13  C   UNL A   1      43.008  41.000  26.055  1.00  0.00     0.135 C 
ATOM     14  C   UNL A   1      45.406  40.549  25.527  1.00  0.00     0.133 C 
ATOM     15  C   UNL A   1      45.543  39.705  26.816  1.00  0.00     0.099 C 
ATOM     16  C   UNL A   1      44.174  39.311  27.426  1.00  0.00     0.032 C 
BRANCH  12  17
ATOM     17  C   UNL A   1      44.418  42.852  25.377  1.00  0.00     0.254 C 
ATOM     18  O   UNL A   1      44.590  43.649  26.296  1.00  0.00    -0.269 OA
BRANCH  17  19
ATOM     19  C   UNL A   1      44.121  43.371  24.026  1.00  0.00     0.042 A 
ATOM     20  C   UNL A   1      43.822  44.240  19.839  1.00  0.00     0.047 C 
ATOM     21  C   UNL A   1      43.889  43.998  21.315  1.00  0.00    -0.015 A 
ATOM     22  C   UNL A   1      44.857  44.636  22.095  1.00  0.00     0.007 A 
ATOM     23  C   UNL A   1      43.025  43.075  21.917  1.00  0.00     0.126 A 
ATOM     24  C   UNL A   1      44.976  44.319  23.445  1.00  0.00     0.014 A 
ATOM     25  C   UNL A   1      43.134  42.751  23.262  1.00  0.00     0.053 A 
ATOM     26  F   UNL A   1      42.103  42.448  21.173  1.00  0.00    -0.207 F 
ENDBRANCH  17  19
ENDBRANCH  12  17
BRANCH  15  27
ATOM     27  C   UNL A   1      46.656  40.323  27.701  1.00  0.00     0.227 C 
ATOM     28  O   UNL A   1      47.122  41.423  27.384  1.00  0.00    -0.275 OA
ATOM     29  N   UNL A   1      46.891  39.814  28.962  1.00  0.00    -0.338 N 
ATOM     30  C   UNL A   1      47.601  38.563  29.208  1.00  0.00     0.148 C 
ATOM     31  C   UNL A   1      47.056  40.742  30.079  1.00  0.00     0.148 C 
ATOM     32  C   UNL A   1      47.113  37.928  30.517  1.00  0.00     0.181 C 
ATOM     33  C   UNL A   1      46.589  40.069  31.376  1.00  0.00     0.181 C 
ATOM     34  O   UNL A   1      47.303  38.842  31.615  1.00  0.00    -0.378 OA
ENDBRANCH  15  27
ENDBRANCH   9  11
ENDBRANCH   8   9
ENDBRANCH   7   8
ENDBRANCH   6   7
ENDBRANCH   5   6
ENDBRANCH   4   5
ENDBRANCH   3   4
ENDBRANCH   2   3
ENDBRANCH   1   2
BRANCH   1  35
ATOM     35  C   UNL A   1      46.499  42.236  35.370  1.00  0.00     0.188 C 
BRANCH  35  36
ATOM     36  O   UNL A   1      46.437  42.764  36.696  1.00  0.00    -0.376 OA
BRANCH  36  37
ATOM     37  C   UNL A   1      46.872  41.888  37.718  1.00  0.00     0.202 C 
BRANCH  37  38
ATOM     38  C   UNL A   1      47.424  40.512  37.326  1.00  0.00     0.261 C 
BRANCH  38  39
ATOM     39  O   UNL A   1      46.834  39.293  37.797  1.00  0.00    -0.460 OA
BRANCH  39  40
ATOM     40  C   UNL A   1      46.143  38.574  36.894  1.00  0.00     0.338 C 
ATOM     41  O   UNL A   1      46.140  38.694  35.687  1.00  0.00    -0.246 OA
BRANCH  40  42
ATOM     42  C   UNL A   1      45.227  37.615  37.524  1.00  0.00     0.060 A 
ATOM     43  C   UNL A   1      45.694  36.291  37.443  1.00  0.00     0.016 A 
ATOM     44  C   UNL A   1      43.885  37.943  37.355  1.00  0.00     0.016 A 
ATOM     45  C   UNL A   1      44.911  35.371  36.780  1.00  0.00     0.010 A 
ATOM     46  C   UNL A   1      43.109  37.028  36.691  1.00  0.00     0.010 A 
ATOM     47  C   UNL A   1      43.667  35.796  36.320  1.00  0.00    -0.014 A 
BRANCH  47  48
ATOM     48  C   UNL A   1      42.831  34.957  35.497  1.00  0.00     0.031 A 
ATOM     49  C   UNL A   1      42.891  35.168  34.042  1.00  0.00     0.074 A 
ATOM     50  C   UNL A   1      42.068  33.988  36.042  1.00  0.00     0.049 A 
ATOM     51  N   UNL A   1      41.909  34.945  33.241  1.00  0.00    -0.248 NA
ATOM     52  C   UNL A   1      44.061  35.760  33.394  1.00  0.00     0.031 C 
ATOM     53  C   UNL A   1      41.570  32.823  35.327  1.00  0.00     0.029 A 
ATOM     54  N   UNL A   1      41.476  33.905  37.309  1.00  0.00    -0.354 N 
ATOM     55  C   UNL A   1      42.404  35.081  31.966  1.00  0.00     0.074 A 
ATOM     56  C   UNL A   1      43.699  35.705  32.109  1.00  0.00     0.031 C 
ATOM     57  C   UNL A   1      40.595  32.257  36.051  1.00  0.00     0.029 A 
ATOM     58  C   UNL A   1      40.304  33.145  37.167  1.00  0.00     0.049 A 
ATOM     59  H   UNL A   1      41.818  34.305  38.142  1.00  0.00     0.167 HD
ATOM     60  C   UNL A   1      41.766  34.484  30.924  1.00  0.00     0.037 A 
ATOM     61  C   UNL A   1      39.043  33.502  37.543  1.00  0.00     0.037 A 
ATOM     62  C   UNL A   1      40.630  33.700  31.386  1.00  0.00     0.049 A 
ATOM     63  C   UNL A   1      38.049  33.463  36.418  1.00  0.00     0.074 A 
ATOM     64  C   UNL A   1      40.559  32.380  31.800  1.00  0.00     0.029 A 
ATOM     65  N   UNL A   1      39.463  34.316  31.811  1.00  0.00    -0.354 N 
ATOM     66  N   UNL A   1      38.390  33.441  35.165  1.00  0.00    -0.248 NA
ATOM     67  C   UNL A   1      36.607  33.563  36.613  1.00  0.00     0.031 C 
ATOM     68  C   UNL A   1      39.343  32.201  32.491  1.00  0.00     0.029 A 
ATOM     69  C   UNL A   1      38.670  33.409  32.493  1.00  0.00     0.049 A 
ATOM     70  H   UNL A   1      39.231  35.260  31.651  1.00  0.00     0.167 HD
ATOM     71  C   UNL A   1      37.275  33.622  34.395  1.00  0.00     0.074 A 
ATOM     72  C   UNL A   1      36.178  33.639  35.342  1.00  0.00     0.031 C 
ATOM     73  C   UNL A   1      37.380  33.793  33.046  1.00  0.00     0.037 A 
BRANCH  60  74
ATOM     74  C   UNL A   1      42.428  34.301  29.585  1.00  0.00     0.058 A 
ATOM     75  C   UNL A   1      43.237  33.175  29.332  1.00  0.00     0.135 A 
ATOM     76  C   UNL A   1      42.336  35.230  28.529  1.00  0.00     0.135 A 
ATOM     77  F   UNL A   1      43.368  32.186  30.225  1.00  0.00    -0.206 F 
ATOM     78  C   UNL A   1      43.975  33.023  28.163  1.00  0.00     0.059 A 
ATOM     79  C   UNL A   1      43.100  35.122  27.363  1.00  0.00     0.059 A 
ATOM     80  F   UNL A   1      41.496  36.275  28.604  1.00  0.00    -0.206 F 
ATOM     81  C   UNL A   1      43.924  34.013  27.193  1.00  0.00     0.060 A 
BRANCH  81  82
ATOM     82  S   UNL A   1      44.955  33.822  25.729  1.00  0.00     0.124 S 
ATOM     83  O   UNL A   1      46.053  34.745  26.003  1.00  0.00    -0.237 OA
ATOM     84  O   UNL A   1      45.291  32.403  25.781  1.00  0.00    -0.237 OA
ATOM     85  O   UNL A   1      44.071  34.219  24.637  1.00  0.00    -0.744 OA
ENDBRANCH  81  82
ENDBRANCH  60  74
BRANCH  61  86
ATOM     86  C   UNL A   1      38.899  34.475  38.637  1.00  0.00     0.058 A 
ATOM     87  C   UNL A   1      38.706  33.998  39.937  1.00  0.00     0.135 A 
ATOM     88  C   UNL A   1      39.255  35.819  38.445  1.00  0.00     0.135 A 
ATOM     89  F   UNL A   1      38.358  32.719  40.152  1.00  0.00    -0.206 F 
ATOM     90  C   UNL A   1      39.009  34.788  41.025  1.00  0.00     0.059 A 
ATOM     91  C   UNL A   1      39.594  36.623  39.519  1.00  0.00     0.059 A 
ATOM     92  F   UNL A   1      39.442  36.299  37.208  1.00  0.00    -0.206 F 
ATOM     93  C   UNL A   1      39.542  36.059  40.792  1.00  0.00     0.060 A 
BRANCH  93  94
ATOM     94  S   UNL A   1      40.716  36.611  42.033  1.00  0.00     0.124 S 
ATOM     95  O   UNL A   1      40.780  35.482  42.955  1.00  0.00    -0.237 OA
ATOM     96  O   UNL A   1      41.859  36.753  41.137  1.00  0.00    -0.237 OA
ATOM     97  O   UNL A   1      40.120  37.829  42.568  1.00  0.00    -0.744 OA
ENDBRANCH  93  94
ENDBRANCH  61  86
BRANCH  73  98
ATOM     98  C   UNL A   1      36.270  34.223  32.126  1.00  0.00     0.058 A 
ATOM     99  C   UNL A   1      35.346  35.238  32.426  1.00  0.00     0.135 A 
ATOM    100  C   UNL A   1      36.177  33.674  30.826  1.00  0.00     0.135 A 
ATOM    101  F   UNL A   1      35.415  35.934  33.569  1.00  0.00    -0.206 F 
ATOM    102  C   UNL A   1      34.336  35.611  31.541  1.00  0.00     0.059 A 
ATOM    103  C   UNL A   1      35.218  34.076  29.903  1.00  0.00     0.059 A 
ATOM    104  F   UNL A   1      37.025  32.725  30.401  1.00  0.00    -0.206 F 
ATOM    105  C   UNL A   1      34.275  35.018  30.284  1.00  0.00     0.060 A 
BRANCH 105 106
ATOM    106  S   UNL A   1      32.989  35.509  29.126  1.00  0.00     0.124 S 
ATOM    107  O   UNL A   1      31.979  36.051  30.030  1.00  0.00    -0.237 OA
ATOM    108  O   UNL A   1      33.669  36.487  28.282  1.00  0.00    -0.237 OA
ATOM    109  O   UNL A   1      32.640  34.256  28.464  1.00  0.00    -0.744 OA
ENDBRANCH 105 106
ENDBRANCH  73  98
ENDBRANCH  47  48
ENDBRANCH  40  42
ENDBRANCH  39  40
ENDBRANCH  38  39
ENDBRANCH  37  38
ENDBRANCH  36  37
ENDBRANCH  35  36
ENDBRANCH   1  35
TORSDOF 26
ENDMDL
