MODEL 1
REMARK VINA RESULT:      -7.5      0.000      0.000
REMARK SMILES CC[C@@](C)(NC(=O)CCc1ccc(OC)c(Br)c1)C(=O)OCCOCCOCCOCCOC(=O)c1ccc(-c2c3nc(c(-c4c(F)cc(S(=O)(=O)[O-])cc4F)c4ccc([nH]4)c(-c4c(F)cc(S(=O)(=O)[O-])cc4F)c4nc(c(-c5c(F)cc(S(=O)(=O)[O-])cc5F)c5ccc2[nH]5)C=C4)C=C3)cc1
REMARK SMILES IDX 26 1 25 2 24 3 23 4 22 5 21 6 19 7 20 8 3 9 4 10 2 11 1 12
REMARK SMILES IDX 5 13 6 14 7 16 8 17 9 18 10 19 11 20 18 21 12 22 16 23 13 24
REMARK SMILES IDX 17 25 14 26 15 27 27 28 28 29 29 30 30 31 31 32 32 33 33 34
REMARK SMILES IDX 34 35 35 36 36 37 37 38 101 39 38 40 100 41 39 42 40 43
REMARK SMILES IDX 41 44 94 45 42 46 99 47 93 48 95 49 43 50 98 51 92 52 91 53
REMARK SMILES IDX 44 55 78 56 57 57 77 58 58 59 61 60 76 61 96 62 59 63 60 64
REMARK SMILES IDX 75 66 97 67 62 68 45 69 46 70 55 71 47 72 48 73 54 74 56 75
REMARK SMILES IDX 49 76 50 77 51 78 52 79 53 80 79 81 80 82 89 83 81 84 82 85
REMARK SMILES IDX 88 86 90 87 83 88 84 89 85 90 86 91 87 92 63 93 64 94 73 95
REMARK SMILES IDX 65 96 66 97 72 98 74 99 67 100 68 101 69 102 70 103 71 104
REMARK H PARENT 5 15 95 54 61 65
REMARK Flexibility Score: inf
ROOT
ATOM      1  C   UNL A   1      34.771  34.072  28.081  1.00  0.00     0.188 C 
ENDROOT
BRANCH   1   2
ATOM      2  C   UNL A   1      33.364  33.516  28.347  1.00  0.00     0.188 C 
BRANCH   2   3
ATOM      3  O   UNL A   1      32.899  32.582  27.360  1.00  0.00    -0.376 OA
BRANCH   3   4
ATOM      4  C   UNL A   1      33.459  31.253  27.457  1.00  0.00     0.202 C 
BRANCH   4   5
ATOM      5  C   UNL A   1      32.433  30.164  26.997  1.00  0.00     0.261 C 
BRANCH   5   6
ATOM      6  O   UNL A   1      32.627  29.747  25.603  1.00  0.00    -0.462 OA
BRANCH   6   7
ATOM      7  C   UNL A   1      31.540  29.272  24.902  1.00  0.00     0.331 C 
ATOM      8  O   UNL A   1      30.668  30.012  24.452  1.00  0.00    -0.249 OA
BRANCH   7   9
ATOM      9  C   UNL A   1      31.526  27.678  24.674  1.00  0.00     0.135 C 
ATOM     10  C   UNL A   1      32.109  27.489  23.257  1.00  0.00     0.047 C 
BRANCH   9  11
ATOM     11  C   UNL A   1      32.213  26.581  25.575  1.00  0.00     0.037 C 
ATOM     12  C   UNL A   1      33.715  26.349  25.650  1.00  0.00     0.007 C 
ENDBRANCH   9  11
BRANCH   9  13
ATOM     13  N   UNL A   1      30.125  27.275  24.707  1.00  0.00    -0.340 N 
ATOM     14  C   UNL A   1      29.540  26.291  23.991  1.00  0.00     0.221 C 
ATOM     15  H   UNL A   1      29.541  27.777  25.321  1.00  0.00     0.164 HD
ATOM     16  O   UNL A   1      28.303  26.339  23.947  1.00  0.00    -0.275 OA
BRANCH  14  17
ATOM     17  C   UNL A   1      30.255  25.175  23.206  1.00  0.00     0.105 C 
BRANCH  17  18
ATOM     18  C   UNL A   1      30.878  23.774  23.487  1.00  0.00     0.045 C 
BRANCH  18  19
ATOM     19  C   UNL A   1      32.178  22.954  23.503  1.00  0.00    -0.046 A 
ATOM     20  C   UNL A   1      33.472  23.471  23.385  1.00  0.00     0.007 A 
ATOM     21  C   UNL A   1      32.129  21.657  24.056  1.00  0.00     0.023 A 
ATOM     22  C   UNL A   1      34.640  22.781  23.740  1.00  0.00     0.048 A 
ATOM     23  C   UNL A   1      33.282  20.961  24.467  1.00  0.00     0.060 A 
ATOM     24  C   UNL A   1      34.543  21.513  24.276  1.00  0.00     0.133 A 
ATOM     25  Br  UNL A   1      33.070  19.295  25.345  1.00  0.00    -0.047 Br
BRANCH  24  26
ATOM     26  O   UNL A   1      35.683  20.859  24.655  1.00  0.00    -0.496 OA
ATOM     27  C   UNL A   1      36.221  21.481  25.822  1.00  0.00     0.278 C 
ENDBRANCH  24  26
ENDBRANCH  18  19
ENDBRANCH  17  18
ENDBRANCH  14  17
ENDBRANCH   9  13
ENDBRANCH   7   9
ENDBRANCH   6   7
ENDBRANCH   5   6
ENDBRANCH   4   5
ENDBRANCH   3   4
ENDBRANCH   2   3
ENDBRANCH   1   2
BRANCH   1  28
ATOM     28  O   UNL A   1      35.448  34.513  29.250  1.00  0.00    -0.377 OA
BRANCH  28  29
ATOM     29  C   UNL A   1      36.768  34.013  29.428  1.00  0.00     0.188 C 
BRANCH  29  30
ATOM     30  C   UNL A   1      37.084  32.769  28.585  1.00  0.00     0.188 C 
BRANCH  30  31
ATOM     31  O   UNL A   1      38.130  31.902  29.020  1.00  0.00    -0.376 OA
BRANCH  31  32
ATOM     32  C   UNL A   1      38.381  31.762  30.415  1.00  0.00     0.202 C 
BRANCH  32  33
ATOM     33  C   UNL A   1      39.118  32.908  31.113  1.00  0.00     0.261 C 
BRANCH  33  34
ATOM     34  O   UNL A   1      39.798  32.488  32.309  1.00  0.00    -0.460 OA
BRANCH  34  35
ATOM     35  C   UNL A   1      40.795  33.309  32.708  1.00  0.00     0.338 C 
ATOM     36  O   UNL A   1      40.916  34.496  32.473  1.00  0.00    -0.246 OA
BRANCH  35  37
ATOM     37  C   UNL A   1      41.686  32.593  33.635  1.00  0.00     0.060 A 
ATOM     38  C   UNL A   1      42.992  32.317  33.204  1.00  0.00     0.016 A 
ATOM     39  C   UNL A   1      41.200  32.065  34.835  1.00  0.00     0.016 A 
ATOM     40  C   UNL A   1      43.790  31.446  33.934  1.00  0.00     0.010 A 
ATOM     41  C   UNL A   1      41.999  31.172  35.554  1.00  0.00     0.010 A 
ATOM     42  C   UNL A   1      43.270  30.818  35.072  1.00  0.00    -0.014 A 
BRANCH  42  43
ATOM     43  C   UNL A   1      43.971  29.620  35.584  1.00  0.00     0.031 A 
ATOM     44  C   UNL A   1      44.235  28.486  34.628  1.00  0.00     0.074 A 
ATOM     45  C   UNL A   1      44.444  29.587  36.841  1.00  0.00     0.049 A 
ATOM     46  N   UNL A   1      44.850  27.353  34.836  1.00  0.00    -0.248 NA
ATOM     47  C   UNL A   1      43.745  28.659  33.248  1.00  0.00     0.031 C 
ATOM     48  C   UNL A   1      44.287  30.651  37.832  1.00  0.00     0.029 A 
ATOM     49  N   UNL A   1      45.158  28.617  37.495  1.00  0.00    -0.354 N 
ATOM     50  C   UNL A   1      44.828  26.682  33.617  1.00  0.00     0.074 A 
ATOM     51  C   UNL A   1      44.107  27.518  32.684  1.00  0.00     0.031 C 
ATOM     52  C   UNL A   1      44.876  30.268  38.977  1.00  0.00     0.029 A 
ATOM     53  C   UNL A   1      45.430  28.926  38.806  1.00  0.00     0.049 A 
ATOM     54  H   UNL A   1      45.448  27.780  37.067  1.00  0.00     0.167 HD
ATOM     55  C   UNL A   1      45.372  25.483  33.302  1.00  0.00     0.037 A 
ATOM     56  C   UNL A   1      46.041  28.196  39.758  1.00  0.00     0.037 A 
ATOM     57  C   UNL A   1      46.081  24.656  34.241  1.00  0.00     0.049 A 
ATOM     58  C   UNL A   1      46.585  26.837  39.399  1.00  0.00     0.074 A 
ATOM     59  C   UNL A   1      46.657  23.415  34.035  1.00  0.00     0.029 A 
ATOM     60  N   UNL A   1      46.312  24.988  35.569  1.00  0.00    -0.354 N 
ATOM     61  N   UNL A   1      46.553  26.213  38.244  1.00  0.00    -0.248 NA
ATOM     62  C   UNL A   1      47.259  26.089  40.469  1.00  0.00     0.031 C 
ATOM     63  C   UNL A   1      47.204  22.981  35.247  1.00  0.00     0.029 A 
ATOM     64  C   UNL A   1      47.010  23.971  36.198  1.00  0.00     0.049 A 
ATOM     65  H   UNL A   1      46.022  25.823  36.000  1.00  0.00     0.167 HD
ATOM     66  C   UNL A   1      47.215  25.007  38.446  1.00  0.00     0.074 A 
ATOM     67  C   UNL A   1      47.658  25.001  39.826  1.00  0.00     0.031 C 
ATOM     68  C   UNL A   1      47.434  23.990  37.574  1.00  0.00     0.037 A 
BRANCH  55  69
ATOM     69  C   UNL A   1      45.208  24.992  31.892  1.00  0.00     0.058 A 
ATOM     70  C   UNL A   1      44.239  24.033  31.554  1.00  0.00     0.135 A 
ATOM     71  C   UNL A   1      46.003  25.511  30.858  1.00  0.00     0.135 A 
ATOM     72  F   UNL A   1      43.469  23.486  32.508  1.00  0.00    -0.206 F 
ATOM     73  C   UNL A   1      44.072  23.599  30.243  1.00  0.00     0.059 A 
ATOM     74  C   UNL A   1      45.837  25.108  29.535  1.00  0.00     0.059 A 
ATOM     75  F   UNL A   1      46.952  26.422  31.126  1.00  0.00    -0.206 F 
ATOM     76  C   UNL A   1      44.873  24.145  29.239  1.00  0.00     0.060 A 
BRANCH  76  77
ATOM     77  S   UNL A   1      44.624  23.592  27.539  1.00  0.00     0.124 S 
ATOM     78  O   UNL A   1      44.444  24.861  26.841  1.00  0.00    -0.237 OA
ATOM     79  O   UNL A   1      45.870  22.885  27.256  1.00  0.00    -0.237 OA
ATOM     80  O   UNL A   1      43.436  22.749  27.626  1.00  0.00    -0.744 OA
ENDBRANCH  76  77
ENDBRANCH  55  69
BRANCH  56  81
ATOM     81  C   UNL A   1      46.143  28.719  41.146  1.00  0.00     0.058 A 
ATOM     82  C   UNL A   1      47.170  29.596  41.525  1.00  0.00     0.135 A 
ATOM     83  C   UNL A   1      45.216  28.334  42.128  1.00  0.00     0.135 A 
ATOM     84  F   UNL A   1      48.084  29.987  40.625  1.00  0.00    -0.206 F 
ATOM     85  C   UNL A   1      47.288  30.056  42.833  1.00  0.00     0.059 A 
ATOM     86  C   UNL A   1      45.298  28.802  43.435  1.00  0.00     0.059 A 
ATOM     87  F   UNL A   1      44.207  27.507  41.814  1.00  0.00    -0.206 F 
ATOM     88  C   UNL A   1      46.346  29.652  43.781  1.00  0.00     0.060 A 
BRANCH  88  89
ATOM     89  S   UNL A   1      46.484  30.282  45.468  1.00  0.00     0.124 S 
ATOM     90  O   UNL A   1      46.169  29.093  46.252  1.00  0.00    -0.237 OA
ATOM     91  O   UNL A   1      47.871  30.731  45.516  1.00  0.00    -0.237 OA
ATOM     92  O   UNL A   1      45.487  31.348  45.509  1.00  0.00    -0.744 OA
ENDBRANCH  88  89
ENDBRANCH  56  81
BRANCH  68  93
ATOM     93  C   UNL A   1      48.201  22.804  38.090  1.00  0.00     0.058 A 
ATOM     94  C   UNL A   1      49.605  22.773  38.078  1.00  0.00     0.135 A 
ATOM     95  C   UNL A   1      47.524  21.689  38.612  1.00  0.00     0.135 A 
ATOM     96  F   UNL A   1      50.298  23.814  37.588  1.00  0.00    -0.206 F 
ATOM     97  C   UNL A   1      50.310  21.662  38.524  1.00  0.00     0.059 A 
ATOM     98  C   UNL A   1      48.211  20.578  39.091  1.00  0.00     0.059 A 
ATOM     99  F   UNL A   1      46.183  21.674  38.661  1.00  0.00    -0.206 F 
ATOM    100  C   UNL A   1      49.604  20.566  39.022  1.00  0.00     0.060 A 
BRANCH 100 101
ATOM    101  S   UNL A   1      50.529  19.123  39.589  1.00  0.00     0.124 S 
ATOM    102  O   UNL A   1      49.454  18.254  40.058  1.00  0.00    -0.237 OA
ATOM    103  O   UNL A   1      51.211  18.688  38.374  1.00  0.00    -0.237 OA
ATOM    104  O   UNL A   1      51.399  19.665  40.629  1.00  0.00    -0.744 OA
ENDBRANCH 100 101
ENDBRANCH  68  93
ENDBRANCH  42  43
ENDBRANCH  35  37
ENDBRANCH  34  35
ENDBRANCH  33  34
ENDBRANCH  32  33
ENDBRANCH  31  32
ENDBRANCH  30  31
ENDBRANCH  29  30
ENDBRANCH  28  29
ENDBRANCH   1  28
TORSDOF 29
ENDMDL
MODEL 2
REMARK VINA RESULT:      -7.4      8.385     16.167
REMARK SMILES CC[C@@](C)(NC(=O)CCc1ccc(OC)c(Br)c1)C(=O)OCCOCCOCCOCCOC(=O)c1ccc(-c2c3nc(c(-c4c(F)cc(S(=O)(=O)[O-])cc4F)c4ccc([nH]4)c(-c4c(F)cc(S(=O)(=O)[O-])cc4F)c4nc(c(-c5c(F)cc(S(=O)(=O)[O-])cc5F)c5ccc2[nH]5)C=C4)C=C3)cc1
REMARK SMILES IDX 26 1 25 2 24 3 23 4 22 5 21 6 19 7 20 8 3 9 4 10 2 11 1 12
REMARK SMILES IDX 5 13 6 14 7 16 8 17 9 18 10 19 11 20 18 21 12 22 16 23 13 24
REMARK SMILES IDX 17 25 14 26 15 27 27 28 28 29 29 30 30 31 31 32 32 33 33 34
REMARK SMILES IDX 34 35 35 36 36 37 37 38 101 39 38 40 100 41 39 42 40 43
REMARK SMILES IDX 41 44 94 45 42 46 99 47 93 48 95 49 43 50 98 51 92 52 91 53
REMARK SMILES IDX 44 55 78 56 57 57 77 58 58 59 61 60 76 61 96 62 59 63 60 64
REMARK SMILES IDX 75 66 97 67 62 68 45 69 46 70 55 71 47 72 48 73 54 74 56 75
REMARK SMILES IDX 49 76 50 77 51 78 52 79 53 80 79 81 80 82 89 83 81 84 82 85
REMARK SMILES IDX 88 86 90 87 83 88 84 89 85 90 86 91 87 92 63 93 64 94 73 95
REMARK SMILES IDX 65 96 66 97 72 98 74 99 67 100 68 101 69 102 70 103 71 104
REMARK H PARENT 5 15 95 54 61 65
REMARK Flexibility Score: inf
ROOT
ATOM      1  C   UNL A   1      50.361  19.880  37.343  1.00  0.00     0.188 C 
ENDROOT
BRANCH   1   2
ATOM      2  C   UNL A   1      48.876  19.627  37.644  1.00  0.00     0.188 C 
BRANCH   2   3
ATOM      3  O   UNL A   1      48.165  20.776  38.132  1.00  0.00    -0.376 OA
BRANCH   3   4
ATOM      4  C   UNL A   1      46.774  20.550  38.452  1.00  0.00     0.202 C 
BRANCH   4   5
ATOM      5  C   UNL A   1      46.483  20.827  39.965  1.00  0.00     0.261 C 
BRANCH   5   6
ATOM      6  O   UNL A   1      45.432  19.962  40.515  1.00  0.00    -0.462 OA
BRANCH   6   7
ATOM      7  C   UNL A   1      45.667  18.607  40.587  1.00  0.00     0.331 C 
ATOM      8  O   UNL A   1      45.383  17.835  39.673  1.00  0.00    -0.249 OA
BRANCH   7   9
ATOM      9  C   UNL A   1      46.390  18.118  41.940  1.00  0.00     0.135 C 
ATOM     10  C   UNL A   1      46.172  16.589  41.960  1.00  0.00     0.047 C 
BRANCH   9  11
ATOM     11  C   UNL A   1      47.895  18.346  42.353  1.00  0.00     0.037 C 
ATOM     12  C   UNL A   1      49.021  18.625  41.369  1.00  0.00     0.007 C 
ENDBRANCH   9  11
BRANCH   9  13
ATOM     13  N   UNL A   1      45.667  18.750  43.038  1.00  0.00    -0.340 N 
ATOM     14  C   UNL A   1      45.099  18.141  44.102  1.00  0.00     0.221 C 
ATOM     15  H   UNL A   1      45.585  19.730  43.000  1.00  0.00     0.164 HD
ATOM     16  O   UNL A   1      44.282  18.831  44.727  1.00  0.00    -0.275 OA
BRANCH  14  17
ATOM     17  C   UNL A   1      45.334  16.691  44.565  1.00  0.00     0.105 C 
BRANCH  17  18
ATOM     18  C   UNL A   1      44.493  15.492  45.099  1.00  0.00     0.045 C 
BRANCH  18  19
ATOM     19  C   UNL A   1      43.953  14.090  44.776  1.00  0.00    -0.046 A 
ATOM     20  C   UNL A   1      42.815  13.807  44.013  1.00  0.00     0.007 A 
ATOM     21  C   UNL A   1      44.839  12.999  44.906  1.00  0.00     0.023 A 
ATOM     22  C   UNL A   1      42.530  12.559  43.443  1.00  0.00     0.048 A 
ATOM     23  C   UNL A   1      44.600  11.750  44.303  1.00  0.00     0.060 A 
ATOM     24  C   UNL A   1      43.425  11.521  43.598  1.00  0.00     0.133 A 
ATOM     25  Br  UNL A   1      45.945  10.418  44.415  1.00  0.00    -0.047 Br
BRANCH  24  26
ATOM     26  O   UNL A   1      43.159  10.316  43.009  1.00  0.00    -0.496 OA
ATOM     27  C   UNL A   1      42.076   9.683  43.690  1.00  0.00     0.278 C 
ENDBRANCH  24  26
ENDBRANCH  18  19
ENDBRANCH  17  18
ENDBRANCH  14  17
ENDBRANCH   9  13
ENDBRANCH   7   9
ENDBRANCH   6   7
ENDBRANCH   5   6
ENDBRANCH   4   5
ENDBRANCH   3   4
ENDBRANCH   2   3
ENDBRANCH   1   2
BRANCH   1  28
ATOM     28  O   UNL A   1      50.589  20.657  36.176  1.00  0.00    -0.377 OA
BRANCH  28  29
ATOM     29  C   UNL A   1      50.081  20.118  34.962  1.00  0.00     0.188 C 
BRANCH  29  30
ATOM     30  C   UNL A   1      48.929  20.928  34.352  1.00  0.00     0.188 C 
BRANCH  30  31
ATOM     31  O   UNL A   1      47.691  20.266  34.101  1.00  0.00    -0.376 OA
BRANCH  31  32
ATOM     32  C   UNL A   1      46.483  20.846  34.585  1.00  0.00     0.202 C 
BRANCH  32  33
ATOM     33  C   UNL A   1      46.534  22.314  35.016  1.00  0.00     0.261 C 
BRANCH  33  34
ATOM     34  O   UNL A   1      45.230  22.916  35.103  1.00  0.00    -0.460 OA
BRANCH  34  35
ATOM     35  C   UNL A   1      44.961  23.509  36.287  1.00  0.00     0.338 C 
ATOM     36  O   UNL A   1      45.163  23.064  37.400  1.00  0.00    -0.246 OA
BRANCH  35  37
ATOM     37  C   UNL A   1      44.508  24.890  36.058  1.00  0.00     0.060 A 
ATOM     38  C   UNL A   1      43.413  25.086  35.205  1.00  0.00     0.016 A 
ATOM     39  C   UNL A   1      45.243  25.977  36.544  1.00  0.00     0.016 A 
ATOM     40  C   UNL A   1      43.097  26.367  34.770  1.00  0.00     0.010 A 
ATOM     41  C   UNL A   1      44.935  27.260  36.086  1.00  0.00     0.010 A 
ATOM     42  C   UNL A   1      43.900  27.447  35.154  1.00  0.00    -0.014 A 
BRANCH  42  43
ATOM     43  C   UNL A   1      43.795  28.700  34.375  1.00  0.00     0.031 A 
ATOM     44  C   UNL A   1      44.261  28.689  32.942  1.00  0.00     0.074 A 
ATOM     45  C   UNL A   1      43.210  29.789  34.902  1.00  0.00     0.049 A 
ATOM     46  N   UNL A   1      44.246  29.651  32.058  1.00  0.00    -0.248 NA
ATOM     47  C   UNL A   1      44.811  27.418  32.437  1.00  0.00     0.031 C 
ATOM     48  C   UNL A   1      42.680  29.889  36.261  1.00  0.00     0.029 A 
ATOM     49  N   UNL A   1      42.962  31.018  34.349  1.00  0.00    -0.354 N 
ATOM     50  C   UNL A   1      44.776  29.102  30.894  1.00  0.00     0.074 A 
ATOM     51  C   UNL A   1      45.137  27.735  31.194  1.00  0.00     0.031 C 
ATOM     52  C   UNL A   1      42.182  31.124  36.442  1.00  0.00     0.029 A 
ATOM     53  C   UNL A   1      42.378  31.904  35.221  1.00  0.00     0.049 A 
ATOM     54  H   UNL A   1      43.182  31.245  33.417  1.00  0.00     0.167 HD
ATOM     55  C   UNL A   1      44.933  29.684  29.682  1.00  0.00     0.037 A 
ATOM     56  C   UNL A   1      42.058  33.200  35.052  1.00  0.00     0.037 A 
ATOM     57  C   UNL A   1      44.577  31.048  29.397  1.00  0.00     0.049 A 
ATOM     58  C   UNL A   1      42.299  33.843  33.711  1.00  0.00     0.074 A 
ATOM     59  C   UNL A   1      44.711  31.745  28.209  1.00  0.00     0.029 A 
ATOM     60  N   UNL A   1      44.014  31.924  30.314  1.00  0.00    -0.354 N 
ATOM     61  N   UNL A   1      42.805  33.315  32.620  1.00  0.00    -0.248 NA
ATOM     62  C   UNL A   1      41.915  35.255  33.573  1.00  0.00     0.031 C 
ATOM     63  C   UNL A   1      44.263  33.053  28.418  1.00  0.00     0.029 A 
ATOM     64  C   UNL A   1      43.806  33.159  29.723  1.00  0.00     0.049 A 
ATOM     65  H   UNL A   1      43.795  31.702  31.246  1.00  0.00     0.167 HD
ATOM     66  C   UNL A   1      42.786  34.324  31.664  1.00  0.00     0.074 A 
ATOM     67  C   UNL A   1      42.194  35.486  32.298  1.00  0.00     0.031 C 
ATOM     68  C   UNL A   1      43.221  34.300  30.379  1.00  0.00     0.037 A 
BRANCH  55  69
ATOM     69  C   UNL A   1      45.528  28.850  28.582  1.00  0.00     0.058 A 
ATOM     70  C   UNL A   1      46.918  28.722  28.425  1.00  0.00     0.135 A 
ATOM     71  C   UNL A   1      44.701  28.143  27.695  1.00  0.00     0.135 A 
ATOM     72  F   UNL A   1      47.753  29.397  29.230  1.00  0.00    -0.206 F 
ATOM     73  C   UNL A   1      47.466  27.929  27.422  1.00  0.00     0.059 A 
ATOM     74  C   UNL A   1      45.228  27.325  26.698  1.00  0.00     0.059 A 
ATOM     75  F   UNL A   1      43.365  28.238  27.794  1.00  0.00    -0.206 F 
ATOM     76  C   UNL A   1      46.613  27.231  26.565  1.00  0.00     0.060 A 
BRANCH  76  77
ATOM     77  S   UNL A   1      47.340  26.185  25.286  1.00  0.00     0.124 S 
ATOM     78  O   UNL A   1      48.149  25.269  26.083  1.00  0.00    -0.237 OA
ATOM     79  O   UNL A   1      46.161  25.602  24.654  1.00  0.00    -0.237 OA
ATOM     80  O   UNL A   1      48.088  27.127  24.460  1.00  0.00    -0.744 OA
ENDBRANCH  76  77
ENDBRANCH  55  69
BRANCH  56  81
ATOM     81  C   UNL A   1      41.504  33.985  36.188  1.00  0.00     0.058 A 
ATOM     82  C   UNL A   1      40.122  34.116  36.383  1.00  0.00     0.135 A 
ATOM     83  C   UNL A   1      42.357  34.634  37.095  1.00  0.00     0.135 A 
ATOM     84  F   UNL A   1      39.266  33.520  35.539  1.00  0.00    -0.206 F 
ATOM     85  C   UNL A   1      39.603  34.881  37.424  1.00  0.00     0.059 A 
ATOM     86  C   UNL A   1      41.863  35.382  38.158  1.00  0.00     0.059 A 
ATOM     87  F   UNL A   1      43.688  34.530  36.960  1.00  0.00    -0.206 F 
ATOM     88  C   UNL A   1      40.483  35.511  38.306  1.00  0.00     0.060 A 
BRANCH  88  89
ATOM     89  S   UNL A   1      39.804  36.472  39.675  1.00  0.00     0.124 S 
ATOM     90  O   UNL A   1      41.016  36.956  40.324  1.00  0.00    -0.237 OA
ATOM     91  O   UNL A   1      39.005  37.475  38.980  1.00  0.00    -0.237 OA
ATOM     92  O   UNL A   1      39.036  35.483  40.428  1.00  0.00    -0.744 OA
ENDBRANCH  88  89
ENDBRANCH  56  81
BRANCH  68  93
ATOM     93  C   UNL A   1      43.053  35.562  29.579  1.00  0.00     0.058 A 
ATOM     94  C   UNL A   1      41.886  35.815  28.839  1.00  0.00     0.135 A 
ATOM     95  C   UNL A   1      44.066  36.535  29.561  1.00  0.00     0.135 A 
ATOM     96  F   UNL A   1      40.890  34.914  28.823  1.00  0.00    -0.206 F 
ATOM     97  C   UNL A   1      41.748  36.966  28.074  1.00  0.00     0.059 A 
ATOM     98  C   UNL A   1      43.936  37.708  28.825  1.00  0.00     0.059 A 
ATOM     99  F   UNL A   1      45.194  36.350  30.263  1.00  0.00    -0.206 F 
ATOM    100  C   UNL A   1      42.782  37.904  28.066  1.00  0.00     0.060 A 
BRANCH 100 101
ATOM    101  S   UNL A   1      42.597  39.391  27.061  1.00  0.00     0.124 S 
ATOM    102  O   UNL A   1      43.898  39.462  26.402  1.00  0.00    -0.237 OA
ATOM    103  O   UNL A   1      41.469  39.052  26.200  1.00  0.00    -0.237 OA
ATOM    104  O   UNL A   1      42.333  40.436  28.046  1.00  0.00    -0.744 OA
ENDBRANCH 100 101
ENDBRANCH  68  93
ENDBRANCH  42  43
ENDBRANCH  35  37
ENDBRANCH  34  35
ENDBRANCH  33  34
ENDBRANCH  32  33
ENDBRANCH  31  32
ENDBRANCH  30  31
ENDBRANCH  29  30
ENDBRANCH  28  29
ENDBRANCH   1  28
TORSDOF 29
ENDMDL
MODEL 3
REMARK VINA RESULT:      -7.4     11.113     16.934
REMARK SMILES CC[C@@](C)(NC(=O)CCc1ccc(OC)c(Br)c1)C(=O)OCCOCCOCCOCCOC(=O)c1ccc(-c2c3nc(c(-c4c(F)cc(S(=O)(=O)[O-])cc4F)c4ccc([nH]4)c(-c4c(F)cc(S(=O)(=O)[O-])cc4F)c4nc(c(-c5c(F)cc(S(=O)(=O)[O-])cc5F)c5ccc2[nH]5)C=C4)C=C3)cc1
REMARK SMILES IDX 26 1 25 2 24 3 23 4 22 5 21 6 19 7 20 8 3 9 4 10 2 11 1 12
REMARK SMILES IDX 5 13 6 14 7 16 8 17 9 18 10 19 11 20 18 21 12 22 16 23 13 24
REMARK SMILES IDX 17 25 14 26 15 27 27 28 28 29 29 30 30 31 31 32 32 33 33 34
REMARK SMILES IDX 34 35 35 36 36 37 37 38 101 39 38 40 100 41 39 42 40 43
REMARK SMILES IDX 41 44 94 45 42 46 99 47 93 48 95 49 43 50 98 51 92 52 91 53
REMARK SMILES IDX 44 55 78 56 57 57 77 58 58 59 61 60 76 61 96 62 59 63 60 64
REMARK SMILES IDX 75 66 97 67 62 68 45 69 46 70 55 71 47 72 48 73 54 74 56 75
REMARK SMILES IDX 49 76 50 77 51 78 52 79 53 80 79 81 80 82 89 83 81 84 82 85
REMARK SMILES IDX 88 86 90 87 83 88 84 89 85 90 86 91 87 92 63 93 64 94 73 95
REMARK SMILES IDX 65 96 66 97 72 98 74 99 67 100 68 101 69 102 70 103 71 104
REMARK H PARENT 5 15 95 54 61 65
REMARK Flexibility Score: inf
ROOT
ATOM      1  C   UNL A   1      47.948  45.282  24.633  1.00  0.00     0.188 C 
ENDROOT
BRANCH   1   2
ATOM      2  C   UNL A   1      49.427  44.913  24.439  1.00  0.00     0.188 C 
BRANCH   2   3
ATOM      3  O   UNL A   1      49.903  45.060  23.092  1.00  0.00    -0.376 OA
BRANCH   3   4
ATOM      4  C   UNL A   1      49.623  46.336  22.475  1.00  0.00     0.202 C 
BRANCH   4   5
ATOM      5  C   UNL A   1      50.876  46.896  21.721  1.00  0.00     0.261 C 
BRANCH   5   6
ATOM      6  O   UNL A   1      50.559  47.403  20.380  1.00  0.00    -0.462 OA
BRANCH   6   7
ATOM      7  C   UNL A   1      50.426  46.498  19.350  1.00  0.00     0.331 C 
ATOM      8  O   UNL A   1      50.670  45.301  19.485  1.00  0.00    -0.249 OA
BRANCH   7   9
ATOM      9  C   UNL A   1      49.880  47.121  17.970  1.00  0.00     0.135 C 
ATOM     10  C   UNL A   1      51.073  47.926  17.413  1.00  0.00     0.047 C 
BRANCH   9  11
ATOM     11  C   UNL A   1      49.278  46.333  16.743  1.00  0.00     0.037 C 
ATOM     12  C   UNL A   1      48.970  46.957  15.390  1.00  0.00     0.007 C 
ENDBRANCH   9  11
BRANCH   9  13
ATOM     13  N   UNL A   1      48.786  48.015  18.332  1.00  0.00    -0.340 N 
ATOM     14  C   UNL A   1      47.602  47.676  18.886  1.00  0.00     0.221 C 
ATOM     15  H   UNL A   1      48.928  48.973  18.155  1.00  0.00     0.164 HD
ATOM     16  O   UNL A   1      46.721  48.545  18.813  1.00  0.00    -0.275 OA
BRANCH  14  17
ATOM     17  C   UNL A   1      47.243  46.327  19.538  1.00  0.00     0.105 C 
BRANCH  17  18
ATOM     18  C   UNL A   1      46.334  45.799  20.688  1.00  0.00     0.045 C 
BRANCH  18  19
ATOM     19  C   UNL A   1      45.202  44.824  21.052  1.00  0.00    -0.046 A 
ATOM     20  C   UNL A   1      44.743  44.550  22.344  1.00  0.00     0.007 A 
ATOM     21  C   UNL A   1      44.292  44.466  20.034  1.00  0.00     0.023 A 
ATOM     22  C   UNL A   1      43.514  43.944  22.639  1.00  0.00     0.048 A 
ATOM     23  C   UNL A   1      43.031  43.902  20.306  1.00  0.00     0.060 A 
ATOM     24  C   UNL A   1      42.658  43.609  21.611  1.00  0.00     0.133 A 
ATOM     25  Br  UNL A   1      41.836  43.618  18.862  1.00  0.00    -0.047 Br
BRANCH  24  26
ATOM     26  O   UNL A   1      41.444  43.052  21.908  1.00  0.00    -0.496 OA
ATOM     27  C   UNL A   1      41.610  42.068  22.928  1.00  0.00     0.278 C 
ENDBRANCH  24  26
ENDBRANCH  18  19
ENDBRANCH  17  18
ENDBRANCH  14  17
ENDBRANCH   9  13
ENDBRANCH   7   9
ENDBRANCH   6   7
ENDBRANCH   5   6
ENDBRANCH   4   5
ENDBRANCH   3   4
ENDBRANCH   2   3
ENDBRANCH   1   2
BRANCH   1  28
ATOM     28  O   UNL A   1      47.189  44.291  25.309  1.00  0.00    -0.377 OA
BRANCH  28  29
ATOM     29  C   UNL A   1      47.204  42.993  24.727  1.00  0.00     0.188 C 
BRANCH  29  30
ATOM     30  C   UNL A   1      47.383  41.855  25.742  1.00  0.00     0.188 C 
BRANCH  30  31
ATOM     31  O   UNL A   1      46.242  41.412  26.474  1.00  0.00    -0.376 OA
BRANCH  31  32
ATOM     32  C   UNL A   1      46.072  40.019  26.719  1.00  0.00     0.202 C 
BRANCH  32  33
ATOM     33  C   UNL A   1      46.253  39.533  28.160  1.00  0.00     0.261 C 
BRANCH  33  34
ATOM     34  O   UNL A   1      46.765  38.191  28.236  1.00  0.00    -0.460 OA
BRANCH  34  35
ATOM     35  C   UNL A   1      46.186  37.420  29.183  1.00  0.00     0.338 C 
ATOM     36  O   UNL A   1      45.469  37.782  30.096  1.00  0.00    -0.246 OA
BRANCH  35  37
ATOM     37  C   UNL A   1      46.416  36.000  28.875  1.00  0.00     0.060 A 
ATOM     38  C   UNL A   1      46.008  35.530  27.618  1.00  0.00     0.016 A 
ATOM     39  C   UNL A   1      46.874  35.116  29.856  1.00  0.00     0.016 A 
ATOM     40  C   UNL A   1      45.983  34.165  27.366  1.00  0.00     0.010 A 
ATOM     41  C   UNL A   1      46.826  33.742  29.606  1.00  0.00     0.010 A 
ATOM     42  C   UNL A   1      46.325  33.266  28.383  1.00  0.00    -0.014 A 
BRANCH  42  43
ATOM     43  C   UNL A   1      45.910  31.854  28.229  1.00  0.00     0.031 A 
ATOM     44  C   UNL A   1      44.504  31.479  28.618  1.00  0.00     0.074 A 
ATOM     45  C   UNL A   1      46.734  30.954  27.667  1.00  0.00     0.049 A 
ATOM     46  N   UNL A   1      43.906  30.319  28.550  1.00  0.00    -0.248 NA
ATOM     47  C   UNL A   1      43.655  32.561  29.148  1.00  0.00     0.031 C 
ATOM     48  C   UNL A   1      48.096  31.225  27.209  1.00  0.00     0.029 A 
ATOM     49  N   UNL A   1      46.538  29.628  27.382  1.00  0.00    -0.354 N 
ATOM     50  C   UNL A   1      42.614  30.532  29.020  1.00  0.00     0.074 A 
ATOM     51  C   UNL A   1      42.524  31.922  29.404  1.00  0.00     0.031 C 
ATOM     52  C   UNL A   1      48.622  30.092  26.714  1.00  0.00     0.029 A 
ATOM     53  C   UNL A   1      47.641  29.014  26.840  1.00  0.00     0.049 A 
ATOM     54  H   UNL A   1      45.689  29.159  27.550  1.00  0.00     0.167 HD
ATOM     55  C   UNL A   1      41.592  29.649  29.108  1.00  0.00     0.037 A 
ATOM     56  C   UNL A   1      47.836  27.725  26.504  1.00  0.00     0.037 A 
ATOM     57  C   UNL A   1      41.695  28.265  28.730  1.00  0.00     0.049 A 
ATOM     58  C   UNL A   1      46.701  26.748  26.669  1.00  0.00     0.074 A 
ATOM     59  C   UNL A   1      40.727  27.278  28.795  1.00  0.00     0.029 A 
ATOM     60  N   UNL A   1      42.837  27.672  28.211  1.00  0.00    -0.354 N 
ATOM     61  N   UNL A   1      45.486  26.961  27.119  1.00  0.00    -0.248 NA
ATOM     62  C   UNL A   1      46.960  25.357  26.270  1.00  0.00     0.031 C 
ATOM     63  C   UNL A   1      41.296  26.080  28.351  1.00  0.00     0.029 A 
ATOM     64  C   UNL A   1      42.604  26.329  27.965  1.00  0.00     0.049 A 
ATOM     65  H   UNL A   1      43.688  28.136  28.043  1.00  0.00     0.167 HD
ATOM     66  C   UNL A   1      44.832  25.736  27.043  1.00  0.00     0.074 A 
ATOM     67  C   UNL A   1      45.778  24.794  26.479  1.00  0.00     0.031 C 
ATOM     68  C   UNL A   1      43.566  25.413  27.409  1.00  0.00     0.037 A 
BRANCH  55  69
ATOM     69  C   UNL A   1      40.282  30.152  29.648  1.00  0.00     0.058 A 
ATOM     70  C   UNL A   1      40.121  30.473  31.006  1.00  0.00     0.135 A 
ATOM     71  C   UNL A   1      39.186  30.350  28.794  1.00  0.00     0.135 A 
ATOM     72  F   UNL A   1      41.129  30.279  31.870  1.00  0.00    -0.206 F 
ATOM     73  C   UNL A   1      38.916  30.963  31.498  1.00  0.00     0.059 A 
ATOM     74  C   UNL A   1      37.978  30.861  29.261  1.00  0.00     0.059 A 
ATOM     75  F   UNL A   1      39.283  30.049  27.489  1.00  0.00    -0.206 F 
ATOM     76  C   UNL A   1      37.850  31.157  30.617  1.00  0.00     0.060 A 
BRANCH  76  77
ATOM     77  S   UNL A   1      36.302  31.820  31.267  1.00  0.00     0.124 S 
ATOM     78  O   UNL A   1      35.379  31.534  30.173  1.00  0.00    -0.237 OA
ATOM     79  O   UNL A   1      36.110  31.030  32.480  1.00  0.00    -0.237 OA
ATOM     80  O   UNL A   1      36.600  33.232  31.484  1.00  0.00    -0.744 OA
ENDBRANCH  76  77
ENDBRANCH  55  69
BRANCH  56  81
ATOM     81  C   UNL A   1      49.164  27.278  26.007  1.00  0.00     0.058 A 
ATOM     82  C   UNL A   1      49.432  27.158  24.636  1.00  0.00     0.135 A 
ATOM     83  C   UNL A   1      50.192  26.947  26.905  1.00  0.00     0.135 A 
ATOM     84  F   UNL A   1      48.480  27.456  23.738  1.00  0.00    -0.206 F 
ATOM     85  C   UNL A   1      50.663  26.703  24.171  1.00  0.00     0.059 A 
ATOM     86  C   UNL A   1      51.439  26.516  26.464  1.00  0.00     0.059 A 
ATOM     87  F   UNL A   1      49.992  27.057  28.227  1.00  0.00    -0.206 F 
ATOM     88  C   UNL A   1      51.660  26.384  25.095  1.00  0.00     0.060 A 
BRANCH  88  89
ATOM     89  S   UNL A   1      53.266  25.830  24.485  1.00  0.00     0.124 S 
ATOM     90  O   UNL A   1      53.112  26.011  23.046  1.00  0.00    -0.237 OA
ATOM     91  O   UNL A   1      54.182  26.750  25.151  1.00  0.00    -0.237 OA
ATOM     92  O   UNL A   1      53.338  24.446  24.943  1.00  0.00    -0.744 OA
ENDBRANCH  88  89
ENDBRANCH  56  81
BRANCH  68  93
ATOM     93  C   UNL A   1      43.136  23.989  27.191  1.00  0.00     0.058 A 
ATOM     94  C   UNL A   1      42.879  23.124  28.267  1.00  0.00     0.135 A 
ATOM     95  C   UNL A   1      42.968  23.486  25.890  1.00  0.00     0.135 A 
ATOM     96  F   UNL A   1      43.026  23.557  29.530  1.00  0.00    -0.206 F 
ATOM     97  C   UNL A   1      42.514  21.799  28.062  1.00  0.00     0.059 A 
ATOM     98  C   UNL A   1      42.575  22.171  25.662  1.00  0.00     0.059 A 
ATOM     99  F   UNL A   1      43.185  24.275  24.827  1.00  0.00    -0.206 F 
ATOM    100  C   UNL A   1      42.373  21.329  26.755  1.00  0.00     0.060 A 
BRANCH 100 101
ATOM    101  S   UNL A   1      41.909  19.604  26.499  1.00  0.00     0.124 S 
ATOM    102  O   UNL A   1      40.456  19.671  26.618  1.00  0.00    -0.237 OA
ATOM    103  O   UNL A   1      42.424  19.334  25.161  1.00  0.00    -0.237 OA
ATOM    104  O   UNL A   1      42.596  18.904  27.581  1.00  0.00    -0.744 OA
ENDBRANCH 100 101
ENDBRANCH  68  93
ENDBRANCH  42  43
ENDBRANCH  35  37
ENDBRANCH  34  35
ENDBRANCH  33  34
ENDBRANCH  32  33
ENDBRANCH  31  32
ENDBRANCH  30  31
ENDBRANCH  29  30
ENDBRANCH  28  29
ENDBRANCH   1  28
TORSDOF 29
ENDMDL
