MODEL 1
REMARK VINA RESULT:     -10.3      0.000      0.000
REMARK SMILES O=C(OCCOCCOCCOCCOC(=O)[C@@H]1[C@H](C(=O)NCc2ccncc2)[C@H]2C=C[C@@H]1O2)c1ccc(-c2c3nc(c(-c4c(F)cc(S(=O)(=O)[O-])cc4F)c4ccc([nH]4)c(-c4c(F)cc(S(=O)(=O)[O-])cc4F)c4nc(c(-c5c(F)cc(S(=O)(=O)[O-])cc5F)c5ccc2[nH]5)C=C4)C=C3)cc1
REMARK SMILES IDX 9 1 8 2 7 3 6 4 5 5 4 6 3 7 2 8 1 9 35 10 36 11 100 12 37 13
REMARK SMILES IDX 99 14 38 15 39 16 40 17 93 18 41 19 98 20 92 21 94 22 42 23
REMARK SMILES IDX 97 24 91 25 90 26 43 28 77 29 56 30 76 31 57 32 60 33 75 34
REMARK SMILES IDX 95 35 58 36 59 37 74 39 96 40 61 41 44 42 45 43 54 44 46 45
REMARK SMILES IDX 47 46 53 47 55 48 48 49 49 50 50 51 51 52 52 53 78 54 79 55
REMARK SMILES IDX 88 56 80 57 81 58 87 59 89 60 82 61 83 62 84 63 85 64 86 65
REMARK SMILES IDX 62 66 63 67 72 68 64 69 65 70 71 71 73 72 66 73 67 74 68 75
REMARK SMILES IDX 69 76 70 77 10 78 11 79 12 80 13 81 14 82 15 83 16 84 17 85
REMARK SMILES IDX 18 86 19 87 33 88 30 89 32 90 34 91 31 92 20 93 21 94 22 95
REMARK SMILES IDX 23 97 24 98 25 99 29 100 26 101 28 102 27 103
REMARK H PARENT 94 27 60 38 22 96
REMARK Flexibility Score: inf
ROOT
ATOM      1  O   UNL A   1      32.670  29.114  23.878  1.00  0.00    -0.377 OA
ENDROOT
BRANCH   1   2
ATOM      2  C   UNL A   1      31.543  29.230  24.741  1.00  0.00     0.188 C 
BRANCH   2   3
ATOM      3  C   UNL A   1      31.672  28.455  26.064  1.00  0.00     0.188 C 
BRANCH   3   4
ATOM      4  O   UNL A   1      31.982  29.278  27.204  1.00  0.00    -0.376 OA
BRANCH   4   5
ATOM      5  C   UNL A   1      32.328  30.639  26.881  1.00  0.00     0.202 C 
BRANCH   5   6
ATOM      6  C   UNL A   1      33.525  31.298  27.597  1.00  0.00     0.261 C 
BRANCH   6   7
ATOM      7  O   UNL A   1      33.526  32.729  27.559  1.00  0.00    -0.460 OA
BRANCH   7   8
ATOM      8  C   UNL A   1      33.623  33.599  28.599  1.00  0.00     0.338 C 
ATOM      9  O   UNL A   1      32.855  34.561  28.615  1.00  0.00    -0.246 OA
BRANCH   8  10
ATOM     10  C   UNL A   1      34.674  33.521  29.672  1.00  0.00     0.060 A 
ATOM     11  C   UNL A   1      35.949  34.085  29.609  1.00  0.00     0.016 A 
ATOM     12  C   UNL A   1      34.332  32.827  30.848  1.00  0.00     0.016 A 
ATOM     13  C   UNL A   1      36.898  33.854  30.590  1.00  0.00     0.010 A 
ATOM     14  C   UNL A   1      35.274  32.607  31.860  1.00  0.00     0.010 A 
ATOM     15  C   UNL A   1      36.582  33.069  31.689  1.00  0.00    -0.014 A 
BRANCH  15  16
ATOM     16  C   UNL A   1      37.721  32.488  32.420  1.00  0.00     0.031 A 
ATOM     17  C   UNL A   1      38.523  31.448  31.691  1.00  0.00     0.074 A 
ATOM     18  C   UNL A   1      38.142  33.027  33.576  1.00  0.00     0.049 A 
ATOM     19  N   UNL A   1      39.558  30.764  32.090  1.00  0.00    -0.248 NA
ATOM     20  C   UNL A   1      38.114  31.159  30.302  1.00  0.00     0.031 C 
ATOM     21  C   UNL A   1      37.533  34.180  34.243  1.00  0.00     0.029 A 
ATOM     22  N   UNL A   1      39.210  32.706  34.370  1.00  0.00    -0.354 N 
ATOM     23  C   UNL A   1      39.884  29.928  31.028  1.00  0.00     0.074 A 
ATOM     24  C   UNL A   1      38.962  30.207  29.954  1.00  0.00     0.031 C 
ATOM     25  C   UNL A   1      38.255  34.482  35.337  1.00  0.00     0.029 A 
ATOM     26  C   UNL A   1      39.324  33.500  35.486  1.00  0.00     0.049 A 
ATOM     27  H   UNL A   1      39.837  31.976  34.161  1.00  0.00     0.167 HD
ATOM     28  C   UNL A   1      40.855  28.991  30.974  1.00  0.00     0.037 A 
ATOM     29  C   UNL A   1      40.182  33.405  36.519  1.00  0.00     0.037 A 
ATOM     30  C   UNL A   1      41.748  28.740  32.070  1.00  0.00     0.049 A 
ATOM     31  C   UNL A   1      41.188  32.279  36.487  1.00  0.00     0.074 A 
ATOM     32  C   UNL A   1      42.710  27.759  32.198  1.00  0.00     0.029 A 
ATOM     33  N   UNL A   1      41.775  29.493  33.238  1.00  0.00    -0.354 N 
ATOM     34  N   UNL A   1      41.421  31.406  35.532  1.00  0.00    -0.248 NA
ATOM     35  C   UNL A   1      42.033  32.108  37.675  1.00  0.00     0.031 C 
ATOM     36  C   UNL A   1      43.282  27.884  33.469  1.00  0.00     0.029 A 
ATOM     37  C   UNL A   1      42.726  28.987  34.103  1.00  0.00     0.049 A 
ATOM     38  H   UNL A   1      41.202  30.271  33.423  1.00  0.00     0.167 HD
ATOM     39  C   UNL A   1      42.452  30.596  35.994  1.00  0.00     0.074 A 
ATOM     40  C   UNL A   1      42.808  31.097  37.308  1.00  0.00     0.031 C 
ATOM     41  C   UNL A   1      43.052  29.534  35.398  1.00  0.00     0.037 A 
BRANCH  28  42
ATOM     42  C   UNL A   1      40.892  28.114  29.755  1.00  0.00     0.058 A 
ATOM     43  C   UNL A   1      39.978  27.068  29.546  1.00  0.00     0.135 A 
ATOM     44  C   UNL A   1      41.913  28.289  28.806  1.00  0.00     0.135 A 
ATOM     45  F   UNL A   1      39.009  26.825  30.444  1.00  0.00    -0.206 F 
ATOM     46  C   UNL A   1      40.094  26.210  28.455  1.00  0.00     0.059 A 
ATOM     47  C   UNL A   1      42.031  27.460  27.695  1.00  0.00     0.059 A 
ATOM     48  F   UNL A   1      42.827  29.257  28.970  1.00  0.00    -0.206 F 
ATOM     49  C   UNL A   1      41.127  26.413  27.537  1.00  0.00     0.060 A 
BRANCH  49  50
ATOM     50  S   UNL A   1      41.280  25.281  26.140  1.00  0.00     0.124 S 
ATOM     51  O   UNL A   1      42.430  24.477  26.539  1.00  0.00    -0.237 OA
ATOM     52  O   UNL A   1      39.992  24.594  26.154  1.00  0.00    -0.237 OA
ATOM     53  O   UNL A   1      41.499  26.170  25.003  1.00  0.00    -0.744 OA
ENDBRANCH  49  50
ENDBRANCH  28  42
BRANCH  29  54
ATOM     54  C   UNL A   1      40.093  34.336  37.681  1.00  0.00     0.058 A 
ATOM     55  C   UNL A   1      39.332  34.022  38.816  1.00  0.00     0.135 A 
ATOM     56  C   UNL A   1      40.747  35.580  37.668  1.00  0.00     0.135 A 
ATOM     57  F   UNL A   1      38.671  32.856  38.879  1.00  0.00    -0.206 F 
ATOM     58  C   UNL A   1      39.204  34.910  39.883  1.00  0.00     0.059 A 
ATOM     59  C   UNL A   1      40.662  36.471  38.736  1.00  0.00     0.059 A 
ATOM     60  F   UNL A   1      41.489  35.941  36.609  1.00  0.00    -0.206 F 
ATOM     61  C   UNL A   1      39.873  36.134  39.833  1.00  0.00     0.060 A 
BRANCH  61  62
ATOM     62  S   UNL A   1      39.711  37.275  41.224  1.00  0.00     0.124 S 
ATOM     63  O   UNL A   1      41.107  37.560  41.536  1.00  0.00    -0.237 OA
ATOM     64  O   UNL A   1      38.953  38.376  40.637  1.00  0.00    -0.237 OA
ATOM     65  O   UNL A   1      38.991  36.491  42.223  1.00  0.00    -0.744 OA
ENDBRANCH  61  62
ENDBRANCH  29  54
BRANCH  41  66
ATOM     66  C   UNL A   1      44.185  28.885  36.139  1.00  0.00     0.058 A 
ATOM     67  C   UNL A   1      45.485  29.410  36.113  1.00  0.00     0.135 A 
ATOM     68  C   UNL A   1      43.942  27.756  36.939  1.00  0.00     0.135 A 
ATOM     69  F   UNL A   1      45.766  30.487  35.364  1.00  0.00    -0.206 F 
ATOM     70  C   UNL A   1      46.516  28.818  36.833  1.00  0.00     0.059 A 
ATOM     71  C   UNL A   1      44.950  27.169  37.693  1.00  0.00     0.059 A 
ATOM     72  F   UNL A   1      42.709  27.229  37.011  1.00  0.00    -0.206 F 
ATOM     73  C   UNL A   1      46.237  27.698  37.621  1.00  0.00     0.060 A 
BRANCH  73  74
ATOM     74  S   UNL A   1      47.576  26.957  38.574  1.00  0.00     0.124 S 
ATOM     75  O   UNL A   1      48.028  25.902  37.673  1.00  0.00    -0.237 OA
ATOM     76  O   UNL A   1      48.495  28.078  38.748  1.00  0.00    -0.237 OA
ATOM     77  O   UNL A   1      46.914  26.501  39.793  1.00  0.00    -0.744 OA
ENDBRANCH  73  74
ENDBRANCH  41  66
ENDBRANCH  15  16
ENDBRANCH   8  10
ENDBRANCH   7   8
ENDBRANCH   6   7
ENDBRANCH   5   6
ENDBRANCH   4   5
ENDBRANCH   3   4
ENDBRANCH   2   3
ENDBRANCH   1   2
BRANCH   1  78
ATOM     78  C   UNL A   1      32.469  28.189  22.824  1.00  0.00     0.188 C 
BRANCH  78  79
ATOM     79  C   UNL A   1      33.664  27.263  22.549  1.00  0.00     0.188 C 
BRANCH  79  80
ATOM     80  O   UNL A   1      33.686  26.593  21.297  1.00  0.00    -0.376 OA
BRANCH  80  81
ATOM     81  C   UNL A   1      32.575  25.756  21.033  1.00  0.00     0.202 C 
BRANCH  81  82
ATOM     82  C   UNL A   1      32.280  24.635  22.051  1.00  0.00     0.261 C 
BRANCH  82  83
ATOM     83  O   UNL A   1      33.120  23.447  21.978  1.00  0.00    -0.463 OA
BRANCH  83  84
ATOM     84  C   UNL A   1      32.799  22.407  22.804  1.00  0.00     0.312 C 
ATOM     85  O   UNL A   1      32.294  21.357  22.416  1.00  0.00    -0.252 OA
BRANCH  84  86
ATOM     86  C   UNL A   1      32.849  22.800  24.262  1.00  0.00     0.147 C 
ATOM     87  C   UNL A   1      33.902  22.333  25.281  1.00  0.00     0.128 C 
ATOM     88  C   UNL A   1      31.544  22.499  25.044  1.00  0.00     0.157 C 
ATOM     89  C   UNL A   1      33.080  22.189  26.561  1.00  0.00     0.155 C 
ATOM     90  C   UNL A   1      31.360  23.599  26.048  1.00  0.00     0.004 C 
ATOM     91  O   UNL A   1      31.952  21.482  26.000  1.00  0.00    -0.365 OA
ATOM     92  C   UNL A   1      32.347  23.447  26.946  1.00  0.00     0.004 C 
BRANCH  87  93
ATOM     93  C   UNL A   1      34.742  21.085  25.108  1.00  0.00     0.227 C 
ATOM     94  O   UNL A   1      35.941  21.178  25.418  1.00  0.00    -0.275 OA
ATOM     95  N   UNL A   1      34.345  19.864  24.689  1.00  0.00    -0.352 N 
ATOM     96  H   UNL A   1      35.050  19.394  24.190  1.00  0.00     0.163 HD
BRANCH  95  97
ATOM     97  C   UNL A   1      33.123  19.072  24.794  1.00  0.00     0.151 C 
BRANCH  97  98
ATOM     98  C   UNL A   1      33.404  17.602  24.947  1.00  0.00    -0.026 A 
ATOM     99  C   UNL A   1      32.410  16.670  25.253  1.00  0.00     0.025 A 
ATOM    100  C   UNL A   1      34.711  17.132  24.800  1.00  0.00     0.025 A 
ATOM    101  C   UNL A   1      32.778  15.340  25.415  1.00  0.00     0.111 A 
ATOM    102  C   UNL A   1      34.991  15.798  25.035  1.00  0.00     0.111 A 
ATOM    103  N   UNL A   1      34.046  14.891  25.337  1.00  0.00    -0.265 NA
ENDBRANCH  97  98
ENDBRANCH  95  97
ENDBRANCH  87  93
ENDBRANCH  84  86
ENDBRANCH  83  84
ENDBRANCH  82  83
ENDBRANCH  81  82
ENDBRANCH  80  81
ENDBRANCH  79  80
ENDBRANCH  78  79
ENDBRANCH   1  78
TORSDOF 26
ENDMDL
MODEL 2
REMARK VINA RESULT:      -9.7      5.988      9.020
REMARK SMILES O=C(OCCOCCOCCOCCOC(=O)[C@@H]1[C@H](C(=O)NCc2ccncc2)[C@H]2C=C[C@@H]1O2)c1ccc(-c2c3nc(c(-c4c(F)cc(S(=O)(=O)[O-])cc4F)c4ccc([nH]4)c(-c4c(F)cc(S(=O)(=O)[O-])cc4F)c4nc(c(-c5c(F)cc(S(=O)(=O)[O-])cc5F)c5ccc2[nH]5)C=C4)C=C3)cc1
REMARK SMILES IDX 9 1 8 2 7 3 6 4 5 5 4 6 3 7 2 8 1 9 35 10 36 11 100 12 37 13
REMARK SMILES IDX 99 14 38 15 39 16 40 17 93 18 41 19 98 20 92 21 94 22 42 23
REMARK SMILES IDX 97 24 91 25 90 26 43 28 77 29 56 30 76 31 57 32 60 33 75 34
REMARK SMILES IDX 95 35 58 36 59 37 74 39 96 40 61 41 44 42 45 43 54 44 46 45
REMARK SMILES IDX 47 46 53 47 55 48 48 49 49 50 50 51 51 52 52 53 78 54 79 55
REMARK SMILES IDX 88 56 80 57 81 58 87 59 89 60 82 61 83 62 84 63 85 64 86 65
REMARK SMILES IDX 62 66 63 67 72 68 64 69 65 70 71 71 73 72 66 73 67 74 68 75
REMARK SMILES IDX 69 76 70 77 10 78 11 79 12 80 13 81 14 82 15 83 16 84 17 85
REMARK SMILES IDX 18 86 19 87 33 88 30 89 32 90 34 91 31 92 20 93 21 94 22 95
REMARK SMILES IDX 23 97 24 98 25 99 29 100 26 101 28 102 27 103
REMARK H PARENT 94 27 60 38 22 96
REMARK Flexibility Score: inf
ROOT
ATOM      1  O   UNL A   1      34.836  33.716  27.602  1.00  0.00    -0.377 OA
ENDROOT
BRANCH   1   2
ATOM      2  C   UNL A   1      33.784  34.212  28.423  1.00  0.00     0.188 C 
BRANCH   2   3
ATOM      3  C   UNL A   1      34.253  34.849  29.743  1.00  0.00     0.188 C 
BRANCH   3   4
ATOM      4  O   UNL A   1      33.655  34.276  30.921  1.00  0.00    -0.376 OA
BRANCH   4   5
ATOM      5  C   UNL A   1      34.490  33.327  31.613  1.00  0.00     0.202 C 
BRANCH   5   6
ATOM      6  C   UNL A   1      35.994  33.627  31.770  1.00  0.00     0.261 C 
BRANCH   6   7
ATOM      7  O   UNL A   1      36.860  32.653  31.180  1.00  0.00    -0.460 OA
BRANCH   7   8
ATOM      8  C   UNL A   1      37.453  31.582  31.773  1.00  0.00     0.338 C 
ATOM      9  O   UNL A   1      37.127  31.313  32.928  1.00  0.00    -0.246 OA
BRANCH   8  10
ATOM     10  C   UNL A   1      38.554  30.772  31.146  1.00  0.00     0.060 A 
ATOM     11  C   UNL A   1      39.445  29.940  31.826  1.00  0.00     0.016 A 
ATOM     12  C   UNL A   1      38.685  30.851  29.746  1.00  0.00     0.016 A 
ATOM     13  C   UNL A   1      40.510  29.331  31.183  1.00  0.00     0.010 A 
ATOM     14  C   UNL A   1      39.742  30.219  29.080  1.00  0.00     0.010 A 
ATOM     15  C   UNL A   1      40.694  29.515  29.821  1.00  0.00    -0.014 A 
BRANCH  15  16
ATOM     16  C   UNL A   1      42.049  29.251  29.308  1.00  0.00     0.031 A 
ATOM     17  C   UNL A   1      42.293  27.883  28.737  1.00  0.00     0.074 A 
ATOM     18  C   UNL A   1      42.933  30.251  29.157  1.00  0.00     0.049 A 
ATOM     19  N   UNL A   1      43.382  27.373  28.234  1.00  0.00    -0.248 NA
ATOM     20  C   UNL A   1      41.133  26.969  28.704  1.00  0.00     0.031 C 
ATOM     21  C   UNL A   1      42.690  31.654  29.499  1.00  0.00     0.029 A 
ATOM     22  N   UNL A   1      44.197  30.247  28.634  1.00  0.00    -0.354 N 
ATOM     23  C   UNL A   1      43.053  26.068  27.882  1.00  0.00     0.074 A 
ATOM     24  C   UNL A   1      41.660  25.869  28.196  1.00  0.00     0.031 C 
ATOM     25  C   UNL A   1      43.768  32.380  29.153  1.00  0.00     0.029 A 
ATOM     26  C   UNL A   1      44.799  31.484  28.641  1.00  0.00     0.049 A 
ATOM     27  H   UNL A   1      44.635  29.437  28.285  1.00  0.00     0.167 HD
ATOM     28  C   UNL A   1      43.861  25.117  27.366  1.00  0.00     0.037 A 
ATOM     29  C   UNL A   1      46.057  31.825  28.301  1.00  0.00     0.037 A 
ATOM     30  C   UNL A   1      45.247  25.356  27.075  1.00  0.00     0.049 A 
ATOM     31  C   UNL A   1      46.974  30.722  27.831  1.00  0.00     0.074 A 
ATOM     32  C   UNL A   1      46.210  24.464  26.647  1.00  0.00     0.029 A 
ATOM     33  N   UNL A   1      45.863  26.597  27.190  1.00  0.00    -0.354 N 
ATOM     34  N   UNL A   1      46.698  29.455  27.611  1.00  0.00    -0.248 NA
ATOM     35  C   UNL A   1      48.375  31.083  27.584  1.00  0.00     0.031 C 
ATOM     36  C   UNL A   1      47.423  25.155  26.556  1.00  0.00     0.029 A 
ATOM     37  C   UNL A   1      47.200  26.492  26.859  1.00  0.00     0.049 A 
ATOM     38  H   UNL A   1      45.414  27.427  27.466  1.00  0.00     0.167 HD
ATOM     39  C   UNL A   1      47.885  28.873  27.179  1.00  0.00     0.074 A 
ATOM     40  C   UNL A   1      48.875  29.933  27.154  1.00  0.00     0.031 C 
ATOM     41  C   UNL A   1      48.142  27.584  26.837  1.00  0.00     0.037 A 
BRANCH  28  42
ATOM     42  C   UNL A   1      43.288  23.737  27.223  1.00  0.00     0.058 A 
ATOM     43  C   UNL A   1      43.183  22.843  28.301  1.00  0.00     0.135 A 
ATOM     44  C   UNL A   1      42.894  23.278  25.954  1.00  0.00     0.135 A 
ATOM     45  F   UNL A   1      43.587  23.212  29.528  1.00  0.00    -0.206 F 
ATOM     46  C   UNL A   1      42.736  21.537  28.121  1.00  0.00     0.059 A 
ATOM     47  C   UNL A   1      42.420  21.986  25.756  1.00  0.00     0.059 A 
ATOM     48  F   UNL A   1      42.996  24.082  24.885  1.00  0.00    -0.206 F 
ATOM     49  C   UNL A   1      42.360  21.117  26.843  1.00  0.00     0.060 A 
BRANCH  49  50
ATOM     50  S   UNL A   1      41.804  19.414  26.618  1.00  0.00     0.124 S 
ATOM     51  O   UNL A   1      40.946  19.230  27.785  1.00  0.00    -0.237 OA
ATOM     52  O   UNL A   1      41.117  19.480  25.332  1.00  0.00    -0.237 OA
ATOM     53  O   UNL A   1      43.045  18.647  26.624  1.00  0.00    -0.744 OA
ENDBRANCH  49  50
ENDBRANCH  28  42
BRANCH  29  54
ATOM     54  C   UNL A   1      46.538  33.229  28.449  1.00  0.00     0.058 A 
ATOM     55  C   UNL A   1      46.489  34.137  27.382  1.00  0.00     0.135 A 
ATOM     56  C   UNL A   1      47.086  33.686  29.660  1.00  0.00     0.135 A 
ATOM     57  F   UNL A   1      45.991  33.753  26.196  1.00  0.00    -0.206 F 
ATOM     58  C   UNL A   1      46.984  35.436  27.499  1.00  0.00     0.059 A 
ATOM     59  C   UNL A   1      47.557  34.988  29.812  1.00  0.00     0.059 A 
ATOM     60  F   UNL A   1      47.164  32.864  30.718  1.00  0.00    -0.206 F 
ATOM     61  C   UNL A   1      47.517  35.852  28.721  1.00  0.00     0.060 A 
BRANCH  61  62
ATOM     62  S   UNL A   1      48.147  37.539  28.869  1.00  0.00     0.124 S 
ATOM     63  O   UNL A   1      49.541  37.368  28.474  1.00  0.00    -0.237 OA
ATOM     64  O   UNL A   1      47.303  38.269  27.927  1.00  0.00    -0.237 OA
ATOM     65  O   UNL A   1      47.927  37.859  30.276  1.00  0.00    -0.744 OA
ENDBRANCH  61  62
ENDBRANCH  29  54
BRANCH  41  66
ATOM     66  C   UNL A   1      49.530  27.269  26.358  1.00  0.00     0.058 A 
ATOM     67  C   UNL A   1      50.577  26.991  27.248  1.00  0.00     0.135 A 
ATOM     68  C   UNL A   1      49.790  27.184  24.980  1.00  0.00     0.135 A 
ATOM     69  F   UNL A   1      50.376  27.060  28.572  1.00  0.00    -0.206 F 
ATOM     70  C   UNL A   1      51.847  26.665  26.787  1.00  0.00     0.059 A 
ATOM     71  C   UNL A   1      51.044  26.828  24.498  1.00  0.00     0.059 A 
ATOM     72  F   UNL A   1      48.814  27.423  24.090  1.00  0.00    -0.206 F 
ATOM     73  C   UNL A   1      52.070  26.585  25.410  1.00  0.00     0.060 A 
BRANCH  73  74
ATOM     74  S   UNL A   1      53.714  26.134  24.824  1.00  0.00     0.124 S 
ATOM     75  O   UNL A   1      53.943  27.138  23.790  1.00  0.00    -0.237 OA
ATOM     76  O   UNL A   1      54.525  26.271  26.031  1.00  0.00    -0.237 OA
ATOM     77  O   UNL A   1      53.541  24.766  24.345  1.00  0.00    -0.744 OA
ENDBRANCH  73  74
ENDBRANCH  41  66
ENDBRANCH  15  16
ENDBRANCH   8  10
ENDBRANCH   7   8
ENDBRANCH   6   7
ENDBRANCH   5   6
ENDBRANCH   4   5
ENDBRANCH   3   4
ENDBRANCH   2   3
ENDBRANCH   1   2
BRANCH   1  78
ATOM     78  C   UNL A   1      35.323  32.455  28.028  1.00  0.00     0.188 C 
BRANCH  78  79
ATOM     79  C   UNL A   1      34.255  31.354  28.119  1.00  0.00     0.188 C 
BRANCH  79  80
ATOM     80  O   UNL A   1      34.291  30.337  27.127  1.00  0.00    -0.376 OA
BRANCH  80  81
ATOM     81  C   UNL A   1      34.030  29.025  27.589  1.00  0.00     0.202 C 
BRANCH  81  82
ATOM     82  C   UNL A   1      32.695  28.380  27.160  1.00  0.00     0.261 C 
BRANCH  82  83
ATOM     83  O   UNL A   1      32.780  27.111  26.451  1.00  0.00    -0.463 OA
BRANCH  83  84
ATOM     84  C   UNL A   1      32.902  27.165  25.091  1.00  0.00     0.312 C 
ATOM     85  O   UNL A   1      33.977  27.117  24.498  1.00  0.00    -0.252 OA
BRANCH  84  86
ATOM     86  C   UNL A   1      31.618  27.593  24.420  1.00  0.00     0.147 C 
ATOM     87  C   UNL A   1      30.891  26.825  23.303  1.00  0.00     0.128 C 
ATOM     88  C   UNL A   1      31.669  29.013  23.801  1.00  0.00     0.157 C 
ATOM     89  C   UNL A   1      30.346  27.954  22.429  1.00  0.00     0.155 C 
ATOM     90  C   UNL A   1      30.312  29.629  23.979  1.00  0.00     0.004 C 
ATOM     91  O   UNL A   1      31.541  28.764  22.374  1.00  0.00    -0.365 OA
ATOM     92  C   UNL A   1      29.485  28.932  23.183  1.00  0.00     0.004 C 
BRANCH  87  93
ATOM     93  C   UNL A   1      31.565  25.808  22.407  1.00  0.00     0.227 C 
ATOM     94  O   UNL A   1      32.467  26.233  21.666  1.00  0.00    -0.275 OA
ATOM     95  N   UNL A   1      31.334  24.479  22.335  1.00  0.00    -0.352 N 
ATOM     96  H   UNL A   1      31.473  24.126  21.427  1.00  0.00     0.163 HD
BRANCH  95  97
ATOM     97  C   UNL A   1      30.926  23.439  23.273  1.00  0.00     0.151 C 
BRANCH  97  98
ATOM     98  C   UNL A   1      31.737  23.460  24.541  1.00  0.00    -0.026 A 
ATOM     99  C   UNL A   1      31.173  23.704  25.795  1.00  0.00     0.025 A 
ATOM    100  C   UNL A   1      33.116  23.247  24.479  1.00  0.00     0.025 A 
ATOM    101  C   UNL A   1      32.014  23.744  26.901  1.00  0.00     0.111 A 
ATOM    102  C   UNL A   1      33.879  23.361  25.627  1.00  0.00     0.111 A 
ATOM    103  N   UNL A   1      33.353  23.603  26.839  1.00  0.00    -0.265 NA
ENDBRANCH  97  98
ENDBRANCH  95  97
ENDBRANCH  87  93
ENDBRANCH  84  86
ENDBRANCH  83  84
ENDBRANCH  82  83
ENDBRANCH  81  82
ENDBRANCH  80  81
ENDBRANCH  79  80
ENDBRANCH  78  79
ENDBRANCH   1  78
TORSDOF 26
ENDMDL
MODEL 3
REMARK VINA RESULT:      -9.4      2.933      8.875
REMARK SMILES O=C(OCCOCCOCCOCCOC(=O)[C@@H]1[C@H](C(=O)NCc2ccncc2)[C@H]2C=C[C@@H]1O2)c1ccc(-c2c3nc(c(-c4c(F)cc(S(=O)(=O)[O-])cc4F)c4ccc([nH]4)c(-c4c(F)cc(S(=O)(=O)[O-])cc4F)c4nc(c(-c5c(F)cc(S(=O)(=O)[O-])cc5F)c5ccc2[nH]5)C=C4)C=C3)cc1
REMARK SMILES IDX 9 1 8 2 7 3 6 4 5 5 4 6 3 7 2 8 1 9 35 10 36 11 100 12 37 13
REMARK SMILES IDX 99 14 38 15 39 16 40 17 93 18 41 19 98 20 92 21 94 22 42 23
REMARK SMILES IDX 97 24 91 25 90 26 43 28 77 29 56 30 76 31 57 32 60 33 75 34
REMARK SMILES IDX 95 35 58 36 59 37 74 39 96 40 61 41 44 42 45 43 54 44 46 45
REMARK SMILES IDX 47 46 53 47 55 48 48 49 49 50 50 51 51 52 52 53 78 54 79 55
REMARK SMILES IDX 88 56 80 57 81 58 87 59 89 60 82 61 83 62 84 63 85 64 86 65
REMARK SMILES IDX 62 66 63 67 72 68 64 69 65 70 71 71 73 72 66 73 67 74 68 75
REMARK SMILES IDX 69 76 70 77 10 78 11 79 12 80 13 81 14 82 15 83 16 84 17 85
REMARK SMILES IDX 18 86 19 87 33 88 30 89 32 90 34 91 31 92 20 93 21 94 22 95
REMARK SMILES IDX 23 97 24 98 25 99 29 100 26 101 28 102 27 103
REMARK H PARENT 94 27 60 38 22 96
REMARK Flexibility Score: inf
ROOT
ATOM      1  O   UNL A   1      31.127  27.179  22.884  1.00  0.00    -0.377 OA
ENDROOT
BRANCH   1   2
ATOM      2  C   UNL A   1      30.409  27.395  24.095  1.00  0.00     0.188 C 
BRANCH   2   3
ATOM      3  C   UNL A   1      31.239  28.033  25.222  1.00  0.00     0.188 C 
BRANCH   3   4
ATOM      4  O   UNL A   1      32.138  29.068  24.780  1.00  0.00    -0.376 OA
BRANCH   4   5
ATOM      5  C   UNL A   1      33.173  29.404  25.725  1.00  0.00     0.202 C 
BRANCH   5   6
ATOM      6  C   UNL A   1      33.079  30.736  26.497  1.00  0.00     0.261 C 
BRANCH   6   7
ATOM      7  O   UNL A   1      33.535  30.671  27.852  1.00  0.00    -0.460 OA
BRANCH   7   8
ATOM      8  C   UNL A   1      34.586  31.319  28.420  1.00  0.00     0.338 C 
ATOM      9  O   UNL A   1      34.410  32.476  28.799  1.00  0.00    -0.246 OA
BRANCH   8  10
ATOM     10  C   UNL A   1      35.975  30.751  28.517  1.00  0.00     0.060 A 
ATOM     11  C   UNL A   1      36.299  29.396  28.614  1.00  0.00     0.016 A 
ATOM     12  C   UNL A   1      37.042  31.669  28.494  1.00  0.00     0.016 A 
ATOM     13  C   UNL A   1      37.599  28.970  28.829  1.00  0.00     0.010 A 
ATOM     14  C   UNL A   1      38.364  31.250  28.685  1.00  0.00     0.010 A 
ATOM     15  C   UNL A   1      38.626  29.898  28.922  1.00  0.00    -0.014 A 
BRANCH  15  16
ATOM     16  C   UNL A   1      39.851  29.443  29.600  1.00  0.00     0.031 A 
ATOM     17  C   UNL A   1      40.147  30.065  30.935  1.00  0.00     0.074 A 
ATOM     18  C   UNL A   1      40.530  28.375  29.149  1.00  0.00     0.049 A 
ATOM     19  N   UNL A   1      41.152  29.869  31.741  1.00  0.00    -0.248 NA
ATOM     20  C   UNL A   1      39.149  31.026  31.446  1.00  0.00     0.031 C 
ATOM     21  C   UNL A   1      40.177  27.587  27.966  1.00  0.00     0.029 A 
ATOM     22  N   UNL A   1      41.629  27.740  29.660  1.00  0.00    -0.354 N 
ATOM     23  C   UNL A   1      40.936  30.720  32.819  1.00  0.00     0.074 A 
ATOM     24  C   UNL A   1      39.694  31.414  32.586  1.00  0.00     0.031 C 
ATOM     25  C   UNL A   1      41.036  26.557  27.856  1.00  0.00     0.029 A 
ATOM     26  C   UNL A   1      42.038  26.661  28.913  1.00  0.00     0.049 A 
ATOM     27  H   UNL A   1      42.083  28.028  30.485  1.00  0.00     0.167 HD
ATOM     28  C   UNL A   1      41.730  30.920  33.893  1.00  0.00     0.037 A 
ATOM     29  C   UNL A   1      43.124  25.879  29.062  1.00  0.00     0.037 A 
ATOM     30  C   UNL A   1      42.966  30.212  34.083  1.00  0.00     0.049 A 
ATOM     31  C   UNL A   1      44.055  26.193  30.208  1.00  0.00     0.074 A 
ATOM     32  C   UNL A   1      43.920  30.381  35.066  1.00  0.00     0.029 A 
ATOM     33  N   UNL A   1      43.413  29.192  33.251  1.00  0.00    -0.354 N 
ATOM     34  N   UNL A   1      43.916  27.083  31.167  1.00  0.00    -0.248 NA
ATOM     35  C   UNL A   1      45.299  25.418  30.287  1.00  0.00     0.031 C 
ATOM     36  C   UNL A   1      44.972  29.499  34.796  1.00  0.00     0.029 A 
ATOM     37  C   UNL A   1      44.640  28.732  33.687  1.00  0.00     0.049 A 
ATOM     38  H   UNL A   1      42.927  28.848  32.468  1.00  0.00     0.167 HD
ATOM     39  C   UNL A   1      45.042  26.960  31.973  1.00  0.00     0.074 A 
ATOM     40  C   UNL A   1      45.842  25.896  31.397  1.00  0.00     0.031 C 
ATOM     41  C   UNL A   1      45.391  27.658  33.084  1.00  0.00     0.037 A 
BRANCH  28  42
ATOM     42  C   UNL A   1      41.337  32.017  34.840  1.00  0.00     0.058 A 
ATOM     43  C   UNL A   1      40.451  31.813  35.910  1.00  0.00     0.135 A 
ATOM     44  C   UNL A   1      41.813  33.321  34.625  1.00  0.00     0.135 A 
ATOM     45  F   UNL A   1      39.928  30.597  36.135  1.00  0.00    -0.206 F 
ATOM     46  C   UNL A   1      40.028  32.869  36.714  1.00  0.00     0.059 A 
ATOM     47  C   UNL A   1      41.425  34.386  35.432  1.00  0.00     0.059 A 
ATOM     48  F   UNL A   1      42.643  33.577  33.602  1.00  0.00    -0.206 F 
ATOM     49  C   UNL A   1      40.520  34.153  36.464  1.00  0.00     0.060 A 
BRANCH  49  50
ATOM     50  S   UNL A   1      39.948  35.516  37.499  1.00  0.00     0.124 S 
ATOM     51  O   UNL A   1      41.175  35.890  38.195  1.00  0.00    -0.237 OA
ATOM     52  O   UNL A   1      39.465  36.475  36.510  1.00  0.00    -0.237 OA
ATOM     53  O   UNL A   1      38.916  34.904  38.330  1.00  0.00    -0.744 OA
ENDBRANCH  49  50
ENDBRANCH  28  42
BRANCH  29  54
ATOM     54  C   UNL A   1      43.427  24.790  28.089  1.00  0.00     0.058 A 
ATOM     55  C   UNL A   1      44.163  25.035  26.920  1.00  0.00     0.135 A 
ATOM     56  C   UNL A   1      42.960  23.481  28.293  1.00  0.00     0.135 A 
ATOM     57  F   UNL A   1      44.622  26.270  26.663  1.00  0.00    -0.206 F 
ATOM     58  C   UNL A   1      44.406  24.033  25.982  1.00  0.00     0.059 A 
ATOM     59  C   UNL A   1      43.217  22.455  27.387  1.00  0.00     0.059 A 
ATOM     60  F   UNL A   1      42.247  23.183  29.390  1.00  0.00    -0.206 F 
ATOM     61  C   UNL A   1      43.928  22.744  26.225  1.00  0.00     0.060 A 
BRANCH  61  62
ATOM     62  S   UNL A   1      44.256  21.448  25.009  1.00  0.00     0.124 S 
ATOM     63  O   UNL A   1      43.129  20.549  25.227  1.00  0.00    -0.237 OA
ATOM     64  O   UNL A   1      44.244  22.190  23.752  1.00  0.00    -0.237 OA
ATOM     65  O   UNL A   1      45.560  20.930  25.411  1.00  0.00    -0.744 OA
ENDBRANCH  61  62
ENDBRANCH  29  54
BRANCH  41  66
ATOM     66  C   UNL A   1      46.662  27.253  33.772  1.00  0.00     0.058 A 
ATOM     67  C   UNL A   1      46.701  26.203  34.701  1.00  0.00     0.135 A 
ATOM     68  C   UNL A   1      47.870  27.891  33.442  1.00  0.00     0.135 A 
ATOM     69  F   UNL A   1      45.573  25.564  35.048  1.00  0.00    -0.206 F 
ATOM     70  C   UNL A   1      47.893  25.817  35.303  1.00  0.00     0.059 A 
ATOM     71  C   UNL A   1      49.076  27.499  34.007  1.00  0.00     0.059 A 
ATOM     72  F   UNL A   1      47.885  28.889  32.544  1.00  0.00    -0.206 F 
ATOM     73  C   UNL A   1      49.075  26.470  34.948  1.00  0.00     0.060 A 
BRANCH  73  74
ATOM     74  S   UNL A   1      50.619  25.942  35.715  1.00  0.00     0.124 S 
ATOM     75  O   UNL A   1      51.412  27.164  35.650  1.00  0.00    -0.237 OA
ATOM     76  O   UNL A   1      50.184  25.538  37.049  1.00  0.00    -0.237 OA
ATOM     77  O   UNL A   1      51.071  24.853  34.853  1.00  0.00    -0.744 OA
ENDBRANCH  73  74
ENDBRANCH  41  66
ENDBRANCH  15  16
ENDBRANCH   8  10
ENDBRANCH   7   8
ENDBRANCH   6   7
ENDBRANCH   5   6
ENDBRANCH   4   5
ENDBRANCH   3   4
ENDBRANCH   2   3
ENDBRANCH   1   2
BRANCH   1  78
ATOM     78  C   UNL A   1      30.901  25.896  22.328  1.00  0.00     0.188 C 
BRANCH  78  79
ATOM     79  C   UNL A   1      31.808  24.788  22.887  1.00  0.00     0.188 C 
BRANCH  79  80
ATOM     80  O   UNL A   1      33.065  24.602  22.251  1.00  0.00    -0.376 OA
BRANCH  80  81
ATOM     81  C   UNL A   1      33.392  23.263  21.927  1.00  0.00     0.202 C 
BRANCH  81  82
ATOM     82  C   UNL A   1      32.482  22.157  22.501  1.00  0.00     0.261 C 
BRANCH  82  83
ATOM     83  O   UNL A   1      33.077  21.266  23.487  1.00  0.00    -0.463 OA
BRANCH  83  84
ATOM     84  C   UNL A   1      32.459  21.183  24.704  1.00  0.00     0.312 C 
ATOM     85  O   UNL A   1      31.889  20.175  25.113  1.00  0.00    -0.252 OA
BRANCH  84  86
ATOM     86  C   UNL A   1      32.292  22.537  25.351  1.00  0.00     0.147 C 
ATOM     87  C   UNL A   1      33.319  23.228  26.264  1.00  0.00     0.128 C 
ATOM     88  C   UNL A   1      31.010  22.673  26.213  1.00  0.00     0.157 C 
ATOM     89  C   UNL A   1      32.429  23.935  27.285  1.00  0.00     0.155 C 
ATOM     90  C   UNL A   1      30.511  24.079  26.056  1.00  0.00     0.004 C 
ATOM     91  O   UNL A   1      31.528  22.841  27.562  1.00  0.00    -0.365 OA
ATOM     92  C   UNL A   1      31.421  24.862  26.659  1.00  0.00     0.004 C 
BRANCH  87  93
ATOM     93  C   UNL A   1      34.411  22.489  27.009  1.00  0.00     0.227 C 
ATOM     94  O   UNL A   1      34.043  21.728  27.919  1.00  0.00    -0.275 OA
ATOM     95  N   UNL A   1      35.743  22.526  26.787  1.00  0.00    -0.352 N 
ATOM     96  H   UNL A   1      36.262  22.415  27.616  1.00  0.00     0.163 HD
BRANCH  95  97
ATOM     97  C   UNL A   1      36.601  22.693  25.619  1.00  0.00     0.151 C 
BRANCH  97  98
ATOM     98  C   UNL A   1      37.687  21.654  25.550  1.00  0.00    -0.026 A 
ATOM     99  C   UNL A   1      37.514  20.420  24.920  1.00  0.00     0.025 A 
ATOM    100  C   UNL A   1      38.921  21.907  26.155  1.00  0.00     0.025 A 
ATOM    101  C   UNL A   1      38.565  19.511  24.948  1.00  0.00     0.111 A 
ATOM    102  C   UNL A   1      39.888  20.919  26.180  1.00  0.00     0.111 A 
ATOM    103  N   UNL A   1      39.734  19.724  25.584  1.00  0.00    -0.265 NA
ENDBRANCH  97  98
ENDBRANCH  95  97
ENDBRANCH  87  93
ENDBRANCH  84  86
ENDBRANCH  83  84
ENDBRANCH  82  83
ENDBRANCH  81  82
ENDBRANCH  80  81
ENDBRANCH  79  80
ENDBRANCH  78  79
ENDBRANCH   1  78
TORSDOF 26
ENDMDL
