MODEL 1
REMARK VINA RESULT:      -9.1      0.000      0.000
REMARK SMILES O=C1NC(=O)/C(=C/c2ccc(OCc3cn(-c4ccc(C(=O)OCCOCCOCCOCCOC(=O)c5ccc(-c6c7nc(c(-c8c(F)cc(S(=O)(=O)[O-])cc8F)c8ccc([nH]8)c(-c8c(F)cc(S(=O)(=O)[O-])cc8F)c8nc(c(-c9c(F)cc(S(=O)(=O)[O-])cc9F)c9ccc6[nH]9)C=C8)C=C7)cc5)cc4)nn3)cc2)S1
REMARK SMILES IDX 28 1 27 2 26 3 25 4 24 5 23 6 21 7 22 8 20 9 17 10 18 11
REMARK SMILES IDX 105 12 19 13 104 14 16 15 14 16 15 17 107 18 106 19 13 20
REMARK SMILES IDX 12 21 11 22 8 23 9 24 109 25 10 26 108 27 7 28 1 29 2 30
REMARK SMILES IDX 3 31 110 32 4 33 6 35 5 36 29 37 30 38 31 39 32 40 33 41
REMARK SMILES IDX 34 42 35 43 36 44 37 45 38 46 39 47 103 48 40 49 102 50
REMARK SMILES IDX 41 51 42 52 43 53 96 54 44 55 101 56 95 57 97 58 45 59
REMARK SMILES IDX 100 60 94 61 93 62 46 64 80 65 59 66 79 67 60 68 63 69 78 70
REMARK SMILES IDX 98 71 61 72 62 73 77 75 99 76 64 77 47 78 48 79 57 80 49 81
REMARK SMILES IDX 50 82 56 83 58 84 51 85 52 86 53 87 54 88 55 89 81 90 82 91
REMARK SMILES IDX 91 92 83 93 84 94 90 95 92 96 85 97 86 98 87 99 88 100
REMARK SMILES IDX 89 101 65 102 66 103 75 104 67 105 68 106 74 107 76 108
REMARK SMILES IDX 69 109 70 110 71 111 72 112 73 113
REMARK H PARENT 3 34 97 63 63 74
REMARK Flexibility Score: inf
ROOT
ATOM      1  C   UNL A   1      39.420  31.573  35.106  1.00  0.00     0.188 C 
ENDROOT
BRANCH   1   2
ATOM      2  C   UNL A   1      38.353  30.979  34.158  1.00  0.00     0.188 C 
BRANCH   2   3
ATOM      3  O   UNL A   1      38.349  29.618  33.737  1.00  0.00    -0.376 OA
BRANCH   3   4
ATOM      4  C   UNL A   1      38.042  29.251  32.406  1.00  0.00     0.202 C 
BRANCH   4   5
ATOM      5  C   UNL A   1      38.216  30.271  31.272  1.00  0.00     0.261 C 
BRANCH   5   6
ATOM      6  O   UNL A   1      37.034  30.971  30.879  1.00  0.00    -0.460 OA
BRANCH   6   7
ATOM      7  C   UNL A   1      37.096  31.558  29.665  1.00  0.00     0.338 C 
ATOM      8  O   UNL A   1      37.964  32.300  29.238  1.00  0.00    -0.246 OA
BRANCH   7   9
ATOM      9  C   UNL A   1      35.990  31.037  28.835  1.00  0.00     0.060 A 
ATOM     10  C   UNL A   1      34.015  29.997  27.170  1.00  0.00     0.066 A 
ATOM     11  C   UNL A   1      35.102  29.195  27.553  1.00  0.00     0.029 A 
ATOM     12  C   UNL A   1      33.870  31.288  27.698  1.00  0.00     0.029 A 
ATOM     13  C   UNL A   1      36.107  29.732  28.348  1.00  0.00     0.018 A 
ATOM     14  C   UNL A   1      34.852  31.800  28.553  1.00  0.00     0.018 A 
BRANCH  10  15
ATOM     15  N   UNL A   1      33.168  29.518  26.143  1.00  0.00    -0.220 N 
ATOM     16  C   UNL A   1      31.705  28.303  25.081  1.00  0.00     0.120 A 
ATOM     17  C   UNL A   1      32.859  28.211  25.832  1.00  0.00     0.144 A 
ATOM     18  N   UNL A   1      31.427  29.623  24.856  1.00  0.00    -0.131 NA
ATOM     19  N   UNL A   1      32.338  30.352  25.474  1.00  0.00    -0.062 NA
BRANCH  16  20
ATOM     20  C   UNL A   1      30.749  27.251  24.634  1.00  0.00     0.289 C 
BRANCH  20  21
ATOM     21  O   UNL A   1      31.312  26.237  23.794  1.00  0.00    -0.487 OA
BRANCH  21  22
ATOM     22  C   UNL A   1      31.534  25.003  24.339  1.00  0.00     0.119 A 
ATOM     23  C   UNL A   1      32.120  22.371  25.125  1.00  0.00    -0.024 A 
ATOM     24  C   UNL A   1      33.012  23.077  24.317  1.00  0.00     0.012 A 
ATOM     25  C   UNL A   1      30.974  23.015  25.602  1.00  0.00     0.012 A 
ATOM     26  C   UNL A   1      32.717  24.386  23.926  1.00  0.00     0.047 A 
ATOM     27  C   UNL A   1      30.691  24.329  25.222  1.00  0.00     0.047 A 
BRANCH  23  28
ATOM     28  C   UNL A   1      32.375  20.967  25.455  1.00  0.00     0.029 C 
ATOM     29  O   UNL A   1      32.166  17.706  21.626  1.00  0.00    -0.261 OA
ATOM     30  C   UNL A   1      32.318  18.307  22.676  1.00  0.00     0.290 C 
ATOM     31  N   UNL A   1      32.591  17.744  23.881  1.00  0.00    -0.282 N 
ATOM     32  S   UNL A   1      32.151  20.040  22.859  1.00  0.00    -0.022 SA
ATOM     33  C   UNL A   1      32.623  18.554  24.976  1.00  0.00     0.265 C 
ATOM     34  H   UNL A   1      32.763  16.778  23.961  1.00  0.00     0.174 HD
ATOM     35  C   UNL A   1      32.390  19.963  24.567  1.00  0.00     0.083 C 
ATOM     36  O   UNL A   1      32.777  18.168  26.125  1.00  0.00    -0.268 OA
ENDBRANCH  23  28
ENDBRANCH  21  22
ENDBRANCH  20  21
ENDBRANCH  16  20
ENDBRANCH  10  15
ENDBRANCH   7   9
ENDBRANCH   6   7
ENDBRANCH   5   6
ENDBRANCH   4   5
ENDBRANCH   3   4
ENDBRANCH   2   3
ENDBRANCH   1   2
BRANCH   1  37
ATOM     37  O   UNL A   1      40.096  32.716  34.606  1.00  0.00    -0.377 OA
BRANCH  37  38
ATOM     38  C   UNL A   1      41.389  32.451  34.068  1.00  0.00     0.188 C 
BRANCH  38  39
ATOM     39  C   UNL A   1      41.468  32.314  32.533  1.00  0.00     0.188 C 
BRANCH  39  40
ATOM     40  O   UNL A   1      40.532  33.144  31.842  1.00  0.00    -0.376 OA
BRANCH  40  41
ATOM     41  C   UNL A   1      40.973  34.417  31.390  1.00  0.00     0.202 C 
BRANCH  41  42
ATOM     42  C   UNL A   1      41.053  34.503  29.868  1.00  0.00     0.261 C 
BRANCH  42  43
ATOM     43  O   UNL A   1      42.188  33.840  29.328  1.00  0.00    -0.460 OA
BRANCH  43  44
ATOM     44  C   UNL A   1      43.016  34.602  28.587  1.00  0.00     0.338 C 
ATOM     45  O   UNL A   1      42.823  35.739  28.193  1.00  0.00    -0.246 OA
BRANCH  44  46
ATOM     46  C   UNL A   1      44.194  33.807  28.238  1.00  0.00     0.060 A 
ATOM     47  C   UNL A   1      44.133  33.148  27.010  1.00  0.00     0.016 A 
ATOM     48  C   UNL A   1      45.133  33.477  29.228  1.00  0.00     0.016 A 
ATOM     49  C   UNL A   1      44.811  31.963  26.893  1.00  0.00     0.010 A 
ATOM     50  C   UNL A   1      45.803  32.288  29.112  1.00  0.00     0.010 A 
ATOM     51  C   UNL A   1      45.532  31.501  27.996  1.00  0.00    -0.014 A 
BRANCH  51  52
ATOM     52  C   UNL A   1      45.924  30.114  27.980  1.00  0.00     0.031 A 
ATOM     53  C   UNL A   1      44.810  29.170  28.158  1.00  0.00     0.074 A 
ATOM     54  C   UNL A   1      47.202  29.760  27.755  1.00  0.00     0.049 A 
ATOM     55  N   UNL A   1      44.613  28.339  29.124  1.00  0.00    -0.248 NA
ATOM     56  C   UNL A   1      43.699  29.273  27.201  1.00  0.00     0.031 C 
ATOM     57  C   UNL A   1      48.298  30.613  27.277  1.00  0.00     0.029 A 
ATOM     58  N   UNL A   1      47.762  28.524  27.793  1.00  0.00    -0.354 N 
ATOM     59  C   UNL A   1      43.462  27.646  28.772  1.00  0.00     0.074 A 
ATOM     60  C   UNL A   1      42.845  28.384  27.702  1.00  0.00     0.031 C 
ATOM     61  C   UNL A   1      49.313  29.825  26.857  1.00  0.00     0.029 A 
ATOM     62  C   UNL A   1      48.984  28.439  27.144  1.00  0.00     0.049 A 
ATOM     63  H   UNL A   1      47.338  27.757  28.242  1.00  0.00     0.167 HD
ATOM     64  C   UNL A   1      43.251  26.373  29.196  1.00  0.00     0.037 A 
ATOM     65  C   UNL A   1      49.610  27.297  26.773  1.00  0.00     0.037 A 
ATOM     66  C   UNL A   1      44.029  26.067  30.370  1.00  0.00     0.049 A 
ATOM     67  C   UNL A   1      49.035  26.188  27.583  1.00  0.00     0.074 A 
ATOM     68  C   UNL A   1      44.124  26.616  31.635  1.00  0.00     0.029 A 
ATOM     69  N   UNL A   1      45.134  25.263  30.226  1.00  0.00    -0.354 N 
ATOM     70  N   UNL A   1      49.192  26.054  28.872  1.00  0.00    -0.248 NA
ATOM     71  C   UNL A   1      47.932  25.425  27.015  1.00  0.00     0.031 C 
ATOM     72  C   UNL A   1      45.487  26.460  32.016  1.00  0.00     0.029 A 
ATOM     73  C   UNL A   1      46.148  25.805  30.976  1.00  0.00     0.049 A 
ATOM     74  H   UNL A   1      45.188  24.444  29.682  1.00  0.00     0.167 HD
ATOM     75  C   UNL A   1      47.992  25.528  29.331  1.00  0.00     0.074 A 
ATOM     76  C   UNL A   1      47.306  25.054  28.135  1.00  0.00     0.031 C 
ATOM     77  C   UNL A   1      47.545  25.778  30.597  1.00  0.00     0.037 A 
BRANCH  64  78
ATOM     78  C   UNL A   1      42.638  25.313  28.311  1.00  0.00     0.058 A 
ATOM     79  C   UNL A   1      41.248  25.100  28.360  1.00  0.00     0.135 A 
ATOM     80  C   UNL A   1      43.386  24.316  27.640  1.00  0.00     0.135 A 
ATOM     81  F   UNL A   1      40.444  25.981  28.975  1.00  0.00    -0.206 F 
ATOM     82  C   UNL A   1      40.657  23.939  27.861  1.00  0.00     0.059 A 
ATOM     83  C   UNL A   1      42.811  23.185  27.081  1.00  0.00     0.059 A 
ATOM     84  F   UNL A   1      44.724  24.330  27.581  1.00  0.00    -0.206 F 
ATOM     85  C   UNL A   1      41.454  22.976  27.247  1.00  0.00     0.060 A 
BRANCH  85  86
ATOM     86  S   UNL A   1      40.733  21.405  26.750  1.00  0.00     0.124 S 
ATOM     87  O   UNL A   1      41.659  20.988  25.703  1.00  0.00    -0.237 OA
ATOM     88  O   UNL A   1      40.780  20.642  27.993  1.00  0.00    -0.237 OA
ATOM     89  O   UNL A   1      39.395  21.780  26.301  1.00  0.00    -0.744 OA
ENDBRANCH  85  86
ENDBRANCH  64  78
BRANCH  65  90
ATOM     90  C   UNL A   1      50.412  27.069  25.543  1.00  0.00     0.058 A 
ATOM     91  C   UNL A   1      49.825  27.152  24.271  1.00  0.00     0.135 A 
ATOM     92  C   UNL A   1      51.822  27.018  25.574  1.00  0.00     0.135 A 
ATOM     93  F   UNL A   1      48.491  27.236  24.147  1.00  0.00    -0.206 F 
ATOM     94  C   UNL A   1      50.589  27.218  23.100  1.00  0.00     0.059 A 
ATOM     95  C   UNL A   1      52.603  27.059  24.422  1.00  0.00     0.059 A 
ATOM     96  F   UNL A   1      52.496  27.019  26.734  1.00  0.00    -0.206 F 
ATOM     97  C   UNL A   1      51.980  27.186  23.188  1.00  0.00     0.060 A 
BRANCH  97  98
ATOM     98  S   UNL A   1      52.974  27.433  21.701  1.00  0.00     0.124 S 
ATOM     99  O   UNL A   1      54.327  27.472  22.246  1.00  0.00    -0.237 OA
ATOM    100  O   UNL A   1      52.639  26.256  20.908  1.00  0.00    -0.237 OA
ATOM    101  O   UNL A   1      52.480  28.701  21.169  1.00  0.00    -0.744 OA
ENDBRANCH  97  98
ENDBRANCH  65  90
BRANCH  77 102
ATOM    102  C   UNL A   1      48.531  26.318  31.601  1.00  0.00     0.058 A 
ATOM    103  C   UNL A   1      49.380  25.514  32.380  1.00  0.00     0.135 A 
ATOM    104  C   UNL A   1      48.725  27.707  31.665  1.00  0.00     0.135 A 
ATOM    105  F   UNL A   1      49.332  24.177  32.295  1.00  0.00    -0.206 F 
ATOM    106  C   UNL A   1      50.350  26.068  33.218  1.00  0.00     0.059 A 
ATOM    107  C   UNL A   1      49.708  28.280  32.469  1.00  0.00     0.059 A 
ATOM    108  F   UNL A   1      47.990  28.526  30.895  1.00  0.00    -0.206 F 
ATOM    109  C   UNL A   1      50.509  27.453  33.255  1.00  0.00     0.060 A 
BRANCH 109 110
ATOM    110  S   UNL A   1      51.831  28.160  34.264  1.00  0.00     0.124 S 
ATOM    111  O   UNL A   1      53.022  27.570  33.663  1.00  0.00    -0.237 OA
ATOM    112  O   UNL A   1      51.660  29.595  34.057  1.00  0.00    -0.237 OA
ATOM    113  O   UNL A   1      51.516  27.694  35.612  1.00  0.00    -0.744 OA
ENDBRANCH 109 110
ENDBRANCH  77 102
ENDBRANCH  51  52
ENDBRANCH  44  46
ENDBRANCH  43  44
ENDBRANCH  42  43
ENDBRANCH  41  42
ENDBRANCH  40  41
ENDBRANCH  39  40
ENDBRANCH  38  39
ENDBRANCH  37  38
ENDBRANCH   1  37
TORSDOF 28
ENDMDL
MODEL 2
REMARK VINA RESULT:      -9.0      9.184     17.010
REMARK SMILES O=C1NC(=O)/C(=C/c2ccc(OCc3cn(-c4ccc(C(=O)OCCOCCOCCOCCOC(=O)c5ccc(-c6c7nc(c(-c8c(F)cc(S(=O)(=O)[O-])cc8F)c8ccc([nH]8)c(-c8c(F)cc(S(=O)(=O)[O-])cc8F)c8nc(c(-c9c(F)cc(S(=O)(=O)[O-])cc9F)c9ccc6[nH]9)C=C8)C=C7)cc5)cc4)nn3)cc2)S1
REMARK SMILES IDX 28 1 27 2 26 3 25 4 24 5 23 6 21 7 22 8 20 9 17 10 18 11
REMARK SMILES IDX 105 12 19 13 104 14 16 15 14 16 15 17 107 18 106 19 13 20
REMARK SMILES IDX 12 21 11 22 8 23 9 24 109 25 10 26 108 27 7 28 1 29 2 30
REMARK SMILES IDX 3 31 110 32 4 33 6 35 5 36 29 37 30 38 31 39 32 40 33 41
REMARK SMILES IDX 34 42 35 43 36 44 37 45 38 46 39 47 103 48 40 49 102 50
REMARK SMILES IDX 41 51 42 52 43 53 96 54 44 55 101 56 95 57 97 58 45 59
REMARK SMILES IDX 100 60 94 61 93 62 46 64 80 65 59 66 79 67 60 68 63 69 78 70
REMARK SMILES IDX 98 71 61 72 62 73 77 75 99 76 64 77 47 78 48 79 57 80 49 81
REMARK SMILES IDX 50 82 56 83 58 84 51 85 52 86 53 87 54 88 55 89 81 90 82 91
REMARK SMILES IDX 91 92 83 93 84 94 90 95 92 96 85 97 86 98 87 99 88 100
REMARK SMILES IDX 89 101 65 102 66 103 75 104 67 105 68 106 74 107 76 108
REMARK SMILES IDX 69 109 70 110 71 111 72 112 73 113
REMARK H PARENT 3 34 97 63 63 74
REMARK Flexibility Score: inf
ROOT
ATOM      1  C   UNL A   1      41.063  12.515  40.821  1.00  0.00     0.188 C 
ENDROOT
BRANCH   1   2
ATOM      2  C   UNL A   1      41.737  12.338  42.201  1.00  0.00     0.188 C 
BRANCH   2   3
ATOM      3  O   UNL A   1      41.934  11.071  42.820  1.00  0.00    -0.376 OA
BRANCH   3   4
ATOM      4  C   UNL A   1      43.152  10.734  43.458  1.00  0.00     0.202 C 
BRANCH   4   5
ATOM      5  C   UNL A   1      43.525  11.397  44.791  1.00  0.00     0.261 C 
BRANCH   5   6
ATOM      6  O   UNL A   1      44.361  12.553  44.698  1.00  0.00    -0.460 OA
BRANCH   6   7
ATOM      7  C   UNL A   1      43.718  13.733  44.827  1.00  0.00     0.338 C 
ATOM      8  O   UNL A   1      42.674  13.954  45.415  1.00  0.00    -0.246 OA
BRANCH   7   9
ATOM      9  C   UNL A   1      44.569  14.796  44.252  1.00  0.00     0.060 A 
ATOM     10  C   UNL A   1      46.075  16.801  43.040  1.00  0.00     0.066 A 
ATOM     11  C   UNL A   1      44.678  16.921  43.113  1.00  0.00     0.029 A 
ATOM     12  C   UNL A   1      46.723  15.722  43.659  1.00  0.00     0.029 A 
ATOM     13  C   UNL A   1      43.927  15.898  43.678  1.00  0.00     0.018 A 
ATOM     14  C   UNL A   1      45.965  14.728  44.287  1.00  0.00     0.018 A 
BRANCH  10  15
ATOM     15  N   UNL A   1      46.776  17.712  42.215  1.00  0.00    -0.220 N 
ATOM     16  C   UNL A   1      48.404  18.871  41.350  1.00  0.00     0.120 A 
ATOM     17  C   UNL A   1      47.825  18.539  42.557  1.00  0.00     0.144 A 
ATOM     18  N   UNL A   1      47.641  18.359  40.336  1.00  0.00    -0.131 NA
ATOM     19  N   UNL A   1      46.638  17.687  40.870  1.00  0.00    -0.062 NA
BRANCH  16  20
ATOM     20  C   UNL A   1      49.698  19.544  41.044  1.00  0.00     0.289 C 
BRANCH  20  21
ATOM     21  O   UNL A   1      50.551  18.838  40.137  1.00  0.00    -0.487 OA
BRANCH  21  22
ATOM     22  C   UNL A   1      50.597  19.261  38.837  1.00  0.00     0.119 A 
ATOM     23  C   UNL A   1      51.033  19.988  36.161  1.00  0.00    -0.024 A 
ATOM     24  C   UNL A   1      51.457  18.743  36.627  1.00  0.00     0.012 A 
ATOM     25  C   UNL A   1      50.322  20.833  37.018  1.00  0.00     0.012 A 
ATOM     26  C   UNL A   1      51.239  18.384  37.960  1.00  0.00     0.047 A 
ATOM     27  C   UNL A   1      50.093  20.464  38.345  1.00  0.00     0.047 A 
BRANCH  23  28
ATOM     28  C   UNL A   1      51.347  20.410  34.793  1.00  0.00     0.029 C 
ATOM     29  O   UNL A   1      55.441  23.283  34.231  1.00  0.00    -0.261 OA
ATOM     30  C   UNL A   1      54.460  22.569  34.121  1.00  0.00     0.290 C 
ATOM     31  N   UNL A   1      53.792  22.308  32.969  1.00  0.00    -0.282 N 
ATOM     32  S   UNL A   1      53.662  21.769  35.459  1.00  0.00    -0.022 SA
ATOM     33  C   UNL A   1      52.648  21.572  33.041  1.00  0.00     0.265 C 
ATOM     34  H   UNL A   1      54.126  22.640  32.104  1.00  0.00     0.174 HD
ATOM     35  C   UNL A   1      52.408  21.151  34.445  1.00  0.00     0.083 C 
ATOM     36  O   UNL A   1      51.911  21.333  32.096  1.00  0.00    -0.268 OA
ENDBRANCH  23  28
ENDBRANCH  21  22
ENDBRANCH  20  21
ENDBRANCH  16  20
ENDBRANCH  10  15
ENDBRANCH   7   9
ENDBRANCH   6   7
ENDBRANCH   5   6
ENDBRANCH   4   5
ENDBRANCH   3   4
ENDBRANCH   2   3
ENDBRANCH   1   2
BRANCH   1  37
ATOM     37  O   UNL A   1      41.570  13.584  40.038  1.00  0.00    -0.377 OA
BRANCH  37  38
ATOM     38  C   UNL A   1      41.774  14.799  40.756  1.00  0.00     0.188 C 
BRANCH  38  39
ATOM     39  C   UNL A   1      42.611  15.878  40.036  1.00  0.00     0.188 C 
BRANCH  39  40
ATOM     40  O   UNL A   1      43.278  15.393  38.870  1.00  0.00    -0.376 OA
BRANCH  40  41
ATOM     41  C   UNL A   1      44.437  16.083  38.426  1.00  0.00     0.202 C 
BRANCH  41  42
ATOM     42  C   UNL A   1      44.102  17.389  37.709  1.00  0.00     0.261 C 
BRANCH  42  43
ATOM     43  O   UNL A   1      45.207  18.277  37.616  1.00  0.00    -0.460 OA
BRANCH  43  44
ATOM     44  C   UNL A   1      45.524  18.694  36.375  1.00  0.00     0.338 C 
ATOM     45  O   UNL A   1      45.188  18.192  35.317  1.00  0.00    -0.246 OA
BRANCH  44  46
ATOM     46  C   UNL A   1      46.435  19.834  36.485  1.00  0.00     0.060 A 
ATOM     47  C   UNL A   1      46.455  20.472  37.725  1.00  0.00     0.016 A 
ATOM     48  C   UNL A   1      46.963  20.420  35.323  1.00  0.00     0.016 A 
ATOM     49  C   UNL A   1      46.729  21.815  37.743  1.00  0.00     0.010 A 
ATOM     50  C   UNL A   1      47.229  21.764  35.342  1.00  0.00     0.010 A 
ATOM     51  C   UNL A   1      46.989  22.453  36.528  1.00  0.00    -0.014 A 
BRANCH  51  52
ATOM     52  C   UNL A   1      46.912  23.893  36.522  1.00  0.00     0.031 A 
ATOM     53  C   UNL A   1      45.734  24.431  35.826  1.00  0.00     0.074 A 
ATOM     54  C   UNL A   1      47.831  24.635  37.167  1.00  0.00     0.049 A 
ATOM     55  N   UNL A   1      45.698  25.162  34.764  1.00  0.00    -0.248 NA
ATOM     56  C   UNL A   1      44.420  23.973  36.300  1.00  0.00     0.031 C 
ATOM     57  C   UNL A   1      48.847  24.174  38.121  1.00  0.00     0.029 A 
ATOM     58  N   UNL A   1      47.966  25.985  37.192  1.00  0.00    -0.354 N 
ATOM     59  C   UNL A   1      44.352  25.448  34.571  1.00  0.00     0.074 A 
ATOM     60  C   UNL A   1      43.612  24.545  35.412  1.00  0.00     0.031 C 
ATOM     61  C   UNL A   1      49.331  25.243  38.793  1.00  0.00     0.029 A 
ATOM     62  C   UNL A   1      48.747  26.452  38.238  1.00  0.00     0.049 A 
ATOM     63  H   UNL A   1      47.548  26.580  36.528  1.00  0.00     0.167 HD
ATOM     64  C   UNL A   1      43.959  26.590  33.948  1.00  0.00     0.037 A 
ATOM     65  C   UNL A   1      48.807  27.733  38.676  1.00  0.00     0.037 A 
ATOM     66  C   UNL A   1      45.009  27.135  33.125  1.00  0.00     0.049 A 
ATOM     67  C   UNL A   1      48.298  28.605  37.582  1.00  0.00     0.074 A 
ATOM     68  C   UNL A   1      45.753  26.653  32.065  1.00  0.00     0.029 A 
ATOM     69  N   UNL A   1      45.675  28.249  33.576  1.00  0.00    -0.354 N 
ATOM     70  N   UNL A   1      48.904  28.790  36.440  1.00  0.00    -0.248 NA
ATOM     71  C   UNL A   1      46.888  28.971  37.597  1.00  0.00     0.031 C 
ATOM     72  C   UNL A   1      47.043  27.240  32.208  1.00  0.00     0.029 A 
ATOM     73  C   UNL A   1      47.013  28.065  33.333  1.00  0.00     0.049 A 
ATOM     74  H   UNL A   1      45.265  29.039  33.996  1.00  0.00     0.167 HD
ATOM     75  C   UNL A   1      47.886  28.907  35.504  1.00  0.00     0.074 A 
ATOM     76  C   UNL A   1      46.677  29.129  36.288  1.00  0.00     0.031 C 
ATOM     77  C   UNL A   1      48.071  28.536  34.203  1.00  0.00     0.037 A 
BRANCH  64  78
ATOM     78  C   UNL A   1      42.763  27.392  34.403  1.00  0.00     0.058 A 
ATOM     79  C   UNL A   1      41.909  27.956  33.436  1.00  0.00     0.135 A 
ATOM     80  C   UNL A   1      42.586  27.865  35.726  1.00  0.00     0.135 A 
ATOM     81  F   UNL A   1      41.993  27.583  32.150  1.00  0.00    -0.206 F 
ATOM     82  C   UNL A   1      41.013  28.979  33.745  1.00  0.00     0.059 A 
ATOM     83  C   UNL A   1      41.656  28.836  36.065  1.00  0.00     0.059 A 
ATOM     84  F   UNL A   1      43.374  27.489  36.741  1.00  0.00    -0.206 F 
ATOM     85  C   UNL A   1      40.915  29.428  35.059  1.00  0.00     0.060 A 
BRANCH  85  86
ATOM     86  S   UNL A   1      39.887  30.855  35.441  1.00  0.00     0.124 S 
ATOM     87  O   UNL A   1      40.821  31.680  36.199  1.00  0.00    -0.237 OA
ATOM     88  O   UNL A   1      39.534  31.340  34.111  1.00  0.00    -0.237 OA
ATOM     89  O   UNL A   1      38.786  30.278  36.205  1.00  0.00    -0.744 OA
ENDBRANCH  85  86
ENDBRANCH  64  78
BRANCH  65  90
ATOM     90  C   UNL A   1      48.952  28.197  40.080  1.00  0.00     0.058 A 
ATOM     91  C   UNL A   1      50.092  28.903  40.495  1.00  0.00     0.135 A 
ATOM     92  C   UNL A   1      47.867  28.184  40.983  1.00  0.00     0.135 A 
ATOM     93  F   UNL A   1      51.160  28.994  39.688  1.00  0.00    -0.206 F 
ATOM     94  C   UNL A   1      50.142  29.586  41.715  1.00  0.00     0.059 A 
ATOM     95  C   UNL A   1      47.901  28.837  42.212  1.00  0.00     0.059 A 
ATOM     96  F   UNL A   1      46.697  27.611  40.661  1.00  0.00    -0.206 F 
ATOM     97  C   UNL A   1      49.034  29.560  42.561  1.00  0.00     0.060 A 
BRANCH  97  98
ATOM     98  S   UNL A   1      49.030  30.569  44.058  1.00  0.00     0.124 S 
ATOM     99  O   UNL A   1      49.456  31.867  43.548  1.00  0.00    -0.237 OA
ATOM    100  O   UNL A   1      47.639  30.477  44.488  1.00  0.00    -0.237 OA
ATOM    101  O   UNL A   1      49.993  29.894  44.926  1.00  0.00    -0.744 OA
ENDBRANCH  97  98
ENDBRANCH  65  90
BRANCH  77 102
ATOM    102  C   UNL A   1      49.484  28.345  33.716  1.00  0.00     0.058 A 
ATOM    103  C   UNL A   1      50.290  29.382  33.214  1.00  0.00     0.135 A 
ATOM    104  C   UNL A   1      50.093  27.094  33.907  1.00  0.00     0.135 A 
ATOM    105  F   UNL A   1      49.815  30.630  33.105  1.00  0.00    -0.206 F 
ATOM    106  C   UNL A   1      51.628  29.174  32.876  1.00  0.00     0.059 A 
ATOM    107  C   UNL A   1      51.435  26.872  33.606  1.00  0.00     0.059 A 
ATOM    108  F   UNL A   1      49.395  26.080  34.445  1.00  0.00    -0.206 F 
ATOM    109  C   UNL A   1      52.194  27.914  33.078  1.00  0.00     0.060 A 
BRANCH 109 110
ATOM    110  S   UNL A   1      53.952  27.676  32.733  1.00  0.00     0.124 S 
ATOM    111  O   UNL A   1      54.291  28.898  32.013  1.00  0.00    -0.237 OA
ATOM    112  O   UNL A   1      54.526  27.547  34.069  1.00  0.00    -0.237 OA
ATOM    113  O   UNL A   1      53.979  26.453  31.936  1.00  0.00    -0.744 OA
ENDBRANCH 109 110
ENDBRANCH  77 102
ENDBRANCH  51  52
ENDBRANCH  44  46
ENDBRANCH  43  44
ENDBRANCH  42  43
ENDBRANCH  41  42
ENDBRANCH  40  41
ENDBRANCH  39  40
ENDBRANCH  38  39
ENDBRANCH  37  38
ENDBRANCH   1  37
TORSDOF 28
ENDMDL
MODEL 3
REMARK VINA RESULT:      -9.0      6.622     12.303
REMARK SMILES O=C1NC(=O)/C(=C/c2ccc(OCc3cn(-c4ccc(C(=O)OCCOCCOCCOCCOC(=O)c5ccc(-c6c7nc(c(-c8c(F)cc(S(=O)(=O)[O-])cc8F)c8ccc([nH]8)c(-c8c(F)cc(S(=O)(=O)[O-])cc8F)c8nc(c(-c9c(F)cc(S(=O)(=O)[O-])cc9F)c9ccc6[nH]9)C=C8)C=C7)cc5)cc4)nn3)cc2)S1
REMARK SMILES IDX 28 1 27 2 26 3 25 4 24 5 23 6 21 7 22 8 20 9 17 10 18 11
REMARK SMILES IDX 105 12 19 13 104 14 16 15 14 16 15 17 107 18 106 19 13 20
REMARK SMILES IDX 12 21 11 22 8 23 9 24 109 25 10 26 108 27 7 28 1 29 2 30
REMARK SMILES IDX 3 31 110 32 4 33 6 35 5 36 29 37 30 38 31 39 32 40 33 41
REMARK SMILES IDX 34 42 35 43 36 44 37 45 38 46 39 47 103 48 40 49 102 50
REMARK SMILES IDX 41 51 42 52 43 53 96 54 44 55 101 56 95 57 97 58 45 59
REMARK SMILES IDX 100 60 94 61 93 62 46 64 80 65 59 66 79 67 60 68 63 69 78 70
REMARK SMILES IDX 98 71 61 72 62 73 77 75 99 76 64 77 47 78 48 79 57 80 49 81
REMARK SMILES IDX 50 82 56 83 58 84 51 85 52 86 53 87 54 88 55 89 81 90 82 91
REMARK SMILES IDX 91 92 83 93 84 94 90 95 92 96 85 97 86 98 87 99 88 100
REMARK SMILES IDX 89 101 65 102 66 103 75 104 67 105 68 106 74 107 76 108
REMARK SMILES IDX 69 109 70 110 71 111 72 112 73 113
REMARK H PARENT 3 34 97 63 63 74
REMARK Flexibility Score: inf
ROOT
ATOM      1  C   UNL A   1      41.241  27.331  26.198  1.00  0.00     0.188 C 
ENDROOT
BRANCH   1   2
ATOM      2  C   UNL A   1      41.373  25.795  26.090  1.00  0.00     0.188 C 
BRANCH   2   3
ATOM      3  O   UNL A   1      42.270  25.147  25.193  1.00  0.00    -0.376 OA
BRANCH   3   4
ATOM      4  C   UNL A   1      42.839  23.886  25.489  1.00  0.00     0.202 C 
BRANCH   4   5
ATOM      5  C   UNL A   1      42.352  23.097  26.712  1.00  0.00     0.261 C 
BRANCH   5   6
ATOM      6  O   UNL A   1      40.957  23.200  27.004  1.00  0.00    -0.460 OA
BRANCH   6   7
ATOM      7  C   UNL A   1      40.287  22.028  27.010  1.00  0.00     0.338 C 
ATOM      8  O   UNL A   1      40.606  20.989  27.563  1.00  0.00    -0.246 OA
BRANCH   7   9
ATOM      9  C   UNL A   1      38.984  22.228  26.342  1.00  0.00     0.060 A 
ATOM     10  C   UNL A   1      36.588  22.530  24.956  1.00  0.00     0.066 A 
ATOM     11  C   UNL A   1      37.216  21.275  25.006  1.00  0.00     0.029 A 
ATOM     12  C   UNL A   1      37.113  23.610  25.681  1.00  0.00     0.029 A 
ATOM     13  C   UNL A   1      38.433  21.139  25.661  1.00  0.00     0.018 A 
ATOM     14  C   UNL A   1      38.305  23.450  26.395  1.00  0.00     0.018 A 
BRANCH  10  15
ATOM     15  N   UNL A   1      35.511  22.697  24.053  1.00  0.00    -0.220 N 
ATOM     16  C   UNL A   1      33.606  23.343  23.221  1.00  0.00     0.120 A 
ATOM     17  C   UNL A   1      34.163  22.748  24.334  1.00  0.00     0.144 A 
ATOM     18  N   UNL A   1      34.579  23.513  22.274  1.00  0.00    -0.131 NA
ATOM     19  N   UNL A   1      35.724  23.087  22.775  1.00  0.00    -0.062 NA
BRANCH  16  20
ATOM     20  C   UNL A   1      32.237  23.884  22.990  1.00  0.00     0.289 C 
BRANCH  20  21
ATOM     21  O   UNL A   1      31.547  24.315  24.169  1.00  0.00    -0.487 OA
BRANCH  21  22
ATOM     22  C   UNL A   1      32.017  25.422  24.819  1.00  0.00     0.119 A 
ATOM     23  C   UNL A   1      33.294  27.645  25.963  1.00  0.00    -0.024 A 
ATOM     24  C   UNL A   1      33.429  27.384  24.598  1.00  0.00     0.012 A 
ATOM     25  C   UNL A   1      32.456  26.835  26.734  1.00  0.00     0.012 A 
ATOM     26  C   UNL A   1      32.792  26.276  24.032  1.00  0.00     0.047 A 
ATOM     27  C   UNL A   1      31.809  25.738  26.161  1.00  0.00     0.047 A 
BRANCH  23  28
ATOM     28  C   UNL A   1      34.039  28.746  26.580  1.00  0.00     0.029 C 
ATOM     29  O   UNL A   1      31.578  33.111  27.052  1.00  0.00    -0.261 OA
ATOM     30  C   UNL A   1      32.339  32.160  27.088  1.00  0.00     0.290 C 
ATOM     31  N   UNL A   1      33.617  32.181  27.544  1.00  0.00    -0.282 N 
ATOM     32  S   UNL A   1      31.953  30.559  26.493  1.00  0.00    -0.022 SA
ATOM     33  C   UNL A   1      34.366  31.051  27.413  1.00  0.00     0.265 C 
ATOM     34  H   UNL A   1      33.993  32.991  27.959  1.00  0.00     0.174 HD
ATOM     35  C   UNL A   1      33.543  29.969  26.813  1.00  0.00     0.083 C 
ATOM     36  O   UNL A   1      35.549  30.958  27.706  1.00  0.00    -0.268 OA
ENDBRANCH  23  28
ENDBRANCH  21  22
ENDBRANCH  20  21
ENDBRANCH  16  20
ENDBRANCH  10  15
ENDBRANCH   7   9
ENDBRANCH   6   7
ENDBRANCH   5   6
ENDBRANCH   4   5
ENDBRANCH   3   4
ENDBRANCH   2   3
ENDBRANCH   1   2
BRANCH   1  37
ATOM     37  O   UNL A   1      42.457  28.024  26.429  1.00  0.00    -0.377 OA
BRANCH  37  38
ATOM     38  C   UNL A   1      42.387  29.024  27.442  1.00  0.00     0.188 C 
BRANCH  38  39
ATOM     39  C   UNL A   1      42.799  28.580  28.861  1.00  0.00     0.188 C 
BRANCH  39  40
ATOM     40  O   UNL A   1      41.858  28.957  29.868  1.00  0.00    -0.376 OA
BRANCH  40  41
ATOM     41  C   UNL A   1      40.529  29.252  29.465  1.00  0.00     0.202 C 
BRANCH  41  42
ATOM     42  C   UNL A   1      40.163  30.718  29.685  1.00  0.00     0.261 C 
BRANCH  42  43
ATOM     43  O   UNL A   1      40.370  31.154  31.022  1.00  0.00    -0.460 OA
BRANCH  43  44
ATOM     44  C   UNL A   1      40.308  32.485  31.222  1.00  0.00     0.338 C 
ATOM     45  O   UNL A   1      39.623  33.080  32.035  1.00  0.00    -0.246 OA
BRANCH  44  46
ATOM     46  C   UNL A   1      41.153  33.146  30.227  1.00  0.00     0.060 A 
ATOM     47  C   UNL A   1      42.484  32.732  30.195  1.00  0.00     0.016 A 
ATOM     48  C   UNL A   1      40.714  34.331  29.616  1.00  0.00     0.016 A 
ATOM     49  C   UNL A   1      43.426  33.652  29.816  1.00  0.00     0.010 A 
ATOM     50  C   UNL A   1      41.658  35.253  29.244  1.00  0.00     0.010 A 
ATOM     51  C   UNL A   1      42.994  34.934  29.466  1.00  0.00    -0.014 A 
BRANCH  51  52
ATOM     52  C   UNL A   1      43.999  35.967  29.427  1.00  0.00     0.031 A 
ATOM     53  C   UNL A   1      44.105  36.753  30.665  1.00  0.00     0.074 A 
ATOM     54  C   UNL A   1      44.790  36.120  28.349  1.00  0.00     0.049 A 
ATOM     55  N   UNL A   1      43.873  38.010  30.837  1.00  0.00    -0.248 NA
ATOM     56  C   UNL A   1      44.365  36.003  31.903  1.00  0.00     0.031 C 
ATOM     57  C   UNL A   1      44.949  35.201  27.216  1.00  0.00     0.029 A 
ATOM     58  N   UNL A   1      45.715  37.083  28.104  1.00  0.00    -0.354 N 
ATOM     59  C   UNL A   1      44.188  38.255  32.168  1.00  0.00     0.074 A 
ATOM     60  C   UNL A   1      44.290  36.972  32.811  1.00  0.00     0.031 C 
ATOM     61  C   UNL A   1      46.065  35.539  26.532  1.00  0.00     0.029 A 
ATOM     62  C   UNL A   1      46.622  36.751  27.110  1.00  0.00     0.049 A 
ATOM     63  H   UNL A   1      45.739  37.940  28.588  1.00  0.00     0.167 HD
ATOM     64  C   UNL A   1      44.614  39.478  32.575  1.00  0.00     0.037 A 
ATOM     65  C   UNL A   1      47.801  37.373  26.868  1.00  0.00     0.037 A 
ATOM     66  C   UNL A   1      44.219  40.513  31.654  1.00  0.00     0.049 A 
ATOM     67  C   UNL A   1      47.733  38.720  27.497  1.00  0.00     0.074 A 
ATOM     68  C   UNL A   1      43.006  40.953  31.158  1.00  0.00     0.029 A 
ATOM     69  N   UNL A   1      45.178  41.050  30.830  1.00  0.00    -0.354 N 
ATOM     70  N   UNL A   1      46.950  39.686  27.098  1.00  0.00    -0.248 NA
ATOM     71  C   UNL A   1      48.260  38.874  28.847  1.00  0.00     0.031 C 
ATOM     72  C   UNL A   1      43.270  41.366  29.820  1.00  0.00     0.029 A 
ATOM     73  C   UNL A   1      44.631  41.179  29.578  1.00  0.00     0.049 A 
ATOM     74  H   UNL A   1      46.095  41.298  31.091  1.00  0.00     0.167 HD
ATOM     75  C   UNL A   1      46.567  40.345  28.257  1.00  0.00     0.074 A 
ATOM     76  C   UNL A   1      47.494  39.878  29.281  1.00  0.00     0.031 C 
ATOM     77  C   UNL A   1      45.367  40.991  28.344  1.00  0.00     0.037 A 
BRANCH  64  78
ATOM     78  C   UNL A   1      45.709  39.657  33.600  1.00  0.00     0.058 A 
ATOM     79  C   UNL A   1      45.407  40.280  34.825  1.00  0.00     0.135 A 
ATOM     80  C   UNL A   1      47.088  39.503  33.317  1.00  0.00     0.135 A 
ATOM     81  F   UNL A   1      44.131  40.479  35.193  1.00  0.00    -0.206 F 
ATOM     82  C   UNL A   1      46.397  40.794  35.661  1.00  0.00     0.059 A 
ATOM     83  C   UNL A   1      48.090  39.951  34.164  1.00  0.00     0.059 A 
ATOM     84  F   UNL A   1      47.539  39.007  32.157  1.00  0.00    -0.206 F 
ATOM     85  C   UNL A   1      47.736  40.647  35.305  1.00  0.00     0.060 A 
BRANCH  85  86
ATOM     86  S   UNL A   1      49.014  41.449  36.285  1.00  0.00     0.124 S 
ATOM     87  O   UNL A   1      48.580  41.119  37.638  1.00  0.00    -0.237 OA
ATOM     88  O   UNL A   1      50.222  40.779  35.815  1.00  0.00    -0.237 OA
ATOM     89  O   UNL A   1      48.893  42.853  35.905  1.00  0.00    -0.744 OA
ENDBRANCH  85  86
ENDBRANCH  64  78
BRANCH  65  90
ATOM     90  C   UNL A   1      49.076  36.746  26.432  1.00  0.00     0.058 A 
ATOM     91  C   UNL A   1      49.744  35.821  27.250  1.00  0.00     0.135 A 
ATOM     92  C   UNL A   1      49.535  36.845  25.102  1.00  0.00     0.135 A 
ATOM     93  F   UNL A   1      49.354  35.639  28.521  1.00  0.00    -0.206 F 
ATOM     94  C   UNL A   1      50.781  35.015  26.768  1.00  0.00     0.059 A 
ATOM     95  C   UNL A   1      50.580  36.070  24.606  1.00  0.00     0.059 A 
ATOM     96  F   UNL A   1      48.922  37.635  24.208  1.00  0.00    -0.206 F 
ATOM     97  C   UNL A   1      51.182  35.136  25.438  1.00  0.00     0.060 A 
BRANCH  97  98
ATOM     98  S   UNL A   1      52.405  33.990  24.767  1.00  0.00     0.124 S 
ATOM     99  O   UNL A   1      52.652  33.112  25.905  1.00  0.00    -0.237 OA
ATOM    100  O   UNL A   1      51.686  33.395  23.645  1.00  0.00    -0.237 OA
ATOM    101  O   UNL A   1      53.520  34.860  24.397  1.00  0.00    -0.744 OA
ENDBRANCH  97  98
ENDBRANCH  65  90
BRANCH  77 102
ATOM    102  C   UNL A   1      44.630  41.290  27.064  1.00  0.00     0.058 A 
ATOM    103  C   UNL A   1      43.637  40.460  26.516  1.00  0.00     0.135 A 
ATOM    104  C   UNL A   1      44.834  42.537  26.452  1.00  0.00     0.135 A 
ATOM    105  F   UNL A   1      43.306  39.302  27.104  1.00  0.00    -0.206 F 
ATOM    106  C   UNL A   1      42.909  40.835  25.385  1.00  0.00     0.059 A 
ATOM    107  C   UNL A   1      44.098  42.945  25.342  1.00  0.00     0.059 A 
ATOM    108  F   UNL A   1      45.723  43.402  26.967  1.00  0.00    -0.206 F 
ATOM    109  C   UNL A   1      43.145  42.081  24.805  1.00  0.00     0.060 A 
BRANCH 109 110
ATOM    110  S   UNL A   1      42.132  42.604  23.403  1.00  0.00     0.124 S 
ATOM    111  O   UNL A   1      42.640  41.760  22.326  1.00  0.00    -0.237 OA
ATOM    112  O   UNL A   1      40.777  42.305  23.857  1.00  0.00    -0.237 OA
ATOM    113  O   UNL A   1      42.435  44.027  23.276  1.00  0.00    -0.744 OA
ENDBRANCH 109 110
ENDBRANCH  77 102
ENDBRANCH  51  52
ENDBRANCH  44  46
ENDBRANCH  43  44
ENDBRANCH  42  43
ENDBRANCH  41  42
ENDBRANCH  40  41
ENDBRANCH  39  40
ENDBRANCH  38  39
ENDBRANCH  37  38
ENDBRANCH   1  37
TORSDOF 28
ENDMDL
