MODEL 1
REMARK VINA RESULT:      -8.2      0.000      0.000
REMARK SMILES Cc1cc(C(=O)OCCOCCOCCOCCOC(=O)c2ccc(-c3c4nc(c(-c5c(F)cc(S(=O)(=O)[O-])cc5F)c5ccc([nH]5)c(-c5c(F)cc(S(=O)(=O)[O-])cc5F)c5nc(c(-c6c(F)cc(S(=O)(=O)[O-])cc6F)c6ccc3[nH]6)C=C5)C=C4)cc2)ccc1NS(=O)(=O)c1ccc(C#N)cc1C
REMARK SMILES IDX 12 1 11 2 10 3 9 4 8 5 7 6 5 7 6 8 4 9 1 10 2 11 3 12 90 13
REMARK SMILES IDX 89 14 88 15 91 16 92 18 93 19 94 20 95 21 96 22 102 23 97 24
REMARK SMILES IDX 101 25 103 26 98 27 99 28 100 29 13 30 14 31 15 32 16 33
REMARK SMILES IDX 17 34 18 35 19 36 20 37 21 38 22 39 23 40 87 41 24 42 86 43
REMARK SMILES IDX 25 44 26 45 27 46 80 47 28 48 85 49 79 50 81 51 29 52 84 53
REMARK SMILES IDX 78 54 77 55 30 57 64 58 43 59 63 60 44 61 47 62 62 63 82 64
REMARK SMILES IDX 45 65 46 66 61 68 83 69 48 70 31 71 32 72 41 73 33 74 34 75
REMARK SMILES IDX 40 76 42 77 35 78 36 79 37 80 38 81 39 82 65 83 66 84 75 85
REMARK SMILES IDX 67 86 68 87 74 88 76 89 69 90 70 91 71 92 72 93 73 94 49 95
REMARK SMILES IDX 50 96 59 97 51 98 52 99 58 100 60 101 53 102 54 103 55 104
REMARK SMILES IDX 56 105 57 106
REMARK H PARENT 91 17 81 56 47 67
REMARK Flexibility Score: inf
ROOT
ATOM      1  C   UNL A   1      36.755  32.995  32.660  1.00  0.00     0.188 C 
ENDROOT
BRANCH   1   2
ATOM      2  C   UNL A   1      35.426  33.771  32.725  1.00  0.00     0.188 C 
BRANCH   2   3
ATOM      3  O   UNL A   1      35.073  34.765  31.782  1.00  0.00    -0.376 OA
BRANCH   3   4
ATOM      4  C   UNL A   1      34.300  34.304  30.686  1.00  0.00     0.202 C 
BRANCH   4   5
ATOM      5  C   UNL A   1      34.798  34.483  29.268  1.00  0.00     0.261 C 
BRANCH   5   6
ATOM      6  O   UNL A   1      34.525  33.345  28.491  1.00  0.00    -0.460 OA
BRANCH   6   7
ATOM      7  C   UNL A   1      33.286  33.325  27.999  1.00  0.00     0.338 C 
ATOM      8  O   UNL A   1      32.521  34.254  27.821  1.00  0.00    -0.246 OA
BRANCH   7   9
ATOM      9  C   UNL A   1      33.178  32.022  27.334  1.00  0.00     0.060 A 
ATOM     10  C   UNL A   1      35.422  29.065  27.572  1.00  0.00     0.046 C 
ATOM     11  C   UNL A   1      34.255  29.877  27.090  1.00  0.00    -0.026 A 
ATOM     12  C   UNL A   1      34.302  31.222  27.458  1.00  0.00     0.021 A 
ATOM     13  C   UNL A   1      33.062  29.373  26.552  1.00  0.00     0.052 A 
ATOM     14  C   UNL A   1      31.899  30.093  26.735  1.00  0.00     0.028 A 
ATOM     15  C   UNL A   1      31.950  31.448  27.000  1.00  0.00     0.018 A 
BRANCH  13  16
ATOM     16  N   UNL A   1      32.937  28.105  25.919  1.00  0.00    -0.279 N 
ATOM     17  H   UNL A   1      33.702  27.734  25.421  1.00  0.00     0.180 HD
BRANCH  16  18
ATOM     18  S   UNL A   1      31.465  27.211  26.010  1.00  0.00     0.262 S 
ATOM     19  O   UNL A   1      30.950  27.326  27.357  1.00  0.00    -0.201 OA
ATOM     20  O   UNL A   1      30.733  27.809  24.907  1.00  0.00    -0.201 OA
BRANCH  18  21
ATOM     21  C   UNL A   1      31.585  25.435  25.643  1.00  0.00     0.090 A 
ATOM     22  C   UNL A   1      30.653  24.516  26.141  1.00  0.00     0.024 A 
ATOM     23  C   UNL A   1      32.532  24.927  24.731  1.00  0.00    -0.029 A 
ATOM     24  C   UNL A   1      30.837  23.124  26.051  1.00  0.00     0.021 A 
ATOM     25  C   UNL A   1      32.684  23.523  24.591  1.00  0.00     0.024 A 
ATOM     26  C   UNL A   1      33.283  25.751  23.721  1.00  0.00     0.046 C 
ATOM     27  C   UNL A   1      31.879  22.619  25.288  1.00  0.00     0.052 A 
BRANCH  27  28
ATOM     28  C   UNL A   1      32.058  21.215  25.106  1.00  0.00     0.099 C 
ATOM     29  N   UNL A   1      32.166  20.048  25.022  1.00  0.00    -0.192 NA
ENDBRANCH  27  28
ENDBRANCH  18  21
ENDBRANCH  16  18
ENDBRANCH  13  16
ENDBRANCH   7   9
ENDBRANCH   6   7
ENDBRANCH   5   6
ENDBRANCH   4   5
ENDBRANCH   3   4
ENDBRANCH   2   3
ENDBRANCH   1   2
BRANCH   1  30
ATOM     30  O   UNL A   1      36.728  31.583  32.528  1.00  0.00    -0.377 OA
BRANCH  30  31
ATOM     31  C   UNL A   1      37.621  30.999  31.578  1.00  0.00     0.188 C 
BRANCH  31  32
ATOM     32  C   UNL A   1      39.013  31.548  31.407  1.00  0.00     0.188 C 
BRANCH  32  33
ATOM     33  O   UNL A   1      39.874  30.568  31.983  1.00  0.00    -0.376 OA
BRANCH  33  34
ATOM     34  C   UNL A   1      39.439  29.978  33.185  1.00  0.00     0.202 C 
BRANCH  34  35
ATOM     35  C   UNL A   1      40.151  30.525  34.413  1.00  0.00     0.261 C 
BRANCH  35  36
ATOM     36  O   UNL A   1      41.577  30.195  34.477  1.00  0.00    -0.460 OA
BRANCH  36  37
ATOM     37  C   UNL A   1      42.147  28.951  34.590  1.00  0.00     0.338 C 
ATOM     38  O   UNL A   1      41.841  28.198  35.508  1.00  0.00    -0.246 OA
BRANCH  37  39
ATOM     39  C   UNL A   1      42.848  28.402  33.391  1.00  0.00     0.060 A 
ATOM     40  C   UNL A   1      43.247  27.060  33.259  1.00  0.00     0.016 A 
ATOM     41  C   UNL A   1      43.082  29.225  32.320  1.00  0.00     0.016 A 
ATOM     42  C   UNL A   1      44.144  26.640  32.237  1.00  0.00     0.010 A 
ATOM     43  C   UNL A   1      43.980  28.816  31.347  1.00  0.00     0.010 A 
ATOM     44  C   UNL A   1      44.618  27.561  31.318  1.00  0.00    -0.014 A 
BRANCH  44  45
ATOM     45  C   UNL A   1      45.739  27.395  30.325  1.00  0.00     0.031 A 
ATOM     46  C   UNL A   1      47.155  27.459  30.889  1.00  0.00     0.074 A 
ATOM     47  C   UNL A   1      45.477  26.821  29.104  1.00  0.00     0.049 A 
ATOM     48  N   UNL A   1      48.246  27.165  30.268  1.00  0.00    -0.248 NA
ATOM     49  C   UNL A   1      47.456  27.796  32.289  1.00  0.00     0.031 C 
ATOM     50  C   UNL A   1      46.350  25.981  28.263  1.00  0.00     0.029 A 
ATOM     51  N   UNL A   1      44.310  26.795  28.346  1.00  0.00    -0.354 N 
ATOM     52  C   UNL A   1      49.243  26.854  31.203  1.00  0.00     0.074 A 
ATOM     53  C   UNL A   1      48.713  27.352  32.444  1.00  0.00     0.031 C 
ATOM     54  C   UNL A   1      45.741  25.580  27.130  1.00  0.00     0.029 A 
ATOM     55  C   UNL A   1      44.561  26.393  27.025  1.00  0.00     0.049 A 
ATOM     56  H   UNL A   1      43.419  27.028  28.695  1.00  0.00     0.167 HD
ATOM     57  C   UNL A   1      50.318  26.081  30.817  1.00  0.00     0.037 A 
ATOM     58  C   UNL A   1      44.390  27.321  26.036  1.00  0.00     0.037 A 
ATOM     59  C   UNL A   1      50.253  25.837  29.357  1.00  0.00     0.049 A 
ATOM     60  C   UNL A   1      45.798  27.799  25.629  1.00  0.00     0.074 A 
ATOM     61  C   UNL A   1      50.290  24.719  28.544  1.00  0.00     0.029 A 
ATOM     62  N   UNL A   1      49.930  26.895  28.507  1.00  0.00    -0.354 N 
ATOM     63  N   UNL A   1      46.822  27.879  26.462  1.00  0.00    -0.248 NA
ATOM     64  C   UNL A   1      46.238  27.818  24.230  1.00  0.00     0.031 C 
ATOM     65  C   UNL A   1      49.764  25.089  27.265  1.00  0.00     0.029 A 
ATOM     66  C   UNL A   1      49.502  26.457  27.269  1.00  0.00     0.049 A 
ATOM     67  H   UNL A   1      49.999  27.844  28.759  1.00  0.00     0.167 HD
ATOM     68  C   UNL A   1      47.997  27.745  25.757  1.00  0.00     0.074 A 
ATOM     69  C   UNL A   1      47.577  27.773  24.361  1.00  0.00     0.031 C 
ATOM     70  C   UNL A   1      49.252  27.433  26.220  1.00  0.00     0.037 A 
BRANCH  57  71
ATOM     71  C   UNL A   1      51.373  25.350  31.703  1.00  0.00     0.058 A 
ATOM     72  C   UNL A   1      50.959  24.318  32.591  1.00  0.00     0.135 A 
ATOM     73  C   UNL A   1      52.757  25.632  31.800  1.00  0.00     0.135 A 
ATOM     74  F   UNL A   1      49.694  23.878  32.600  1.00  0.00    -0.206 F 
ATOM     75  C   UNL A   1      51.809  23.662  33.499  1.00  0.00     0.059 A 
ATOM     76  C   UNL A   1      53.643  24.949  32.672  1.00  0.00     0.059 A 
ATOM     77  F   UNL A   1      53.324  26.598  31.066  1.00  0.00    -0.206 F 
ATOM     78  C   UNL A   1      53.157  23.970  33.530  1.00  0.00     0.060 A 
BRANCH  78  79
ATOM     79  S   UNL A   1      54.237  23.029  34.644  1.00  0.00     0.124 S 
ATOM     80  O   UNL A   1      54.658  24.045  35.606  1.00  0.00    -0.237 OA
ATOM     81  O   UNL A   1      53.335  22.006  35.165  1.00  0.00    -0.237 OA
ATOM     82  O   UNL A   1      55.291  22.532  33.764  1.00  0.00    -0.744 OA
ENDBRANCH  78  79
ENDBRANCH  57  71
BRANCH  58  83
ATOM     83  C   UNL A   1      43.032  27.963  26.255  1.00  0.00     0.058 A 
ATOM     84  C   UNL A   1      41.943  27.068  26.044  1.00  0.00     0.135 A 
ATOM     85  C   UNL A   1      42.825  28.944  27.244  1.00  0.00     0.135 A 
ATOM     86  F   UNL A   1      42.063  26.085  25.135  1.00  0.00    -0.206 F 
ATOM     87  C   UNL A   1      40.843  26.992  26.906  1.00  0.00     0.059 A 
ATOM     88  C   UNL A   1      41.720  28.883  28.122  1.00  0.00     0.059 A 
ATOM     89  F   UNL A   1      43.798  29.823  27.526  1.00  0.00    -0.206 F 
ATOM     90  C   UNL A   1      40.771  27.865  27.986  1.00  0.00     0.060 A 
BRANCH  90  91
ATOM     91  S   UNL A   1      39.564  27.493  29.297  1.00  0.00     0.124 S 
ATOM     92  O   UNL A   1      39.257  26.092  29.049  1.00  0.00    -0.237 OA
ATOM     93  O   UNL A   1      40.327  27.776  30.513  1.00  0.00    -0.237 OA
ATOM     94  O   UNL A   1      38.482  28.428  29.032  1.00  0.00    -0.744 OA
ENDBRANCH  90  91
ENDBRANCH  58  83
BRANCH  70  95
ATOM     95  C   UNL A   1      50.458  28.181  25.695  1.00  0.00     0.058 A 
ATOM     96  C   UNL A   1      50.833  29.434  26.198  1.00  0.00     0.135 A 
ATOM     97  C   UNL A   1      51.397  27.560  24.825  1.00  0.00     0.135 A 
ATOM     98  F   UNL A   1      50.107  30.073  27.127  1.00  0.00    -0.206 F 
ATOM     99  C   UNL A   1      51.993  30.071  25.796  1.00  0.00     0.059 A 
ATOM    100  C   UNL A   1      52.603  28.147  24.476  1.00  0.00     0.059 A 
ATOM    101  F   UNL A   1      51.197  26.345  24.293  1.00  0.00    -0.206 F 
ATOM    102  C   UNL A   1      52.867  29.425  24.932  1.00  0.00     0.060 A 
BRANCH 102 103
ATOM    103  S   UNL A   1      54.343  30.289  24.404  1.00  0.00     0.124 S 
ATOM    104  O   UNL A   1      54.023  30.555  23.005  1.00  0.00    -0.237 OA
ATOM    105  O   UNL A   1      54.353  31.453  25.284  1.00  0.00    -0.237 OA
ATOM    106  O   UNL A   1      55.410  29.322  24.638  1.00  0.00    -0.744 OA
ENDBRANCH 102 103
ENDBRANCH  70  95
ENDBRANCH  44  45
ENDBRANCH  37  39
ENDBRANCH  36  37
ENDBRANCH  35  36
ENDBRANCH  34  35
ENDBRANCH  33  34
ENDBRANCH  32  33
ENDBRANCH  31  32
ENDBRANCH  30  31
ENDBRANCH   1  30
TORSDOF 27
ENDMDL
MODEL 2
REMARK VINA RESULT:      -8.1      5.851     14.966
REMARK SMILES Cc1cc(C(=O)OCCOCCOCCOCCOC(=O)c2ccc(-c3c4nc(c(-c5c(F)cc(S(=O)(=O)[O-])cc5F)c5ccc([nH]5)c(-c5c(F)cc(S(=O)(=O)[O-])cc5F)c5nc(c(-c6c(F)cc(S(=O)(=O)[O-])cc6F)c6ccc3[nH]6)C=C5)C=C4)cc2)ccc1NS(=O)(=O)c1ccc(C#N)cc1C
REMARK SMILES IDX 12 1 11 2 10 3 9 4 8 5 7 6 5 7 6 8 4 9 1 10 2 11 3 12 90 13
REMARK SMILES IDX 89 14 88 15 91 16 92 18 93 19 94 20 95 21 96 22 102 23 97 24
REMARK SMILES IDX 101 25 103 26 98 27 99 28 100 29 13 30 14 31 15 32 16 33
REMARK SMILES IDX 17 34 18 35 19 36 20 37 21 38 22 39 23 40 87 41 24 42 86 43
REMARK SMILES IDX 25 44 26 45 27 46 80 47 28 48 85 49 79 50 81 51 29 52 84 53
REMARK SMILES IDX 78 54 77 55 30 57 64 58 43 59 63 60 44 61 47 62 62 63 82 64
REMARK SMILES IDX 45 65 46 66 61 68 83 69 48 70 31 71 32 72 41 73 33 74 34 75
REMARK SMILES IDX 40 76 42 77 35 78 36 79 37 80 38 81 39 82 65 83 66 84 75 85
REMARK SMILES IDX 67 86 68 87 74 88 76 89 69 90 70 91 71 92 72 93 73 94 49 95
REMARK SMILES IDX 50 96 59 97 51 98 52 99 58 100 60 101 53 102 54 103 55 104
REMARK SMILES IDX 56 105 57 106
REMARK H PARENT 91 17 81 56 47 67
REMARK Flexibility Score: inf
ROOT
ATOM      1  C   UNL A   1      50.863  25.141  31.206  1.00  0.00     0.188 C 
ENDROOT
BRANCH   1   2
ATOM      2  C   UNL A   1      50.815  24.011  32.252  1.00  0.00     0.188 C 
BRANCH   2   3
ATOM      3  O   UNL A   1      51.976  23.491  32.872  1.00  0.00    -0.376 OA
BRANCH   3   4
ATOM      4  C   UNL A   1      52.147  22.089  32.745  1.00  0.00     0.202 C 
BRANCH   4   5
ATOM      5  C   UNL A   1      52.431  21.238  33.963  1.00  0.00     0.261 C 
BRANCH   5   6
ATOM      6  O   UNL A   1      51.441  21.415  34.944  1.00  0.00    -0.460 OA
BRANCH   6   7
ATOM      7  C   UNL A   1      51.925  21.837  36.113  1.00  0.00     0.338 C 
ATOM      8  O   UNL A   1      52.892  22.544  36.327  1.00  0.00    -0.246 OA
BRANCH   7   9
ATOM      9  C   UNL A   1      50.828  21.620  37.061  1.00  0.00     0.060 A 
ATOM     10  C   UNL A   1      50.298  18.819  39.450  1.00  0.00     0.046 C 
ATOM     11  C   UNL A   1      49.982  20.097  38.731  1.00  0.00    -0.026 A 
ATOM     12  C   UNL A   1      50.812  20.362  37.641  1.00  0.00     0.021 A 
ATOM     13  C   UNL A   1      49.135  21.118  39.189  1.00  0.00     0.052 A 
ATOM     14  C   UNL A   1      49.399  22.417  38.806  1.00  0.00     0.028 A 
ATOM     15  C   UNL A   1      50.139  22.673  37.667  1.00  0.00     0.018 A 
BRANCH  13  16
ATOM     16  N   UNL A   1      48.077  20.927  40.120  1.00  0.00    -0.279 N 
ATOM     17  H   UNL A   1      48.278  20.893  41.084  1.00  0.00     0.180 HD
BRANCH  16  18
ATOM     18  S   UNL A   1      46.447  20.754  39.584  1.00  0.00     0.262 S 
ATOM     19  O   UNL A   1      46.174  19.344  39.417  1.00  0.00    -0.201 OA
ATOM     20  O   UNL A   1      45.755  21.503  40.620  1.00  0.00    -0.201 OA
BRANCH  18  21
ATOM     21  C   UNL A   1      46.035  21.560  38.008  1.00  0.00     0.090 A 
ATOM     22  C   UNL A   1      45.899  20.829  36.821  1.00  0.00     0.024 A 
ATOM     23  C   UNL A   1      45.696  22.926  37.938  1.00  0.00    -0.029 A 
ATOM     24  C   UNL A   1      45.792  21.442  35.560  1.00  0.00     0.021 A 
ATOM     25  C   UNL A   1      45.528  23.541  36.669  1.00  0.00     0.024 A 
ATOM     26  C   UNL A   1      45.293  23.775  39.113  1.00  0.00     0.046 C 
ATOM     27  C   UNL A   1      45.628  22.817  35.478  1.00  0.00     0.052 A 
BRANCH  27  28
ATOM     28  C   UNL A   1      45.439  23.473  34.226  1.00  0.00     0.099 C 
ATOM     29  N   UNL A   1      45.245  24.068  33.231  1.00  0.00    -0.192 NA
ENDBRANCH  27  28
ENDBRANCH  18  21
ENDBRANCH  16  18
ENDBRANCH  13  16
ENDBRANCH   7   9
ENDBRANCH   6   7
ENDBRANCH   5   6
ENDBRANCH   4   5
ENDBRANCH   3   4
ENDBRANCH   2   3
ENDBRANCH   1   2
BRANCH   1  30
ATOM     30  O   UNL A   1      49.821  25.246  30.250  1.00  0.00    -0.377 OA
BRANCH  30  31
ATOM     31  C   UNL A   1      50.193  25.589  28.914  1.00  0.00     0.188 C 
BRANCH  31  32
ATOM     32  C   UNL A   1      49.570  24.874  27.744  1.00  0.00     0.188 C 
BRANCH  32  33
ATOM     33  O   UNL A   1      50.007  25.591  26.592  1.00  0.00    -0.376 OA
BRANCH  33  34
ATOM     34  C   UNL A   1      50.721  26.781  26.826  1.00  0.00     0.202 C 
BRANCH  34  35
ATOM     35  C   UNL A   1      50.148  27.979  26.084  1.00  0.00     0.261 C 
BRANCH  35  36
ATOM     36  O   UNL A   1      49.296  27.629  24.945  1.00  0.00    -0.460 OA
BRANCH  36  37
ATOM     37  C   UNL A   1      47.938  27.424  24.944  1.00  0.00     0.338 C 
ATOM     38  O   UNL A   1      47.428  26.578  24.218  1.00  0.00    -0.246 OA
BRANCH  37  39
ATOM     39  C   UNL A   1      47.157  27.979  26.089  1.00  0.00     0.060 A 
ATOM     40  C   UNL A   1      46.921  27.286  27.290  1.00  0.00     0.016 A 
ATOM     41  C   UNL A   1      46.675  29.259  26.009  1.00  0.00     0.016 A 
ATOM     42  C   UNL A   1      45.955  27.729  28.236  1.00  0.00     0.010 A 
ATOM     43  C   UNL A   1      45.712  29.668  26.919  1.00  0.00     0.010 A 
ATOM     44  C   UNL A   1      45.245  28.893  27.998  1.00  0.00    -0.014 A 
BRANCH  44  45
ATOM     45  C   UNL A   1      44.030  29.409  28.725  1.00  0.00     0.031 A 
ATOM     46  C   UNL A   1      44.230  30.667  29.566  1.00  0.00     0.074 A 
ATOM     47  C   UNL A   1      42.780  29.009  28.316  1.00  0.00     0.049 A 
ATOM     48  N   UNL A   1      43.308  31.380  30.117  1.00  0.00    -0.248 NA
ATOM     49  C   UNL A   1      45.542  31.293  29.789  1.00  0.00     0.031 C 
ATOM     50  C   UNL A   1      41.507  29.753  28.347  1.00  0.00     0.029 A 
ATOM     51  N   UNL A   1      42.362  27.839  27.690  1.00  0.00    -0.354 N 
ATOM     52  C   UNL A   1      43.798  32.672  30.349  1.00  0.00     0.074 A 
ATOM     53  C   UNL A   1      45.222  32.527  30.206  1.00  0.00     0.031 C 
ATOM     54  C   UNL A   1      40.482  29.041  27.840  1.00  0.00     0.029 A 
ATOM     55  C   UNL A   1      40.967  27.692  27.747  1.00  0.00     0.049 A 
ATOM     56  H   UNL A   1      42.970  27.194  27.260  1.00  0.00     0.167 HD
ATOM     57  C   UNL A   1      42.912  33.720  30.486  1.00  0.00     0.037 A 
ATOM     58  C   UNL A   1      40.467  26.673  28.509  1.00  0.00     0.037 A 
ATOM     59  C   UNL A   1      41.525  33.197  30.490  1.00  0.00     0.049 A 
ATOM     60  C   UNL A   1      39.953  27.310  29.815  1.00  0.00     0.074 A 
ATOM     61  C   UNL A   1      40.369  33.473  29.784  1.00  0.00     0.029 A 
ATOM     62  N   UNL A   1      41.234  32.055  31.236  1.00  0.00    -0.354 N 
ATOM     63  N   UNL A   1      40.492  28.376  30.381  1.00  0.00    -0.248 NA
ATOM     64  C   UNL A   1      38.601  27.052  30.325  1.00  0.00     0.031 C 
ATOM     65  C   UNL A   1      39.481  32.360  29.944  1.00  0.00     0.029 A 
ATOM     66  C   UNL A   1      40.058  31.453  30.830  1.00  0.00     0.049 A 
ATOM     67  H   UNL A   1      41.800  31.715  31.966  1.00  0.00     0.167 HD
ATOM     68  C   UNL A   1      39.535  29.034  31.121  1.00  0.00     0.074 A 
ATOM     69  C   UNL A   1      38.390  28.131  31.103  1.00  0.00     0.031 C 
ATOM     70  C   UNL A   1      39.540  30.326  31.589  1.00  0.00     0.037 A 
BRANCH  57  71
ATOM     71  C   UNL A   1      43.187  35.254  30.441  1.00  0.00     0.058 A 
ATOM     72  C   UNL A   1      42.961  35.979  29.238  1.00  0.00     0.135 A 
ATOM     73  C   UNL A   1      43.724  36.061  31.472  1.00  0.00     0.135 A 
ATOM     74  F   UNL A   1      42.405  35.392  28.169  1.00  0.00    -0.206 F 
ATOM     75  C   UNL A   1      43.265  37.341  29.060  1.00  0.00     0.059 A 
ATOM     76  C   UNL A   1      43.991  37.447  31.333  1.00  0.00     0.059 A 
ATOM     77  F   UNL A   1      44.035  35.547  32.669  1.00  0.00    -0.206 F 
ATOM     78  C   UNL A   1      43.770  38.079  30.115  1.00  0.00     0.060 A 
BRANCH  78  79
ATOM     79  S   UNL A   1      44.053  39.855  29.874  1.00  0.00     0.124 S 
ATOM     80  O   UNL A   1      45.160  40.124  30.787  1.00  0.00    -0.237 OA
ATOM     81  O   UNL A   1      44.377  39.931  28.452  1.00  0.00    -0.237 OA
ATOM     82  O   UNL A   1      42.778  40.461  30.249  1.00  0.00    -0.744 OA
ENDBRANCH  78  79
ENDBRANCH  57  71
BRANCH  58  83
ATOM     83  C   UNL A   1      41.220  25.414  28.123  1.00  0.00     0.058 A 
ATOM     84  C   UNL A   1      41.009  25.022  26.768  1.00  0.00     0.135 A 
ATOM     85  C   UNL A   1      42.495  25.121  28.645  1.00  0.00     0.135 A 
ATOM     86  F   UNL A   1      39.829  25.284  26.183  1.00  0.00    -0.206 F 
ATOM     87  C   UNL A   1      42.047  24.603  25.927  1.00  0.00     0.059 A 
ATOM     88  C   UNL A   1      43.554  24.697  27.809  1.00  0.00     0.059 A 
ATOM     89  F   UNL A   1      42.795  25.466  29.905  1.00  0.00    -0.206 F 
ATOM     90  C   UNL A   1      43.334  24.505  26.441  1.00  0.00     0.060 A 
BRANCH  90  91
ATOM     91  S   UNL A   1      44.710  24.352  25.259  1.00  0.00     0.124 S 
ATOM     92  O   UNL A   1      44.279  23.241  24.423  1.00  0.00    -0.237 OA
ATOM     93  O   UNL A   1      44.722  25.668  24.621  1.00  0.00    -0.237 OA
ATOM     94  O   UNL A   1      45.857  24.084  26.112  1.00  0.00    -0.744 OA
ENDBRANCH  90  91
ENDBRANCH  58  83
BRANCH  70  95
ATOM     95  C   UNL A   1      39.068  30.622  32.996  1.00  0.00     0.058 A 
ATOM     96  C   UNL A   1      39.823  30.272  34.123  1.00  0.00     0.135 A 
ATOM     97  C   UNL A   1      37.946  31.462  33.242  1.00  0.00     0.135 A 
ATOM     98  F   UNL A   1      40.977  29.595  34.023  1.00  0.00    -0.206 F 
ATOM     99  C   UNL A   1      39.446  30.635  35.404  1.00  0.00     0.059 A 
ATOM    100  C   UNL A   1      37.601  31.904  34.509  1.00  0.00     0.059 A 
ATOM    101  F   UNL A   1      37.149  31.911  32.261  1.00  0.00    -0.206 F 
ATOM    102  C   UNL A   1      38.332  31.444  35.587  1.00  0.00     0.060 A 
BRANCH 102 103
ATOM    103  S   UNL A   1      37.850  31.868  37.258  1.00  0.00     0.124 S 
ATOM    104  O   UNL A   1      39.110  32.380  37.788  1.00  0.00    -0.237 OA
ATOM    105  O   UNL A   1      36.806  32.863  37.037  1.00  0.00    -0.237 OA
ATOM    106  O   UNL A   1      37.395  30.600  37.817  1.00  0.00    -0.744 OA
ENDBRANCH 102 103
ENDBRANCH  70  95
ENDBRANCH  44  45
ENDBRANCH  37  39
ENDBRANCH  36  37
ENDBRANCH  35  36
ENDBRANCH  34  35
ENDBRANCH  33  34
ENDBRANCH  32  33
ENDBRANCH  31  32
ENDBRANCH  30  31
ENDBRANCH   1  30
TORSDOF 27
ENDMDL
MODEL 3
REMARK VINA RESULT:      -8.1      5.421     12.634
REMARK SMILES Cc1cc(C(=O)OCCOCCOCCOCCOC(=O)c2ccc(-c3c4nc(c(-c5c(F)cc(S(=O)(=O)[O-])cc5F)c5ccc([nH]5)c(-c5c(F)cc(S(=O)(=O)[O-])cc5F)c5nc(c(-c6c(F)cc(S(=O)(=O)[O-])cc6F)c6ccc3[nH]6)C=C5)C=C4)cc2)ccc1NS(=O)(=O)c1ccc(C#N)cc1C
REMARK SMILES IDX 12 1 11 2 10 3 9 4 8 5 7 6 5 7 6 8 4 9 1 10 2 11 3 12 90 13
REMARK SMILES IDX 89 14 88 15 91 16 92 18 93 19 94 20 95 21 96 22 102 23 97 24
REMARK SMILES IDX 101 25 103 26 98 27 99 28 100 29 13 30 14 31 15 32 16 33
REMARK SMILES IDX 17 34 18 35 19 36 20 37 21 38 22 39 23 40 87 41 24 42 86 43
REMARK SMILES IDX 25 44 26 45 27 46 80 47 28 48 85 49 79 50 81 51 29 52 84 53
REMARK SMILES IDX 78 54 77 55 30 57 64 58 43 59 63 60 44 61 47 62 62 63 82 64
REMARK SMILES IDX 45 65 46 66 61 68 83 69 48 70 31 71 32 72 41 73 33 74 34 75
REMARK SMILES IDX 40 76 42 77 35 78 36 79 37 80 38 81 39 82 65 83 66 84 75 85
REMARK SMILES IDX 67 86 68 87 74 88 76 89 69 90 70 91 71 92 72 93 73 94 49 95
REMARK SMILES IDX 50 96 59 97 51 98 52 99 58 100 60 101 53 102 54 103 55 104
REMARK SMILES IDX 56 105 57 106
REMARK H PARENT 91 17 81 56 47 67
REMARK Flexibility Score: inf
ROOT
ATOM      1  C   UNL A   1      49.445  28.250  32.643  1.00  0.00     0.188 C 
ENDROOT
BRANCH   1   2
ATOM      2  C   UNL A   1      49.576  28.281  31.109  1.00  0.00     0.188 C 
BRANCH   2   3
ATOM      3  O   UNL A   1      49.349  27.145  30.297  1.00  0.00    -0.376 OA
BRANCH   3   4
ATOM      4  C   UNL A   1      48.224  27.236  29.438  1.00  0.00     0.202 C 
BRANCH   4   5
ATOM      5  C   UNL A   1      48.237  28.178  28.254  1.00  0.00     0.261 C 
BRANCH   5   6
ATOM      6  O   UNL A   1      47.416  29.293  28.488  1.00  0.00    -0.460 OA
BRANCH   6   7
ATOM      7  C   UNL A   1      46.693  29.649  27.425  1.00  0.00     0.338 C 
ATOM      8  O   UNL A   1      46.274  28.952  26.520  1.00  0.00    -0.246 OA
BRANCH   7   9
ATOM      9  C   UNL A   1      46.157  30.968  27.774  1.00  0.00     0.060 A 
ATOM     10  C   UNL A   1      46.847  34.277  26.222  1.00  0.00     0.046 C 
ATOM     11  C   UNL A   1      46.240  33.309  27.195  1.00  0.00    -0.026 A 
ATOM     12  C   UNL A   1      46.792  32.029  27.149  1.00  0.00     0.021 A 
ATOM     13  C   UNL A   1      45.057  33.501  27.926  1.00  0.00     0.052 A 
ATOM     14  C   UNL A   1      44.301  32.396  28.259  1.00  0.00     0.028 A 
ATOM     15  C   UNL A   1      44.879  31.142  28.310  1.00  0.00     0.018 A 
BRANCH  13  16
ATOM     16  N   UNL A   1      44.515  34.773  28.259  1.00  0.00    -0.279 N 
ATOM     17  H   UNL A   1      44.853  35.253  29.050  1.00  0.00     0.180 HD
BRANCH  16  18
ATOM     18  S   UNL A   1      43.273  35.485  27.297  1.00  0.00     0.262 S 
ATOM     19  O   UNL A   1      43.295  34.857  25.994  1.00  0.00    -0.201 OA
ATOM     20  O   UNL A   1      42.129  35.290  28.170  1.00  0.00    -0.201 OA
BRANCH  18  21
ATOM     21  C   UNL A   1      43.407  37.276  27.019  1.00  0.00     0.090 A 
ATOM     22  C   UNL A   1      42.282  38.110  27.041  1.00  0.00     0.024 A 
ATOM     23  C   UNL A   1      44.655  37.921  26.912  1.00  0.00    -0.029 A 
ATOM     24  C   UNL A   1      42.324  39.453  26.624  1.00  0.00     0.021 A 
ATOM     25  C   UNL A   1      44.706  39.293  26.550  1.00  0.00     0.024 A 
ATOM     26  C   UNL A   1      45.969  37.331  27.348  1.00  0.00     0.046 C 
ATOM     27  C   UNL A   1      43.547  40.047  26.351  1.00  0.00     0.052 A 
BRANCH  27  28
ATOM     28  C   UNL A   1      43.644  41.426  25.999  1.00  0.00     0.099 C 
ATOM     29  N   UNL A   1      43.768  42.572  25.770  1.00  0.00    -0.192 NA
ENDBRANCH  27  28
ENDBRANCH  18  21
ENDBRANCH  16  18
ENDBRANCH  13  16
ENDBRANCH   7   9
ENDBRANCH   6   7
ENDBRANCH   5   6
ENDBRANCH   4   5
ENDBRANCH   3   4
ENDBRANCH   2   3
ENDBRANCH   1   2
BRANCH   1  30
ATOM     30  O   UNL A   1      50.317  27.425  33.397  1.00  0.00    -0.377 OA
BRANCH  30  31
ATOM     31  C   UNL A   1      50.212  26.014  33.202  1.00  0.00     0.188 C 
BRANCH  31  32
ATOM     32  C   UNL A   1      51.453  25.173  33.047  1.00  0.00     0.188 C 
BRANCH  32  33
ATOM     33  O   UNL A   1      51.074  23.866  33.471  1.00  0.00    -0.376 OA
BRANCH  33  34
ATOM     34  C   UNL A   1      49.700  23.648  33.685  1.00  0.00     0.202 C 
BRANCH  34  35
ATOM     35  C   UNL A   1      49.403  22.323  34.371  1.00  0.00     0.261 C 
BRANCH  35  36
ATOM     36  O   UNL A   1      48.149  22.308  35.129  1.00  0.00    -0.460 OA
BRANCH  36  37
ATOM     37  C   UNL A   1      46.906  21.926  34.688  1.00  0.00     0.338 C 
ATOM     38  O   UNL A   1      46.558  20.751  34.721  1.00  0.00    -0.246 OA
BRANCH  37  39
ATOM     39  C   UNL A   1      45.875  22.994  34.522  1.00  0.00     0.060 A 
ATOM     40  C   UNL A   1      44.561  22.756  34.081  1.00  0.00     0.016 A 
ATOM     41  C   UNL A   1      46.189  24.283  34.865  1.00  0.00     0.016 A 
ATOM     42  C   UNL A   1      43.701  23.816  33.677  1.00  0.00     0.010 A 
ATOM     43  C   UNL A   1      45.359  25.308  34.440  1.00  0.00     0.010 A 
ATOM     44  C   UNL A   1      44.145  25.125  33.749  1.00  0.00    -0.014 A 
BRANCH  44  45
ATOM     45  C   UNL A   1      43.511  26.358  33.159  1.00  0.00     0.031 A 
ATOM     46  C   UNL A   1      42.624  27.174  34.095  1.00  0.00     0.074 A 
ATOM     47  C   UNL A   1      44.035  26.901  32.010  1.00  0.00     0.049 A 
ATOM     48  N   UNL A   1      42.135  28.345  33.866  1.00  0.00    -0.248 NA
ATOM     49  C   UNL A   1      42.274  26.747  35.458  1.00  0.00     0.031 C 
ATOM     50  C   UNL A   1      44.092  28.313  31.589  1.00  0.00     0.029 A 
ATOM     51  N   UNL A   1      44.724  26.306  30.958  1.00  0.00    -0.354 N 
ATOM     52  C   UNL A   1      41.828  28.965  35.086  1.00  0.00     0.074 A 
ATOM     53  C   UNL A   1      41.854  27.884  36.034  1.00  0.00     0.031 C 
ATOM     54  C   UNL A   1      44.703  28.471  30.398  1.00  0.00     0.029 A 
ATOM     55  C   UNL A   1      44.790  27.150  29.839  1.00  0.00     0.049 A 
ATOM     56  H   UNL A   1      45.118  25.404  30.995  1.00  0.00     0.167 HD
ATOM     57  C   UNL A   1      41.740  30.340  35.144  1.00  0.00     0.037 A 
ATOM     58  C   UNL A   1      44.099  26.776  28.720  1.00  0.00     0.037 A 
ATOM     59  C   UNL A   1      41.867  30.903  33.779  1.00  0.00     0.049 A 
ATOM     60  C   UNL A   1      42.825  27.643  28.676  1.00  0.00     0.074 A 
ATOM     61  C   UNL A   1      42.661  31.864  33.182  1.00  0.00     0.029 A 
ATOM     62  N   UNL A   1      41.179  30.295  32.729  1.00  0.00    -0.354 N 
ATOM     63  N   UNL A   1      42.188  28.078  29.750  1.00  0.00    -0.248 NA
ATOM     64  C   UNL A   1      42.439  28.395  27.477  1.00  0.00     0.031 C 
ATOM     65  C   UNL A   1      42.606  31.662  31.766  1.00  0.00     0.029 A 
ATOM     66  C   UNL A   1      41.698  30.640  31.496  1.00  0.00     0.049 A 
ATOM     67  H   UNL A   1      40.412  29.690  32.851  1.00  0.00     0.167 HD
ATOM     68  C   UNL A   1      41.515  29.239  29.444  1.00  0.00     0.074 A 
ATOM     69  C   UNL A   1      41.654  29.358  27.997  1.00  0.00     0.031 C 
ATOM     70  C   UNL A   1      41.015  30.198  30.291  1.00  0.00     0.037 A 
BRANCH  57  71
ATOM     71  C   UNL A   1      41.722  31.273  36.394  1.00  0.00     0.058 A 
ATOM     72  C   UNL A   1      42.786  31.215  37.336  1.00  0.00     0.135 A 
ATOM     73  C   UNL A   1      40.700  32.175  36.778  1.00  0.00     0.135 A 
ATOM     74  F   UNL A   1      43.867  30.455  37.115  1.00  0.00    -0.206 F 
ATOM     75  C   UNL A   1      42.822  31.940  38.541  1.00  0.00     0.059 A 
ATOM     76  C   UNL A   1      40.739  32.954  37.962  1.00  0.00     0.059 A 
ATOM     77  F   UNL A   1      39.600  32.340  36.033  1.00  0.00    -0.206 F 
ATOM     78  C   UNL A   1      41.801  32.821  38.848  1.00  0.00     0.060 A 
BRANCH  78  79
ATOM     79  S   UNL A   1      41.936  33.812  40.362  1.00  0.00     0.124 S 
ATOM     80  O   UNL A   1      41.998  32.789  41.403  1.00  0.00    -0.237 OA
ATOM     81  O   UNL A   1      43.171  34.558  40.139  1.00  0.00    -0.237 OA
ATOM     82  O   UNL A   1      40.719  34.618  40.356  1.00  0.00    -0.744 OA
ENDBRANCH  78  79
ENDBRANCH  57  71
BRANCH  58  83
ATOM     83  C   UNL A   1      44.453  25.327  28.440  1.00  0.00     0.058 A 
ATOM     84  C   UNL A   1      43.362  24.431  28.635  1.00  0.00     0.135 A 
ATOM     85  C   UNL A   1      45.357  24.967  27.422  1.00  0.00     0.135 A 
ATOM     86  F   UNL A   1      42.439  24.710  29.571  1.00  0.00    -0.206 F 
ATOM     87  C   UNL A   1      43.054  23.401  27.739  1.00  0.00     0.059 A 
ATOM     88  C   UNL A   1      45.061  23.929  26.508  1.00  0.00     0.059 A 
ATOM     89  F   UNL A   1      46.407  25.755  27.152  1.00  0.00    -0.206 F 
ATOM     90  C   UNL A   1      43.876  23.197  26.637  1.00  0.00     0.060 A 
BRANCH  90  91
ATOM     91  S   UNL A   1      43.249  22.139  25.295  1.00  0.00     0.124 S 
ATOM     92  O   UNL A   1      41.816  22.127  25.553  1.00  0.00    -0.237 OA
ATOM     93  O   UNL A   1      43.679  22.864  24.099  1.00  0.00    -0.237 OA
ATOM     94  O   UNL A   1      43.935  20.877  25.515  1.00  0.00    -0.744 OA
ENDBRANCH  90  91
ENDBRANCH  58  83
BRANCH  70  95
ATOM     95  C   UNL A   1      39.647  30.791  30.037  1.00  0.00     0.058 A 
ATOM     96  C   UNL A   1      39.464  32.159  29.791  1.00  0.00     0.135 A 
ATOM     97  C   UNL A   1      38.508  29.968  29.817  1.00  0.00     0.135 A 
ATOM     98  F   UNL A   1      40.482  33.031  29.832  1.00  0.00    -0.206 F 
ATOM     99  C   UNL A   1      38.230  32.688  29.454  1.00  0.00     0.059 A 
ATOM    100  C   UNL A   1      37.286  30.470  29.399  1.00  0.00     0.059 A 
ATOM    101  F   UNL A   1      38.536  28.637  29.974  1.00  0.00    -0.206 F 
ATOM    102  C   UNL A   1      37.148  31.838  29.267  1.00  0.00     0.060 A 
BRANCH 102 103
ATOM    103  S   UNL A   1      35.558  32.556  28.865  1.00  0.00     0.124 S 
ATOM    104  O   UNL A   1      34.718  31.970  29.905  1.00  0.00    -0.237 OA
ATOM    105  O   UNL A   1      35.821  33.986  28.994  1.00  0.00    -0.237 OA
ATOM    106  O   UNL A   1      35.304  32.088  27.507  1.00  0.00    -0.744 OA
ENDBRANCH 102 103
ENDBRANCH  70  95
ENDBRANCH  44  45
ENDBRANCH  37  39
ENDBRANCH  36  37
ENDBRANCH  35  36
ENDBRANCH  34  35
ENDBRANCH  33  34
ENDBRANCH  32  33
ENDBRANCH  31  32
ENDBRANCH  30  31
ENDBRANCH   1  30
TORSDOF 27
ENDMDL
