MODEL 1
REMARK VINA RESULT:      -9.6      0.000      0.000
REMARK SMILES O=C(OCCOCCOCCOCCOC(=O)[C@H](C[NH+]1CCCC1)c1ccc(Br)cc1)c1ccc(-c2c3nc(c(-c4c(F)cc(S(=O)(=O)[O-])cc4F)c4ccc([nH]4)c(-c4c(F)cc(S(=O)(=O)[O-])cc4F)c4nc(c(-c5c(F)cc(S(=O)(=O)[O-])cc5F)c5ccc2[nH]5)C=C4)C=C3)cc1
REMARK SMILES IDX 8 1 7 2 6 3 5 4 4 5 3 6 2 7 1 8 32 9 33 10 97 11 34 12 96 13
REMARK SMILES IDX 35 14 36 15 37 16 90 17 38 18 95 19 89 20 91 21 39 22 94 23
REMARK SMILES IDX 88 24 87 25 40 27 74 28 53 29 73 30 54 31 57 32 72 33 92 34
REMARK SMILES IDX 55 35 56 36 71 38 93 39 58 40 41 41 42 42 51 43 43 44 44 45
REMARK SMILES IDX 50 46 52 47 45 48 46 49 47 50 48 51 49 52 75 53 76 54 85 55
REMARK SMILES IDX 77 56 78 57 84 58 86 59 79 60 80 61 81 62 82 63 83 64 59 65
REMARK SMILES IDX 60 66 69 67 61 68 62 69 68 70 70 71 63 72 64 73 65 74 66 75
REMARK SMILES IDX 67 76 9 77 10 78 11 79 12 80 13 81 14 82 15 83 16 84 17 85
REMARK SMILES IDX 18 86 25 87 26 88 31 89 27 90 30 91 28 92 29 93 19 94 20 95
REMARK SMILES IDX 21 96 24 97 22 99 23 100
REMARK H PARENT 91 26 57 37 20 98
REMARK Flexibility Score: inf
ROOT
ATOM      1  C   UNL A   1      33.320  35.332  29.296  1.00  0.00     0.188 C 
ENDROOT
BRANCH   1   2
ATOM      2  C   UNL A   1      33.262  35.452  30.820  1.00  0.00     0.188 C 
BRANCH   2   3
ATOM      3  O   UNL A   1      33.780  34.291  31.468  1.00  0.00    -0.376 OA
BRANCH   3   4
ATOM      4  C   UNL A   1      35.193  34.087  31.424  1.00  0.00     0.202 C 
BRANCH   4   5
ATOM      5  C   UNL A   1      35.670  32.778  32.038  1.00  0.00     0.261 C 
BRANCH   5   6
ATOM      6  O   UNL A   1      36.723  32.158  31.296  1.00  0.00    -0.460 OA
BRANCH   6   7
ATOM      7  C   UNL A   1      37.023  30.840  31.200  1.00  0.00     0.338 C 
ATOM      8  O   UNL A   1      36.181  30.041  31.615  1.00  0.00    -0.246 OA
BRANCH   7   9
ATOM      9  C   UNL A   1      38.305  30.273  30.663  1.00  0.00     0.060 A 
ATOM     10  C   UNL A   1      39.378  29.777  31.410  1.00  0.00     0.016 A 
ATOM     11  C   UNL A   1      38.394  30.179  29.263  1.00  0.00     0.016 A 
ATOM     12  C   UNL A   1      40.495  29.213  30.813  1.00  0.00     0.010 A 
ATOM     13  C   UNL A   1      39.527  29.650  28.645  1.00  0.00     0.010 A 
ATOM     14  C   UNL A   1      40.590  29.195  29.430  1.00  0.00    -0.014 A 
BRANCH  14  15
ATOM     15  C   UNL A   1      41.921  28.975  28.856  1.00  0.00     0.031 A 
ATOM     16  C   UNL A   1      42.193  27.609  28.306  1.00  0.00     0.074 A 
ATOM     17  C   UNL A   1      42.780  29.995  28.717  1.00  0.00     0.049 A 
ATOM     18  N   UNL A   1      43.307  27.094  27.875  1.00  0.00    -0.248 NA
ATOM     19  C   UNL A   1      41.034  26.698  28.228  1.00  0.00     0.031 C 
ATOM     20  C   UNL A   1      42.499  31.388  29.072  1.00  0.00     0.029 A 
ATOM     21  N   UNL A   1      44.060  30.019  28.237  1.00  0.00    -0.354 N 
ATOM     22  C   UNL A   1      42.997  25.784  27.528  1.00  0.00     0.074 A 
ATOM     23  C   UNL A   1      41.591  25.585  27.785  1.00  0.00     0.031 C 
ATOM     24  C   UNL A   1      43.592  32.128  28.823  1.00  0.00     0.029 A 
ATOM     25  C   UNL A   1      44.663  31.245  28.371  1.00  0.00     0.049 A 
ATOM     26  H   UNL A   1      44.504  29.236  27.837  1.00  0.00     0.167 HD
ATOM     27  C   UNL A   1      43.836  24.835  27.061  1.00  0.00     0.037 A 
ATOM     28  C   UNL A   1      45.957  31.580  28.215  1.00  0.00     0.037 A 
ATOM     29  C   UNL A   1      45.230  25.097  26.836  1.00  0.00     0.049 A 
ATOM     30  C   UNL A   1      46.906  30.490  27.794  1.00  0.00     0.074 A 
ATOM     31  C   UNL A   1      46.222  24.232  26.424  1.00  0.00     0.029 A 
ATOM     32  N   UNL A   1      45.827  26.342  27.024  1.00  0.00    -0.354 N 
ATOM     33  N   UNL A   1      46.641  29.226  27.540  1.00  0.00    -0.248 NA
ATOM     34  C   UNL A   1      48.318  30.851  27.649  1.00  0.00     0.031 C 
ATOM     35  C   UNL A   1      47.430  24.940  26.420  1.00  0.00     0.029 A 
ATOM     36  C   UNL A   1      47.179  26.264  26.761  1.00  0.00     0.049 A 
ATOM     37  H   UNL A   1      45.353  27.158  27.304  1.00  0.00     0.167 HD
ATOM     38  C   UNL A   1      47.850  28.642  27.186  1.00  0.00     0.074 A 
ATOM     39  C   UNL A   1      48.847  29.697  27.256  1.00  0.00     0.031 C 
ATOM     40  C   UNL A   1      48.120  27.361  26.835  1.00  0.00     0.037 A 
BRANCH  27  41
ATOM     41  C   UNL A   1      43.278  23.449  26.898  1.00  0.00     0.058 A 
ATOM     42  C   UNL A   1      43.084  22.578  27.984  1.00  0.00     0.135 A 
ATOM     43  C   UNL A   1      43.021  22.949  25.611  1.00  0.00     0.135 A 
ATOM     44  F   UNL A   1      43.349  22.988  29.235  1.00  0.00    -0.206 F 
ATOM     45  C   UNL A   1      42.706  21.251  27.796  1.00  0.00     0.059 A 
ATOM     46  C   UNL A   1      42.612  21.635  25.401  1.00  0.00     0.059 A 
ATOM     47  F   UNL A   1      43.204  23.729  24.534  1.00  0.00    -0.206 F 
ATOM     48  C   UNL A   1      42.483  20.786  26.497  1.00  0.00     0.060 A 
BRANCH  48  49
ATOM     49  S   UNL A   1      42.048  19.049  26.268  1.00  0.00     0.124 S 
ATOM     50  O   UNL A   1      42.993  18.646  25.231  1.00  0.00    -0.237 OA
ATOM     51  O   UNL A   1      42.279  18.490  27.590  1.00  0.00    -0.237 OA
ATOM     52  O   UNL A   1      40.645  19.106  25.848  1.00  0.00    -0.744 OA
ENDBRANCH  48  49
ENDBRANCH  27  41
BRANCH  28  53
ATOM     53  C   UNL A   1      46.403  32.961  28.539  1.00  0.00     0.058 A 
ATOM     54  C   UNL A   1      46.417  33.978  27.576  1.00  0.00     0.135 A 
ATOM     55  C   UNL A   1      46.764  33.308  29.854  1.00  0.00     0.135 A 
ATOM     56  F   UNL A   1      46.089  33.701  26.304  1.00  0.00    -0.206 F 
ATOM     57  C   UNL A   1      46.761  35.288  27.902  1.00  0.00     0.059 A 
ATOM     58  C   UNL A   1      47.086  34.614  30.210  1.00  0.00     0.059 A 
ATOM     59  F   UNL A   1      46.761  32.377  30.821  1.00  0.00    -0.206 F 
ATOM     60  C   UNL A   1      47.084  35.599  29.226  1.00  0.00     0.060 A 
BRANCH  60  61
ATOM     61  S   UNL A   1      47.454  37.315  29.651  1.00  0.00     0.124 S 
ATOM     62  O   UNL A   1      48.423  37.152  30.726  1.00  0.00    -0.237 OA
ATOM     63  O   UNL A   1      47.974  37.836  28.392  1.00  0.00    -0.237 OA
ATOM     64  O   UNL A   1      46.153  37.851  30.049  1.00  0.00    -0.744 OA
ENDBRANCH  60  61
ENDBRANCH  28  53
BRANCH  40  65
ATOM     65  C   UNL A   1      49.533  27.039  26.451  1.00  0.00     0.058 A 
ATOM     66  C   UNL A   1      50.472  26.607  27.397  1.00  0.00     0.135 A 
ATOM     67  C   UNL A   1      49.902  27.038  25.097  1.00  0.00     0.135 A 
ATOM     68  F   UNL A   1      50.164  26.599  28.704  1.00  0.00    -0.206 F 
ATOM     69  C   UNL A   1      51.735  26.180  27.011  1.00  0.00     0.059 A 
ATOM     70  C   UNL A   1      51.149  26.586  24.686  1.00  0.00     0.059 A 
ATOM     71  F   UNL A   1      49.028  27.433  24.156  1.00  0.00    -0.206 F 
ATOM     72  C   UNL A   1      52.058  26.158  25.652  1.00  0.00     0.060 A 
BRANCH  72  73
ATOM     73  S   UNL A   1      53.667  25.511  25.159  1.00  0.00     0.124 S 
ATOM     74  O   UNL A   1      53.836  26.112  23.841  1.00  0.00    -0.237 OA
ATOM     75  O   UNL A   1      54.543  26.022  26.209  1.00  0.00    -0.237 OA
ATOM     76  O   UNL A   1      53.468  24.063  25.168  1.00  0.00    -0.744 OA
ENDBRANCH  72  73
ENDBRANCH  40  65
ENDBRANCH  14  15
ENDBRANCH   7   9
ENDBRANCH   6   7
ENDBRANCH   5   6
ENDBRANCH   4   5
ENDBRANCH   3   4
ENDBRANCH   2   3
ENDBRANCH   1   2
BRANCH   1  77
ATOM     77  O   UNL A   1      32.894  34.079  28.777  1.00  0.00    -0.377 OA
BRANCH  77  78
ATOM     78  C   UNL A   1      33.810  33.431  27.905  1.00  0.00     0.188 C 
BRANCH  78  79
ATOM     79  C   UNL A   1      34.389  32.051  28.324  1.00  0.00     0.188 C 
BRANCH  79  80
ATOM     80  O   UNL A   1      34.243  31.045  27.343  1.00  0.00    -0.376 OA
BRANCH  80  81
ATOM     81  C   UNL A   1      34.599  29.733  27.760  1.00  0.00     0.202 C 
BRANCH  81  82
ATOM     82  C   UNL A   1      33.997  28.552  26.973  1.00  0.00     0.261 C 
BRANCH  82  83
ATOM     83  O   UNL A   1      33.847  28.701  25.538  1.00  0.00    -0.463 OA
BRANCH  83  84
ATOM     84  C   UNL A   1      33.310  27.690  24.799  1.00  0.00     0.319 C 
ATOM     85  O   UNL A   1      33.946  27.058  23.963  1.00  0.00    -0.251 OA
BRANCH  84  86
ATOM     86  C   UNL A   1      31.837  27.405  25.219  1.00  0.00     0.184 C 
BRANCH  86  87
ATOM     87  C   UNL A   1      30.911  28.310  24.436  1.00  0.00    -0.028 A 
ATOM     88  C   UNL A   1      29.962  27.766  23.563  1.00  0.00     0.006 A 
ATOM     89  C   UNL A   1      30.967  29.701  24.619  1.00  0.00     0.006 A 
ATOM     90  C   UNL A   1      29.040  28.602  22.936  1.00  0.00     0.016 A 
ATOM     91  C   UNL A   1      30.034  30.530  24.014  1.00  0.00     0.016 A 
ATOM     92  C   UNL A   1      29.066  29.975  23.184  1.00  0.00     0.017 A 
ATOM     93  Br  UNL A   1      27.759  31.096  22.407  1.00  0.00    -0.051 Br
ENDBRANCH  86  87
BRANCH  86  94
ATOM     94  C   UNL A   1      31.398  25.905  25.090  1.00  0.00     0.282 C 
BRANCH  94  95
ATOM     95  N   UNL A   1      32.393  24.969  25.688  1.00  0.00    -0.334 N 
ATOM     96  C   UNL A   1      32.873  23.933  24.753  1.00  0.00     0.262 C 
ATOM     97  C   UNL A   1      31.819  24.204  26.813  1.00  0.00     0.262 C 
ATOM     98  H   UNL A   1      33.155  25.585  25.972  1.00  0.00     0.348 HD
ATOM     99  C   UNL A   1      31.857  22.814  24.827  1.00  0.00     0.067 C 
ATOM    100  C   UNL A   1      31.465  22.810  26.291  1.00  0.00     0.067 C 
ENDBRANCH  94  95
ENDBRANCH  86  94
ENDBRANCH  84  86
ENDBRANCH  83  84
ENDBRANCH  82  83
ENDBRANCH  81  82
ENDBRANCH  80  81
ENDBRANCH  79  80
ENDBRANCH  78  79
ENDBRANCH  77  78
ENDBRANCH   1  77
TORSDOF 26
ENDMDL
MODEL 2
REMARK VINA RESULT:      -9.6      6.121      8.593
REMARK SMILES O=C(OCCOCCOCCOCCOC(=O)[C@H](C[NH+]1CCCC1)c1ccc(Br)cc1)c1ccc(-c2c3nc(c(-c4c(F)cc(S(=O)(=O)[O-])cc4F)c4ccc([nH]4)c(-c4c(F)cc(S(=O)(=O)[O-])cc4F)c4nc(c(-c5c(F)cc(S(=O)(=O)[O-])cc5F)c5ccc2[nH]5)C=C4)C=C3)cc1
REMARK SMILES IDX 8 1 7 2 6 3 5 4 4 5 3 6 2 7 1 8 32 9 33 10 97 11 34 12 96 13
REMARK SMILES IDX 35 14 36 15 37 16 90 17 38 18 95 19 89 20 91 21 39 22 94 23
REMARK SMILES IDX 88 24 87 25 40 27 74 28 53 29 73 30 54 31 57 32 72 33 92 34
REMARK SMILES IDX 55 35 56 36 71 38 93 39 58 40 41 41 42 42 51 43 43 44 44 45
REMARK SMILES IDX 50 46 52 47 45 48 46 49 47 50 48 51 49 52 75 53 76 54 85 55
REMARK SMILES IDX 77 56 78 57 84 58 86 59 79 60 80 61 81 62 82 63 83 64 59 65
REMARK SMILES IDX 60 66 69 67 61 68 62 69 68 70 70 71 63 72 64 73 65 74 66 75
REMARK SMILES IDX 67 76 9 77 10 78 11 79 12 80 13 81 14 82 15 83 16 84 17 85
REMARK SMILES IDX 18 86 25 87 26 88 31 89 27 90 30 91 28 92 29 93 19 94 20 95
REMARK SMILES IDX 21 96 24 97 22 99 23 100
REMARK H PARENT 91 26 57 37 20 98
REMARK Flexibility Score: inf
ROOT
ATOM      1  C   UNL A   1      35.397  33.290  28.058  1.00  0.00     0.188 C 
ENDROOT
BRANCH   1   2
ATOM      2  C   UNL A   1      34.228  34.259  28.236  1.00  0.00     0.188 C 
BRANCH   2   3
ATOM      3  O   UNL A   1      34.659  35.620  28.239  1.00  0.00    -0.376 OA
BRANCH   3   4
ATOM      4  C   UNL A   1      33.704  36.613  28.616  1.00  0.00     0.202 C 
BRANCH   4   5
ATOM      5  C   UNL A   1      32.568  36.106  29.495  1.00  0.00     0.261 C 
BRANCH   5   6
ATOM      6  O   UNL A   1      32.813  36.288  30.892  1.00  0.00    -0.460 OA
BRANCH   6   7
ATOM      7  C   UNL A   1      32.907  35.343  31.860  1.00  0.00     0.338 C 
ATOM      8  O   UNL A   1      31.906  35.149  32.553  1.00  0.00    -0.246 OA
BRANCH   7   9
ATOM      9  C   UNL A   1      34.135  34.540  32.179  1.00  0.00     0.060 A 
ATOM     10  C   UNL A   1      34.198  33.387  32.968  1.00  0.00     0.016 A 
ATOM     11  C   UNL A   1      35.324  34.967  31.562  1.00  0.00     0.016 A 
ATOM     12  C   UNL A   1      35.376  32.679  33.149  1.00  0.00     0.010 A 
ATOM     13  C   UNL A   1      36.526  34.289  31.764  1.00  0.00     0.010 A 
ATOM     14  C   UNL A   1      36.550  33.159  32.586  1.00  0.00    -0.014 A 
BRANCH  14  15
ATOM     15  C   UNL A   1      37.809  32.633  33.122  1.00  0.00     0.031 A 
ATOM     16  C   UNL A   1      38.507  31.601  32.291  1.00  0.00     0.074 A 
ATOM     17  C   UNL A   1      38.354  33.163  34.226  1.00  0.00     0.049 A 
ATOM     18  N   UNL A   1      39.543  30.869  32.575  1.00  0.00    -0.248 NA
ATOM     19  C   UNL A   1      37.952  31.369  30.943  1.00  0.00     0.031 C 
ATOM     20  C   UNL A   1      37.807  34.295  34.976  1.00  0.00     0.029 A 
ATOM     21  N   UNL A   1      39.490  32.823  34.905  1.00  0.00    -0.354 N 
ATOM     22  C   UNL A   1      39.732  30.051  31.467  1.00  0.00     0.074 A 
ATOM     23  C   UNL A   1      38.713  30.383  30.500  1.00  0.00     0.031 C 
ATOM     24  C   UNL A   1      38.598  34.537  36.035  1.00  0.00     0.029 A 
ATOM     25  C   UNL A   1      39.652  33.528  36.072  1.00  0.00     0.049 A 
ATOM     26  H   UNL A   1      40.128  32.142  34.589  1.00  0.00     0.167 HD
ATOM     27  C   UNL A   1      40.667  29.091  31.301  1.00  0.00     0.037 A 
ATOM     28  C   UNL A   1      40.514  33.316  37.084  1.00  0.00     0.037 A 
ATOM     29  C   UNL A   1      41.648  28.803  32.309  1.00  0.00     0.049 A 
ATOM     30  C   UNL A   1      41.486  32.176  36.935  1.00  0.00     0.074 A 
ATOM     31  C   UNL A   1      42.622  27.827  32.320  1.00  0.00     0.029 A 
ATOM     32  N   UNL A   1      41.761  29.506  33.507  1.00  0.00    -0.354 N 
ATOM     33  N   UNL A   1      41.623  31.343  35.926  1.00  0.00    -0.248 NA
ATOM     34  C   UNL A   1      42.406  31.932  38.048  1.00  0.00     0.031 C 
ATOM     35  C   UNL A   1      43.285  27.901  33.551  1.00  0.00     0.029 A 
ATOM     36  C   UNL A   1      42.771  28.969  34.278  1.00  0.00     0.049 A 
ATOM     37  H   UNL A   1      41.200  30.272  33.765  1.00  0.00     0.167 HD
ATOM     38  C   UNL A   1      42.658  30.485  36.272  1.00  0.00     0.074 A 
ATOM     39  C   UNL A   1      43.113  30.907  37.585  1.00  0.00     0.031 C 
ATOM     40  C   UNL A   1      43.188  29.448  35.578  1.00  0.00     0.037 A 
BRANCH  27  41
ATOM     41  C   UNL A   1      40.566  28.246  30.061  1.00  0.00     0.058 A 
ATOM     42  C   UNL A   1      39.642  27.196  29.934  1.00  0.00     0.135 A 
ATOM     43  C   UNL A   1      41.484  28.435  29.014  1.00  0.00     0.135 A 
ATOM     44  F   UNL A   1      38.766  26.943  30.919  1.00  0.00    -0.206 F 
ATOM     45  C   UNL A   1      39.665  26.334  28.840  1.00  0.00     0.059 A 
ATOM     46  C   UNL A   1      41.504  27.605  27.897  1.00  0.00     0.059 A 
ATOM     47  F   UNL A   1      42.401  29.412  29.087  1.00  0.00    -0.206 F 
ATOM     48  C   UNL A   1      40.608  26.541  27.832  1.00  0.00     0.060 A 
BRANCH  48  49
ATOM     49  S   UNL A   1      40.660  25.381  26.449  1.00  0.00     0.124 S 
ATOM     50  O   UNL A   1      39.260  24.979  26.353  1.00  0.00    -0.237 OA
ATOM     51  O   UNL A   1      41.159  26.208  25.363  1.00  0.00    -0.237 OA
ATOM     52  O   UNL A   1      41.578  24.339  26.917  1.00  0.00    -0.744 OA
ENDBRANCH  48  49
ENDBRANCH  27  41
BRANCH  28  53
ATOM     53  C   UNL A   1      40.419  34.143  38.316  1.00  0.00     0.058 A 
ATOM     54  C   UNL A   1      39.606  33.771  39.395  1.00  0.00     0.135 A 
ATOM     55  C   UNL A   1      41.206  35.300  38.466  1.00  0.00     0.135 A 
ATOM     56  F   UNL A   1      38.830  32.681  39.303  1.00  0.00    -0.206 F 
ATOM     57  C   UNL A   1      39.581  34.507  40.577  1.00  0.00     0.059 A 
ATOM     58  C   UNL A   1      41.219  36.037  39.647  1.00  0.00     0.059 A 
ATOM     59  F   UNL A   1      42.012  35.700  37.469  1.00  0.00    -0.206 F 
ATOM     60  C   UNL A   1      40.400  35.633  40.698  1.00  0.00     0.060 A 
BRANCH  60  61
ATOM     61  S   UNL A   1      40.415  36.534  42.264  1.00  0.00     0.124 S 
ATOM     62  O   UNL A   1      39.717  37.761  41.906  1.00  0.00    -0.237 OA
ATOM     63  O   UNL A   1      39.698  35.622  43.147  1.00  0.00    -0.237 OA
ATOM     64  O   UNL A   1      41.841  36.680  42.554  1.00  0.00    -0.744 OA
ENDBRANCH  60  61
ENDBRANCH  28  53
BRANCH  40  65
ATOM     65  C   UNL A   1      44.349  28.731  36.198  1.00  0.00     0.058 A 
ATOM     66  C   UNL A   1      45.652  29.244  36.132  1.00  0.00     0.135 A 
ATOM     67  C   UNL A   1      44.123  27.587  36.979  1.00  0.00     0.135 A 
ATOM     68  F   UNL A   1      45.915  30.332  35.390  1.00  0.00    -0.206 F 
ATOM     69  C   UNL A   1      46.695  28.646  36.826  1.00  0.00     0.059 A 
ATOM     70  C   UNL A   1      45.145  26.991  37.705  1.00  0.00     0.059 A 
ATOM     71  F   UNL A   1      42.887  27.069  37.079  1.00  0.00    -0.206 F 
ATOM     72  C   UNL A   1      46.428  27.529  37.622  1.00  0.00     0.060 A 
BRANCH  72  73
ATOM     73  S   UNL A   1      47.773  26.822  38.592  1.00  0.00     0.124 S 
ATOM     74  O   UNL A   1      48.883  27.702  38.242  1.00  0.00    -0.237 OA
ATOM     75  O   UNL A   1      47.270  26.943  39.956  1.00  0.00    -0.237 OA
ATOM     76  O   UNL A   1      47.873  25.454  38.087  1.00  0.00    -0.744 OA
ENDBRANCH  72  73
ENDBRANCH  40  65
ENDBRANCH  14  15
ENDBRANCH   7   9
ENDBRANCH   6   7
ENDBRANCH   5   6
ENDBRANCH   4   5
ENDBRANCH   3   4
ENDBRANCH   2   3
ENDBRANCH   1   2
BRANCH   1  77
ATOM     77  O   UNL A   1      35.354  32.140  28.894  1.00  0.00    -0.377 OA
BRANCH  77  78
ATOM     78  C   UNL A   1      34.930  30.938  28.265  1.00  0.00     0.188 C 
BRANCH  78  79
ATOM     79  C   UNL A   1      33.696  30.985  27.321  1.00  0.00     0.188 C 
BRANCH  79  80
ATOM     80  O   UNL A   1      33.599  29.879  26.448  1.00  0.00    -0.376 OA
BRANCH  80  81
ATOM     81  C   UNL A   1      33.726  28.604  27.065  1.00  0.00     0.202 C 
BRANCH  81  82
ATOM     82  C   UNL A   1      33.356  27.368  26.221  1.00  0.00     0.261 C 
BRANCH  82  83
ATOM     83  O   UNL A   1      32.277  27.502  25.261  1.00  0.00    -0.463 OA
BRANCH  83  84
ATOM     84  C   UNL A   1      31.129  26.786  25.419  1.00  0.00     0.319 C 
ATOM     85  O   UNL A   1      30.641  26.534  26.516  1.00  0.00    -0.251 OA
BRANCH  84  86
ATOM     86  C   UNL A   1      30.500  26.418  24.043  1.00  0.00     0.184 C 
BRANCH  86  87
ATOM     87  C   UNL A   1      29.934  27.667  23.402  1.00  0.00    -0.028 A 
ATOM     88  C   UNL A   1      30.769  28.540  22.696  1.00  0.00     0.006 A 
ATOM     89  C   UNL A   1      28.557  27.930  23.472  1.00  0.00     0.006 A 
ATOM     90  C   UNL A   1      30.218  29.624  22.015  1.00  0.00     0.016 A 
ATOM     91  C   UNL A   1      28.005  28.995  22.774  1.00  0.00     0.016 A 
ATOM     92  C   UNL A   1      28.838  29.830  22.038  1.00  0.00     0.017 A 
ATOM     93  Br  UNL A   1      28.082  31.244  21.039  1.00  0.00    -0.051 Br
ENDBRANCH  86  87
BRANCH  86  94
ATOM     94  C   UNL A   1      31.467  25.672  23.059  1.00  0.00     0.282 C 
BRANCH  94  95
ATOM     95  N   UNL A   1      32.391  24.740  23.769  1.00  0.00    -0.334 N 
ATOM     96  C   UNL A   1      33.625  24.438  23.019  1.00  0.00     0.262 C 
ATOM     97  C   UNL A   1      31.771  23.420  23.994  1.00  0.00     0.262 C 
ATOM     98  H   UNL A   1      32.603  25.235  24.636  1.00  0.00     0.348 HD
ATOM     99  C   UNL A   1      33.270  23.294  22.094  1.00  0.00     0.067 C 
ATOM    100  C   UNL A   1      32.319  22.464  22.932  1.00  0.00     0.067 C 
ENDBRANCH  94  95
ENDBRANCH  86  94
ENDBRANCH  84  86
ENDBRANCH  83  84
ENDBRANCH  82  83
ENDBRANCH  81  82
ENDBRANCH  80  81
ENDBRANCH  79  80
ENDBRANCH  78  79
ENDBRANCH  77  78
ENDBRANCH   1  77
TORSDOF 26
ENDMDL
MODEL 3
REMARK VINA RESULT:      -9.3      1.541      2.802
REMARK SMILES O=C(OCCOCCOCCOCCOC(=O)[C@H](C[NH+]1CCCC1)c1ccc(Br)cc1)c1ccc(-c2c3nc(c(-c4c(F)cc(S(=O)(=O)[O-])cc4F)c4ccc([nH]4)c(-c4c(F)cc(S(=O)(=O)[O-])cc4F)c4nc(c(-c5c(F)cc(S(=O)(=O)[O-])cc5F)c5ccc2[nH]5)C=C4)C=C3)cc1
REMARK SMILES IDX 8 1 7 2 6 3 5 4 4 5 3 6 2 7 1 8 32 9 33 10 97 11 34 12 96 13
REMARK SMILES IDX 35 14 36 15 37 16 90 17 38 18 95 19 89 20 91 21 39 22 94 23
REMARK SMILES IDX 88 24 87 25 40 27 74 28 53 29 73 30 54 31 57 32 72 33 92 34
REMARK SMILES IDX 55 35 56 36 71 38 93 39 58 40 41 41 42 42 51 43 43 44 44 45
REMARK SMILES IDX 50 46 52 47 45 48 46 49 47 50 48 51 49 52 75 53 76 54 85 55
REMARK SMILES IDX 77 56 78 57 84 58 86 59 79 60 80 61 81 62 82 63 83 64 59 65
REMARK SMILES IDX 60 66 69 67 61 68 62 69 68 70 70 71 63 72 64 73 65 74 66 75
REMARK SMILES IDX 67 76 9 77 10 78 11 79 12 80 13 81 14 82 15 83 16 84 17 85
REMARK SMILES IDX 18 86 25 87 26 88 31 89 27 90 30 91 28 92 29 93 19 94 20 95
REMARK SMILES IDX 21 96 24 97 22 99 23 100
REMARK H PARENT 91 26 57 37 20 98
REMARK Flexibility Score: inf
ROOT
ATOM      1  C   UNL A   1      33.184  35.691  29.195  1.00  0.00     0.188 C 
ENDROOT
BRANCH   1   2
ATOM      2  C   UNL A   1      33.467  35.638  30.696  1.00  0.00     0.188 C 
BRANCH   2   3
ATOM      3  O   UNL A   1      33.785  34.317  31.134  1.00  0.00    -0.376 OA
BRANCH   3   4
ATOM      4  C   UNL A   1      35.160  34.012  31.365  1.00  0.00     0.202 C 
BRANCH   4   5
ATOM      5  C   UNL A   1      35.431  32.587  31.830  1.00  0.00     0.261 C 
BRANCH   5   6
ATOM      6  O   UNL A   1      36.569  31.996  31.199  1.00  0.00    -0.460 OA
BRANCH   6   7
ATOM      7  C   UNL A   1      36.911  30.686  31.135  1.00  0.00     0.338 C 
ATOM      8  O   UNL A   1      36.095  29.871  31.571  1.00  0.00    -0.246 OA
BRANCH   7   9
ATOM      9  C   UNL A   1      38.211  30.147  30.610  1.00  0.00     0.060 A 
ATOM     10  C   UNL A   1      39.248  29.585  31.362  1.00  0.00     0.016 A 
ATOM     11  C   UNL A   1      38.357  30.156  29.212  1.00  0.00     0.016 A 
ATOM     12  C   UNL A   1      40.384  29.055  30.772  1.00  0.00     0.010 A 
ATOM     13  C   UNL A   1      39.512  29.663  28.604  1.00  0.00     0.010 A 
ATOM     14  C   UNL A   1      40.537  29.139  29.396  1.00  0.00    -0.014 A 
BRANCH  14  15
ATOM     15  C   UNL A   1      41.890  28.948  28.863  1.00  0.00     0.031 A 
ATOM     16  C   UNL A   1      42.198  27.598  28.295  1.00  0.00     0.074 A 
ATOM     17  C   UNL A   1      42.739  29.983  28.773  1.00  0.00     0.049 A 
ATOM     18  N   UNL A   1      43.333  27.106  27.891  1.00  0.00    -0.248 NA
ATOM     19  C   UNL A   1      41.056  26.674  28.160  1.00  0.00     0.031 C 
ATOM     20  C   UNL A   1      42.427  31.364  29.146  1.00  0.00     0.029 A 
ATOM     21  N   UNL A   1      44.033  30.032  28.338  1.00  0.00    -0.354 N 
ATOM     22  C   UNL A   1      43.053  25.800  27.508  1.00  0.00     0.074 A 
ATOM     23  C   UNL A   1      41.642  25.577  27.714  1.00  0.00     0.031 C 
ATOM     24  C   UNL A   1      43.517  32.123  28.950  1.00  0.00     0.029 A 
ATOM     25  C   UNL A   1      44.615  31.263  28.516  1.00  0.00     0.049 A 
ATOM     26  H   UNL A   1      44.501  29.264  27.936  1.00  0.00     0.167 HD
ATOM     27  C   UNL A   1      43.920  24.871  27.051  1.00  0.00     0.037 A 
ATOM     28  C   UNL A   1      45.908  31.618  28.410  1.00  0.00     0.037 A 
ATOM     29  C   UNL A   1      45.317  25.156  26.878  1.00  0.00     0.049 A 
ATOM     30  C   UNL A   1      46.886  30.549  27.999  1.00  0.00     0.074 A 
ATOM     31  C   UNL A   1      46.333  24.312  26.482  1.00  0.00     0.029 A 
ATOM     32  N   UNL A   1      45.891  26.405  27.111  1.00  0.00    -0.354 N 
ATOM     33  N   UNL A   1      46.647  29.288  27.712  1.00  0.00    -0.248 NA
ATOM     34  C   UNL A   1      48.297  30.932  27.910  1.00  0.00     0.031 C 
ATOM     35  C   UNL A   1      47.531  25.036  26.533  1.00  0.00     0.029 A 
ATOM     36  C   UNL A   1      47.251  26.350  26.892  1.00  0.00     0.049 A 
ATOM     37  H   UNL A   1      45.396  27.208  27.391  1.00  0.00     0.167 HD
ATOM     38  C   UNL A   1      47.875  28.728  27.387  1.00  0.00     0.074 A 
ATOM     39  C   UNL A   1      48.854  29.794  27.511  1.00  0.00     0.031 C 
ATOM     40  C   UNL A   1      48.174  27.457  27.019  1.00  0.00     0.037 A 
BRANCH  27  41
ATOM     41  C   UNL A   1      43.386  23.482  26.841  1.00  0.00     0.058 A 
ATOM     42  C   UNL A   1      42.984  22.657  27.905  1.00  0.00     0.135 A 
ATOM     43  C   UNL A   1      43.368  22.931  25.549  1.00  0.00     0.135 A 
ATOM     44  F   UNL A   1      43.017  23.116  29.167  1.00  0.00    -0.206 F 
ATOM     45  C   UNL A   1      42.633  21.325  27.702  1.00  0.00     0.059 A 
ATOM     46  C   UNL A   1      42.991  21.611  25.319  1.00  0.00     0.059 A 
ATOM     47  F   UNL A   1      43.757  23.666  24.495  1.00  0.00    -0.206 F 
ATOM     48  C   UNL A   1      42.651  20.808  26.405  1.00  0.00     0.060 A 
BRANCH  48  49
ATOM     49  S   UNL A   1      42.247  19.064  26.167  1.00  0.00     0.124 S 
ATOM     50  O   UNL A   1      42.551  18.512  27.483  1.00  0.00    -0.237 OA
ATOM     51  O   UNL A   1      40.839  19.114  25.809  1.00  0.00    -0.237 OA
ATOM     52  O   UNL A   1      43.154  18.652  25.091  1.00  0.00    -0.744 OA
ENDBRANCH  48  49
ENDBRANCH  27  41
BRANCH  28  53
ATOM     53  C   UNL A   1      46.325  32.998  28.777  1.00  0.00     0.058 A 
ATOM     54  C   UNL A   1      46.594  33.361  30.103  1.00  0.00     0.135 A 
ATOM     55  C   UNL A   1      46.531  33.973  27.783  1.00  0.00     0.135 A 
ATOM     56  F   UNL A   1      46.407  32.474  31.091  1.00  0.00    -0.206 F 
ATOM     57  C   UNL A   1      47.060  34.633  30.431  1.00  0.00     0.059 A 
ATOM     58  C   UNL A   1      47.021  35.240  28.082  1.00  0.00     0.059 A 
ATOM     59  F   UNL A   1      46.299  33.679  26.493  1.00  0.00    -0.206 F 
ATOM     60  C   UNL A   1      47.281  35.563  29.411  1.00  0.00     0.060 A 
BRANCH  60  61
ATOM     61  S   UNL A   1      47.957  37.181  29.843  1.00  0.00     0.124 S 
ATOM     62  O   UNL A   1      48.890  37.413  28.748  1.00  0.00    -0.237 OA
ATOM     63  O   UNL A   1      46.763  38.018  29.856  1.00  0.00    -0.237 OA
ATOM     64  O   UNL A   1      48.565  36.953  31.153  1.00  0.00    -0.744 OA
ENDBRANCH  60  61
ENDBRANCH  28  53
BRANCH  40  65
ATOM     65  C   UNL A   1      49.603  27.161  26.677  1.00  0.00     0.058 A 
ATOM     66  C   UNL A   1      50.488  26.619  27.619  1.00  0.00     0.135 A 
ATOM     67  C   UNL A   1      50.044  27.301  25.351  1.00  0.00     0.135 A 
ATOM     68  F   UNL A   1      50.112  26.476  28.899  1.00  0.00    -0.206 F 
ATOM     69  C   UNL A   1      51.768  26.221  27.255  1.00  0.00     0.059 A 
ATOM     70  C   UNL A   1      51.308  26.881  24.960  1.00  0.00     0.059 A 
ATOM     71  F   UNL A   1      49.223  27.804  24.415  1.00  0.00    -0.206 F 
ATOM     72  C   UNL A   1      52.162  26.342  25.919  1.00  0.00     0.060 A 
BRANCH  72  73
ATOM     73  S   UNL A   1      53.791  25.732  25.444  1.00  0.00     0.124 S 
ATOM     74  O   UNL A   1      53.980  24.634  26.387  1.00  0.00    -0.237 OA
ATOM     75  O   UNL A   1      53.585  25.347  24.052  1.00  0.00    -0.237 OA
ATOM     76  O   UNL A   1      54.659  26.889  25.647  1.00  0.00    -0.744 OA
ENDBRANCH  72  73
ENDBRANCH  40  65
ENDBRANCH  14  15
ENDBRANCH   7   9
ENDBRANCH   6   7
ENDBRANCH   5   6
ENDBRANCH   4   5
ENDBRANCH   3   4
ENDBRANCH   2   3
ENDBRANCH   1   2
BRANCH   1  77
ATOM     77  O   UNL A   1      32.765  34.459  28.621  1.00  0.00    -0.377 OA
BRANCH  77  78
ATOM     78  C   UNL A   1      33.777  33.712  27.962  1.00  0.00     0.188 C 
BRANCH  78  79
ATOM     79  C   UNL A   1      33.972  32.218  28.346  1.00  0.00     0.188 C 
BRANCH  79  80
ATOM     80  O   UNL A   1      34.539  31.430  27.321  1.00  0.00    -0.376 OA
BRANCH  80  81
ATOM     81  C   UNL A   1      35.082  30.185  27.741  1.00  0.00     0.202 C 
BRANCH  81  82
ATOM     82  C   UNL A   1      35.083  29.031  26.719  1.00  0.00     0.261 C 
BRANCH  82  83
ATOM     83  O   UNL A   1      33.840  28.734  26.031  1.00  0.00    -0.463 OA
BRANCH  83  84
ATOM     84  C   UNL A   1      33.339  27.468  26.044  1.00  0.00     0.319 C 
ATOM     85  O   UNL A   1      32.776  26.978  27.017  1.00  0.00    -0.251 OA
BRANCH  84  86
ATOM     86  C   UNL A   1      33.505  26.782  24.655  1.00  0.00     0.184 C 
BRANCH  86  87
ATOM     87  C   UNL A   1      33.768  25.304  24.856  1.00  0.00    -0.028 A 
ATOM     88  C   UNL A   1      32.824  24.356  24.446  1.00  0.00     0.006 A 
ATOM     89  C   UNL A   1      34.983  24.877  25.413  1.00  0.00     0.006 A 
ATOM     90  C   UNL A   1      33.127  22.999  24.531  1.00  0.00     0.016 A 
ATOM     91  C   UNL A   1      35.294  23.526  25.475  1.00  0.00     0.016 A 
ATOM     92  C   UNL A   1      34.368  22.593  25.022  1.00  0.00     0.017 A 
ATOM     93  Br  UNL A   1      34.813  20.758  25.051  1.00  0.00    -0.051 Br
ENDBRANCH  86  87
BRANCH  86  94
ATOM     94  C   UNL A   1      32.310  27.010  23.665  1.00  0.00     0.282 C 
BRANCH  94  95
ATOM     95  N   UNL A   1      31.318  27.992  24.190  1.00  0.00    -0.334 N 
ATOM     96  C   UNL A   1      30.016  27.393  24.542  1.00  0.00     0.262 C 
ATOM     97  C   UNL A   1      30.984  29.022  23.187  1.00  0.00     0.262 C 
ATOM     98  H   UNL A   1      31.779  28.373  25.016  1.00  0.00     0.348 HD
ATOM     99  C   UNL A   1      29.221  27.361  23.255  1.00  0.00     0.067 C 
ATOM    100  C   UNL A   1      29.636  28.645  22.568  1.00  0.00     0.067 C 
ENDBRANCH  94  95
ENDBRANCH  86  94
ENDBRANCH  84  86
ENDBRANCH  83  84
ENDBRANCH  82  83
ENDBRANCH  81  82
ENDBRANCH  80  81
ENDBRANCH  79  80
ENDBRANCH  78  79
ENDBRANCH  77  78
ENDBRANCH   1  77
TORSDOF 26
ENDMDL
