MODEL 1
REMARK VINA RESULT:      -8.3      0.000      0.000
REMARK SMILES C[C@H]1[NH2+]CC[C@H]1C(=O)N(C)CCCC(=O)OCCOCCOCCOCCOC(=O)c1ccc(-c2c3nc(c(-c4c(F)cc(S(=O)(=O)[O-])cc4F)c4ccc([nH]4)c(-c4c(F)cc(S(=O)(=O)[O-])cc4F)c4nc(c(-c5c(F)cc(S(=O)(=O)[O-])cc5F)c5ccc2[nH]5)C=C4)C=C3)cc1
REMARK SMILES IDX 21 1 20 2 19 3 18 4 17 5 16 6 14 7 15 8 13 9 12 10 11 11
REMARK SMILES IDX 9 12 10 13 7 14 8 15 6 16 1 17 2 18 3 19 4 20 5 23 22 24
REMARK SMILES IDX 23 25 24 26 25 27 26 28 27 29 28 30 29 31 30 32 31 33 32 34
REMARK SMILES IDX 96 35 33 36 95 37 34 38 35 39 36 40 89 41 37 42 94 43 88 44
REMARK SMILES IDX 90 45 38 46 93 47 87 48 86 49 39 51 73 52 52 53 72 54 53 55
REMARK SMILES IDX 56 56 71 57 91 58 54 59 55 60 70 62 92 63 57 64 40 65 41 66
REMARK SMILES IDX 50 67 42 68 43 69 49 70 51 71 44 72 45 73 46 74 47 75 48 76
REMARK SMILES IDX 74 77 75 78 84 79 76 80 77 81 83 82 85 83 78 84 79 85 80 86
REMARK SMILES IDX 81 87 82 88 58 89 59 90 68 91 60 92 61 93 67 94 69 95 62 96
REMARK SMILES IDX 63 97 64 98 65 99 66 100
REMARK H PARENT 3 21 3 22 90 50 56 61
REMARK Flexibility Score: inf
ROOT
ATOM      1  C   UNL A   1      44.889  19.850  24.529  1.00  0.00     0.188 C 
ENDROOT
BRANCH   1   2
ATOM      2  C   UNL A   1      43.718  19.066  25.157  1.00  0.00     0.188 C 
BRANCH   2   3
ATOM      3  O   UNL A   1      42.542  19.823  25.348  1.00  0.00    -0.376 OA
BRANCH   3   4
ATOM      4  C   UNL A   1      41.491  19.296  26.136  1.00  0.00     0.202 C 
BRANCH   4   5
ATOM      5  C   UNL A   1      40.038  19.772  25.985  1.00  0.00     0.261 C 
BRANCH   5   6
ATOM      6  O   UNL A   1      39.708  20.996  26.647  1.00  0.00    -0.463 OA
BRANCH   6   7
ATOM      7  C   UNL A   1      38.862  21.835  26.017  1.00  0.00     0.305 C 
ATOM      8  O   UNL A   1      38.792  23.041  26.240  1.00  0.00    -0.252 OA
BRANCH   7   9
ATOM      9  C   UNL A   1      38.049  21.176  24.914  1.00  0.00     0.124 C 
BRANCH   9  10
ATOM     10  C   UNL A   1      36.551  20.847  25.044  1.00  0.00     0.033 C 
BRANCH  10  11
ATOM     11  C   UNL A   1      35.675  21.584  26.064  1.00  0.00     0.119 C 
BRANCH  11  12
ATOM     12  N   UNL A   1      34.546  22.273  25.443  1.00  0.00    -0.345 N 
ATOM     13  C   UNL A   1      34.818  23.623  24.978  1.00  0.00     0.146 C 
BRANCH  12  14
ATOM     14  C   UNL A   1      33.472  21.507  25.046  1.00  0.00     0.231 C 
ATOM     15  O   UNL A   1      33.540  20.274  25.056  1.00  0.00    -0.274 OA
BRANCH  14  16
ATOM     16  C   UNL A   1      32.152  22.111  24.623  1.00  0.00     0.142 C 
ATOM     17  C   UNL A   1      31.704  23.395  26.901  1.00  0.00     0.076 C 
ATOM     18  C   UNL A   1      31.186  22.757  25.618  1.00  0.00     0.192 C 
ATOM     19  N   UNL A   1      30.431  23.765  24.837  1.00  0.00    -0.343 N 
ATOM     20  C   UNL A   1      30.848  23.663  23.431  1.00  0.00     0.261 C 
ATOM     21  H   UNL A   1      30.636  24.699  25.191  1.00  0.00     0.346 HD
ATOM     22  H   UNL A   1      29.429  23.597  24.921  1.00  0.00     0.346 HD
ATOM     23  C   UNL A   1      32.217  23.019  23.419  1.00  0.00     0.081 C 
ENDBRANCH  14  16
ENDBRANCH  12  14
ENDBRANCH  11  12
ENDBRANCH  10  11
ENDBRANCH   9  10
ENDBRANCH   7   9
ENDBRANCH   6   7
ENDBRANCH   5   6
ENDBRANCH   4   5
ENDBRANCH   3   4
ENDBRANCH   2   3
ENDBRANCH   1   2
BRANCH   1  24
ATOM     24  O   UNL A   1      44.685  20.710  23.415  1.00  0.00    -0.377 OA
BRANCH  24  25
ATOM     25  C   UNL A   1      44.641  22.123  23.611  1.00  0.00     0.188 C 
BRANCH  25  26
ATOM     26  C   UNL A   1      44.205  22.699  24.975  1.00  0.00     0.188 C 
BRANCH  26  27
ATOM     27  O   UNL A   1      42.823  23.004  25.076  1.00  0.00    -0.376 OA
BRANCH  27  28
ATOM     28  C   UNL A   1      42.463  24.199  25.751  1.00  0.00     0.202 C 
BRANCH  28  29
ATOM     29  C   UNL A   1      42.965  25.534  25.175  1.00  0.00     0.261 C 
BRANCH  29  30
ATOM     30  O   UNL A   1      44.250  25.985  25.633  1.00  0.00    -0.460 OA
BRANCH  30  31
ATOM     31  C   UNL A   1      44.615  25.646  26.891  1.00  0.00     0.338 C 
ATOM     32  O   UNL A   1      45.470  24.851  27.221  1.00  0.00    -0.246 OA
BRANCH  31  33
ATOM     33  C   UNL A   1      43.908  26.557  27.813  1.00  0.00     0.060 A 
ATOM     34  C   UNL A   1      44.182  27.929  27.758  1.00  0.00     0.016 A 
ATOM     35  C   UNL A   1      42.990  26.049  28.734  1.00  0.00     0.016 A 
ATOM     36  C   UNL A   1      43.565  28.797  28.657  1.00  0.00     0.010 A 
ATOM     37  C   UNL A   1      42.389  26.917  29.647  1.00  0.00     0.010 A 
ATOM     38  C   UNL A   1      42.705  28.286  29.638  1.00  0.00    -0.014 A 
BRANCH  38  39
ATOM     39  C   UNL A   1      42.311  29.145  30.779  1.00  0.00     0.031 A 
ATOM     40  C   UNL A   1      43.127  29.070  32.040  1.00  0.00     0.074 A 
ATOM     41  C   UNL A   1      41.265  29.985  30.695  1.00  0.00     0.049 A 
ATOM     42  N   UNL A   1      42.956  29.686  33.180  1.00  0.00    -0.248 NA
ATOM     43  C   UNL A   1      44.289  28.168  32.010  1.00  0.00     0.031 C 
ATOM     44  C   UNL A   1      40.422  30.167  29.515  1.00  0.00     0.029 A 
ATOM     45  N   UNL A   1      40.727  30.831  31.632  1.00  0.00    -0.354 N 
ATOM     46  C   UNL A   1      43.976  29.233  34.008  1.00  0.00     0.074 A 
ATOM     47  C   UNL A   1      44.743  28.270  33.249  1.00  0.00     0.031 C 
ATOM     48  C   UNL A   1      39.454  31.053  29.808  1.00  0.00     0.029 A 
ATOM     49  C   UNL A   1      39.592  31.473  31.203  1.00  0.00     0.049 A 
ATOM     50  H   UNL A   1      41.117  30.964  32.526  1.00  0.00     0.167 HD
ATOM     51  C   UNL A   1      44.249  29.591  35.286  1.00  0.00     0.037 A 
ATOM     52  C   UNL A   1      38.744  32.283  31.870  1.00  0.00     0.037 A 
ATOM     53  C   UNL A   1      43.475  30.549  36.032  1.00  0.00     0.049 A 
ATOM     54  C   UNL A   1      39.035  32.636  33.305  1.00  0.00     0.074 A 
ATOM     55  C   UNL A   1      43.689  31.012  37.317  1.00  0.00     0.029 A 
ATOM     56  N   UNL A   1      42.324  31.172  35.567  1.00  0.00    -0.354 N 
ATOM     57  N   UNL A   1      40.027  32.237  34.067  1.00  0.00    -0.248 NA
ATOM     58  C   UNL A   1      38.100  33.555  33.968  1.00  0.00     0.031 C 
ATOM     59  C   UNL A   1      42.630  31.862  37.655  1.00  0.00     0.029 A 
ATOM     60  C   UNL A   1      41.794  31.987  36.555  1.00  0.00     0.049 A 
ATOM     61  H   UNL A   1      41.941  31.053  34.668  1.00  0.00     0.167 HD
ATOM     62  C   UNL A   1      39.847  32.872  35.293  1.00  0.00     0.074 A 
ATOM     63  C   UNL A   1      38.658  33.690  35.164  1.00  0.00     0.031 C 
ATOM     64  C   UNL A   1      40.603  32.790  36.418  1.00  0.00     0.037 A 
BRANCH  51  65
ATOM     65  C   UNL A   1      45.399  28.897  35.966  1.00  0.00     0.058 A 
ATOM     66  C   UNL A   1      45.239  27.693  36.671  1.00  0.00     0.135 A 
ATOM     67  C   UNL A   1      46.686  29.460  35.922  1.00  0.00     0.135 A 
ATOM     68  F   UNL A   1      44.029  27.117  36.762  1.00  0.00    -0.206 F 
ATOM     69  C   UNL A   1      46.300  27.100  37.349  1.00  0.00     0.059 A 
ATOM     70  C   UNL A   1      47.768  28.865  36.563  1.00  0.00     0.059 A 
ATOM     71  F   UNL A   1      46.899  30.611  35.263  1.00  0.00    -0.206 F 
ATOM     72  C   UNL A   1      47.560  27.698  37.294  1.00  0.00     0.060 A 
BRANCH  72  73
ATOM     73  S   UNL A   1      48.919  26.938  38.208  1.00  0.00     0.124 S 
ATOM     74  O   UNL A   1      48.686  25.521  37.946  1.00  0.00    -0.237 OA
ATOM     75  O   UNL A   1      50.091  27.518  37.561  1.00  0.00    -0.237 OA
ATOM     76  O   UNL A   1      48.688  27.368  39.583  1.00  0.00    -0.744 OA
ENDBRANCH  72  73
ENDBRANCH  51  65
BRANCH  52  77
ATOM     77  C   UNL A   1      37.530  32.791  31.177  1.00  0.00     0.058 A 
ATOM     78  C   UNL A   1      37.564  33.953  30.395  1.00  0.00     0.135 A 
ATOM     79  C   UNL A   1      36.319  32.082  31.242  1.00  0.00     0.135 A 
ATOM     80  F   UNL A   1      38.692  34.674  30.315  1.00  0.00    -0.206 F 
ATOM     81  C   UNL A   1      36.445  34.390  29.691  1.00  0.00     0.059 A 
ATOM     82  C   UNL A   1      35.196  32.484  30.528  1.00  0.00     0.059 A 
ATOM     83  F   UNL A   1      36.236  30.958  31.972  1.00  0.00    -0.206 F 
ATOM     84  C   UNL A   1      35.269  33.639  29.753  1.00  0.00     0.060 A 
BRANCH  84  85
ATOM     85  S   UNL A   1      33.857  34.154  28.751  1.00  0.00     0.124 S 
ATOM     86  O   UNL A   1      32.935  34.643  29.770  1.00  0.00    -0.237 OA
ATOM     87  O   UNL A   1      34.452  35.168  27.886  1.00  0.00    -0.237 OA
ATOM     88  O   UNL A   1      33.458  32.922  28.077  1.00  0.00    -0.744 OA
ENDBRANCH  84  85
ENDBRANCH  52  77
BRANCH  64  89
ATOM     89  C   UNL A   1      40.186  33.625  37.601  1.00  0.00     0.058 A 
ATOM     90  C   UNL A   1      40.706  34.909  37.825  1.00  0.00     0.135 A 
ATOM     91  C   UNL A   1      39.204  33.155  38.489  1.00  0.00     0.135 A 
ATOM     92  F   UNL A   1      41.650  35.408  37.010  1.00  0.00    -0.206 F 
ATOM     93  C   UNL A   1      40.287  35.687  38.900  1.00  0.00     0.059 A 
ATOM     94  C   UNL A   1      38.747  33.929  39.552  1.00  0.00     0.059 A 
ATOM     95  F   UNL A   1      38.662  31.939  38.317  1.00  0.00    -0.206 F 
ATOM     96  C   UNL A   1      39.304  35.189  39.757  1.00  0.00     0.060 A 
BRANCH  96  97
ATOM     97  S   UNL A   1      38.748  36.221  41.130  1.00  0.00     0.124 S 
ATOM     98  O   UNL A   1      38.493  37.491  40.460  1.00  0.00    -0.237 OA
ATOM     99  O   UNL A   1      37.568  35.503  41.602  1.00  0.00    -0.237 OA
ATOM    100  O   UNL A   1      39.887  36.212  42.045  1.00  0.00    -0.744 OA
ENDBRANCH  96  97
ENDBRANCH  64  89
ENDBRANCH  38  39
ENDBRANCH  31  33
ENDBRANCH  30  31
ENDBRANCH  29  30
ENDBRANCH  28  29
ENDBRANCH  27  28
ENDBRANCH  26  27
ENDBRANCH  25  26
ENDBRANCH  24  25
ENDBRANCH   1  24
TORSDOF 28
ENDMDL
MODEL 2
REMARK VINA RESULT:      -8.0      6.433      7.964
REMARK SMILES C[C@H]1[NH2+]CC[C@H]1C(=O)N(C)CCCC(=O)OCCOCCOCCOCCOC(=O)c1ccc(-c2c3nc(c(-c4c(F)cc(S(=O)(=O)[O-])cc4F)c4ccc([nH]4)c(-c4c(F)cc(S(=O)(=O)[O-])cc4F)c4nc(c(-c5c(F)cc(S(=O)(=O)[O-])cc5F)c5ccc2[nH]5)C=C4)C=C3)cc1
REMARK SMILES IDX 21 1 20 2 19 3 18 4 17 5 16 6 14 7 15 8 13 9 12 10 11 11
REMARK SMILES IDX 9 12 10 13 7 14 8 15 6 16 1 17 2 18 3 19 4 20 5 23 22 24
REMARK SMILES IDX 23 25 24 26 25 27 26 28 27 29 28 30 29 31 30 32 31 33 32 34
REMARK SMILES IDX 96 35 33 36 95 37 34 38 35 39 36 40 89 41 37 42 94 43 88 44
REMARK SMILES IDX 90 45 38 46 93 47 87 48 86 49 39 51 73 52 52 53 72 54 53 55
REMARK SMILES IDX 56 56 71 57 91 58 54 59 55 60 70 62 92 63 57 64 40 65 41 66
REMARK SMILES IDX 50 67 42 68 43 69 49 70 51 71 44 72 45 73 46 74 47 75 48 76
REMARK SMILES IDX 74 77 75 78 84 79 76 80 77 81 83 82 85 83 78 84 79 85 80 86
REMARK SMILES IDX 81 87 82 88 58 89 59 90 68 91 60 92 61 93 67 94 69 95 62 96
REMARK SMILES IDX 63 97 64 98 65 99 66 100
REMARK H PARENT 3 21 3 22 90 50 56 61
REMARK Flexibility Score: inf
ROOT
ATOM      1  C   UNL A   1      44.920  20.370  24.717  1.00  0.00     0.188 C 
ENDROOT
BRANCH   1   2
ATOM      2  C   UNL A   1      43.707  19.617  25.298  1.00  0.00     0.188 C 
BRANCH   2   3
ATOM      3  O   UNL A   1      42.593  20.434  25.588  1.00  0.00    -0.376 OA
BRANCH   3   4
ATOM      4  C   UNL A   1      41.557  19.939  26.416  1.00  0.00     0.202 C 
BRANCH   4   5
ATOM      5  C   UNL A   1      40.073  20.194  26.110  1.00  0.00     0.261 C 
BRANCH   5   6
ATOM      6  O   UNL A   1      39.493  21.341  26.736  1.00  0.00    -0.463 OA
BRANCH   6   7
ATOM      7  C   UNL A   1      38.592  22.048  26.025  1.00  0.00     0.305 C 
ATOM      8  O   UNL A   1      38.442  23.264  26.113  1.00  0.00    -0.252 OA
BRANCH   7   9
ATOM      9  C   UNL A   1      37.819  21.217  25.012  1.00  0.00     0.124 C 
BRANCH   9  10
ATOM     10  C   UNL A   1      36.372  20.742  25.230  1.00  0.00     0.033 C 
BRANCH  10  11
ATOM     11  C   UNL A   1      35.211  21.403  24.477  1.00  0.00     0.119 C 
BRANCH  11  12
ATOM     12  N   UNL A   1      33.998  21.498  25.284  1.00  0.00    -0.345 N 
ATOM     13  C   UNL A   1      33.860  22.717  26.064  1.00  0.00     0.146 C 
BRANCH  12  14
ATOM     14  C   UNL A   1      32.965  20.636  24.987  1.00  0.00     0.231 C 
ATOM     15  O   UNL A   1      31.850  20.792  25.494  1.00  0.00    -0.274 OA
BRANCH  14  16
ATOM     16  C   UNL A   1      33.112  19.493  24.009  1.00  0.00     0.142 C 
ATOM     17  C   UNL A   1      32.654  17.568  25.776  1.00  0.00     0.076 C 
ATOM     18  C   UNL A   1      33.258  18.038  24.458  1.00  0.00     0.192 C 
ATOM     19  N   UNL A   1      32.709  17.225  23.348  1.00  0.00    -0.343 N 
ATOM     20  C   UNL A   1      32.346  18.133  22.250  1.00  0.00     0.261 C 
ATOM     21  H   UNL A   1      31.883  16.720  23.667  1.00  0.00     0.346 HD
ATOM     22  H   UNL A   1      33.403  16.547  23.031  1.00  0.00     0.346 HD
ATOM     23  C   UNL A   1      32.137  19.503  22.858  1.00  0.00     0.081 C 
ENDBRANCH  14  16
ENDBRANCH  12  14
ENDBRANCH  11  12
ENDBRANCH  10  11
ENDBRANCH   9  10
ENDBRANCH   7   9
ENDBRANCH   6   7
ENDBRANCH   5   6
ENDBRANCH   4   5
ENDBRANCH   3   4
ENDBRANCH   2   3
ENDBRANCH   1   2
BRANCH   1  24
ATOM     24  O   UNL A   1      44.749  21.502  23.873  1.00  0.00    -0.377 OA
BRANCH  24  25
ATOM     25  C   UNL A   1      45.033  22.807  24.374  1.00  0.00     0.188 C 
BRANCH  25  26
ATOM     26  C   UNL A   1      45.564  22.983  25.813  1.00  0.00     0.188 C 
BRANCH  26  27
ATOM     27  O   UNL A   1      44.560  23.119  26.804  1.00  0.00    -0.376 OA
BRANCH  27  28
ATOM     28  C   UNL A   1      44.559  24.307  27.580  1.00  0.00     0.202 C 
BRANCH  28  29
ATOM     29  C   UNL A   1      43.469  25.355  27.297  1.00  0.00     0.261 C 
BRANCH  29  30
ATOM     30  O   UNL A   1      43.770  26.333  26.289  1.00  0.00    -0.460 OA
BRANCH  30  31
ATOM     31  C   UNL A   1      44.961  26.968  26.374  1.00  0.00     0.338 C 
ATOM     32  O   UNL A   1      45.980  26.707  25.770  1.00  0.00    -0.246 OA
BRANCH  31  33
ATOM     33  C   UNL A   1      44.760  28.169  27.209  1.00  0.00     0.060 A 
ATOM     34  C   UNL A   1      43.827  29.132  26.804  1.00  0.00     0.016 A 
ATOM     35  C   UNL A   1      45.501  28.342  28.379  1.00  0.00     0.016 A 
ATOM     36  C   UNL A   1      43.662  30.297  27.550  1.00  0.00     0.010 A 
ATOM     37  C   UNL A   1      45.351  29.520  29.113  1.00  0.00     0.010 A 
ATOM     38  C   UNL A   1      44.460  30.518  28.679  1.00  0.00    -0.014 A 
BRANCH  38  39
ATOM     39  C   UNL A   1      44.519  31.873  29.275  1.00  0.00     0.031 A 
ATOM     40  C   UNL A   1      45.568  32.826  28.772  1.00  0.00     0.074 A 
ATOM     41  C   UNL A   1      43.653  32.257  30.229  1.00  0.00     0.049 A 
ATOM     42  N   UNL A   1      45.845  34.041  29.164  1.00  0.00    -0.248 NA
ATOM     43  C   UNL A   1      46.426  32.332  27.683  1.00  0.00     0.031 C 
ATOM     44  C   UNL A   1      42.576  31.432  30.772  1.00  0.00     0.029 A 
ATOM     45  N   UNL A   1      43.558  33.438  30.919  1.00  0.00    -0.354 N 
ATOM     46  C   UNL A   1      46.919  34.452  28.383  1.00  0.00     0.074 A 
ATOM     47  C   UNL A   1      47.262  33.346  27.516  1.00  0.00     0.031 C 
ATOM     48  C   UNL A   1      41.941  32.126  31.732  1.00  0.00     0.029 A 
ATOM     49  C   UNL A   1      42.589  33.429  31.892  1.00  0.00     0.049 A 
ATOM     50  H   UNL A   1      44.131  34.219  30.735  1.00  0.00     0.167 HD
ATOM     51  C   UNL A   1      47.560  35.645  28.388  1.00  0.00     0.037 A 
ATOM     52  C   UNL A   1      42.281  34.353  32.824  1.00  0.00     0.037 A 
ATOM     53  C   UNL A   1      47.212  36.737  29.259  1.00  0.00     0.049 A 
ATOM     54  C   UNL A   1      43.034  35.658  32.847  1.00  0.00     0.074 A 
ATOM     55  C   UNL A   1      47.770  38.001  29.317  1.00  0.00     0.029 A 
ATOM     56  N   UNL A   1      46.230  36.687  30.240  1.00  0.00    -0.354 N 
ATOM     57  N   UNL A   1      44.020  36.055  32.078  1.00  0.00    -0.248 NA
ATOM     58  C   UNL A   1      42.627  36.644  33.858  1.00  0.00     0.031 C 
ATOM     59  C   UNL A   1      47.175  38.691  30.379  1.00  0.00     0.029 A 
ATOM     60  C   UNL A   1      46.193  37.885  30.936  1.00  0.00     0.049 A 
ATOM     61  H   UNL A   1      45.646  35.914  30.415  1.00  0.00     0.167 HD
ATOM     62  C   UNL A   1      44.339  37.344  32.496  1.00  0.00     0.074 A 
ATOM     63  C   UNL A   1      43.430  37.662  33.580  1.00  0.00     0.031 C 
ATOM     64  C   UNL A   1      45.290  38.187  32.021  1.00  0.00     0.037 A 
BRANCH  51  65
ATOM     65  C   UNL A   1      48.736  35.801  27.461  1.00  0.00     0.058 A 
ATOM     66  C   UNL A   1      48.593  36.226  26.129  1.00  0.00     0.135 A 
ATOM     67  C   UNL A   1      50.032  35.502  27.913  1.00  0.00     0.135 A 
ATOM     68  F   UNL A   1      47.376  36.509  25.637  1.00  0.00    -0.206 F 
ATOM     69  C   UNL A   1      49.683  36.301  25.268  1.00  0.00     0.059 A 
ATOM     70  C   UNL A   1      51.141  35.605  27.079  1.00  0.00     0.059 A 
ATOM     71  F   UNL A   1      50.231  35.091  29.175  1.00  0.00    -0.206 F 
ATOM     72  C   UNL A   1      50.953  35.981  25.750  1.00  0.00     0.060 A 
BRANCH  72  73
ATOM     73  S   UNL A   1      52.353  36.048  24.613  1.00  0.00     0.124 S 
ATOM     74  O   UNL A   1      51.686  36.360  23.352  1.00  0.00    -0.237 OA
ATOM     75  O   UNL A   1      53.166  37.118  25.181  1.00  0.00    -0.237 OA
ATOM     76  O   UNL A   1      52.929  34.710  24.702  1.00  0.00    -0.744 OA
ENDBRANCH  72  73
ENDBRANCH  51  65
BRANCH  52  77
ATOM     77  C   UNL A   1      41.219  34.052  33.821  1.00  0.00     0.058 A 
ATOM     78  C   UNL A   1      39.873  34.352  33.571  1.00  0.00     0.135 A 
ATOM     79  C   UNL A   1      41.531  33.402  35.026  1.00  0.00     0.135 A 
ATOM     80  F   UNL A   1      39.526  34.987  32.442  1.00  0.00    -0.206 F 
ATOM     81  C   UNL A   1      38.871  34.008  34.475  1.00  0.00     0.059 A 
ATOM     82  C   UNL A   1      40.546  33.026  35.932  1.00  0.00     0.059 A 
ATOM     83  F   UNL A   1      42.805  33.088  35.310  1.00  0.00    -0.206 F 
ATOM     84  C   UNL A   1      39.218  33.331  35.646  1.00  0.00     0.060 A 
BRANCH  84  85
ATOM     85  S   UNL A   1      37.900  32.793  36.760  1.00  0.00     0.124 S 
ATOM     86  O   UNL A   1      36.768  32.684  35.846  1.00  0.00    -0.237 OA
ATOM     87  O   UNL A   1      38.432  31.535  37.274  1.00  0.00    -0.237 OA
ATOM     88  O   UNL A   1      37.823  33.878  37.735  1.00  0.00    -0.744 OA
ENDBRANCH  84  85
ENDBRANCH  52  77
BRANCH  64  89
ATOM     89  C   UNL A   1      45.389  39.553  32.649  1.00  0.00     0.058 A 
ATOM     90  C   UNL A   1      46.265  39.822  33.712  1.00  0.00     0.135 A 
ATOM     91  C   UNL A   1      44.638  40.624  32.136  1.00  0.00     0.135 A 
ATOM     92  F   UNL A   1      47.005  38.836  34.244  1.00  0.00    -0.206 F 
ATOM     93  C   UNL A   1      46.375  41.097  34.260  1.00  0.00     0.059 A 
ATOM     94  C   UNL A   1      44.756  41.914  32.647  1.00  0.00     0.059 A 
ATOM     95  F   UNL A   1      43.793  40.428  31.111  1.00  0.00    -0.206 F 
ATOM     96  C   UNL A   1      45.618  42.137  33.718  1.00  0.00     0.060 A 
BRANCH  96  97
ATOM     97  S   UNL A   1      45.792  43.791  34.420  1.00  0.00     0.124 S 
ATOM     98  O   UNL A   1      45.372  43.572  35.799  1.00  0.00    -0.237 OA
ATOM     99  O   UNL A   1      47.212  44.065  34.224  1.00  0.00    -0.237 OA
ATOM    100  O   UNL A   1      44.887  44.602  33.610  1.00  0.00    -0.744 OA
ENDBRANCH  96  97
ENDBRANCH  64  89
ENDBRANCH  38  39
ENDBRANCH  31  33
ENDBRANCH  30  31
ENDBRANCH  29  30
ENDBRANCH  28  29
ENDBRANCH  27  28
ENDBRANCH  26  27
ENDBRANCH  25  26
ENDBRANCH  24  25
ENDBRANCH   1  24
TORSDOF 28
ENDMDL
MODEL 3
REMARK VINA RESULT:      -7.9      3.999      7.235
REMARK SMILES C[C@H]1[NH2+]CC[C@H]1C(=O)N(C)CCCC(=O)OCCOCCOCCOCCOC(=O)c1ccc(-c2c3nc(c(-c4c(F)cc(S(=O)(=O)[O-])cc4F)c4ccc([nH]4)c(-c4c(F)cc(S(=O)(=O)[O-])cc4F)c4nc(c(-c5c(F)cc(S(=O)(=O)[O-])cc5F)c5ccc2[nH]5)C=C4)C=C3)cc1
REMARK SMILES IDX 21 1 20 2 19 3 18 4 17 5 16 6 14 7 15 8 13 9 12 10 11 11
REMARK SMILES IDX 9 12 10 13 7 14 8 15 6 16 1 17 2 18 3 19 4 20 5 23 22 24
REMARK SMILES IDX 23 25 24 26 25 27 26 28 27 29 28 30 29 31 30 32 31 33 32 34
REMARK SMILES IDX 96 35 33 36 95 37 34 38 35 39 36 40 89 41 37 42 94 43 88 44
REMARK SMILES IDX 90 45 38 46 93 47 87 48 86 49 39 51 73 52 52 53 72 54 53 55
REMARK SMILES IDX 56 56 71 57 91 58 54 59 55 60 70 62 92 63 57 64 40 65 41 66
REMARK SMILES IDX 50 67 42 68 43 69 49 70 51 71 44 72 45 73 46 74 47 75 48 76
REMARK SMILES IDX 74 77 75 78 84 79 76 80 77 81 83 82 85 83 78 84 79 85 80 86
REMARK SMILES IDX 81 87 82 88 58 89 59 90 68 91 60 92 61 93 67 94 69 95 62 96
REMARK SMILES IDX 63 97 64 98 65 99 66 100
REMARK H PARENT 3 21 3 22 90 50 56 61
REMARK Flexibility Score: inf
ROOT
ATOM      1  C   UNL A   1      49.523  27.567  25.838  1.00  0.00     0.188 C 
ENDROOT
BRANCH   1   2
ATOM      2  C   UNL A   1      49.531  28.177  27.254  1.00  0.00     0.188 C 
BRANCH   2   3
ATOM      3  O   UNL A   1      48.312  28.774  27.642  1.00  0.00    -0.376 OA
BRANCH   3   4
ATOM      4  C   UNL A   1      47.922  30.008  27.067  1.00  0.00     0.202 C 
BRANCH   4   5
ATOM      5  C   UNL A   1      46.722  30.812  27.590  1.00  0.00     0.261 C 
BRANCH   5   6
ATOM      6  O   UNL A   1      46.467  30.715  28.993  1.00  0.00    -0.463 OA
BRANCH   6   7
ATOM      7  C   UNL A   1      45.479  29.888  29.390  1.00  0.00     0.305 C 
ATOM      8  O   UNL A   1      45.634  28.694  29.636  1.00  0.00    -0.252 OA
BRANCH   7   9
ATOM      9  C   UNL A   1      44.143  30.582  29.604  1.00  0.00     0.124 C 
BRANCH   9  10
ATOM     10  C   UNL A   1      43.984  31.890  30.399  1.00  0.00     0.033 C 
BRANCH  10  11
ATOM     11  C   UNL A   1      43.162  33.054  29.831  1.00  0.00     0.119 C 
BRANCH  11  12
ATOM     12  N   UNL A   1      43.998  34.151  29.350  1.00  0.00    -0.345 N 
ATOM     13  C   UNL A   1      45.414  34.041  29.663  1.00  0.00     0.146 C 
BRANCH  12  14
ATOM     14  C   UNL A   1      43.470  34.979  28.385  1.00  0.00     0.231 C 
ATOM     15  O   UNL A   1      42.752  35.934  28.698  1.00  0.00    -0.274 OA
BRANCH  14  16
ATOM     16  C   UNL A   1      43.765  34.806  26.912  1.00  0.00     0.142 C 
ATOM     17  C   UNL A   1      45.958  36.298  26.901  1.00  0.00     0.076 C 
ATOM     18  C   UNL A   1      44.775  35.680  26.166  1.00  0.00     0.192 C 
ATOM     19  N   UNL A   1      45.273  34.842  25.050  1.00  0.00    -0.343 N 
ATOM     20  C   UNL A   1      44.531  33.573  25.063  1.00  0.00     0.261 C 
ATOM     21  H   UNL A   1      46.269  34.661  25.173  1.00  0.00     0.346 HD
ATOM     22  H   UNL A   1      45.136  35.322  24.161  1.00  0.00     0.346 HD
ATOM     23  C   UNL A   1      43.998  33.384  26.466  1.00  0.00     0.081 C 
ENDBRANCH  14  16
ENDBRANCH  12  14
ENDBRANCH  11  12
ENDBRANCH  10  11
ENDBRANCH   9  10
ENDBRANCH   7   9
ENDBRANCH   6   7
ENDBRANCH   5   6
ENDBRANCH   4   5
ENDBRANCH   3   4
ENDBRANCH   2   3
ENDBRANCH   1   2
BRANCH   1  24
ATOM     24  O   UNL A   1      48.621  26.523  25.492  1.00  0.00    -0.377 OA
BRANCH  24  25
ATOM     25  C   UNL A   1      47.438  26.826  24.754  1.00  0.00     0.188 C 
BRANCH  25  26
ATOM     26  C   UNL A   1      46.080  26.240  25.196  1.00  0.00     0.188 C 
BRANCH  26  27
ATOM     27  O   UNL A   1      45.765  24.980  24.627  1.00  0.00    -0.376 OA
BRANCH  27  28
ATOM     28  C   UNL A   1      45.514  23.902  25.516  1.00  0.00     0.202 C 
BRANCH  28  29
ATOM     29  C   UNL A   1      45.038  24.235  26.940  1.00  0.00     0.261 C 
BRANCH  29  30
ATOM     30  O   UNL A   1      43.664  23.943  27.239  1.00  0.00    -0.460 OA
BRANCH  30  31
ATOM     31  C   UNL A   1      42.720  24.608  26.536  1.00  0.00     0.338 C 
ATOM     32  O   UNL A   1      42.264  24.313  25.451  1.00  0.00    -0.246 OA
BRANCH  31  33
ATOM     33  C   UNL A   1      42.196  25.679  27.407  1.00  0.00     0.060 A 
ATOM     34  C   UNL A   1      42.810  26.938  27.383  1.00  0.00     0.016 A 
ATOM     35  C   UNL A   1      41.112  25.430  28.251  1.00  0.00     0.016 A 
ATOM     36  C   UNL A   1      42.364  27.944  28.238  1.00  0.00     0.010 A 
ATOM     37  C   UNL A   1      40.681  26.432  29.121  1.00  0.00     0.010 A 
ATOM     38  C   UNL A   1      41.332  27.679  29.146  1.00  0.00    -0.014 A 
BRANCH  38  39
ATOM     39  C   UNL A   1      41.081  28.623  30.259  1.00  0.00     0.031 A 
ATOM     40  C   UNL A   1      41.916  28.494  31.503  1.00  0.00     0.074 A 
ATOM     41  C   UNL A   1      40.146  29.585  30.165  1.00  0.00     0.049 A 
ATOM     42  N   UNL A   1      41.855  29.169  32.620  1.00  0.00    -0.248 NA
ATOM     43  C   UNL A   1      42.954  27.451  31.484  1.00  0.00     0.031 C 
ATOM     44  C   UNL A   1      39.300  29.827  28.998  1.00  0.00     0.029 A 
ATOM     45  N   UNL A   1      39.745  30.527  31.078  1.00  0.00    -0.354 N 
ATOM     46  C   UNL A   1      42.834  28.623  33.443  1.00  0.00     0.074 A 
ATOM     47  C   UNL A   1      43.452  27.542  32.707  1.00  0.00     0.031 C 
ATOM     48  C   UNL A   1      38.460  30.839  29.276  1.00  0.00     0.029 A 
ATOM     49  C   UNL A   1      38.688  31.291  30.649  1.00  0.00     0.049 A 
ATOM     50  H   UNL A   1      40.174  30.644  31.957  1.00  0.00     0.167 HD
ATOM     51  C   UNL A   1      43.185  28.992  34.698  1.00  0.00     0.037 A 
ATOM     52  C   UNL A   1      37.968  32.226  31.301  1.00  0.00     0.037 A 
ATOM     53  C   UNL A   1      42.558  30.068  35.421  1.00  0.00     0.049 A 
ATOM     54  C   UNL A   1      38.341  32.594  32.713  1.00  0.00     0.074 A 
ATOM     55  C   UNL A   1      42.865  30.550  36.681  1.00  0.00     0.029 A 
ATOM     56  N   UNL A   1      41.482  30.814  34.958  1.00  0.00    -0.354 N 
ATOM     57  N   UNL A   1      39.295  32.102  33.468  1.00  0.00    -0.248 NA
ATOM     58  C   UNL A   1      37.547  33.649  33.359  1.00  0.00     0.031 C 
ATOM     59  C   UNL A   1      41.930  31.538  37.008  1.00  0.00     0.029 A 
ATOM     60  C   UNL A   1      41.087  31.726  35.923  1.00  0.00     0.049 A 
ATOM     61  H   UNL A   1      41.062  30.709  34.074  1.00  0.00     0.167 HD
ATOM     62  C   UNL A   1      39.231  32.801  34.671  1.00  0.00     0.074 A 
ATOM     63  C   UNL A   1      38.151  33.758  34.535  1.00  0.00     0.031 C 
ATOM     64  C   UNL A   1      40.002  32.667  35.781  1.00  0.00     0.037 A 
BRANCH  51  65
ATOM     65  C   UNL A   1      44.258  28.185  35.380  1.00  0.00     0.058 A 
ATOM     66  C   UNL A   1      43.967  27.043  36.144  1.00  0.00     0.135 A 
ATOM     67  C   UNL A   1      45.604  28.574  35.276  1.00  0.00     0.135 A 
ATOM     68  F   UNL A   1      42.697  26.633  36.293  1.00  0.00    -0.206 F 
ATOM     69  C   UNL A   1      44.964  26.347  36.821  1.00  0.00     0.059 A 
ATOM     70  C   UNL A   1      46.620  27.872  35.915  1.00  0.00     0.059 A 
ATOM     71  F   UNL A   1      45.942  29.658  34.559  1.00  0.00    -0.206 F 
ATOM     72  C   UNL A   1      46.288  26.774  36.706  1.00  0.00     0.060 A 
BRANCH  72  73
ATOM     73  S   UNL A   1      47.567  25.884  37.618  1.00  0.00     0.124 S 
ATOM     74  O   UNL A   1      48.779  26.370  36.964  1.00  0.00    -0.237 OA
ATOM     75  O   UNL A   1      47.354  26.348  38.984  1.00  0.00    -0.237 OA
ATOM     76  O   UNL A   1      47.244  24.482  37.376  1.00  0.00    -0.744 OA
ENDBRANCH  72  73
ENDBRANCH  51  65
BRANCH  52  77
ATOM     77  C   UNL A   1      36.808  32.856  30.616  1.00  0.00     0.058 A 
ATOM     78  C   UNL A   1      35.490  32.484  30.914  1.00  0.00     0.135 A 
ATOM     79  C   UNL A   1      37.000  33.891  29.686  1.00  0.00     0.135 A 
ATOM     80  F   UNL A   1      35.254  31.489  31.782  1.00  0.00    -0.206 F 
ATOM     81  C   UNL A   1      34.402  33.121  30.323  1.00  0.00     0.059 A 
ATOM     82  C   UNL A   1      35.929  34.560  29.103  1.00  0.00     0.059 A 
ATOM     83  F   UNL A   1      38.242  34.291  29.372  1.00  0.00    -0.206 F 
ATOM     84  C   UNL A   1      34.633  34.169  29.430  1.00  0.00     0.060 A 
BRANCH  84  85
ATOM     85  S   UNL A   1      33.215  35.061  28.753  1.00  0.00     0.124 S 
ATOM     86  O   UNL A   1      33.844  36.280  28.256  1.00  0.00    -0.237 OA
ATOM     87  O   UNL A   1      32.728  34.132  27.738  1.00  0.00    -0.237 OA
ATOM     88  O   UNL A   1      32.341  35.228  29.911  1.00  0.00    -0.744 OA
ENDBRANCH  84  85
ENDBRANCH  52  77
BRANCH  64  89
ATOM     89  C   UNL A   1      39.727  33.593  36.937  1.00  0.00     0.058 A 
ATOM     90  C   UNL A   1      38.800  33.275  37.941  1.00  0.00     0.135 A 
ATOM     91  C   UNL A   1      40.451  34.791  37.072  1.00  0.00     0.135 A 
ATOM     92  F   UNL A   1      38.078  32.146  37.862  1.00  0.00    -0.206 F 
ATOM     93  C   UNL A   1      38.582  34.122  39.024  1.00  0.00     0.059 A 
ATOM     94  C   UNL A   1      40.272  35.636  38.163  1.00  0.00     0.059 A 
ATOM     95  F   UNL A   1      41.360  35.140  36.148  1.00  0.00    -0.206 F 
ATOM     96  C   UNL A   1      39.325  35.299  39.128  1.00  0.00     0.060 A 
BRANCH  96  97
ATOM     97  S   UNL A   1      39.052  36.372  40.553  1.00  0.00     0.124 S 
ATOM     98  O   UNL A   1      38.529  37.577  39.919  1.00  0.00    -0.237 OA
ATOM     99  O   UNL A   1      38.095  35.604  41.343  1.00  0.00    -0.237 OA
ATOM    100  O   UNL A   1      40.382  36.501  41.143  1.00  0.00    -0.744 OA
ENDBRANCH  96  97
ENDBRANCH  64  89
ENDBRANCH  38  39
ENDBRANCH  31  33
ENDBRANCH  30  31
ENDBRANCH  29  30
ENDBRANCH  28  29
ENDBRANCH  27  28
ENDBRANCH  26  27
ENDBRANCH  25  26
ENDBRANCH  24  25
ENDBRANCH   1  24
TORSDOF 28
ENDMDL
