MODEL 1
REMARK VINA RESULT:      -7.0      0.000      0.000
REMARK SMILES O=C(OCCOCCOCCOCCOC(=O)[C@@H](CCCCl)P(=O)(c1ccccc1)c1ccccc1)c1ccc(-c2c3nc(c(-c4c(F)cc(S(=O)(=O)[O-])cc4F)c4ccc([nH]4)c(-c4c(F)cc(S(=O)(=O)[O-])cc4F)c4nc(c(-c5c(F)cc(S(=O)(=O)[O-])cc5F)c5ccc2[nH]5)C=C4)C=C3)cc1
REMARK SMILES IDX 9 1 8 2 7 3 6 4 5 5 4 6 3 7 2 8 1 9 37 10 38 11 102 12 39 13
REMARK SMILES IDX 101 14 40 15 41 16 42 17 95 18 43 19 100 20 94 21 96 22
REMARK SMILES IDX 44 23 99 24 93 25 92 26 45 28 79 29 58 30 78 31 59 32 62 33
REMARK SMILES IDX 77 34 97 35 60 36 61 37 76 39 98 40 63 41 46 42 47 43 56 44
REMARK SMILES IDX 48 45 49 46 55 47 57 48 50 49 51 50 52 51 53 52 54 53 80 54
REMARK SMILES IDX 81 55 90 56 82 57 83 58 89 59 91 60 84 61 85 62 86 63 87 64
REMARK SMILES IDX 88 65 64 66 65 67 74 68 66 69 67 70 73 71 75 72 68 73 69 74
REMARK SMILES IDX 70 75 71 76 72 77 10 78 11 79 12 80 13 81 14 82 15 83 16 84
REMARK SMILES IDX 17 85 18 86 19 87 20 88 21 89 22 90 23 91 24 92 25 93 26 94
REMARK SMILES IDX 30 95 27 96 29 97 28 98 31 99 32 100 36 101 33 102 35 103
REMARK SMILES IDX 34 104
REMARK H PARENT 96 27 62 38
REMARK Flexibility Score: inf
ROOT
ATOM      1  O   UNL A   1      42.635  22.365  27.045  1.00  0.00    -0.377 OA
ENDROOT
BRANCH   1   2
ATOM      2  C   UNL A   1      43.408  22.777  25.919  1.00  0.00     0.188 C 
BRANCH   2   3
ATOM      3  C   UNL A   1      44.878  22.399  26.005  1.00  0.00     0.188 C 
BRANCH   3   4
ATOM      4  O   UNL A   1      45.586  23.470  26.591  1.00  0.00    -0.376 OA
BRANCH   4   5
ATOM      5  C   UNL A   1      45.915  24.612  25.825  1.00  0.00     0.202 C 
BRANCH   5   6
ATOM      6  C   UNL A   1      46.714  25.681  26.541  1.00  0.00     0.261 C 
BRANCH   6   7
ATOM      7  O   UNL A   1      46.360  27.047  26.252  1.00  0.00    -0.460 OA
BRANCH   7   8
ATOM      8  C   UNL A   1      45.189  27.707  26.124  1.00  0.00     0.338 C 
ATOM      9  O   UNL A   1      44.707  27.808  24.995  1.00  0.00    -0.246 OA
BRANCH   8  10
ATOM     10  C   UNL A   1      44.405  28.292  27.246  1.00  0.00     0.060 A 
ATOM     11  C   UNL A   1      43.938  29.600  27.314  1.00  0.00     0.016 A 
ATOM     12  C   UNL A   1      44.004  27.412  28.263  1.00  0.00     0.016 A 
ATOM     13  C   UNL A   1      43.242  30.082  28.402  1.00  0.00     0.010 A 
ATOM     14  C   UNL A   1      43.251  27.867  29.350  1.00  0.00     0.010 A 
ATOM     15  C   UNL A   1      42.930  29.226  29.443  1.00  0.00    -0.014 A 
BRANCH  15  16
ATOM     16  C   UNL A   1      42.543  29.861  30.709  1.00  0.00     0.031 A 
ATOM     17  C   UNL A   1      41.192  30.512  30.740  1.00  0.00     0.074 A 
ATOM     18  C   UNL A   1      43.272  29.656  31.818  1.00  0.00     0.049 A 
ATOM     19  N   UNL A   1      40.626  31.203  31.686  1.00  0.00    -0.248 NA
ATOM     20  C   UNL A   1      40.355  30.346  29.535  1.00  0.00     0.031 C 
ATOM     21  C   UNL A   1      44.486  28.837  31.896  1.00  0.00     0.029 A 
ATOM     22  N   UNL A   1      43.072  30.074  33.103  1.00  0.00    -0.354 N 
ATOM     23  C   UNL A   1      39.404  31.612  31.165  1.00  0.00     0.074 A 
ATOM     24  C   UNL A   1      39.298  31.083  29.828  1.00  0.00     0.031 C 
ATOM     25  C   UNL A   1      44.907  28.794  33.171  1.00  0.00     0.029 A 
ATOM     26  C   UNL A   1      44.048  29.654  33.973  1.00  0.00     0.049 A 
ATOM     27  H   UNL A   1      42.303  30.624  33.378  1.00  0.00     0.167 HD
ATOM     28  C   UNL A   1      38.469  32.383  31.762  1.00  0.00     0.037 A 
ATOM     29  C   UNL A   1      44.236  29.982  35.265  1.00  0.00     0.037 A 
ATOM     30  C   UNL A   1      38.623  32.863  33.106  1.00  0.00     0.049 A 
ATOM     31  C   UNL A   1      43.243  30.932  35.878  1.00  0.00     0.074 A 
ATOM     32  C   UNL A   1      37.814  33.721  33.822  1.00  0.00     0.029 A 
ATOM     33  N   UNL A   1      39.681  32.508  33.940  1.00  0.00    -0.354 N 
ATOM     34  N   UNL A   1      42.152  31.439  35.345  1.00  0.00    -0.248 NA
ATOM     35  C   UNL A   1      43.510  31.377  37.249  1.00  0.00     0.031 C 
ATOM     36  C   UNL A   1      38.412  33.924  35.072  1.00  0.00     0.029 A 
ATOM     37  C   UNL A   1      39.557  33.142  35.158  1.00  0.00     0.049 A 
ATOM     38  H   UNL A   1      40.409  31.893  33.695  1.00  0.00     0.167 HD
ATOM     39  C   UNL A   1      41.584  32.240  36.325  1.00  0.00     0.074 A 
ATOM     40  C   UNL A   1      42.454  32.145  37.485  1.00  0.00     0.031 C 
ATOM     41  C   UNL A   1      40.453  32.990  36.281  1.00  0.00     0.037 A 
BRANCH  28  42
ATOM     42  C   UNL A   1      37.309  32.825  30.915  1.00  0.00     0.058 A 
ATOM     43  C   UNL A   1      37.399  33.882  29.993  1.00  0.00     0.135 A 
ATOM     44  C   UNL A   1      36.049  32.232  31.103  1.00  0.00     0.135 A 
ATOM     45  F   UNL A   1      38.567  34.517  29.804  1.00  0.00    -0.206 F 
ATOM     46  C   UNL A   1      36.275  34.362  29.324  1.00  0.00     0.059 A 
ATOM     47  C   UNL A   1      34.920  32.677  30.424  1.00  0.00     0.059 A 
ATOM     48  F   UNL A   1      35.900  31.232  31.986  1.00  0.00    -0.206 F 
ATOM     49  C   UNL A   1      35.038  33.758  29.553  1.00  0.00     0.060 A 
BRANCH  49  50
ATOM     50  S   UNL A   1      33.580  34.416  28.716  1.00  0.00     0.124 S 
ATOM     51  O   UNL A   1      33.138  33.256  27.946  1.00  0.00    -0.237 OA
ATOM     52  O   UNL A   1      32.723  34.797  29.833  1.00  0.00    -0.237 OA
ATOM     53  O   UNL A   1      34.111  35.525  27.928  1.00  0.00    -0.744 OA
ENDBRANCH  49  50
ENDBRANCH  28  42
BRANCH  29  54
ATOM     54  C   UNL A   1      45.412  29.462  36.015  1.00  0.00     0.058 A 
ATOM     55  C   UNL A   1      45.316  28.321  36.825  1.00  0.00     0.135 A 
ATOM     56  C   UNL A   1      46.670  30.086  35.923  1.00  0.00     0.135 A 
ATOM     57  F   UNL A   1      44.141  27.688  36.954  1.00  0.00    -0.206 F 
ATOM     58  C   UNL A   1      46.416  27.821  37.519  1.00  0.00     0.059 A 
ATOM     59  C   UNL A   1      47.790  29.589  36.584  1.00  0.00     0.059 A 
ATOM     60  F   UNL A   1      46.826  31.177  35.158  1.00  0.00    -0.206 F 
ATOM     61  C   UNL A   1      47.651  28.461  37.388  1.00  0.00     0.060 A 
BRANCH  61  62
ATOM     62  S   UNL A   1      49.081  27.778  38.256  1.00  0.00     0.124 S 
ATOM     63  O   UNL A   1      48.571  27.669  39.621  1.00  0.00    -0.237 OA
ATOM     64  O   UNL A   1      49.292  26.518  37.552  1.00  0.00    -0.237 OA
ATOM     65  O   UNL A   1      50.114  28.785  38.049  1.00  0.00    -0.744 OA
ENDBRANCH  61  62
ENDBRANCH  29  54
BRANCH  41  66
ATOM     66  C   UNL A   1      40.068  33.701  37.543  1.00  0.00     0.058 A 
ATOM     67  C   UNL A   1      40.611  34.948  37.884  1.00  0.00     0.135 A 
ATOM     68  C   UNL A   1      39.091  33.146  38.384  1.00  0.00     0.135 A 
ATOM     69  F   UNL A   1      41.553  35.512  37.111  1.00  0.00    -0.206 F 
ATOM     70  C   UNL A   1      40.214  35.613  39.037  1.00  0.00     0.059 A 
ATOM     71  C   UNL A   1      38.656  33.809  39.523  1.00  0.00     0.059 A 
ATOM     72  F   UNL A   1      38.535  31.961  38.086  1.00  0.00    -0.206 F 
ATOM     73  C   UNL A   1      39.234  35.035  39.847  1.00  0.00     0.060 A 
BRANCH  73  74
ATOM     74  S   UNL A   1      38.698  35.924  41.321  1.00  0.00     0.124 S 
ATOM     75  O   UNL A   1      38.562  37.284  40.808  1.00  0.00    -0.237 OA
ATOM     76  O   UNL A   1      37.451  35.246  41.659  1.00  0.00    -0.237 OA
ATOM     77  O   UNL A   1      39.794  35.714  42.261  1.00  0.00    -0.744 OA
ENDBRANCH  73  74
ENDBRANCH  41  66
ENDBRANCH  15  16
ENDBRANCH   8  10
ENDBRANCH   7   8
ENDBRANCH   6   7
ENDBRANCH   5   6
ENDBRANCH   4   5
ENDBRANCH   3   4
ENDBRANCH   2   3
ENDBRANCH   1   2
BRANCH   1  78
ATOM     78  C   UNL A   1      41.775  23.314  27.682  1.00  0.00     0.188 C 
BRANCH  78  79
ATOM     79  C   UNL A   1      42.357  24.344  28.677  1.00  0.00     0.188 C 
BRANCH  79  80
ATOM     80  O   UNL A   1      43.584  23.958  29.253  1.00  0.00    -0.376 OA
BRANCH  80  81
ATOM     81  C   UNL A   1      43.553  23.093  30.375  1.00  0.00     0.202 C 
BRANCH  81  82
ATOM     82  C   UNL A   1      44.370  23.370  31.648  1.00  0.00     0.261 C 
BRANCH  82  83
ATOM     83  O   UNL A   1      44.346  24.680  32.231  1.00  0.00    -0.463 OA
BRANCH  83  84
ATOM     84  C   UNL A   1      44.432  24.743  33.587  1.00  0.00     0.317 C 
ATOM     85  O   UNL A   1      43.540  25.145  34.327  1.00  0.00    -0.251 OA
BRANCH  84  86
ATOM     86  C   UNL A   1      45.814  24.407  34.125  1.00  0.00     0.169 C 
BRANCH  86  87
ATOM     87  C   UNL A   1      46.699  25.601  34.471  1.00  0.00     0.025 C 
BRANCH  87  88
ATOM     88  C   UNL A   1      48.045  25.741  33.757  1.00  0.00     0.018 C 
BRANCH  88  89
ATOM     89  C   UNL A   1      48.704  27.108  33.875  1.00  0.00     0.109 C 
ATOM     90  Cl  UNL A   1      48.297  28.167  32.497  1.00  0.00    -0.127 Cl
ENDBRANCH  88  89
ENDBRANCH  87  88
ENDBRANCH  86  87
BRANCH  86  91
ATOM     91  P   UNL A   1      45.505  23.019  35.237  1.00  0.00     0.156 P 
ATOM     92  O   UNL A   1      44.187  22.366  34.865  1.00  0.00    -0.313 OA
BRANCH  91  93
ATOM     93  C   UNL A   1      46.951  21.963  34.926  1.00  0.00     0.017 A 
ATOM     94  C   UNL A   1      48.252  22.499  34.975  1.00  0.00     0.012 A 
ATOM     95  C   UNL A   1      46.761  20.679  34.405  1.00  0.00     0.012 A 
ATOM     96  C   UNL A   1      49.324  21.793  34.429  1.00  0.00     0.001 A 
ATOM     97  C   UNL A   1      47.838  19.973  33.870  1.00  0.00     0.001 A 
ATOM     98  C   UNL A   1      49.114  20.538  33.865  1.00  0.00     0.000 A 
ENDBRANCH  91  93
BRANCH  91  99
ATOM     99  C   UNL A   1      45.507  23.375  36.974  1.00  0.00     0.017 A 
ATOM    100  C   UNL A   1      45.964  22.318  37.785  1.00  0.00     0.012 A 
ATOM    101  C   UNL A   1      44.987  24.513  37.590  1.00  0.00     0.012 A 
ATOM    102  C   UNL A   1      45.884  22.378  39.169  1.00  0.00     0.001 A 
ATOM    103  C   UNL A   1      44.894  24.570  38.984  1.00  0.00     0.001 A 
ATOM    104  C   UNL A   1      45.337  23.503  39.771  1.00  0.00     0.000 A 
ENDBRANCH  91  99
ENDBRANCH  86  91
ENDBRANCH  84  86
ENDBRANCH  83  84
ENDBRANCH  82  83
ENDBRANCH  81  82
ENDBRANCH  80  81
ENDBRANCH  79  80
ENDBRANCH  78  79
ENDBRANCH   1  78
TORSDOF 29
ENDMDL
MODEL 2
REMARK VINA RESULT:      -7.0      5.068      8.460
REMARK SMILES O=C(OCCOCCOCCOCCOC(=O)[C@@H](CCCCl)P(=O)(c1ccccc1)c1ccccc1)c1ccc(-c2c3nc(c(-c4c(F)cc(S(=O)(=O)[O-])cc4F)c4ccc([nH]4)c(-c4c(F)cc(S(=O)(=O)[O-])cc4F)c4nc(c(-c5c(F)cc(S(=O)(=O)[O-])cc5F)c5ccc2[nH]5)C=C4)C=C3)cc1
REMARK SMILES IDX 9 1 8 2 7 3 6 4 5 5 4 6 3 7 2 8 1 9 37 10 38 11 102 12 39 13
REMARK SMILES IDX 101 14 40 15 41 16 42 17 95 18 43 19 100 20 94 21 96 22
REMARK SMILES IDX 44 23 99 24 93 25 92 26 45 28 79 29 58 30 78 31 59 32 62 33
REMARK SMILES IDX 77 34 97 35 60 36 61 37 76 39 98 40 63 41 46 42 47 43 56 44
REMARK SMILES IDX 48 45 49 46 55 47 57 48 50 49 51 50 52 51 53 52 54 53 80 54
REMARK SMILES IDX 81 55 90 56 82 57 83 58 89 59 91 60 84 61 85 62 86 63 87 64
REMARK SMILES IDX 88 65 64 66 65 67 74 68 66 69 67 70 73 71 75 72 68 73 69 74
REMARK SMILES IDX 70 75 71 76 72 77 10 78 11 79 12 80 13 81 14 82 15 83 16 84
REMARK SMILES IDX 17 85 18 86 19 87 20 88 21 89 22 90 23 91 24 92 25 93 26 94
REMARK SMILES IDX 30 95 27 96 29 97 28 98 31 99 32 100 36 101 33 102 35 103
REMARK SMILES IDX 34 104
REMARK H PARENT 96 27 62 38
REMARK Flexibility Score: inf
ROOT
ATOM      1  O   UNL A   1      42.565  22.476  26.023  1.00  0.00    -0.377 OA
ENDROOT
BRANCH   1   2
ATOM      2  C   UNL A   1      43.445  23.048  25.055  1.00  0.00     0.188 C 
BRANCH   2   3
ATOM      3  C   UNL A   1      44.820  22.400  25.009  1.00  0.00     0.188 C 
BRANCH   3   4
ATOM      4  O   UNL A   1      45.721  23.205  25.740  1.00  0.00    -0.376 OA
BRANCH   4   5
ATOM      5  C   UNL A   1      46.107  24.472  25.246  1.00  0.00     0.202 C 
BRANCH   5   6
ATOM      6  C   UNL A   1      46.479  25.504  26.291  1.00  0.00     0.261 C 
BRANCH   6   7
ATOM      7  O   UNL A   1      45.927  26.823  26.115  1.00  0.00    -0.460 OA
BRANCH   7   8
ATOM      8  C   UNL A   1      44.671  27.314  26.048  1.00  0.00     0.338 C 
ATOM      9  O   UNL A   1      44.047  27.153  24.999  1.00  0.00    -0.246 OA
BRANCH   8  10
ATOM     10  C   UNL A   1      43.957  28.002  27.158  1.00  0.00     0.060 A 
ATOM     11  C   UNL A   1      43.749  29.373  27.263  1.00  0.00     0.016 A 
ATOM     12  C   UNL A   1      43.341  27.183  28.117  1.00  0.00     0.016 A 
ATOM     13  C   UNL A   1      43.103  29.944  28.338  1.00  0.00     0.010 A 
ATOM     14  C   UNL A   1      42.634  27.739  29.188  1.00  0.00     0.010 A 
ATOM     15  C   UNL A   1      42.578  29.130  29.326  1.00  0.00    -0.014 A 
BRANCH  15  16
ATOM     16  C   UNL A   1      42.255  29.786  30.599  1.00  0.00     0.031 A 
ATOM     17  C   UNL A   1      40.933  30.490  30.669  1.00  0.00     0.074 A 
ATOM     18  C   UNL A   1      43.009  29.556  31.687  1.00  0.00     0.049 A 
ATOM     19  N   UNL A   1      40.424  31.206  31.628  1.00  0.00    -0.248 NA
ATOM     20  C   UNL A   1      40.053  30.353  29.491  1.00  0.00     0.031 C 
ATOM     21  C   UNL A   1      44.192  28.689  31.732  1.00  0.00     0.029 A 
ATOM     22  N   UNL A   1      42.865  29.987  32.975  1.00  0.00    -0.354 N 
ATOM     23  C   UNL A   1      39.204  31.662  31.142  1.00  0.00     0.074 A 
ATOM     24  C   UNL A   1      39.036  31.133  29.812  1.00  0.00     0.031 C 
ATOM     25  C   UNL A   1      44.649  28.635  32.994  1.00  0.00     0.029 A 
ATOM     26  C   UNL A   1      43.850  29.532  33.817  1.00  0.00     0.049 A 
ATOM     27  H   UNL A   1      42.127  30.568  33.271  1.00  0.00     0.167 HD
ATOM     28  C   UNL A   1      38.319  32.472  31.763  1.00  0.00     0.037 A 
ATOM     29  C   UNL A   1      44.090  29.857  35.101  1.00  0.00     0.037 A 
ATOM     30  C   UNL A   1      38.533  32.951  33.099  1.00  0.00     0.049 A 
ATOM     31  C   UNL A   1      43.156  30.849  35.739  1.00  0.00     0.074 A 
ATOM     32  C   UNL A   1      37.781  33.843  33.835  1.00  0.00     0.029 A 
ATOM     33  N   UNL A   1      39.600  32.557  33.902  1.00  0.00    -0.354 N 
ATOM     34  N   UNL A   1      42.070  31.396  35.238  1.00  0.00    -0.248 NA
ATOM     35  C   UNL A   1      43.481  31.288  37.099  1.00  0.00     0.031 C 
ATOM     36  C   UNL A   1      38.424  34.028  35.065  1.00  0.00     0.029 A 
ATOM     37  C   UNL A   1      39.540  33.201  35.121  1.00  0.00     0.049 A 
ATOM     38  H   UNL A   1      40.296  31.913  33.638  1.00  0.00     0.167 HD
ATOM     39  C   UNL A   1      41.564  32.224  36.230  1.00  0.00     0.074 A 
ATOM     40  C   UNL A   1      42.464  32.098  37.363  1.00  0.00     0.031 C 
ATOM     41  C   UNL A   1      40.463  33.017  36.217  1.00  0.00     0.037 A 
BRANCH  28  42
ATOM     42  C   UNL A   1      37.152  32.956  30.949  1.00  0.00     0.058 A 
ATOM     43  C   UNL A   1      37.298  33.806  29.840  1.00  0.00     0.135 A 
ATOM     44  C   UNL A   1      35.845  32.633  31.353  1.00  0.00     0.135 A 
ATOM     45  F   UNL A   1      38.521  34.185  29.435  1.00  0.00    -0.206 F 
ATOM     46  C   UNL A   1      36.193  34.353  29.190  1.00  0.00     0.059 A 
ATOM     47  C   UNL A   1      34.728  33.144  30.700  1.00  0.00     0.059 A 
ATOM     48  F   UNL A   1      35.644  31.843  32.418  1.00  0.00    -0.206 F 
ATOM     49  C   UNL A   1      34.912  34.022  29.634  1.00  0.00     0.060 A 
BRANCH  49  50
ATOM     50  S   UNL A   1      33.488  34.769  28.813  1.00  0.00     0.124 S 
ATOM     51  O   UNL A   1      32.473  34.689  29.861  1.00  0.00    -0.237 OA
ATOM     52  O   UNL A   1      33.973  36.110  28.505  1.00  0.00    -0.237 OA
ATOM     53  O   UNL A   1      33.266  33.904  27.659  1.00  0.00    -0.744 OA
ENDBRANCH  49  50
ENDBRANCH  28  42
BRANCH  29  54
ATOM     54  C   UNL A   1      45.268  29.293  35.818  1.00  0.00     0.058 A 
ATOM     55  C   UNL A   1      45.150  28.163  36.638  1.00  0.00     0.135 A 
ATOM     56  C   UNL A   1      46.546  29.865  35.682  1.00  0.00     0.135 A 
ATOM     57  F   UNL A   1      43.955  27.579  36.809  1.00  0.00    -0.206 F 
ATOM     58  C   UNL A   1      46.250  27.622  37.301  1.00  0.00     0.059 A 
ATOM     59  C   UNL A   1      47.665  29.327  36.311  1.00  0.00     0.059 A 
ATOM     60  F   UNL A   1      46.722  30.945  34.905  1.00  0.00    -0.206 F 
ATOM     61  C   UNL A   1      47.506  28.210  37.128  1.00  0.00     0.060 A 
BRANCH  61  62
ATOM     62  S   UNL A   1      48.933  27.474  37.955  1.00  0.00     0.124 S 
ATOM     63  O   UNL A   1      49.796  27.153  36.820  1.00  0.00    -0.237 OA
ATOM     64  O   UNL A   1      49.386  28.565  38.811  1.00  0.00    -0.237 OA
ATOM     65  O   UNL A   1      48.365  26.329  38.656  1.00  0.00    -0.744 OA
ENDBRANCH  61  62
ENDBRANCH  29  54
BRANCH  41  66
ATOM     66  C   UNL A   1      40.145  33.748  37.485  1.00  0.00     0.058 A 
ATOM     67  C   UNL A   1      39.302  33.202  38.463  1.00  0.00     0.135 A 
ATOM     68  C   UNL A   1      40.753  34.987  37.745  1.00  0.00     0.135 A 
ATOM     69  F   UNL A   1      38.695  32.023  38.253  1.00  0.00    -0.206 F 
ATOM     70  C   UNL A   1      39.050  33.875  39.651  1.00  0.00     0.059 A 
ATOM     71  C   UNL A   1      40.541  35.660  38.940  1.00  0.00     0.059 A 
ATOM     72  F   UNL A   1      41.579  35.538  36.842  1.00  0.00    -0.206 F 
ATOM     73  C   UNL A   1      39.677  35.102  39.880  1.00  0.00     0.060 A 
BRANCH  73  74
ATOM     74  S   UNL A   1      39.372  35.949  41.442  1.00  0.00     0.124 S 
ATOM     75  O   UNL A   1      40.128  37.184  41.257  1.00  0.00    -0.237 OA
ATOM     76  O   UNL A   1      37.919  36.087  41.445  1.00  0.00    -0.237 OA
ATOM     77  O   UNL A   1      39.910  35.027  42.438  1.00  0.00    -0.744 OA
ENDBRANCH  73  74
ENDBRANCH  41  66
ENDBRANCH  15  16
ENDBRANCH   8  10
ENDBRANCH   7   8
ENDBRANCH   6   7
ENDBRANCH   5   6
ENDBRANCH   4   5
ENDBRANCH   3   4
ENDBRANCH   2   3
ENDBRANCH   1   2
BRANCH   1  78
ATOM     78  C   UNL A   1      41.684  23.336  26.752  1.00  0.00     0.188 C 
BRANCH  78  79
ATOM     79  C   UNL A   1      40.389  22.769  27.379  1.00  0.00     0.188 C 
BRANCH  79  80
ATOM     80  O   UNL A   1      39.432  22.344  26.437  1.00  0.00    -0.376 OA
BRANCH  80  81
ATOM     81  C   UNL A   1      38.388  23.238  26.094  1.00  0.00     0.202 C 
BRANCH  81  82
ATOM     82  C   UNL A   1      37.147  22.789  25.304  1.00  0.00     0.261 C 
BRANCH  82  83
ATOM     83  O   UNL A   1      36.399  21.651  25.754  1.00  0.00    -0.463 OA
BRANCH  83  84
ATOM     84  C   UNL A   1      35.100  21.873  26.090  1.00  0.00     0.317 C 
ATOM     85  O   UNL A   1      34.635  21.735  27.217  1.00  0.00    -0.251 OA
BRANCH  84  86
ATOM     86  C   UNL A   1      34.205  22.171  24.897  1.00  0.00     0.169 C 
BRANCH  86  87
ATOM     87  C   UNL A   1      33.299  21.029  24.445  1.00  0.00     0.025 C 
BRANCH  87  88
ATOM     88  C   UNL A   1      33.739  19.592  24.735  1.00  0.00     0.018 C 
BRANCH  88  89
ATOM     89  C   UNL A   1      33.252  18.551  23.737  1.00  0.00     0.109 C 
ATOM     90  Cl  UNL A   1      32.844  17.005  24.532  1.00  0.00    -0.127 Cl
ENDBRANCH  88  89
ENDBRANCH  87  88
ENDBRANCH  86  87
BRANCH  86  91
ATOM     91  P   UNL A   1      33.633  23.854  25.212  1.00  0.00     0.156 P 
ATOM     92  O   UNL A   1      34.641  24.566  26.095  1.00  0.00    -0.313 OA
BRANCH  91  93
ATOM     93  C   UNL A   1      33.534  24.535  23.530  1.00  0.00     0.017 A 
ATOM     94  C   UNL A   1      33.593  25.925  23.316  1.00  0.00     0.012 A 
ATOM     95  C   UNL A   1      33.159  23.697  22.474  1.00  0.00     0.012 A 
ATOM     96  C   UNL A   1      33.199  26.465  22.093  1.00  0.00     0.001 A 
ATOM     97  C   UNL A   1      32.776  24.242  21.249  1.00  0.00     0.001 A 
ATOM     98  C   UNL A   1      32.777  25.625  21.066  1.00  0.00     0.000 A 
ENDBRANCH  91  93
BRANCH  91  99
ATOM     99  C   UNL A   1      32.016  24.026  25.920  1.00  0.00     0.017 A 
ATOM    100  C   UNL A   1      31.480  22.834  26.444  1.00  0.00     0.012 A 
ATOM    101  C   UNL A   1      31.209  25.162  25.879  1.00  0.00     0.012 A 
ATOM    102  C   UNL A   1      30.168  22.764  26.892  1.00  0.00     0.001 A 
ATOM    103  C   UNL A   1      29.883  25.090  26.319  1.00  0.00     0.001 A 
ATOM    104  C   UNL A   1      29.363  23.893  26.819  1.00  0.00     0.000 A 
ENDBRANCH  91  99
ENDBRANCH  86  91
ENDBRANCH  84  86
ENDBRANCH  83  84
ENDBRANCH  82  83
ENDBRANCH  81  82
ENDBRANCH  80  81
ENDBRANCH  79  80
ENDBRANCH  78  79
ENDBRANCH   1  78
TORSDOF 29
ENDMDL
MODEL 3
REMARK VINA RESULT:      -6.6      5.939     13.051
REMARK SMILES O=C(OCCOCCOCCOCCOC(=O)[C@@H](CCCCl)P(=O)(c1ccccc1)c1ccccc1)c1ccc(-c2c3nc(c(-c4c(F)cc(S(=O)(=O)[O-])cc4F)c4ccc([nH]4)c(-c4c(F)cc(S(=O)(=O)[O-])cc4F)c4nc(c(-c5c(F)cc(S(=O)(=O)[O-])cc5F)c5ccc2[nH]5)C=C4)C=C3)cc1
REMARK SMILES IDX 9 1 8 2 7 3 6 4 5 5 4 6 3 7 2 8 1 9 37 10 38 11 102 12 39 13
REMARK SMILES IDX 101 14 40 15 41 16 42 17 95 18 43 19 100 20 94 21 96 22
REMARK SMILES IDX 44 23 99 24 93 25 92 26 45 28 79 29 58 30 78 31 59 32 62 33
REMARK SMILES IDX 77 34 97 35 60 36 61 37 76 39 98 40 63 41 46 42 47 43 56 44
REMARK SMILES IDX 48 45 49 46 55 47 57 48 50 49 51 50 52 51 53 52 54 53 80 54
REMARK SMILES IDX 81 55 90 56 82 57 83 58 89 59 91 60 84 61 85 62 86 63 87 64
REMARK SMILES IDX 88 65 64 66 65 67 74 68 66 69 67 70 73 71 75 72 68 73 69 74
REMARK SMILES IDX 70 75 71 76 72 77 10 78 11 79 12 80 13 81 14 82 15 83 16 84
REMARK SMILES IDX 17 85 18 86 19 87 20 88 21 89 22 90 23 91 24 92 25 93 26 94
REMARK SMILES IDX 30 95 27 96 29 97 28 98 31 99 32 100 36 101 33 102 35 103
REMARK SMILES IDX 34 104
REMARK H PARENT 96 27 62 38
REMARK Flexibility Score: inf
ROOT
ATOM      1  O   UNL A   1      34.205  35.213  30.590  1.00  0.00    -0.377 OA
ENDROOT
BRANCH   1   2
ATOM      2  C   UNL A   1      33.021  35.437  29.824  1.00  0.00     0.188 C 
BRANCH   2   3
ATOM      3  C   UNL A   1      32.935  34.598  28.559  1.00  0.00     0.188 C 
BRANCH   3   4
ATOM      4  O   UNL A   1      34.156  33.910  28.391  1.00  0.00    -0.376 OA
BRANCH   4   5
ATOM      5  C   UNL A   1      34.254  32.539  28.720  1.00  0.00     0.202 C 
BRANCH   5   6
ATOM      6  C   UNL A   1      35.654  32.017  28.969  1.00  0.00     0.261 C 
BRANCH   6   7
ATOM      7  O   UNL A   1      35.754  30.735  29.619  1.00  0.00    -0.460 OA
BRANCH   7   8
ATOM      8  C   UNL A   1      36.629  30.191  30.492  1.00  0.00     0.338 C 
ATOM      9  O   UNL A   1      36.182  29.754  31.553  1.00  0.00    -0.246 OA
BRANCH   8  10
ATOM     10  C   UNL A   1      38.090  30.036  30.261  1.00  0.00     0.060 A 
ATOM     11  C   UNL A   1      38.822  30.650  29.250  1.00  0.00     0.016 A 
ATOM     12  C   UNL A   1      38.807  29.302  31.218  1.00  0.00     0.016 A 
ATOM     13  C   UNL A   1      40.173  30.435  29.079  1.00  0.00     0.010 A 
ATOM     14  C   UNL A   1      40.188  29.116  31.095  1.00  0.00     0.010 A 
ATOM     15  C   UNL A   1      40.853  29.634  29.978  1.00  0.00    -0.014 A 
BRANCH  15  16
ATOM     16  C   UNL A   1      42.165  29.140  29.540  1.00  0.00     0.031 A 
ATOM     17  C   UNL A   1      43.341  30.022  29.836  1.00  0.00     0.074 A 
ATOM     18  C   UNL A   1      42.301  27.874  29.112  1.00  0.00     0.049 A 
ATOM     19  N   UNL A   1      44.590  29.876  29.504  1.00  0.00    -0.248 NA
ATOM     20  C   UNL A   1      43.069  31.234  30.633  1.00  0.00     0.031 C 
ATOM     21  C   UNL A   1      41.217  26.889  29.016  1.00  0.00     0.029 A 
ATOM     22  N   UNL A   1      43.413  27.179  28.730  1.00  0.00    -0.354 N 
ATOM     23  C   UNL A   1      45.235  31.009  29.988  1.00  0.00     0.074 A 
ATOM     24  C   UNL A   1      44.249  31.827  30.649  1.00  0.00     0.031 C 
ATOM     25  C   UNL A   1      41.727  25.710  28.625  1.00  0.00     0.029 A 
ATOM     26  C   UNL A   1      43.148  25.885  28.355  1.00  0.00     0.049 A 
ATOM     27  H   UNL A   1      44.317  27.570  28.723  1.00  0.00     0.167 HD
ATOM     28  C   UNL A   1      46.541  31.332  29.863  1.00  0.00     0.037 A 
ATOM     29  C   UNL A   1      43.971  24.970  27.810  1.00  0.00     0.037 A 
ATOM     30  C   UNL A   1      47.481  30.465  29.211  1.00  0.00     0.049 A 
ATOM     31  C   UNL A   1      45.397  25.391  27.576  1.00  0.00     0.074 A 
ATOM     32  C   UNL A   1      48.813  30.681  28.926  1.00  0.00     0.029 A 
ATOM     33  N   UNL A   1      47.164  29.192  28.742  1.00  0.00    -0.354 N 
ATOM     34  N   UNL A   1      45.986  26.519  27.906  1.00  0.00    -0.248 NA
ATOM     35  C   UNL A   1      46.265  24.436  26.881  1.00  0.00     0.031 C 
ATOM     36  C   UNL A   1      49.288  29.559  28.237  1.00  0.00     0.029 A 
ATOM     37  C   UNL A   1      48.270  28.616  28.152  1.00  0.00     0.049 A 
ATOM     38  H   UNL A   1      46.281  28.766  28.821  1.00  0.00     0.167 HD
ATOM     39  C   UNL A   1      47.303  26.402  27.484  1.00  0.00     0.074 A 
ATOM     40  C   UNL A   1      47.421  25.086  26.880  1.00  0.00     0.031 C 
ATOM     41  C   UNL A   1      48.325  27.290  27.581  1.00  0.00     0.037 A 
BRANCH  28  42
ATOM     42  C   UNL A   1      46.951  32.701  30.328  1.00  0.00     0.058 A 
ATOM     43  C   UNL A   1      47.244  32.992  31.672  1.00  0.00     0.135 A 
ATOM     44  C   UNL A   1      46.957  33.769  29.416  1.00  0.00     0.135 A 
ATOM     45  F   UNL A   1      47.210  32.020  32.597  1.00  0.00    -0.206 F 
ATOM     46  C   UNL A   1      47.484  34.297  32.099  1.00  0.00     0.059 A 
ATOM     47  C   UNL A   1      47.223  35.075  29.815  1.00  0.00     0.059 A 
ATOM     48  F   UNL A   1      46.664  33.554  28.124  1.00  0.00    -0.206 F 
ATOM     49  C   UNL A   1      47.463  35.333  31.163  1.00  0.00     0.060 A 
BRANCH  49  50
ATOM     50  S   UNL A   1      47.731  37.024  31.733  1.00  0.00     0.124 S 
ATOM     51  O   UNL A   1      47.097  37.795  30.667  1.00  0.00    -0.237 OA
ATOM     52  O   UNL A   1      47.039  37.034  33.017  1.00  0.00    -0.237 OA
ATOM     53  O   UNL A   1      49.184  37.133  31.806  1.00  0.00    -0.744 OA
ENDBRANCH  49  50
ENDBRANCH  28  42
BRANCH  29  54
ATOM     54  C   UNL A   1      43.457  23.631  27.410  1.00  0.00     0.058 A 
ATOM     55  C   UNL A   1      43.296  22.601  28.347  1.00  0.00     0.135 A 
ATOM     56  C   UNL A   1      43.097  23.356  26.078  1.00  0.00     0.135 A 
ATOM     57  F   UNL A   1      43.628  22.805  29.631  1.00  0.00    -0.206 F 
ATOM     58  C   UNL A   1      42.803  21.350  27.982  1.00  0.00     0.059 A 
ATOM     59  C   UNL A   1      42.575  22.124  25.694  1.00  0.00     0.059 A 
ATOM     60  F   UNL A   1      43.222  24.305  25.137  1.00  0.00    -0.206 F 
ATOM     61  C   UNL A   1      42.441  21.122  26.653  1.00  0.00     0.060 A 
BRANCH  61  62
ATOM     62  S   UNL A   1      41.761  19.512  26.199  1.00  0.00     0.124 S 
ATOM     63  O   UNL A   1      42.108  18.707  27.368  1.00  0.00    -0.237 OA
ATOM     64  O   UNL A   1      40.343  19.815  26.034  1.00  0.00    -0.237 OA
ATOM     65  O   UNL A   1      42.471  19.178  24.971  1.00  0.00    -0.744 OA
ENDBRANCH  61  62
ENDBRANCH  29  54
BRANCH  41  66
ATOM     66  C   UNL A   1      49.662  26.834  27.082  1.00  0.00     0.058 A 
ATOM     67  C   UNL A   1      50.033  26.961  25.736  1.00  0.00     0.135 A 
ATOM     68  C   UNL A   1      50.605  26.321  27.988  1.00  0.00     0.135 A 
ATOM     69  F   UNL A   1      49.159  27.440  24.835  1.00  0.00    -0.206 F 
ATOM     70  C   UNL A   1      51.291  26.570  25.297  1.00  0.00     0.059 A 
ATOM     71  C   UNL A   1      51.879  25.956  27.576  1.00  0.00     0.059 A 
ATOM     72  F   UNL A   1      50.296  26.197  29.288  1.00  0.00    -0.206 F 
ATOM     73  C   UNL A   1      52.207  26.071  26.226  1.00  0.00     0.060 A 
BRANCH  73  74
ATOM     74  S   UNL A   1      53.850  25.603  25.653  1.00  0.00     0.124 S 
ATOM     75  O   UNL A   1      54.365  26.879  25.167  1.00  0.00    -0.237 OA
ATOM     76  O   UNL A   1      54.471  25.089  26.870  1.00  0.00    -0.237 OA
ATOM     77  O   UNL A   1      53.578  24.603  24.625  1.00  0.00    -0.744 OA
ENDBRANCH  73  74
ENDBRANCH  41  66
ENDBRANCH  15  16
ENDBRANCH   8  10
ENDBRANCH   7   8
ENDBRANCH   6   7
ENDBRANCH   5   6
ENDBRANCH   4   5
ENDBRANCH   3   4
ENDBRANCH   2   3
ENDBRANCH   1   2
BRANCH   1  78
ATOM     78  C   UNL A   1      34.099  34.550  31.853  1.00  0.00     0.188 C 
BRANCH  78  79
ATOM     79  C   UNL A   1      35.118  33.455  32.243  1.00  0.00     0.188 C 
BRANCH  79  80
ATOM     80  O   UNL A   1      35.586  33.549  33.569  1.00  0.00    -0.376 OA
BRANCH  80  81
ATOM     81  C   UNL A   1      36.525  32.587  34.017  1.00  0.00     0.202 C 
BRANCH  81  82
ATOM     82  C   UNL A   1      37.938  32.975  34.484  1.00  0.00     0.261 C 
BRANCH  82  83
ATOM     83  O   UNL A   1      38.300  34.361  34.563  1.00  0.00    -0.463 OA
BRANCH  83  84
ATOM     84  C   UNL A   1      39.413  34.737  33.879  1.00  0.00     0.317 C 
ATOM     85  O   UNL A   1      39.503  34.781  32.656  1.00  0.00    -0.251 OA
BRANCH  84  86
ATOM     86  C   UNL A   1      40.626  34.965  34.768  1.00  0.00     0.169 C 
BRANCH  86  87
ATOM     87  C   UNL A   1      40.348  35.018  36.268  1.00  0.00     0.025 C 
BRANCH  87  88
ATOM     88  C   UNL A   1      40.892  36.202  37.069  1.00  0.00     0.018 C 
BRANCH  88  89
ATOM     89  C   UNL A   1      40.714  36.104  38.577  1.00  0.00     0.109 C 
ATOM     90  Cl  UNL A   1      40.150  37.643  39.285  1.00  0.00    -0.127 Cl
ENDBRANCH  88  89
ENDBRANCH  87  88
ENDBRANCH  86  87
BRANCH  86  91
ATOM     91  P   UNL A   1      41.901  33.937  34.009  1.00  0.00     0.156 P 
ATOM     92  O   UNL A   1      41.243  32.913  33.105  1.00  0.00    -0.313 OA
BRANCH  91  93
ATOM     93  C   UNL A   1      42.887  35.171  33.109  1.00  0.00     0.017 A 
ATOM     94  C   UNL A   1      43.100  36.452  33.654  1.00  0.00     0.012 A 
ATOM     95  C   UNL A   1      43.231  34.931  31.774  1.00  0.00     0.012 A 
ATOM     96  C   UNL A   1      43.566  37.490  32.847  1.00  0.00     0.001 A 
ATOM     97  C   UNL A   1      43.706  35.970  30.975  1.00  0.00     0.001 A 
ATOM     98  C   UNL A   1      43.854  37.252  31.506  1.00  0.00     0.000 A 
ENDBRANCH  91  93
BRANCH  91  99
ATOM     99  C   UNL A   1      43.017  33.110  35.111  1.00  0.00     0.017 A 
ATOM    100  C   UNL A   1      44.249  32.750  34.531  1.00  0.00     0.012 A 
ATOM    101  C   UNL A   1      42.737  32.679  36.407  1.00  0.00     0.012 A 
ATOM    102  C   UNL A   1      45.169  31.964  35.210  1.00  0.00     0.001 A 
ATOM    103  C   UNL A   1      43.658  31.876  37.089  1.00  0.00     0.001 A 
ATOM    104  C   UNL A   1      44.867  31.515  36.489  1.00  0.00     0.000 A 
ENDBRANCH  91  99
ENDBRANCH  86  91
ENDBRANCH  84  86
ENDBRANCH  83  84
ENDBRANCH  82  83
ENDBRANCH  81  82
ENDBRANCH  80  81
ENDBRANCH  79  80
ENDBRANCH  78  79
ENDBRANCH   1  78
TORSDOF 29
ENDMDL
