MODEL 1
REMARK VINA RESULT:      -9.1      0.000      0.000
REMARK SMILES Cc1cc(C(=O)N[C@H]2C=C[C@@H](C(=O)OCCOCCOCCOCCOC(=O)c3ccc(-c4c5nc(c(-c6c(F)cc(S(=O)(=O)[O-])cc6F)c6ccc([nH]6)c(-c6c(F)cc(S(=O)(=O)[O-])cc6F)c6nc(c(-c7c(F)cc(S(=O)(=O)[O-])cc7F)c7ccc4[nH]7)C=C6)C=C5)cc3)C2)no1
REMARK SMILES IDX 21 1 20 2 19 3 18 4 17 5 16 6 15 7 14 8 12 9 13 10 11 11
REMARK SMILES IDX 8 12 9 13 95 14 10 15 7 16 5 17 6 18 4 20 1 21 2 22 3 23
REMARK SMILES IDX 97 24 96 25 22 26 23 27 24 28 25 29 26 30 27 31 28 32 29 33
REMARK SMILES IDX 30 34 94 35 31 36 93 37 32 38 33 39 34 40 87 41 35 42 92 43
REMARK SMILES IDX 86 44 88 45 36 46 91 47 85 48 84 49 37 51 71 52 50 53 70 54
REMARK SMILES IDX 51 55 54 56 69 57 89 58 52 59 53 60 68 62 90 63 55 64 38 65
REMARK SMILES IDX 39 66 48 67 40 68 41 69 47 70 49 71 42 72 43 73 44 74 45 75
REMARK SMILES IDX 46 76 72 77 73 78 82 79 74 80 75 81 81 82 83 83 76 84 77 85
REMARK SMILES IDX 78 86 79 87 80 88 56 89 57 90 66 91 58 92 59 93 65 94 67 95
REMARK SMILES IDX 60 96 61 97 62 98 63 99 64 100
REMARK H PARENT 7 19 88 50 54 61
REMARK Flexibility Score: inf
ROOT
ATOM      1  C   UNL A   1      34.417  25.329  25.798  1.00  0.00     0.188 C 
ENDROOT
BRANCH   1   2
ATOM      2  O   UNL A   1      33.290  26.101  26.200  1.00  0.00    -0.377 OA
BRANCH   2   3
ATOM      3  C   UNL A   1      33.500  27.472  26.457  1.00  0.00     0.188 C 
BRANCH   3   4
ATOM      4  C   UNL A   1      32.286  28.225  27.023  1.00  0.00     0.188 C 
BRANCH   4   5
ATOM      5  O   UNL A   1      31.403  28.965  26.195  1.00  0.00    -0.376 OA
BRANCH   5   6
ATOM      6  C   UNL A   1      31.826  29.615  25.005  1.00  0.00     0.202 C 
BRANCH   6   7
ATOM      7  C   UNL A   1      32.132  28.873  23.697  1.00  0.00     0.261 C 
BRANCH   7   8
ATOM      8  O   UNL A   1      31.111  28.924  22.699  1.00  0.00    -0.463 OA
BRANCH   8   9
ATOM      9  C   UNL A   1      30.100  28.046  22.859  1.00  0.00     0.312 C 
ATOM     10  O   UNL A   1      28.976  28.337  23.262  1.00  0.00    -0.252 OA
BRANCH   9  11
ATOM     11  C   UNL A   1      30.473  26.624  22.488  1.00  0.00     0.124 C 
ATOM     12  C   UNL A   1      32.160  24.901  22.503  1.00  0.00     0.106 C 
ATOM     13  C   UNL A   1      31.457  24.970  23.816  1.00  0.00    -0.006 C 
ATOM     14  C   UNL A   1      31.875  26.290  21.941  1.00  0.00     0.048 C 
ATOM     15  C   UNL A   1      30.458  25.853  23.772  1.00  0.00    -0.014 C 
BRANCH  12  16
ATOM     16  N   UNL A   1      33.548  24.540  22.612  1.00  0.00    -0.344 N 
ATOM     17  C   UNL A   1      34.074  23.260  22.724  1.00  0.00     0.273 C 
ATOM     18  O   UNL A   1      35.292  23.106  22.658  1.00  0.00    -0.267 OA
ATOM     19  H   UNL A   1      34.195  25.280  22.605  1.00  0.00     0.164 HD
BRANCH  17  20
ATOM     20  C   UNL A   1      33.139  22.159  22.984  1.00  0.00     0.171 A 
ATOM     21  C   UNL A   1      32.321  18.751  23.990  1.00  0.00     0.091 C 
ATOM     22  C   UNL A   1      32.431  20.161  23.577  1.00  0.00     0.134 A 
ATOM     23  C   UNL A   1      33.115  21.243  24.073  1.00  0.00     0.082 A 
ATOM     24  O   UNL A   1      31.852  20.503  22.399  1.00  0.00    -0.361 OA
ATOM     25  N   UNL A   1      32.267  21.772  22.036  1.00  0.00    -0.074 NA
ENDBRANCH  17  20
ENDBRANCH  12  16
ENDBRANCH   9  11
ENDBRANCH   8   9
ENDBRANCH   7   8
ENDBRANCH   6   7
ENDBRANCH   5   6
ENDBRANCH   4   5
ENDBRANCH   3   4
ENDBRANCH   2   3
ENDBRANCH   1   2
BRANCH   1  26
ATOM     26  C   UNL A   1      34.470  23.837  26.189  1.00  0.00     0.188 C 
BRANCH  26  27
ATOM     27  O   UNL A   1      35.777  23.352  26.472  1.00  0.00    -0.376 OA
BRANCH  27  28
ATOM     28  C   UNL A   1      36.095  22.018  26.105  1.00  0.00     0.202 C 
BRANCH  28  29
ATOM     29  C   UNL A   1      37.402  21.786  25.328  1.00  0.00     0.261 C 
BRANCH  29  30
ATOM     30  O   UNL A   1      38.328  22.885  25.287  1.00  0.00    -0.460 OA
BRANCH  30  31
ATOM     31  C   UNL A   1      39.399  22.838  26.106  1.00  0.00     0.338 C 
ATOM     32  O   UNL A   1      40.240  21.955  26.159  1.00  0.00    -0.246 OA
BRANCH  31  33
ATOM     33  C   UNL A   1      39.510  24.143  26.791  1.00  0.00     0.060 A 
ATOM     34  C   UNL A   1      40.284  25.150  26.202  1.00  0.00     0.016 A 
ATOM     35  C   UNL A   1      38.865  24.369  28.009  1.00  0.00     0.016 A 
ATOM     36  C   UNL A   1      40.454  26.373  26.852  1.00  0.00     0.010 A 
ATOM     37  C   UNL A   1      39.054  25.587  28.670  1.00  0.00     0.010 A 
ATOM     38  C   UNL A   1      39.880  26.579  28.113  1.00  0.00    -0.014 A 
BRANCH  38  39
ATOM     39  C   UNL A   1      40.312  27.741  28.929  1.00  0.00     0.031 A 
ATOM     40  C   UNL A   1      41.647  27.668  29.623  1.00  0.00     0.074 A 
ATOM     41  C   UNL A   1      39.555  28.848  29.032  1.00  0.00     0.049 A 
ATOM     42  N   UNL A   1      42.219  28.534  30.417  1.00  0.00    -0.248 NA
ATOM     43  C   UNL A   1      42.443  26.449  29.392  1.00  0.00     0.031 C 
ATOM     44  C   UNL A   1      38.262  29.052  28.380  1.00  0.00     0.029 A 
ATOM     45  N   UNL A   1      39.762  30.007  29.738  1.00  0.00    -0.354 N 
ATOM     46  C   UNL A   1      43.429  27.961  30.795  1.00  0.00     0.074 A 
ATOM     47  C   UNL A   1      43.502  26.666  30.159  1.00  0.00     0.031 C 
ATOM     48  C   UNL A   1      37.780  30.255  28.737  1.00  0.00     0.029 A 
ATOM     49  C   UNL A   1      38.712  30.893  29.666  1.00  0.00     0.049 A 
ATOM     50  H   UNL A   1      40.584  30.187  30.248  1.00  0.00     0.167 HD
ATOM     51  C   UNL A   1      44.391  28.472  31.596  1.00  0.00     0.037 A 
ATOM     52  C   UNL A   1      38.515  32.066  30.301  1.00  0.00     0.037 A 
ATOM     53  C   UNL A   1      44.318  29.770  32.217  1.00  0.00     0.049 A 
ATOM     54  C   UNL A   1      39.584  32.594  31.226  1.00  0.00     0.074 A 
ATOM     55  C   UNL A   1      45.263  30.395  33.010  1.00  0.00     0.029 A 
ATOM     56  N   UNL A   1      43.236  30.633  32.127  1.00  0.00    -0.354 N 
ATOM     57  N   UNL A   1      40.745  32.064  31.536  1.00  0.00    -0.248 NA
ATOM     58  C   UNL A   1      39.322  33.882  31.885  1.00  0.00     0.031 C 
ATOM     59  C   UNL A   1      44.728  31.608  33.453  1.00  0.00     0.029 A 
ATOM     60  C   UNL A   1      43.477  31.771  32.880  1.00  0.00     0.049 A 
ATOM     61  H   UNL A   1      42.418  30.463  31.606  1.00  0.00     0.167 HD
ATOM     62  C   UNL A   1      41.360  32.967  32.400  1.00  0.00     0.074 A 
ATOM     63  C   UNL A   1      40.451  34.084  32.550  1.00  0.00     0.031 C 
ATOM     64  C   UNL A   1      42.567  32.881  33.014  1.00  0.00     0.037 A 
BRANCH  51  65
ATOM     65  C   UNL A   1      45.597  27.621  31.885  1.00  0.00     0.058 A 
ATOM     66  C   UNL A   1      46.771  27.709  31.121  1.00  0.00     0.135 A 
ATOM     67  C   UNL A   1      45.596  26.751  32.988  1.00  0.00     0.135 A 
ATOM     68  F   UNL A   1      46.820  28.506  30.043  1.00  0.00    -0.206 F 
ATOM     69  C   UNL A   1      47.900  26.957  31.437  1.00  0.00     0.059 A 
ATOM     70  C   UNL A   1      46.721  26.012  33.338  1.00  0.00     0.059 A 
ATOM     71  F   UNL A   1      44.495  26.624  33.746  1.00  0.00    -0.206 F 
ATOM     72  C   UNL A   1      47.866  26.118  32.553  1.00  0.00     0.060 A 
BRANCH  72  73
ATOM     73  S   UNL A   1      49.352  25.182  32.971  1.00  0.00     0.124 S 
ATOM     74  O   UNL A   1      48.794  24.085  33.758  1.00  0.00    -0.237 OA
ATOM     75  O   UNL A   1      49.870  24.818  31.657  1.00  0.00    -0.237 OA
ATOM     76  O   UNL A   1      50.161  26.140  33.718  1.00  0.00    -0.744 OA
ENDBRANCH  72  73
ENDBRANCH  51  65
BRANCH  52  77
ATOM     77  C   UNL A   1      37.240  32.814  30.116  1.00  0.00     0.058 A 
ATOM     78  C   UNL A   1      36.121  32.567  30.926  1.00  0.00     0.135 A 
ATOM     79  C   UNL A   1      37.108  33.775  29.101  1.00  0.00     0.135 A 
ATOM     80  F   UNL A   1      36.189  31.650  31.902  1.00  0.00    -0.206 F 
ATOM     81  C   UNL A   1      34.911  33.224  30.719  1.00  0.00     0.059 A 
ATOM     82  C   UNL A   1      35.919  34.468  28.895  1.00  0.00     0.059 A 
ATOM     83  F   UNL A   1      38.150  34.059  28.303  1.00  0.00    -0.206 F 
ATOM     84  C   UNL A   1      34.821  34.174  29.701  1.00  0.00     0.060 A 
BRANCH  84  85
ATOM     85  S   UNL A   1      33.255  35.041  29.462  1.00  0.00     0.124 S 
ATOM     86  O   UNL A   1      32.612  34.216  28.447  1.00  0.00    -0.237 OA
ATOM     87  O   UNL A   1      32.668  34.983  30.797  1.00  0.00    -0.237 OA
ATOM     88  O   UNL A   1      33.671  36.371  29.026  1.00  0.00    -0.744 OA
ENDBRANCH  84  85
ENDBRANCH  52  77
BRANCH  64  89
ATOM     89  C   UNL A   1      43.002  34.042  33.869  1.00  0.00     0.058 A 
ATOM     90  C   UNL A   1      43.620  35.178  33.322  1.00  0.00     0.135 A 
ATOM     91  C   UNL A   1      42.746  34.039  35.250  1.00  0.00     0.135 A 
ATOM     92  F   UNL A   1      43.890  35.233  32.009  1.00  0.00    -0.206 F 
ATOM     93  C   UNL A   1      43.999  36.254  34.119  1.00  0.00     0.059 A 
ATOM     94  C   UNL A   1      43.084  35.119  36.061  1.00  0.00     0.059 A 
ATOM     95  F   UNL A   1      42.143  32.986  35.825  1.00  0.00    -0.206 F 
ATOM     96  C   UNL A   1      43.725  36.216  35.488  1.00  0.00     0.060 A 
BRANCH  96  97
ATOM     97  S   UNL A   1      44.200  37.630  36.505  1.00  0.00     0.124 S 
ATOM     98  O   UNL A   1      44.130  38.723  35.541  1.00  0.00    -0.237 OA
ATOM     99  O   UNL A   1      43.172  37.629  37.540  1.00  0.00    -0.237 OA
ATOM    100  O   UNL A   1      45.542  37.283  36.962  1.00  0.00    -0.744 OA
ENDBRANCH  96  97
ENDBRANCH  64  89
ENDBRANCH  38  39
ENDBRANCH  31  33
ENDBRANCH  30  31
ENDBRANCH  29  30
ENDBRANCH  28  29
ENDBRANCH  27  28
ENDBRANCH  26  27
ENDBRANCH   1  26
TORSDOF 25
ENDMDL
MODEL 2
REMARK VINA RESULT:      -7.9      5.621     14.224
REMARK SMILES Cc1cc(C(=O)N[C@H]2C=C[C@@H](C(=O)OCCOCCOCCOCCOC(=O)c3ccc(-c4c5nc(c(-c6c(F)cc(S(=O)(=O)[O-])cc6F)c6ccc([nH]6)c(-c6c(F)cc(S(=O)(=O)[O-])cc6F)c6nc(c(-c7c(F)cc(S(=O)(=O)[O-])cc7F)c7ccc4[nH]7)C=C6)C=C5)cc3)C2)no1
REMARK SMILES IDX 21 1 20 2 19 3 18 4 17 5 16 6 15 7 14 8 12 9 13 10 11 11
REMARK SMILES IDX 8 12 9 13 95 14 10 15 7 16 5 17 6 18 4 20 1 21 2 22 3 23
REMARK SMILES IDX 97 24 96 25 22 26 23 27 24 28 25 29 26 30 27 31 28 32 29 33
REMARK SMILES IDX 30 34 94 35 31 36 93 37 32 38 33 39 34 40 87 41 35 42 92 43
REMARK SMILES IDX 86 44 88 45 36 46 91 47 85 48 84 49 37 51 71 52 50 53 70 54
REMARK SMILES IDX 51 55 54 56 69 57 89 58 52 59 53 60 68 62 90 63 55 64 38 65
REMARK SMILES IDX 39 66 48 67 40 68 41 69 47 70 49 71 42 72 43 73 44 74 45 75
REMARK SMILES IDX 46 76 72 77 73 78 82 79 74 80 75 81 81 82 83 83 76 84 77 85
REMARK SMILES IDX 78 86 79 87 80 88 56 89 57 90 66 91 58 92 59 93 65 94 67 95
REMARK SMILES IDX 60 96 61 97 62 98 63 99 64 100
REMARK H PARENT 7 19 88 50 54 61
REMARK Flexibility Score: inf
ROOT
ATOM      1  C   UNL A   1      52.841  23.177  34.273  1.00  0.00     0.188 C 
ENDROOT
BRANCH   1   2
ATOM      2  O   UNL A   1      52.697  22.464  33.050  1.00  0.00    -0.377 OA
BRANCH   2   3
ATOM      3  C   UNL A   1      53.424  21.263  32.908  1.00  0.00     0.188 C 
BRANCH   3   4
ATOM      4  C   UNL A   1      53.312  20.286  34.088  1.00  0.00     0.188 C 
BRANCH   4   5
ATOM      5  O   UNL A   1      52.242  19.363  34.205  1.00  0.00    -0.376 OA
BRANCH   5   6
ATOM      6  C   UNL A   1      50.908  19.760  34.486  1.00  0.00     0.202 C 
BRANCH   6   7
ATOM      7  C   UNL A   1      50.438  20.232  35.869  1.00  0.00     0.261 C 
BRANCH   7   8
ATOM      8  O   UNL A   1      49.296  21.091  35.879  1.00  0.00    -0.463 OA
BRANCH   8   9
ATOM      9  C   UNL A   1      48.834  21.426  37.100  1.00  0.00     0.312 C 
ATOM     10  O   UNL A   1      48.930  22.543  37.603  1.00  0.00    -0.252 OA
BRANCH   9  11
ATOM     11  C   UNL A   1      48.162  20.278  37.826  1.00  0.00     0.124 C 
ATOM     12  C   UNL A   1      47.356  19.399  39.923  1.00  0.00     0.106 C 
ATOM     13  C   UNL A   1      46.365  20.337  39.321  1.00  0.00    -0.006 C 
ATOM     14  C   UNL A   1      48.639  19.836  39.224  1.00  0.00     0.048 C 
ATOM     15  C   UNL A   1      46.767  20.742  38.116  1.00  0.00    -0.014 C 
BRANCH  12  16
ATOM     16  N   UNL A   1      47.380  19.432  41.360  1.00  0.00    -0.344 N 
ATOM     17  C   UNL A   1      46.636  18.647  42.229  1.00  0.00     0.273 C 
ATOM     18  O   UNL A   1      46.878  18.690  43.434  1.00  0.00    -0.267 OA
ATOM     19  H   UNL A   1      47.993  20.082  41.774  1.00  0.00     0.164 HD
BRANCH  17  20
ATOM     20  C   UNL A   1      45.543  17.848  41.659  1.00  0.00     0.171 A 
ATOM     21  C   UNL A   1      43.982  15.890  39.009  1.00  0.00     0.091 C 
ATOM     22  C   UNL A   1      44.438  16.620  40.204  1.00  0.00     0.134 A 
ATOM     23  C   UNL A   1      45.614  16.638  40.912  1.00  0.00     0.082 A 
ATOM     24  O   UNL A   1      43.612  17.580  40.690  1.00  0.00    -0.361 OA
ATOM     25  N   UNL A   1      44.291  18.335  41.630  1.00  0.00    -0.074 NA
ENDBRANCH  17  20
ENDBRANCH  12  16
ENDBRANCH   9  11
ENDBRANCH   8   9
ENDBRANCH   7   8
ENDBRANCH   6   7
ENDBRANCH   5   6
ENDBRANCH   4   5
ENDBRANCH   3   4
ENDBRANCH   2   3
ENDBRANCH   1   2
BRANCH   1  26
ATOM     26  C   UNL A   1      52.361  24.643  34.337  1.00  0.00     0.188 C 
BRANCH  26  27
ATOM     27  O   UNL A   1      51.476  24.923  35.414  1.00  0.00    -0.376 OA
BRANCH  27  28
ATOM     28  C   UNL A   1      50.095  24.638  35.243  1.00  0.00     0.202 C 
BRANCH  28  29
ATOM     29  C   UNL A   1      49.166  25.811  34.886  1.00  0.00     0.261 C 
BRANCH  29  30
ATOM     30  O   UNL A   1      48.987  26.818  35.896  1.00  0.00    -0.460 OA
BRANCH  30  31
ATOM     31  C   UNL A   1      48.037  26.609  36.832  1.00  0.00     0.338 C 
ATOM     32  O   UNL A   1      48.164  25.988  37.875  1.00  0.00    -0.246 OA
BRANCH  31  33
ATOM     33  C   UNL A   1      46.864  27.441  36.490  1.00  0.00     0.060 A 
ATOM     34  C   UNL A   1      45.584  26.948  36.771  1.00  0.00     0.016 A 
ATOM     35  C   UNL A   1      47.024  28.690  35.888  1.00  0.00     0.016 A 
ATOM     36  C   UNL A   1      44.456  27.684  36.408  1.00  0.00     0.010 A 
ATOM     37  C   UNL A   1      45.893  29.417  35.505  1.00  0.00     0.010 A 
ATOM     38  C   UNL A   1      44.604  28.900  35.729  1.00  0.00    -0.014 A 
BRANCH  38  39
ATOM     39  C   UNL A   1      43.423  29.519  35.076  1.00  0.00     0.031 A 
ATOM     40  C   UNL A   1      43.004  29.005  33.724  1.00  0.00     0.074 A 
ATOM     41  C   UNL A   1      42.720  30.496  35.678  1.00  0.00     0.049 A 
ATOM     42  N   UNL A   1      42.035  29.410  32.945  1.00  0.00    -0.248 NA
ATOM     43  C   UNL A   1      43.785  27.883  33.176  1.00  0.00     0.031 C 
ATOM     44  C   UNL A   1      43.006  31.053  36.999  1.00  0.00     0.029 A 
ATOM     45  N   UNL A   1      41.624  31.201  35.246  1.00  0.00    -0.354 N 
ATOM     46  C   UNL A   1      42.102  28.609  31.810  1.00  0.00     0.074 A 
ATOM     47  C   UNL A   1      43.216  27.706  31.993  1.00  0.00     0.031 C 
ATOM     48  C   UNL A   1      42.121  32.032  37.259  1.00  0.00     0.029 A 
ATOM     49  C   UNL A   1      41.228  32.193  36.113  1.00  0.00     0.049 A 
ATOM     50  H   UNL A   1      41.165  31.014  34.395  1.00  0.00     0.167 HD
ATOM     51  C   UNL A   1      41.304  28.624  30.718  1.00  0.00     0.037 A 
ATOM     52  C   UNL A   1      40.275  33.138  35.980  1.00  0.00     0.037 A 
ATOM     53  C   UNL A   1      40.188  29.518  30.549  1.00  0.00     0.049 A 
ATOM     54  C   UNL A   1      39.427  33.163  34.732  1.00  0.00     0.074 A 
ATOM     55  C   UNL A   1      39.291  29.579  29.496  1.00  0.00     0.029 A 
ATOM     56  N   UNL A   1      39.824  30.513  31.444  1.00  0.00    -0.354 N 
ATOM     57  N   UNL A   1      39.470  32.368  33.688  1.00  0.00    -0.248 NA
ATOM     58  C   UNL A   1      38.398  34.209  34.644  1.00  0.00     0.031 C 
ATOM     59  C   UNL A   1      38.426  30.653  29.723  1.00  0.00     0.029 A 
ATOM     60  C   UNL A   1      38.737  31.217  30.950  1.00  0.00     0.049 A 
ATOM     61  H   UNL A   1      40.271  30.693  32.302  1.00  0.00     0.167 HD
ATOM     62  C   UNL A   1      38.456  32.800  32.837  1.00  0.00     0.074 A 
ATOM     63  C   UNL A   1      37.807  33.915  33.494  1.00  0.00     0.031 C 
ATOM     64  C   UNL A   1      38.094  32.320  31.620  1.00  0.00     0.037 A 
BRANCH  51  65
ATOM     65  C   UNL A   1      41.621  27.673  29.597  1.00  0.00     0.058 A 
ATOM     66  C   UNL A   1      40.793  26.582  29.289  1.00  0.00     0.135 A 
ATOM     67  C   UNL A   1      42.738  27.899  28.777  1.00  0.00     0.135 A 
ATOM     68  F   UNL A   1      39.726  26.305  30.054  1.00  0.00    -0.206 F 
ATOM     69  C   UNL A   1      41.068  25.744  28.212  1.00  0.00     0.059 A 
ATOM     70  C   UNL A   1      43.016  27.093  27.679  1.00  0.00     0.059 A 
ATOM     71  F   UNL A   1      43.567  28.924  29.033  1.00  0.00    -0.206 F 
ATOM     72  C   UNL A   1      42.177  26.014  27.408  1.00  0.00     0.060 A 
BRANCH  72  73
ATOM     73  S   UNL A   1      42.495  24.941  25.990  1.00  0.00     0.124 S 
ATOM     74  O   UNL A   1      42.201  25.837  24.875  1.00  0.00    -0.237 OA
ATOM     75  O   UNL A   1      43.901  24.596  26.172  1.00  0.00    -0.237 OA
ATOM     76  O   UNL A   1      41.552  23.843  26.175  1.00  0.00    -0.744 OA
ENDBRANCH  72  73
ENDBRANCH  51  65
BRANCH  52  77
ATOM     77  C   UNL A   1      40.088  34.167  37.041  1.00  0.00     0.058 A 
ATOM     78  C   UNL A   1      40.851  35.344  37.064  1.00  0.00     0.135 A 
ATOM     79  C   UNL A   1      39.156  33.977  38.074  1.00  0.00     0.135 A 
ATOM     80  F   UNL A   1      41.765  35.570  36.108  1.00  0.00    -0.206 F 
ATOM     81  C   UNL A   1      40.718  36.282  38.085  1.00  0.00     0.059 A 
ATOM     82  C   UNL A   1      38.982  34.914  39.088  1.00  0.00     0.059 A 
ATOM     83  F   UNL A   1      38.392  32.873  38.096  1.00  0.00    -0.206 F 
ATOM     84  C   UNL A   1      39.778  36.056  39.092  1.00  0.00     0.060 A 
BRANCH  84  85
ATOM     85  S   UNL A   1      39.593  37.294  40.395  1.00  0.00     0.124 S 
ATOM     86  O   UNL A   1      39.800  36.492  41.595  1.00  0.00    -0.237 OA
ATOM     87  O   UNL A   1      40.655  38.241  40.069  1.00  0.00    -0.237 OA
ATOM     88  O   UNL A   1      38.236  37.792  40.194  1.00  0.00    -0.744 OA
ENDBRANCH  84  85
ENDBRANCH  52  77
BRANCH  64  89
ATOM     89  C   UNL A   1      36.915  32.961  30.936  1.00  0.00     0.058 A 
ATOM     90  C   UNL A   1      35.592  32.645  31.282  1.00  0.00     0.135 A 
ATOM     91  C   UNL A   1      37.116  33.947  29.956  1.00  0.00     0.135 A 
ATOM     92  F   UNL A   1      35.342  31.709  32.211  1.00  0.00    -0.206 F 
ATOM     93  C   UNL A   1      34.511  33.260  30.658  1.00  0.00     0.059 A 
ATOM     94  C   UNL A   1      36.050  34.600  29.344  1.00  0.00     0.059 A 
ATOM     95  F   UNL A   1      38.360  34.301  29.596  1.00  0.00    -0.206 F 
ATOM     96  C   UNL A   1      34.749  34.238  29.691  1.00  0.00     0.060 A 
BRANCH  96  97
ATOM     97  S   UNL A   1      33.337  35.044  28.907  1.00  0.00     0.124 S 
ATOM     98  O   UNL A   1      33.991  36.090  28.128  1.00  0.00    -0.237 OA
ATOM     99  O   UNL A   1      32.744  33.955  28.138  1.00  0.00    -0.237 OA
ATOM    100  O   UNL A   1      32.542  35.511  30.039  1.00  0.00    -0.744 OA
ENDBRANCH  96  97
ENDBRANCH  64  89
ENDBRANCH  38  39
ENDBRANCH  31  33
ENDBRANCH  30  31
ENDBRANCH  29  30
ENDBRANCH  28  29
ENDBRANCH  27  28
ENDBRANCH  26  27
ENDBRANCH   1  26
TORSDOF 25
ENDMDL
MODEL 3
REMARK VINA RESULT:      -7.9      7.140     14.343
REMARK SMILES Cc1cc(C(=O)N[C@H]2C=C[C@@H](C(=O)OCCOCCOCCOCCOC(=O)c3ccc(-c4c5nc(c(-c6c(F)cc(S(=O)(=O)[O-])cc6F)c6ccc([nH]6)c(-c6c(F)cc(S(=O)(=O)[O-])cc6F)c6nc(c(-c7c(F)cc(S(=O)(=O)[O-])cc7F)c7ccc4[nH]7)C=C6)C=C5)cc3)C2)no1
REMARK SMILES IDX 21 1 20 2 19 3 18 4 17 5 16 6 15 7 14 8 12 9 13 10 11 11
REMARK SMILES IDX 8 12 9 13 95 14 10 15 7 16 5 17 6 18 4 20 1 21 2 22 3 23
REMARK SMILES IDX 97 24 96 25 22 26 23 27 24 28 25 29 26 30 27 31 28 32 29 33
REMARK SMILES IDX 30 34 94 35 31 36 93 37 32 38 33 39 34 40 87 41 35 42 92 43
REMARK SMILES IDX 86 44 88 45 36 46 91 47 85 48 84 49 37 51 71 52 50 53 70 54
REMARK SMILES IDX 51 55 54 56 69 57 89 58 52 59 53 60 68 62 90 63 55 64 38 65
REMARK SMILES IDX 39 66 48 67 40 68 41 69 47 70 49 71 42 72 43 73 44 74 45 75
REMARK SMILES IDX 46 76 72 77 73 78 82 79 74 80 75 81 81 82 83 83 76 84 77 85
REMARK SMILES IDX 78 86 79 87 80 88 56 89 57 90 66 91 58 92 59 93 65 94 67 95
REMARK SMILES IDX 60 96 61 97 62 98 63 99 64 100
REMARK H PARENT 7 19 88 50 54 61
REMARK Flexibility Score: inf
ROOT
ATOM      1  C   UNL A   1      38.597  33.705  36.619  1.00  0.00     0.188 C 
ENDROOT
BRANCH   1   2
ATOM      2  O   UNL A   1      37.837  33.897  37.807  1.00  0.00    -0.377 OA
BRANCH   2   3
ATOM      3  C   UNL A   1      36.989  32.846  38.214  1.00  0.00     0.188 C 
BRANCH   3   4
ATOM      4  C   UNL A   1      37.613  31.845  39.199  1.00  0.00     0.188 C 
BRANCH   4   5
ATOM      5  O   UNL A   1      38.396  32.262  40.305  1.00  0.00    -0.376 OA
BRANCH   5   6
ATOM      6  C   UNL A   1      38.460  31.533  41.523  1.00  0.00     0.202 C 
BRANCH   6   7
ATOM      7  C   UNL A   1      38.363  32.188  42.908  1.00  0.00     0.261 C 
BRANCH   7   8
ATOM      8  O   UNL A   1      38.005  31.318  43.983  1.00  0.00    -0.463 OA
BRANCH   8   9
ATOM      9  C   UNL A   1      36.681  31.172  44.192  1.00  0.00     0.312 C 
ATOM     10  O   UNL A   1      36.159  30.198  44.730  1.00  0.00    -0.252 OA
BRANCH   9  11
ATOM     11  C   UNL A   1      35.859  32.347  43.698  1.00  0.00     0.124 C 
ATOM     12  C   UNL A   1      33.669  33.214  43.181  1.00  0.00     0.106 C 
ATOM     13  C   UNL A   1      33.945  33.301  44.644  1.00  0.00    -0.006 C 
ATOM     14  C   UNL A   1      34.657  32.132  42.757  1.00  0.00     0.048 C 
ATOM     15  C   UNL A   1      35.193  32.916  44.914  1.00  0.00    -0.014 C 
BRANCH  12  16
ATOM     16  N   UNL A   1      32.288  32.960  42.870  1.00  0.00    -0.344 N 
ATOM     17  C   UNL A   1      31.356  33.870  42.392  1.00  0.00     0.273 C 
ATOM     18  O   UNL A   1      30.252  33.465  42.034  1.00  0.00    -0.267 OA
ATOM     19  H   UNL A   1      31.969  32.040  43.011  1.00  0.00     0.164 HD
BRANCH  17  20
ATOM     20  C   UNL A   1      31.723  35.292  42.404  1.00  0.00     0.171 A 
ATOM     21  C   UNL A   1      31.063  38.820  43.042  1.00  0.00     0.091 C 
ATOM     22  C   UNL A   1      31.538  37.460  42.737  1.00  0.00     0.134 A 
ATOM     23  C   UNL A   1      31.495  36.267  43.415  1.00  0.00     0.082 A 
ATOM     24  O   UNL A   1      32.026  37.244  41.489  1.00  0.00    -0.361 OA
ATOM     25  N   UNL A   1      32.176  35.884  41.285  1.00  0.00    -0.074 NA
ENDBRANCH  17  20
ENDBRANCH  12  16
ENDBRANCH   9  11
ENDBRANCH   8   9
ENDBRANCH   7   8
ENDBRANCH   6   7
ENDBRANCH   5   6
ENDBRANCH   4   5
ENDBRANCH   3   4
ENDBRANCH   2   3
ENDBRANCH   1   2
BRANCH   1  26
ATOM     26  C   UNL A   1      37.890  33.857  35.256  1.00  0.00     0.188 C 
BRANCH  26  27
ATOM     27  O   UNL A   1      38.758  33.761  34.133  1.00  0.00    -0.376 OA
BRANCH  27  28
ATOM     28  C   UNL A   1      38.266  34.168  32.864  1.00  0.00     0.202 C 
BRANCH  28  29
ATOM     29  C   UNL A   1      37.060  33.406  32.290  1.00  0.00     0.261 C 
BRANCH  29  30
ATOM     30  O   UNL A   1      37.291  32.645  31.093  1.00  0.00    -0.460 OA
BRANCH  30  31
ATOM     31  C   UNL A   1      37.109  31.309  31.150  1.00  0.00     0.338 C 
ATOM     32  O   UNL A   1      36.086  30.725  31.466  1.00  0.00    -0.246 OA
BRANCH  31  33
ATOM     33  C   UNL A   1      38.297  30.659  30.559  1.00  0.00     0.060 A 
ATOM     34  C   UNL A   1      39.295  30.174  31.414  1.00  0.00     0.016 A 
ATOM     35  C   UNL A   1      38.433  30.537  29.175  1.00  0.00     0.016 A 
ATOM     36  C   UNL A   1      40.454  29.606  30.886  1.00  0.00     0.010 A 
ATOM     37  C   UNL A   1      39.605  29.988  28.646  1.00  0.00     0.010 A 
ATOM     38  C   UNL A   1      40.637  29.556  29.498  1.00  0.00    -0.014 A 
BRANCH  38  39
ATOM     39  C   UNL A   1      41.981  29.245  28.950  1.00  0.00     0.031 A 
ATOM     40  C   UNL A   1      42.242  27.848  28.449  1.00  0.00     0.074 A 
ATOM     41  C   UNL A   1      42.942  30.183  28.872  1.00  0.00     0.049 A 
ATOM     42  N   UNL A   1      43.340  27.331  27.966  1.00  0.00    -0.248 NA
ATOM     43  C   UNL A   1      41.108  26.908  28.503  1.00  0.00     0.031 C 
ATOM     44  C   UNL A   1      42.800  31.576  29.292  1.00  0.00     0.029 A 
ATOM     45  N   UNL A   1      44.236  30.098  28.420  1.00  0.00    -0.354 N 
ATOM     46  C   UNL A   1      43.039  26.004  27.676  1.00  0.00     0.074 A 
ATOM     47  C   UNL A   1      41.660  25.790  28.054  1.00  0.00     0.031 C 
ATOM     48  C   UNL A   1      43.971  32.210  29.101  1.00  0.00     0.029 A 
ATOM     49  C   UNL A   1      44.952  31.262  28.576  1.00  0.00     0.049 A 
ATOM     50  H   UNL A   1      44.615  29.281  28.024  1.00  0.00     0.167 HD
ATOM     51  C   UNL A   1      43.839  25.054  27.141  1.00  0.00     0.037 A 
ATOM     52  C   UNL A   1      46.257  31.520  28.349  1.00  0.00     0.037 A 
ATOM     53  C   UNL A   1      45.207  25.278  26.755  1.00  0.00     0.049 A 
ATOM     54  C   UNL A   1      47.141  30.430  27.794  1.00  0.00     0.074 A 
ATOM     55  C   UNL A   1      46.087  24.389  26.161  1.00  0.00     0.029 A 
ATOM     56  N   UNL A   1      45.900  26.466  26.935  1.00  0.00    -0.354 N 
ATOM     57  N   UNL A   1      46.830  29.194  27.479  1.00  0.00    -0.248 NA
ATOM     58  C   UNL A   1      48.552  30.769  27.556  1.00  0.00     0.031 C 
ATOM     59  C   UNL A   1      47.329  25.018  26.042  1.00  0.00     0.029 A 
ATOM     60  C   UNL A   1      47.206  26.322  26.497  1.00  0.00     0.049 A 
ATOM     61  H   UNL A   1      45.519  27.289  27.318  1.00  0.00     0.167 HD
ATOM     62  C   UNL A   1      47.997  28.621  26.981  1.00  0.00     0.074 A 
ATOM     63  C   UNL A   1      49.015  29.649  27.020  1.00  0.00     0.031 C 
ATOM     64  C   UNL A   1      48.208  27.358  26.532  1.00  0.00     0.037 A 
BRANCH  51  65
ATOM     65  C   UNL A   1      43.276  23.670  26.969  1.00  0.00     0.058 A 
ATOM     66  C   UNL A   1      42.896  23.170  25.713  1.00  0.00     0.135 A 
ATOM     67  C   UNL A   1      43.178  22.808  28.074  1.00  0.00     0.135 A 
ATOM     68  F   UNL A   1      42.946  23.958  24.628  1.00  0.00    -0.206 F 
ATOM     69  C   UNL A   1      42.431  21.867  25.561  1.00  0.00     0.059 A 
ATOM     70  C   UNL A   1      42.744  21.494  27.941  1.00  0.00     0.059 A 
ATOM     71  F   UNL A   1      43.520  23.239  29.298  1.00  0.00    -0.206 F 
ATOM     72  C   UNL A   1      42.368  21.034  26.681  1.00  0.00     0.060 A 
BRANCH  72  73
ATOM     73  S   UNL A   1      41.803  19.334  26.458  1.00  0.00     0.124 S 
ATOM     74  O   UNL A   1      42.033  18.773  27.787  1.00  0.00    -0.237 OA
ATOM     75  O   UNL A   1      40.405  19.518  26.082  1.00  0.00    -0.237 OA
ATOM     76  O   UNL A   1      42.670  18.820  25.403  1.00  0.00    -0.744 OA
ENDBRANCH  72  73
ENDBRANCH  51  65
BRANCH  52  77
ATOM     77  C   UNL A   1      46.824  32.859  28.676  1.00  0.00     0.058 A 
ATOM     78  C   UNL A   1      47.315  33.154  29.957  1.00  0.00     0.135 A 
ATOM     79  C   UNL A   1      46.859  33.882  27.715  1.00  0.00     0.135 A 
ATOM     80  F   UNL A   1      47.293  32.216  30.916  1.00  0.00    -0.206 F 
ATOM     81  C   UNL A   1      47.793  34.420  30.282  1.00  0.00     0.059 A 
ATOM     82  C   UNL A   1      47.362  35.147  28.007  1.00  0.00     0.059 A 
ATOM     83  F   UNL A   1      46.411  33.652  26.471  1.00  0.00    -0.206 F 
ATOM     84  C   UNL A   1      47.813  35.410  29.298  1.00  0.00     0.060 A 
BRANCH  84  85
ATOM     85  S   UNL A   1      48.465  37.039  29.723  1.00  0.00     0.124 S 
ATOM     86  O   UNL A   1      48.429  37.718  28.433  1.00  0.00    -0.237 OA
ATOM     87  O   UNL A   1      47.500  37.504  30.715  1.00  0.00    -0.237 OA
ATOM     88  O   UNL A   1      49.796  36.743  30.245  1.00  0.00    -0.744 OA
ENDBRANCH  84  85
ENDBRANCH  52  77
BRANCH  64  89
ATOM     89  C   UNL A   1      49.578  27.023  26.002  1.00  0.00     0.058 A 
ATOM     90  C   UNL A   1      50.548  26.387  26.793  1.00  0.00     0.135 A 
ATOM     91  C   UNL A   1      49.904  27.295  24.663  1.00  0.00     0.135 A 
ATOM     92  F   UNL A   1      50.290  26.105  28.080  1.00  0.00    -0.206 F 
ATOM     93  C   UNL A   1      51.802  26.064  26.286  1.00  0.00     0.059 A 
ATOM     94  C   UNL A   1      51.141  26.949  24.125  1.00  0.00     0.059 A 
ATOM     95  F   UNL A   1      49.011  27.888  23.855  1.00  0.00    -0.206 F 
ATOM     96  C   UNL A   1      52.089  26.347  24.949  1.00  0.00     0.060 A 
BRANCH  96  97
ATOM     97  S   UNL A   1      53.712  25.900  24.298  1.00  0.00     0.124 S 
ATOM     98  O   UNL A   1      53.449  25.841  22.865  1.00  0.00    -0.237 OA
ATOM     99  O   UNL A   1      54.545  27.011  24.746  1.00  0.00    -0.237 OA
ATOM    100  O   UNL A   1      53.992  24.617  24.937  1.00  0.00    -0.744 OA
ENDBRANCH  96  97
ENDBRANCH  64  89
ENDBRANCH  38  39
ENDBRANCH  31  33
ENDBRANCH  30  31
ENDBRANCH  29  30
ENDBRANCH  28  29
ENDBRANCH  27  28
ENDBRANCH  26  27
ENDBRANCH   1  26
TORSDOF 25
ENDMDL
