MODEL 1
REMARK VINA RESULT:      -9.8      0.000      0.000
REMARK SMILES COc1cc2c(CC(=O)OCCOCCOCCOCCOC(=O)c3ccc(-c4c5nc(c(-c6c(F)cc(S(=O)(=O)[O-])cc6F)c6ccc([nH]6)c(-c6c(F)cc(S(=O)(=O)[O-])cc6F)c6nc(c(-c7c(F)cc(S(=O)(=O)[O-])cc7F)c7ccc4[nH]7)C=C6)C=C5)cc3)c(C)n(C(=O)c3ccc(Cl)cc3)c2cc1Cl
REMARK SMILES IDX 16 1 15 2 14 3 13 4 12 5 11 6 10 7 8 8 9 9 7 10 6 11 3 12
REMARK SMILES IDX 4 13 105 14 5 15 104 16 106 17 103 18 91 19 93 20 92 21 2 22
REMARK SMILES IDX 1 23 94 24 95 25 96 26 97 27 102 28 98 29 101 30 99 31
REMARK SMILES IDX 100 32 17 33 18 34 19 35 20 36 21 37 22 38 23 39 24 40 25 41
REMARK SMILES IDX 26 42 90 43 27 44 89 45 28 46 29 47 30 48 83 49 31 50 88 51
REMARK SMILES IDX 82 52 84 53 32 54 87 55 81 56 80 57 33 59 67 60 46 61 66 62
REMARK SMILES IDX 47 63 50 64 65 65 85 66 48 67 49 68 64 70 86 71 51 72 34 73
REMARK SMILES IDX 35 74 44 75 36 76 37 77 43 78 45 79 38 80 39 81 40 82 41 83
REMARK SMILES IDX 42 84 68 85 69 86 78 87 70 88 71 89 77 90 79 91 72 92 73 93
REMARK SMILES IDX 74 94 75 95 76 96 52 97 53 98 62 99 54 100 55 101 61 102
REMARK SMILES IDX 63 103 56 104 57 105 58 106 59 107 60 108
REMARK H PARENT 84 58 50 69
REMARK Flexibility Score: inf
ROOT
ATOM      1  O   UNL A   1      41.790  30.492  36.039  1.00  0.00    -0.377 OA
ENDROOT
BRANCH   1   2
ATOM      2  C   UNL A   1      40.609  30.520  35.281  1.00  0.00     0.188 C 
BRANCH   2   3
ATOM      3  C   UNL A   1      39.221  30.433  35.902  1.00  0.00     0.188 C 
BRANCH   3   4
ATOM      4  O   UNL A   1      38.911  31.543  36.710  1.00  0.00    -0.376 OA
BRANCH   4   5
ATOM      5  C   UNL A   1      39.082  32.864  36.229  1.00  0.00     0.202 C 
BRANCH   5   6
ATOM      6  C   UNL A   1      37.915  33.814  35.864  1.00  0.00     0.261 C 
BRANCH   6   7
ATOM      7  O   UNL A   1      37.363  33.816  34.531  1.00  0.00    -0.463 OA
BRANCH   7   8
ATOM      8  C   UNL A   1      36.180  33.195  34.328  1.00  0.00     0.310 C 
ATOM      9  O   UNL A   1      35.147  33.520  34.910  1.00  0.00    -0.252 OA
BRANCH   8  10
ATOM     10  C   UNL A   1      36.178  32.067  33.292  1.00  0.00     0.160 C 
BRANCH  10  11
ATOM     11  C   UNL A   1      35.736  32.298  31.849  1.00  0.00    -0.008 A 
ATOM     12  C   UNL A   1      33.604  35.473  31.232  1.00  0.00     0.138 A 
ATOM     13  C   UNL A   1      34.207  34.437  31.981  1.00  0.00     0.058 A 
ATOM     14  C   UNL A   1      33.515  35.321  29.855  1.00  0.00     0.085 A 
ATOM     15  C   UNL A   1      34.872  33.342  31.365  1.00  0.00     0.008 A 
ATOM     16  C   UNL A   1      34.064  34.189  29.238  1.00  0.00     0.051 A 
ATOM     17  Cl  UNL A   1      32.698  36.410  28.782  1.00  0.00    -0.080 Cl
ATOM     18  C   UNL A   1      34.770  33.211  29.978  1.00  0.00     0.058 A 
ATOM     19  C   UNL A   1      35.994  31.471  30.757  1.00  0.00     0.028 A 
ATOM     20  N   UNL A   1      35.418  32.022  29.597  1.00  0.00    -0.280 N 
ATOM     21  C   UNL A   1      36.779  30.194  30.796  1.00  0.00     0.065 C 
BRANCH  12  22
ATOM     22  O   UNL A   1      33.180  36.517  32.011  1.00  0.00    -0.495 OA
ATOM     23  C   UNL A   1      33.940  36.876  33.160  1.00  0.00     0.278 C 
ENDBRANCH  12  22
BRANCH  20  24
ATOM     24  C   UNL A   1      35.439  31.474  28.273  1.00  0.00     0.262 C 
ATOM     25  O   UNL A   1      36.383  31.714  27.525  1.00  0.00    -0.268 OA
BRANCH  24  26
ATOM     26  C   UNL A   1      34.418  30.569  27.711  1.00  0.00     0.040 A 
ATOM     27  C   UNL A   1      33.157  31.066  27.362  1.00  0.00     0.015 A 
ATOM     28  C   UNL A   1      34.713  29.206  27.577  1.00  0.00     0.015 A 
ATOM     29  C   UNL A   1      32.162  30.176  26.943  1.00  0.00     0.021 A 
ATOM     30  C   UNL A   1      33.716  28.324  27.154  1.00  0.00     0.021 A 
ATOM     31  C   UNL A   1      32.442  28.811  26.852  1.00  0.00     0.041 A 
ATOM     32  Cl  UNL A   1      31.200  27.713  26.388  1.00  0.00    -0.084 Cl
ENDBRANCH  24  26
ENDBRANCH  20  24
ENDBRANCH  10  11
ENDBRANCH   8  10
ENDBRANCH   7   8
ENDBRANCH   6   7
ENDBRANCH   5   6
ENDBRANCH   4   5
ENDBRANCH   3   4
ENDBRANCH   2   3
ENDBRANCH   1   2
BRANCH   1  33
ATOM     33  C   UNL A   1      42.475  31.702  36.196  1.00  0.00     0.188 C 
BRANCH  33  34
ATOM     34  C   UNL A   1      42.297  32.637  34.996  1.00  0.00     0.188 C 
BRANCH  34  35
ATOM     35  O   UNL A   1      43.392  33.363  34.430  1.00  0.00    -0.376 OA
BRANCH  35  36
ATOM     36  C   UNL A   1      43.314  33.899  33.120  1.00  0.00     0.202 C 
BRANCH  36  37
ATOM     37  C   UNL A   1      42.104  34.780  32.749  1.00  0.00     0.261 C 
BRANCH  37  38
ATOM     38  O   UNL A   1      41.750  34.736  31.365  1.00  0.00    -0.460 OA
BRANCH  38  39
ATOM     39  C   UNL A   1      40.537  34.196  31.036  1.00  0.00     0.338 C 
ATOM     40  O   UNL A   1      39.474  34.730  31.017  1.00  0.00    -0.246 OA
BRANCH  39  41
ATOM     41  C   UNL A   1      40.874  32.895  30.395  1.00  0.00     0.060 A 
ATOM     42  C   UNL A   1      40.116  31.749  30.647  1.00  0.00     0.016 A 
ATOM     43  C   UNL A   1      42.162  32.803  29.851  1.00  0.00     0.016 A 
ATOM     44  C   UNL A   1      40.725  30.502  30.511  1.00  0.00     0.010 A 
ATOM     45  C   UNL A   1      42.772  31.556  29.731  1.00  0.00     0.010 A 
ATOM     46  C   UNL A   1      42.075  30.407  30.114  1.00  0.00    -0.014 A 
BRANCH  46  47
ATOM     47  C   UNL A   1      42.595  29.069  29.796  1.00  0.00     0.031 A 
ATOM     48  C   UNL A   1      43.497  28.602  30.880  1.00  0.00     0.074 A 
ATOM     49  C   UNL A   1      42.218  28.227  28.809  1.00  0.00     0.049 A 
ATOM     50  N   UNL A   1      44.752  28.306  30.813  1.00  0.00    -0.248 NA
ATOM     51  C   UNL A   1      42.951  28.647  32.251  1.00  0.00     0.031 C 
ATOM     52  C   UNL A   1      41.108  28.411  27.874  1.00  0.00     0.029 A 
ATOM     53  N   UNL A   1      42.673  26.964  28.503  1.00  0.00    -0.354 N 
ATOM     54  C   UNL A   1      45.086  27.912  32.103  1.00  0.00     0.074 A 
ATOM     55  C   UNL A   1      44.024  28.344  32.974  1.00  0.00     0.031 C 
ATOM     56  C   UNL A   1      40.843  27.234  27.262  1.00  0.00     0.029 A 
ATOM     57  C   UNL A   1      41.813  26.233  27.685  1.00  0.00     0.049 A 
ATOM     58  H   UNL A   1      43.530  26.607  28.833  1.00  0.00     0.167 HD
ATOM     59  C   UNL A   1      46.035  26.972  32.338  1.00  0.00     0.037 A 
ATOM     60  C   UNL A   1      41.838  24.897  27.430  1.00  0.00     0.037 A 
ATOM     61  C   UNL A   1      46.877  26.735  31.206  1.00  0.00     0.049 A 
ATOM     62  C   UNL A   1      43.205  24.387  27.709  1.00  0.00     0.074 A 
ATOM     63  C   UNL A   1      47.985  27.323  30.638  1.00  0.00     0.029 A 
ATOM     64  N   UNL A   1      46.350  25.877  30.283  1.00  0.00    -0.354 N 
ATOM     65  N   UNL A   1      44.263  24.711  27.019  1.00  0.00    -0.248 NA
ATOM     66  C   UNL A   1      43.467  23.672  28.957  1.00  0.00     0.031 C 
ATOM     67  C   UNL A   1      48.047  26.856  29.292  1.00  0.00     0.029 A 
ATOM     68  C   UNL A   1      46.982  25.990  29.072  1.00  0.00     0.049 A 
ATOM     69  H   UNL A   1      45.610  25.254  30.467  1.00  0.00     0.167 HD
ATOM     70  C   UNL A   1      45.301  24.611  27.921  1.00  0.00     0.074 A 
ATOM     71  C   UNL A   1      44.793  23.814  29.026  1.00  0.00     0.031 C 
ATOM     72  C   UNL A   1      46.355  25.470  27.877  1.00  0.00     0.037 A 
BRANCH  59  73
ATOM     73  C   UNL A   1      45.873  25.959  33.436  1.00  0.00     0.058 A 
ATOM     74  C   UNL A   1      46.636  26.049  34.608  1.00  0.00     0.135 A 
ATOM     75  C   UNL A   1      45.147  24.756  33.254  1.00  0.00     0.135 A 
ATOM     76  F   UNL A   1      47.410  27.121  34.833  1.00  0.00    -0.206 F 
ATOM     77  C   UNL A   1      46.658  25.020  35.551  1.00  0.00     0.059 A 
ATOM     78  C   UNL A   1      45.101  23.750  34.205  1.00  0.00     0.059 A 
ATOM     79  F   UNL A   1      44.522  24.481  32.099  1.00  0.00    -0.206 F 
ATOM     80  C   UNL A   1      45.880  23.880  35.343  1.00  0.00     0.060 A 
BRANCH  80  81
ATOM     81  S   UNL A   1      45.918  22.544  36.550  1.00  0.00     0.124 S 
ATOM     82  O   UNL A   1      47.321  22.147  36.500  1.00  0.00    -0.237 OA
ATOM     83  O   UNL A   1      45.488  23.224  37.768  1.00  0.00    -0.237 OA
ATOM     84  O   UNL A   1      44.966  21.578  36.011  1.00  0.00    -0.744 OA
ENDBRANCH  80  81
ENDBRANCH  59  73
BRANCH  60  85
ATOM     85  C   UNL A   1      40.701  23.956  27.192  1.00  0.00     0.058 A 
ATOM     86  C   UNL A   1      39.378  24.313  27.529  1.00  0.00     0.135 A 
ATOM     87  C   UNL A   1      40.835  22.823  26.364  1.00  0.00     0.135 A 
ATOM     88  F   UNL A   1      39.141  25.376  28.315  1.00  0.00    -0.206 F 
ATOM     89  C   UNL A   1      38.263  23.653  27.000  1.00  0.00     0.059 A 
ATOM     90  C   UNL A   1      39.738  22.135  25.845  1.00  0.00     0.059 A 
ATOM     91  F   UNL A   1      42.035  22.404  25.944  1.00  0.00    -0.206 F 
ATOM     92  C   UNL A   1      38.455  22.582  26.130  1.00  0.00     0.060 A 
BRANCH  92  93
ATOM     93  S   UNL A   1      37.038  21.883  25.251  1.00  0.00     0.124 S 
ATOM     94  O   UNL A   1      36.702  22.953  24.318  1.00  0.00    -0.237 OA
ATOM     95  O   UNL A   1      37.612  20.679  24.660  1.00  0.00    -0.237 OA
ATOM     96  O   UNL A   1      36.064  21.649  26.312  1.00  0.00    -0.744 OA
ENDBRANCH  92  93
ENDBRANCH  60  85
BRANCH  72  97
ATOM     97  C   UNL A   1      46.771  26.004  26.543  1.00  0.00     0.058 A 
ATOM     98  C   UNL A   1      46.168  27.084  25.881  1.00  0.00     0.135 A 
ATOM     99  C   UNL A   1      47.891  25.412  25.936  1.00  0.00     0.135 A 
ATOM    100  F   UNL A   1      45.137  27.746  26.429  1.00  0.00    -0.206 F 
ATOM    101  C   UNL A   1      46.650  27.540  24.653  1.00  0.00     0.059 A 
ATOM    102  C   UNL A   1      48.407  25.870  24.731  1.00  0.00     0.059 A 
ATOM    103  F   UNL A   1      48.525  24.393  26.541  1.00  0.00    -0.206 F 
ATOM    104  C   UNL A   1      47.775  26.931  24.090  1.00  0.00     0.060 A 
BRANCH 104 105
ATOM    105  S   UNL A   1      48.452  27.588  22.552  1.00  0.00     0.124 S 
ATOM    106  O   UNL A   1      47.368  28.443  22.080  1.00  0.00    -0.237 OA
ATOM    107  O   UNL A   1      49.653  28.281  23.013  1.00  0.00    -0.237 OA
ATOM    108  O   UNL A   1      48.700  26.394  21.749  1.00  0.00    -0.744 OA
ENDBRANCH 104 105
ENDBRANCH  72  97
ENDBRANCH  46  47
ENDBRANCH  39  41
ENDBRANCH  38  39
ENDBRANCH  37  38
ENDBRANCH  36  37
ENDBRANCH  35  36
ENDBRANCH  34  35
ENDBRANCH  33  34
ENDBRANCH   1  33
TORSDOF 27
ENDMDL
MODEL 2
REMARK VINA RESULT:      -7.9      6.003     12.406
REMARK SMILES COc1cc2c(CC(=O)OCCOCCOCCOCCOC(=O)c3ccc(-c4c5nc(c(-c6c(F)cc(S(=O)(=O)[O-])cc6F)c6ccc([nH]6)c(-c6c(F)cc(S(=O)(=O)[O-])cc6F)c6nc(c(-c7c(F)cc(S(=O)(=O)[O-])cc7F)c7ccc4[nH]7)C=C6)C=C5)cc3)c(C)n(C(=O)c3ccc(Cl)cc3)c2cc1Cl
REMARK SMILES IDX 16 1 15 2 14 3 13 4 12 5 11 6 10 7 8 8 9 9 7 10 6 11 3 12
REMARK SMILES IDX 4 13 105 14 5 15 104 16 106 17 103 18 91 19 93 20 92 21 2 22
REMARK SMILES IDX 1 23 94 24 95 25 96 26 97 27 102 28 98 29 101 30 99 31
REMARK SMILES IDX 100 32 17 33 18 34 19 35 20 36 21 37 22 38 23 39 24 40 25 41
REMARK SMILES IDX 26 42 90 43 27 44 89 45 28 46 29 47 30 48 83 49 31 50 88 51
REMARK SMILES IDX 82 52 84 53 32 54 87 55 81 56 80 57 33 59 67 60 46 61 66 62
REMARK SMILES IDX 47 63 50 64 65 65 85 66 48 67 49 68 64 70 86 71 51 72 34 73
REMARK SMILES IDX 35 74 44 75 36 76 37 77 43 78 45 79 38 80 39 81 40 82 41 83
REMARK SMILES IDX 42 84 68 85 69 86 78 87 70 88 71 89 77 90 79 91 72 92 73 93
REMARK SMILES IDX 74 94 75 95 76 96 52 97 53 98 62 99 54 100 55 101 61 102
REMARK SMILES IDX 63 103 56 104 57 105 58 106 59 107 60 108
REMARK H PARENT 84 58 50 69
REMARK Flexibility Score: inf
ROOT
ATOM      1  O   UNL A   1      33.279  31.314  27.354  1.00  0.00    -0.377 OA
ENDROOT
BRANCH   1   2
ATOM      2  C   UNL A   1      32.775  30.866  26.124  1.00  0.00     0.188 C 
BRANCH   2   3
ATOM      3  C   UNL A   1      33.382  29.702  25.352  1.00  0.00     0.188 C 
BRANCH   3   4
ATOM      4  O   UNL A   1      32.584  28.543  25.388  1.00  0.00    -0.376 OA
BRANCH   4   5
ATOM      5  C   UNL A   1      31.456  28.461  26.242  1.00  0.00     0.202 C 
BRANCH   5   6
ATOM      6  C   UNL A   1      31.126  27.237  27.130  1.00  0.00     0.261 C 
BRANCH   6   7
ATOM      7  O   UNL A   1      31.572  25.917  26.753  1.00  0.00    -0.463 OA
BRANCH   7   8
ATOM      8  C   UNL A   1      30.700  24.890  26.871  1.00  0.00     0.310 C 
ATOM      9  O   UNL A   1      29.484  25.032  26.775  1.00  0.00    -0.252 OA
BRANCH   8  10
ATOM     10  C   UNL A   1      31.316  23.507  27.099  1.00  0.00     0.160 C 
BRANCH  10  11
ATOM     11  C   UNL A   1      32.176  22.822  26.039  1.00  0.00    -0.008 A 
ATOM     12  C   UNL A   1      31.980  24.336  22.479  1.00  0.00     0.138 A 
ATOM     13  C   UNL A   1      31.573  24.085  23.809  1.00  0.00     0.058 A 
ATOM     14  C   UNL A   1      32.930  23.498  21.913  1.00  0.00     0.085 A 
ATOM     15  C   UNL A   1      32.222  23.125  24.634  1.00  0.00     0.008 A 
ATOM     16  C   UNL A   1      33.500  22.469  22.676  1.00  0.00     0.051 A 
ATOM     17  Cl  UNL A   1      33.458  23.558  20.264  1.00  0.00    -0.080 Cl
ATOM     18  C   UNL A   1      33.176  22.294  24.042  1.00  0.00     0.058 A 
ATOM     19  C   UNL A   1      32.987  21.703  26.221  1.00  0.00     0.028 A 
ATOM     20  N   UNL A   1      33.618  21.370  25.008  1.00  0.00    -0.280 N 
ATOM     21  C   UNL A   1      33.178  20.965  27.512  1.00  0.00     0.065 C 
BRANCH  12  22
ATOM     22  O   UNL A   1      31.348  25.417  21.924  1.00  0.00    -0.495 OA
ATOM     23  C   UNL A   1      32.010  26.677  21.915  1.00  0.00     0.278 C 
ENDBRANCH  12  22
BRANCH  20  24
ATOM     24  C   UNL A   1      34.513  20.278  24.765  1.00  0.00     0.262 C 
ATOM     25  O   UNL A   1      35.704  20.497  24.555  1.00  0.00    -0.268 OA
BRANCH  24  26
ATOM     26  C   UNL A   1      34.142  18.851  24.793  1.00  0.00     0.040 A 
ATOM     27  C   UNL A   1      32.798  18.479  24.920  1.00  0.00     0.015 A 
ATOM     28  C   UNL A   1      35.152  17.882  24.737  1.00  0.00     0.015 A 
ATOM     29  C   UNL A   1      32.473  17.126  25.065  1.00  0.00     0.021 A 
ATOM     30  C   UNL A   1      34.818  16.532  24.878  1.00  0.00     0.021 A 
ATOM     31  C   UNL A   1      33.483  16.162  25.055  1.00  0.00     0.041 A 
ATOM     32  Cl  UNL A   1      33.085  14.503  25.287  1.00  0.00    -0.084 Cl
ENDBRANCH  24  26
ENDBRANCH  20  24
ENDBRANCH  10  11
ENDBRANCH   8  10
ENDBRANCH   7   8
ENDBRANCH   6   7
ENDBRANCH   5   6
ENDBRANCH   4   5
ENDBRANCH   3   4
ENDBRANCH   2   3
ENDBRANCH   1   2
BRANCH   1  33
ATOM     33  C   UNL A   1      34.528  30.822  27.749  1.00  0.00     0.188 C 
BRANCH  33  34
ATOM     34  C   UNL A   1      35.584  31.927  27.868  1.00  0.00     0.188 C 
BRANCH  34  35
ATOM     35  O   UNL A   1      35.244  33.313  27.779  1.00  0.00    -0.376 OA
BRANCH  35  36
ATOM     36  C   UNL A   1      34.771  34.024  28.911  1.00  0.00     0.202 C 
BRANCH  36  37
ATOM     37  C   UNL A   1      34.504  33.248  30.216  1.00  0.00     0.261 C 
BRANCH  37  38
ATOM     38  O   UNL A   1      34.082  34.068  31.308  1.00  0.00    -0.460 OA
BRANCH  38  39
ATOM     39  C   UNL A   1      34.096  33.514  32.560  1.00  0.00     0.338 C 
ATOM     40  O   UNL A   1      33.210  32.963  33.131  1.00  0.00    -0.246 OA
BRANCH  39  41
ATOM     41  C   UNL A   1      35.539  33.458  32.922  1.00  0.00     0.060 A 
ATOM     42  C   UNL A   1      36.130  32.267  33.351  1.00  0.00     0.016 A 
ATOM     43  C   UNL A   1      36.153  34.695  33.161  1.00  0.00     0.016 A 
ATOM     44  C   UNL A   1      37.252  32.337  34.175  1.00  0.00     0.010 A 
ATOM     45  C   UNL A   1      37.266  34.761  33.997  1.00  0.00     0.010 A 
ATOM     46  C   UNL A   1      37.784  33.587  34.551  1.00  0.00    -0.014 A 
BRANCH  46  47
ATOM     47  C   UNL A   1      39.078  33.591  35.250  1.00  0.00     0.031 A 
ATOM     48  C   UNL A   1      38.870  33.777  36.708  1.00  0.00     0.074 A 
ATOM     49  C   UNL A   1      40.301  33.278  34.768  1.00  0.00     0.049 A 
ATOM     50  N   UNL A   1      39.285  34.737  37.466  1.00  0.00    -0.248 NA
ATOM     51  C   UNL A   1      37.918  32.853  37.357  1.00  0.00     0.031 C 
ATOM     52  C   UNL A   1      40.612  32.749  33.440  1.00  0.00     0.029 A 
ATOM     53  N   UNL A   1      41.522  33.253  35.404  1.00  0.00    -0.354 N 
ATOM     54  C   UNL A   1      38.826  34.402  38.735  1.00  0.00     0.074 A 
ATOM     55  C   UNL A   1      37.828  33.378  38.575  1.00  0.00     0.031 C 
ATOM     56  C   UNL A   1      41.874  32.260  33.441  1.00  0.00     0.029 A 
ATOM     57  C   UNL A   1      42.497  32.519  34.731  1.00  0.00     0.049 A 
ATOM     58  H   UNL A   1      41.691  33.713  36.259  1.00  0.00     0.167 HD
ATOM     59  C   UNL A   1      39.517  34.734  39.853  1.00  0.00     0.037 A 
ATOM     60  C   UNL A   1      43.694  32.085  35.212  1.00  0.00     0.037 A 
ATOM     61  C   UNL A   1      40.501  35.747  39.620  1.00  0.00     0.049 A 
ATOM     62  C   UNL A   1      44.072  32.928  36.374  1.00  0.00     0.074 A 
ATOM     63  C   UNL A   1      40.527  37.119  39.523  1.00  0.00     0.029 A 
ATOM     64  N   UNL A   1      41.679  35.277  39.112  1.00  0.00    -0.354 N 
ATOM     65  N   UNL A   1      44.372  34.195  36.293  1.00  0.00    -0.248 NA
ATOM     66  C   UNL A   1      43.881  32.418  37.730  1.00  0.00     0.031 C 
ATOM     67  C   UNL A   1      41.733  37.456  38.841  1.00  0.00     0.029 A 
ATOM     68  C   UNL A   1      42.418  36.282  38.544  1.00  0.00     0.049 A 
ATOM     69  H   UNL A   1      41.963  34.335  39.151  1.00  0.00     0.167 HD
ATOM     70  C   UNL A   1      44.008  34.711  37.519  1.00  0.00     0.074 A 
ATOM     71  C   UNL A   1      43.879  33.568  38.409  1.00  0.00     0.031 C 
ATOM     72  C   UNL A   1      43.492  35.964  37.629  1.00  0.00     0.037 A 
BRANCH  59  73
ATOM     73  C   UNL A   1      39.600  33.797  41.024  1.00  0.00     0.058 A 
ATOM     74  C   UNL A   1      39.066  34.161  42.269  1.00  0.00     0.135 A 
ATOM     75  C   UNL A   1      40.412  32.637  41.008  1.00  0.00     0.135 A 
ATOM     76  F   UNL A   1      38.342  35.283  42.394  1.00  0.00    -0.206 F 
ATOM     77  C   UNL A   1      39.305  33.407  43.419  1.00  0.00     0.059 A 
ATOM     78  C   UNL A   1      40.609  31.837  42.122  1.00  0.00     0.059 A 
ATOM     79  F   UNL A   1      41.116  32.287  39.921  1.00  0.00    -0.206 F 
ATOM     80  C   UNL A   1      40.070  32.243  43.331  1.00  0.00     0.060 A 
BRANCH  80  81
ATOM     81  S   UNL A   1      40.392  31.276  44.817  1.00  0.00     0.124 S 
ATOM     82  O   UNL A   1      41.827  31.473  44.987  1.00  0.00    -0.237 OA
ATOM     83  O   UNL A   1      39.534  31.934  45.797  1.00  0.00    -0.237 OA
ATOM     84  O   UNL A   1      39.977  29.930  44.436  1.00  0.00    -0.744 OA
ENDBRANCH  80  81
ENDBRANCH  59  73
BRANCH  60  85
ATOM     85  C   UNL A   1      44.440  30.827  34.901  1.00  0.00     0.058 A 
ATOM     86  C   UNL A   1      43.990  29.577  35.377  1.00  0.00     0.135 A 
ATOM     87  C   UNL A   1      45.426  30.777  33.895  1.00  0.00     0.135 A 
ATOM     88  F   UNL A   1      43.053  29.514  36.338  1.00  0.00    -0.206 F 
ATOM     89  C   UNL A   1      44.414  28.364  34.824  1.00  0.00     0.059 A 
ATOM     90  C   UNL A   1      45.882  29.579  33.346  1.00  0.00     0.059 A 
ATOM     91  F   UNL A   1      45.907  31.894  33.335  1.00  0.00    -0.206 F 
ATOM     92  C   UNL A   1      45.339  28.378  33.783  1.00  0.00     0.060 A 
BRANCH  92  93
ATOM     93  S   UNL A   1      45.708  26.845  32.897  1.00  0.00     0.124 S 
ATOM     94  O   UNL A   1      46.517  27.326  31.782  1.00  0.00    -0.237 OA
ATOM     95  O   UNL A   1      46.416  26.071  33.911  1.00  0.00    -0.237 OA
ATOM     96  O   UNL A   1      44.387  26.337  32.538  1.00  0.00    -0.744 OA
ENDBRANCH  92  93
ENDBRANCH  60  85
BRANCH  72  97
ATOM     97  C   UNL A   1      43.956  37.002  36.658  1.00  0.00     0.058 A 
ATOM     98  C   UNL A   1      45.132  37.757  36.780  1.00  0.00     0.135 A 
ATOM     99  C   UNL A   1      43.179  37.192  35.503  1.00  0.00     0.135 A 
ATOM    100  F   UNL A   1      45.962  37.585  37.821  1.00  0.00    -0.206 F 
ATOM    101  C   UNL A   1      45.505  38.679  35.801  1.00  0.00     0.059 A 
ATOM    102  C   UNL A   1      43.549  38.079  34.501  1.00  0.00     0.059 A 
ATOM    103  F   UNL A   1      42.058  36.473  35.320  1.00  0.00    -0.206 F 
ATOM    104  C   UNL A   1      44.711  38.827  34.661  1.00  0.00     0.060 A 
BRANCH 104 105
ATOM    105  S   UNL A   1      45.251  39.948  33.354  1.00  0.00     0.124 S 
ATOM    106  O   UNL A   1      44.815  41.244  33.861  1.00  0.00    -0.237 OA
ATOM    107  O   UNL A   1      46.695  39.726  33.332  1.00  0.00    -0.237 OA
ATOM    108  O   UNL A   1      44.537  39.467  32.174  1.00  0.00    -0.744 OA
ENDBRANCH 104 105
ENDBRANCH  72  97
ENDBRANCH  46  47
ENDBRANCH  39  41
ENDBRANCH  38  39
ENDBRANCH  37  38
ENDBRANCH  36  37
ENDBRANCH  35  36
ENDBRANCH  34  35
ENDBRANCH  33  34
ENDBRANCH   1  33
TORSDOF 27
ENDMDL
MODEL 3
REMARK VINA RESULT:      -7.7      3.425      7.887
REMARK SMILES COc1cc2c(CC(=O)OCCOCCOCCOCCOC(=O)c3ccc(-c4c5nc(c(-c6c(F)cc(S(=O)(=O)[O-])cc6F)c6ccc([nH]6)c(-c6c(F)cc(S(=O)(=O)[O-])cc6F)c6nc(c(-c7c(F)cc(S(=O)(=O)[O-])cc7F)c7ccc4[nH]7)C=C6)C=C5)cc3)c(C)n(C(=O)c3ccc(Cl)cc3)c2cc1Cl
REMARK SMILES IDX 16 1 15 2 14 3 13 4 12 5 11 6 10 7 8 8 9 9 7 10 6 11 3 12
REMARK SMILES IDX 4 13 105 14 5 15 104 16 106 17 103 18 91 19 93 20 92 21 2 22
REMARK SMILES IDX 1 23 94 24 95 25 96 26 97 27 102 28 98 29 101 30 99 31
REMARK SMILES IDX 100 32 17 33 18 34 19 35 20 36 21 37 22 38 23 39 24 40 25 41
REMARK SMILES IDX 26 42 90 43 27 44 89 45 28 46 29 47 30 48 83 49 31 50 88 51
REMARK SMILES IDX 82 52 84 53 32 54 87 55 81 56 80 57 33 59 67 60 46 61 66 62
REMARK SMILES IDX 47 63 50 64 65 65 85 66 48 67 49 68 64 70 86 71 51 72 34 73
REMARK SMILES IDX 35 74 44 75 36 76 37 77 43 78 45 79 38 80 39 81 40 82 41 83
REMARK SMILES IDX 42 84 68 85 69 86 78 87 70 88 71 89 77 90 79 91 72 92 73 93
REMARK SMILES IDX 74 94 75 95 76 96 52 97 53 98 62 99 54 100 55 101 61 102
REMARK SMILES IDX 63 103 56 104 57 105 58 106 59 107 60 108
REMARK H PARENT 84 58 50 69
REMARK Flexibility Score: inf
ROOT
ATOM      1  O   UNL A   1      41.613  34.587  34.995  1.00  0.00    -0.377 OA
ENDROOT
BRANCH   1   2
ATOM      2  C   UNL A   1      41.251  34.855  33.666  1.00  0.00     0.188 C 
BRANCH   2   3
ATOM      3  C   UNL A   1      40.825  33.769  32.687  1.00  0.00     0.188 C 
BRANCH   3   4
ATOM      4  O   UNL A   1      39.501  33.337  32.888  1.00  0.00    -0.376 OA
BRANCH   4   5
ATOM      5  C   UNL A   1      38.417  33.980  32.240  1.00  0.00     0.202 C 
BRANCH   5   6
ATOM      6  C   UNL A   1      37.482  35.007  32.923  1.00  0.00     0.261 C 
BRANCH   6   7
ATOM      7  O   UNL A   1      36.986  34.772  34.257  1.00  0.00    -0.463 OA
BRANCH   7   8
ATOM      8  C   UNL A   1      36.764  33.494  34.640  1.00  0.00     0.310 C 
ATOM      9  O   UNL A   1      37.492  32.897  35.430  1.00  0.00    -0.252 OA
BRANCH   8  10
ATOM     10  C   UNL A   1      35.515  32.824  34.060  1.00  0.00     0.160 C 
BRANCH  10  11
ATOM     11  C   UNL A   1      35.278  32.726  32.555  1.00  0.00    -0.008 A 
ATOM     12  C   UNL A   1      33.189  35.589  30.992  1.00  0.00     0.138 A 
ATOM     13  C   UNL A   1      33.700  34.765  32.020  1.00  0.00     0.058 A 
ATOM     14  C   UNL A   1      33.300  35.150  29.680  1.00  0.00     0.085 A 
ATOM     15  C   UNL A   1      34.470  33.601  31.747  1.00  0.00     0.008 A 
ATOM     16  C   UNL A   1      33.956  33.943  29.399  1.00  0.00     0.051 A 
ATOM     17  Cl  UNL A   1      32.621  35.947  28.299  1.00  0.00    -0.080 Cl
ATOM     18  C   UNL A   1      34.569  33.179  30.419  1.00  0.00     0.058 A 
ATOM     19  C   UNL A   1      35.707  31.704  31.709  1.00  0.00     0.028 A 
ATOM     20  N   UNL A   1      35.291  31.971  30.391  1.00  0.00    -0.280 N 
ATOM     21  C   UNL A   1      36.505  30.505  32.125  1.00  0.00     0.065 C 
BRANCH  12  22
ATOM     22  O   UNL A   1      32.636  36.750  31.466  1.00  0.00    -0.495 OA
ATOM     23  C   UNL A   1      33.424  37.935  31.483  1.00  0.00     0.278 C 
ENDBRANCH  12  22
BRANCH  20  24
ATOM     24  C   UNL A   1      35.511  31.161  29.231  1.00  0.00     0.262 C 
ATOM     25  O   UNL A   1      34.723  31.212  28.289  1.00  0.00    -0.268 OA
BRANCH  24  26
ATOM     26  C   UNL A   1      36.668  30.269  29.022  1.00  0.00     0.040 A 
ATOM     27  C   UNL A   1      36.935  29.242  29.935  1.00  0.00     0.015 A 
ATOM     28  C   UNL A   1      37.514  30.494  27.928  1.00  0.00     0.015 A 
ATOM     29  C   UNL A   1      38.100  28.482  29.790  1.00  0.00     0.021 A 
ATOM     30  C   UNL A   1      38.674  29.728  27.787  1.00  0.00     0.021 A 
ATOM     31  C   UNL A   1      38.968  28.735  28.726  1.00  0.00     0.041 A 
ATOM     32  Cl  UNL A   1      40.428  27.834  28.580  1.00  0.00    -0.084 Cl
ENDBRANCH  24  26
ENDBRANCH  20  24
ENDBRANCH  10  11
ENDBRANCH   8  10
ENDBRANCH   7   8
ENDBRANCH   6   7
ENDBRANCH   5   6
ENDBRANCH   4   5
ENDBRANCH   3   4
ENDBRANCH   2   3
ENDBRANCH   1   2
BRANCH   1  33
ATOM     33  C   UNL A   1      41.584  35.661  35.893  1.00  0.00     0.188 C 
BRANCH  33  34
ATOM     34  C   UNL A   1      40.669  35.396  37.094  1.00  0.00     0.188 C 
BRANCH  34  35
ATOM     35  O   UNL A   1      41.065  34.551  38.178  1.00  0.00    -0.376 OA
BRANCH  35  36
ATOM     36  C   UNL A   1      41.448  33.205  37.952  1.00  0.00     0.202 C 
BRANCH  36  37
ATOM     37  C   UNL A   1      40.389  32.209  37.439  1.00  0.00     0.261 C 
BRANCH  37  38
ATOM     38  O   UNL A   1      40.490  31.915  36.043  1.00  0.00    -0.460 OA
BRANCH  38  39
ATOM     39  C   UNL A   1      40.272  30.623  35.648  1.00  0.00     0.338 C 
ATOM     40  O   UNL A   1      39.460  29.856  36.056  1.00  0.00    -0.246 OA
BRANCH  39  41
ATOM     41  C   UNL A   1      41.043  30.490  34.381  1.00  0.00     0.060 A 
ATOM     42  C   UNL A   1      40.467  29.923  33.242  1.00  0.00     0.016 A 
ATOM     43  C   UNL A   1      42.434  30.612  34.502  1.00  0.00     0.016 A 
ATOM     44  C   UNL A   1      41.301  29.320  32.302  1.00  0.00     0.010 A 
ATOM     45  C   UNL A   1      43.263  29.995  33.568  1.00  0.00     0.010 A 
ATOM     46  C   UNL A   1      42.697  29.299  32.496  1.00  0.00    -0.014 A 
BRANCH  46  47
ATOM     47  C   UNL A   1      43.530  28.830  31.379  1.00  0.00     0.031 A 
ATOM     48  C   UNL A   1      43.546  29.845  30.294  1.00  0.00     0.074 A 
ATOM     49  C   UNL A   1      44.356  27.762  31.328  1.00  0.00     0.049 A 
ATOM     50  N   UNL A   1      43.132  29.730  29.076  1.00  0.00    -0.248 NA
ATOM     51  C   UNL A   1      43.912  31.220  30.689  1.00  0.00     0.031 C 
ATOM     52  C   UNL A   1      44.702  26.867  32.433  1.00  0.00     0.029 A 
ATOM     53  N   UNL A   1      45.161  27.314  30.305  1.00  0.00    -0.354 N 
ATOM     54  C   UNL A   1      43.402  30.965  28.499  1.00  0.00     0.074 A 
ATOM     55  C   UNL A   1      43.668  31.891  29.568  1.00  0.00     0.031 C 
ATOM     56  C   UNL A   1      45.786  26.134  32.088  1.00  0.00     0.029 A 
ATOM     57  C   UNL A   1      46.160  26.432  30.713  1.00  0.00     0.049 A 
ATOM     58  H   UNL A   1      45.042  27.592  29.367  1.00  0.00     0.167 HD
ATOM     59  C   UNL A   1      43.720  31.084  27.186  1.00  0.00     0.037 A 
ATOM     60  C   UNL A   1      47.257  26.033  30.013  1.00  0.00     0.037 A 
ATOM     61  C   UNL A   1      43.381  29.922  26.423  1.00  0.00     0.049 A 
ATOM     62  C   UNL A   1      46.996  26.237  28.565  1.00  0.00     0.074 A 
ATOM     63  C   UNL A   1      42.254  29.407  25.825  1.00  0.00     0.029 A 
ATOM     64  N   UNL A   1      44.306  28.918  26.488  1.00  0.00    -0.354 N 
ATOM     65  N   UNL A   1      46.107  25.573  27.881  1.00  0.00    -0.248 NA
ATOM     66  C   UNL A   1      47.571  27.395  27.884  1.00  0.00     0.031 C 
ATOM     67  C   UNL A   1      42.500  28.018  25.620  1.00  0.00     0.029 A 
ATOM     68  C   UNL A   1      43.774  27.718  26.091  1.00  0.00     0.049 A 
ATOM     69  H   UNL A   1      45.237  29.041  26.781  1.00  0.00     0.167 HD
ATOM     70  C   UNL A   1      45.724  26.445  26.883  1.00  0.00     0.074 A 
ATOM     71  C   UNL A   1      46.761  27.463  26.826  1.00  0.00     0.031 C 
ATOM     72  C   UNL A   1      44.440  26.481  26.435  1.00  0.00     0.037 A 
BRANCH  59  73
ATOM     73  C   UNL A   1      44.758  32.066  26.722  1.00  0.00     0.058 A 
ATOM     74  C   UNL A   1      46.092  31.944  27.138  1.00  0.00     0.135 A 
ATOM     75  C   UNL A   1      44.417  33.272  26.063  1.00  0.00     0.135 A 
ATOM     76  F   UNL A   1      46.491  30.867  27.831  1.00  0.00    -0.206 F 
ATOM     77  C   UNL A   1      47.031  32.947  26.894  1.00  0.00     0.059 A 
ATOM     78  C   UNL A   1      45.346  34.252  25.751  1.00  0.00     0.059 A 
ATOM     79  F   UNL A   1      43.144  33.579  25.774  1.00  0.00    -0.206 F 
ATOM     80  C   UNL A   1      46.649  34.091  26.191  1.00  0.00     0.060 A 
BRANCH  80  81
ATOM     81  S   UNL A   1      47.856  35.393  25.888  1.00  0.00     0.124 S 
ATOM     82  O   UNL A   1      47.023  36.587  25.972  1.00  0.00    -0.237 OA
ATOM     83  O   UNL A   1      48.800  35.192  26.982  1.00  0.00    -0.237 OA
ATOM     84  O   UNL A   1      48.370  35.070  24.561  1.00  0.00    -0.744 OA
ENDBRANCH  80  81
ENDBRANCH  59  73
BRANCH  60  85
ATOM     85  C   UNL A   1      48.630  25.708  30.507  1.00  0.00     0.058 A 
ATOM     86  C   UNL A   1      49.598  25.144  29.649  1.00  0.00     0.135 A 
ATOM     87  C   UNL A   1      49.119  26.212  31.729  1.00  0.00     0.135 A 
ATOM     88  F   UNL A   1      49.236  24.633  28.460  1.00  0.00    -0.206 F 
ATOM     89  C   UNL A   1      50.967  25.169  29.938  1.00  0.00     0.059 A 
ATOM     90  C   UNL A   1      50.476  26.225  32.050  1.00  0.00     0.059 A 
ATOM     91  F   UNL A   1      48.306  26.805  32.613  1.00  0.00    -0.206 F 
ATOM     92  C   UNL A   1      51.399  25.744  31.132  1.00  0.00     0.060 A 
BRANCH  92  93
ATOM     93  S   UNL A   1      53.167  26.006  31.406  1.00  0.00     0.124 S 
ATOM     94  O   UNL A   1      53.164  27.034  32.441  1.00  0.00    -0.237 OA
ATOM     95  O   UNL A   1      53.609  24.680  31.825  1.00  0.00    -0.237 OA
ATOM     96  O   UNL A   1      53.651  26.436  30.097  1.00  0.00    -0.744 OA
ENDBRANCH  92  93
ENDBRANCH  60  85
BRANCH  72  97
ATOM     97  C   UNL A   1      43.655  25.209  26.451  1.00  0.00     0.058 A 
ATOM     98  C   UNL A   1      43.670  24.236  25.439  1.00  0.00     0.135 A 
ATOM     99  C   UNL A   1      42.888  24.943  27.598  1.00  0.00     0.135 A 
ATOM    100  F   UNL A   1      44.431  24.386  24.344  1.00  0.00    -0.206 F 
ATOM    101  C   UNL A   1      42.932  23.058  25.558  1.00  0.00     0.059 A 
ATOM    102  C   UNL A   1      42.173  23.762  27.751  1.00  0.00     0.059 A 
ATOM    103  F   UNL A   1      42.862  25.826  28.610  1.00  0.00    -0.206 F 
ATOM    104  C   UNL A   1      42.194  22.826  26.721  1.00  0.00     0.060 A 
BRANCH 104 105
ATOM    105  S   UNL A   1      41.322  21.257  26.911  1.00  0.00     0.124 S 
ATOM    106  O   UNL A   1      40.224  21.399  25.961  1.00  0.00    -0.237 OA
ATOM    107  O   UNL A   1      42.352  20.285  26.551  1.00  0.00    -0.237 OA
ATOM    108  O   UNL A   1      40.934  21.249  28.318  1.00  0.00    -0.744 OA
ENDBRANCH 104 105
ENDBRANCH  72  97
ENDBRANCH  46  47
ENDBRANCH  39  41
ENDBRANCH  38  39
ENDBRANCH  37  38
ENDBRANCH  36  37
ENDBRANCH  35  36
ENDBRANCH  34  35
ENDBRANCH  33  34
ENDBRANCH   1  33
TORSDOF 27
ENDMDL
