MODEL 1
REMARK VINA RESULT:     -10.2      0.000      0.000
REMARK SMILES CC(C)CCc1cc2c(cc1Cl)C=C(C(=O)OCCOCCOCCOCCOC(=O)c1ccc(-c3c4nc(c(-c5c(F)cc(S(=O)(=O)[O-])cc5F)c5ccc([nH]5)c(-c5c(F)cc(S(=O)(=O)[O-])cc5F)c5nc(c(-c6c(F)cc(S(=O)(=O)[O-])cc6F)c6ccc3[nH]6)C=C5)C=C4)cc1)[C@@H](C(F)(F)F)O2
REMARK SMILES IDX 23 1 22 2 21 3 20 4 19 5 18 6 17 7 15 8 16 9 14 10 6 11 7 12
REMARK SMILES IDX 11 13 8 14 10 15 12 16 9 17 103 18 13 19 98 20 5 21 4 22
REMARK SMILES IDX 2 23 1 24 3 25 99 26 100 27 101 28 102 29 24 30 25 31 26 32
REMARK SMILES IDX 27 33 28 34 29 35 30 36 31 37 32 38 33 39 97 40 34 41 96 42
REMARK SMILES IDX 35 43 36 44 37 45 90 46 38 47 95 48 89 49 91 50 39 51 94 52
REMARK SMILES IDX 88 53 87 54 40 56 74 57 53 58 73 59 54 60 57 61 72 62 92 63
REMARK SMILES IDX 55 64 56 65 71 67 93 68 58 69 41 70 42 71 51 72 43 73 44 74
REMARK SMILES IDX 50 75 52 76 45 77 46 78 47 79 48 80 49 81 75 82 76 83 85 84
REMARK SMILES IDX 77 85 78 86 84 87 86 88 79 89 80 90 81 91 82 92 83 93 59 94
REMARK SMILES IDX 60 95 69 96 61 97 62 98 68 99 70 100 63 101 64 102 65 103
REMARK SMILES IDX 66 104 67 105
REMARK H PARENT 91 55 57 66
REMARK Flexibility Score: inf
ROOT
ATOM      1  O   UNL A   1      34.088  33.250  29.936  1.00  0.00    -0.377 OA
ENDROOT
BRANCH   1   2
ATOM      2  C   UNL A   1      35.096  33.013  28.968  1.00  0.00     0.188 C 
BRANCH   2   3
ATOM      3  C   UNL A   1      34.990  31.616  28.329  1.00  0.00     0.188 C 
BRANCH   3   4
ATOM      4  O   UNL A   1      33.647  31.224  28.056  1.00  0.00    -0.376 OA
BRANCH   4   5
ATOM      5  C   UNL A   1      33.347  30.767  26.742  1.00  0.00     0.202 C 
BRANCH   5   6
ATOM      6  C   UNL A   1      31.993  30.075  26.516  1.00  0.00     0.261 C 
BRANCH   6   7
ATOM      7  O   UNL A   1      32.056  28.653  26.340  1.00  0.00    -0.460 OA
BRANCH   7   8
ATOM      8  C   UNL A   1      32.234  28.176  25.094  1.00  0.00     0.338 C 
ATOM      9  O   UNL A   1      32.403  28.824  24.077  1.00  0.00    -0.246 OA
BRANCH   8  10
ATOM     10  C   UNL A   1      32.394  26.707  25.198  1.00  0.00     0.087 C 
ATOM     11  C   UNL A   1      33.930  21.938  24.901  1.00  0.00    -0.026 A 
ATOM     12  C   UNL A   1      32.838  22.587  25.497  1.00  0.00     0.052 A 
ATOM     13  C   UNL A   1      35.001  22.740  24.467  1.00  0.00     0.045 A 
ATOM     14  C   UNL A   1      32.729  23.979  25.486  1.00  0.00     0.128 A 
ATOM     15  C   UNL A   1      34.917  24.137  24.501  1.00  0.00     0.032 A 
ATOM     16  Cl  UNL A   1      36.465  22.051  23.855  1.00  0.00    -0.084 Cl
ATOM     17  C   UNL A   1      33.752  24.758  24.953  1.00  0.00     0.019 A 
ATOM     18  O   UNL A   1      31.577  24.489  26.007  1.00  0.00    -0.475 OA
ATOM     19  C   UNL A   1      33.581  26.196  24.843  1.00  0.00     0.027 C 
ATOM     20  C   UNL A   1      31.261  25.888  25.770  1.00  0.00     0.316 C 
BRANCH  11  21
ATOM     21  C   UNL A   1      33.956  20.436  24.694  1.00  0.00     0.037 C 
BRANCH  21  22
ATOM     22  C   UNL A   1      32.828  19.779  23.876  1.00  0.00     0.008 C 
BRANCH  22  23
ATOM     23  C   UNL A   1      32.500  18.306  24.208  1.00  0.00    -0.017 C 
ATOM     24  C   UNL A   1      33.307  17.311  23.376  1.00  0.00     0.007 C 
ATOM     25  C   UNL A   1      32.734  18.056  25.700  1.00  0.00     0.007 C 
ENDBRANCH  22  23
ENDBRANCH  21  22
ENDBRANCH  11  21
BRANCH  20  26
ATOM     26  C   UNL A   1      29.999  25.981  24.902  1.00  0.00     0.430 C 
ATOM     27  F   UNL A   1      28.885  25.719  25.625  1.00  0.00    -0.167 F 
ATOM     28  F   UNL A   1      29.849  27.214  24.368  1.00  0.00    -0.167 F 
ATOM     29  F   UNL A   1      30.035  25.097  23.877  1.00  0.00    -0.167 F 
ENDBRANCH  20  26
ENDBRANCH   8  10
ENDBRANCH   7   8
ENDBRANCH   6   7
ENDBRANCH   5   6
ENDBRANCH   4   5
ENDBRANCH   3   4
ENDBRANCH   2   3
ENDBRANCH   1   2
BRANCH   1  30
ATOM     30  C   UNL A   1      34.005  34.562  30.496  1.00  0.00     0.188 C 
BRANCH  30  31
ATOM     31  C   UNL A   1      34.146  34.806  32.017  1.00  0.00     0.188 C 
BRANCH  31  32
ATOM     32  O   UNL A   1      35.345  34.280  32.583  1.00  0.00    -0.376 OA
BRANCH  32  33
ATOM     33  C   UNL A   1      35.265  32.989  33.173  1.00  0.00     0.202 C 
BRANCH  33  34
ATOM     34  C   UNL A   1      36.526  32.139  32.989  1.00  0.00     0.261 C 
BRANCH  34  35
ATOM     35  O   UNL A   1      36.864  31.834  31.628  1.00  0.00    -0.460 OA
BRANCH  35  36
ATOM     36  C   UNL A   1      36.931  30.532  31.271  1.00  0.00     0.338 C 
ATOM     37  O   UNL A   1      36.008  29.739  31.205  1.00  0.00    -0.246 OA
BRANCH  36  38
ATOM     38  C   UNL A   1      38.300  30.286  30.773  1.00  0.00     0.060 A 
ATOM     39  C   UNL A   1      39.345  30.061  31.673  1.00  0.00     0.016 A 
ATOM     40  C   UNL A   1      38.545  30.322  29.394  1.00  0.00     0.016 A 
ATOM     41  C   UNL A   1      40.634  29.841  31.189  1.00  0.00     0.010 A 
ATOM     42  C   UNL A   1      39.839  30.107  28.912  1.00  0.00     0.010 A 
ATOM     43  C   UNL A   1      40.885  29.840  29.806  1.00  0.00    -0.014 A 
BRANCH  43  44
ATOM     44  C   UNL A   1      42.201  29.367  29.313  1.00  0.00     0.031 A 
ATOM     45  C   UNL A   1      42.421  27.965  28.837  1.00  0.00     0.074 A 
ATOM     46  C   UNL A   1      43.209  30.260  29.286  1.00  0.00     0.049 A 
ATOM     47  N   UNL A   1      43.484  27.451  28.275  1.00  0.00    -0.248 NA
ATOM     48  C   UNL A   1      41.313  27.014  29.016  1.00  0.00     0.031 C 
ATOM     49  C   UNL A   1      43.109  31.646  29.754  1.00  0.00     0.029 A 
ATOM     50  N   UNL A   1      44.499  30.151  28.839  1.00  0.00    -0.354 N 
ATOM     51  C   UNL A   1      43.173  26.125  28.005  1.00  0.00     0.074 A 
ATOM     52  C   UNL A   1      41.833  25.900  28.513  1.00  0.00     0.031 C 
ATOM     53  C   UNL A   1      44.279  32.265  29.540  1.00  0.00     0.029 A 
ATOM     54  C   UNL A   1      45.215  31.319  28.941  1.00  0.00     0.049 A 
ATOM     55  H   UNL A   1      44.875  29.315  28.478  1.00  0.00     0.167 HD
ATOM     56  C   UNL A   1      43.931  25.194  27.376  1.00  0.00     0.037 A 
ATOM     57  C   UNL A   1      46.481  31.603  28.584  1.00  0.00     0.037 A 
ATOM     58  C   UNL A   1      45.271  25.428  26.893  1.00  0.00     0.049 A 
ATOM     59  C   UNL A   1      47.314  30.539  27.928  1.00  0.00     0.074 A 
ATOM     60  C   UNL A   1      46.101  24.558  26.207  1.00  0.00     0.029 A 
ATOM     61  N   UNL A   1      45.983  26.608  27.057  1.00  0.00    -0.354 N 
ATOM     62  N   UNL A   1      46.976  29.312  27.608  1.00  0.00    -0.248 NA
ATOM     63  C   UNL A   1      48.694  30.897  27.578  1.00  0.00     0.031 C 
ATOM     64  C   UNL A   1      47.331  25.192  26.000  1.00  0.00     0.029 A 
ATOM     65  C   UNL A   1      47.252  26.477  26.513  1.00  0.00     0.049 A 
ATOM     66  H   UNL A   1      45.638  27.419  27.494  1.00  0.00     0.167 HD
ATOM     67  C   UNL A   1      48.099  28.755  27.007  1.00  0.00     0.074 A 
ATOM     68  C   UNL A   1      49.118  29.785  26.991  1.00  0.00     0.031 C 
ATOM     69  C   UNL A   1      48.266  27.504  26.514  1.00  0.00     0.037 A 
BRANCH  56  70
ATOM     70  C   UNL A   1      43.333  23.831  27.154  1.00  0.00     0.058 A 
ATOM     71  C   UNL A   1      42.866  23.436  25.891  1.00  0.00     0.135 A 
ATOM     72  C   UNL A   1      43.305  22.879  28.187  1.00  0.00     0.135 A 
ATOM     73  F   UNL A   1      42.864  24.307  24.869  1.00  0.00    -0.206 F 
ATOM     74  C   UNL A   1      42.378  22.154  25.662  1.00  0.00     0.059 A 
ATOM     75  C   UNL A   1      42.843  21.583  27.976  1.00  0.00     0.059 A 
ATOM     76  F   UNL A   1      43.744  23.202  29.414  1.00  0.00    -0.206 F 
ATOM     77  C   UNL A   1      42.374  21.232  26.711  1.00  0.00     0.060 A 
BRANCH  77  78
ATOM     78  S   UNL A   1      41.753  19.567  26.390  1.00  0.00     0.124 S 
ATOM     79  O   UNL A   1      40.319  19.811  26.263  1.00  0.00    -0.237 OA
ATOM     80  O   UNL A   1      42.446  19.209  25.156  1.00  0.00    -0.237 OA
ATOM     81  O   UNL A   1      42.157  18.817  27.574  1.00  0.00    -0.744 OA
ENDBRANCH  77  78
ENDBRANCH  56  70
BRANCH  57  82
ATOM     82  C   UNL A   1      47.013  32.970  28.807  1.00  0.00     0.058 A 
ATOM     83  C   UNL A   1      46.899  33.957  27.819  1.00  0.00     0.135 A 
ATOM     84  C   UNL A   1      47.602  33.330  30.030  1.00  0.00     0.135 A 
ATOM     85  F   UNL A   1      46.344  33.658  26.634  1.00  0.00    -0.206 F 
ATOM     86  C   UNL A   1      47.354  35.254  28.031  1.00  0.00     0.059 A 
ATOM     87  C   UNL A   1      48.043  34.626  30.275  1.00  0.00     0.059 A 
ATOM     88  F   UNL A   1      47.717  32.424  31.014  1.00  0.00    -0.206 F 
ATOM     89  C   UNL A   1      47.919  35.580  29.265  1.00  0.00     0.060 A 
BRANCH  89  90
ATOM     90  S   UNL A   1      48.449  37.282  29.547  1.00  0.00     0.124 S 
ATOM     91  O   UNL A   1      49.244  37.145  30.762  1.00  0.00    -0.237 OA
ATOM     92  O   UNL A   1      49.192  37.576  28.326  1.00  0.00    -0.237 OA
ATOM     93  O   UNL A   1      47.189  38.005  29.695  1.00  0.00    -0.744 OA
ENDBRANCH  89  90
ENDBRANCH  57  82
BRANCH  69  94
ATOM     94  C   UNL A   1      49.605  27.169  25.916  1.00  0.00     0.058 A 
ATOM     95  C   UNL A   1      50.673  26.730  26.714  1.00  0.00     0.135 A 
ATOM     96  C   UNL A   1      49.803  27.222  24.526  1.00  0.00     0.135 A 
ATOM     97  F   UNL A   1      50.539  26.671  28.048  1.00  0.00    -0.206 F 
ATOM     98  C   UNL A   1      51.895  26.366  26.157  1.00  0.00     0.059 A 
ATOM     99  C   UNL A   1      51.008  26.838  23.945  1.00  0.00     0.059 A 
ATOM    100  F   UNL A   1      48.813  27.630  23.717  1.00  0.00    -0.206 F 
ATOM    101  C   UNL A   1      52.051  26.417  24.770  1.00  0.00     0.060 A 
BRANCH 101 102
ATOM    102  S   UNL A   1      53.626  25.890  24.061  1.00  0.00     0.124 S 
ATOM    103  O   UNL A   1      54.571  26.741  24.776  1.00  0.00    -0.237 OA
ATOM    104  O   UNL A   1      53.663  24.473  24.405  1.00  0.00    -0.237 OA
ATOM    105  O   UNL A   1      53.472  26.181  22.638  1.00  0.00    -0.744 OA
ENDBRANCH 101 102
ENDBRANCH  69  94
ENDBRANCH  43  44
ENDBRANCH  36  38
ENDBRANCH  35  36
ENDBRANCH  34  35
ENDBRANCH  33  34
ENDBRANCH  32  33
ENDBRANCH  31  32
ENDBRANCH  30  31
ENDBRANCH   1  30
TORSDOF 27
ENDMDL
MODEL 2
REMARK VINA RESULT:      -9.8      0.871      7.820
REMARK SMILES CC(C)CCc1cc2c(cc1Cl)C=C(C(=O)OCCOCCOCCOCCOC(=O)c1ccc(-c3c4nc(c(-c5c(F)cc(S(=O)(=O)[O-])cc5F)c5ccc([nH]5)c(-c5c(F)cc(S(=O)(=O)[O-])cc5F)c5nc(c(-c6c(F)cc(S(=O)(=O)[O-])cc6F)c6ccc3[nH]6)C=C5)C=C4)cc1)[C@@H](C(F)(F)F)O2
REMARK SMILES IDX 23 1 22 2 21 3 20 4 19 5 18 6 17 7 15 8 16 9 14 10 6 11 7 12
REMARK SMILES IDX 11 13 8 14 10 15 12 16 9 17 103 18 13 19 98 20 5 21 4 22
REMARK SMILES IDX 2 23 1 24 3 25 99 26 100 27 101 28 102 29 24 30 25 31 26 32
REMARK SMILES IDX 27 33 28 34 29 35 30 36 31 37 32 38 33 39 97 40 34 41 96 42
REMARK SMILES IDX 35 43 36 44 37 45 90 46 38 47 95 48 89 49 91 50 39 51 94 52
REMARK SMILES IDX 88 53 87 54 40 56 74 57 53 58 73 59 54 60 57 61 72 62 92 63
REMARK SMILES IDX 55 64 56 65 71 67 93 68 58 69 41 70 42 71 51 72 43 73 44 74
REMARK SMILES IDX 50 75 52 76 45 77 46 78 47 79 48 80 49 81 75 82 76 83 85 84
REMARK SMILES IDX 77 85 78 86 84 87 86 88 79 89 80 90 81 91 82 92 83 93 59 94
REMARK SMILES IDX 60 95 69 96 61 97 62 98 68 99 70 100 63 101 64 102 65 103
REMARK SMILES IDX 66 104 67 105
REMARK H PARENT 91 55 57 66
REMARK Flexibility Score: inf
ROOT
ATOM      1  O   UNL A   1      34.176  33.071  30.384  1.00  0.00    -0.377 OA
ENDROOT
BRANCH   1   2
ATOM      2  C   UNL A   1      35.318  32.725  29.620  1.00  0.00     0.188 C 
BRANCH   2   3
ATOM      3  C   UNL A   1      35.051  31.566  28.642  1.00  0.00     0.188 C 
BRANCH   3   4
ATOM      4  O   UNL A   1      33.721  31.557  28.132  1.00  0.00    -0.376 OA
BRANCH   4   5
ATOM      5  C   UNL A   1      33.516  31.015  26.832  1.00  0.00     0.202 C 
BRANCH   5   6
ATOM      6  C   UNL A   1      32.121  30.460  26.498  1.00  0.00     0.261 C 
BRANCH   6   7
ATOM      7  O   UNL A   1      31.996  29.034  26.581  1.00  0.00    -0.460 OA
BRANCH   7   8
ATOM      8  C   UNL A   1      31.916  28.337  25.433  1.00  0.00     0.338 C 
ATOM      9  O   UNL A   1      31.687  28.778  24.320  1.00  0.00    -0.246 OA
BRANCH   8  10
ATOM     10  C   UNL A   1      32.357  26.953  25.719  1.00  0.00     0.087 C 
ATOM     11  C   UNL A   1      34.801  22.579  26.017  1.00  0.00    -0.026 A 
ATOM     12  C   UNL A   1      33.592  23.070  26.533  1.00  0.00     0.052 A 
ATOM     13  C   UNL A   1      35.703  23.516  25.479  1.00  0.00     0.045 A 
ATOM     14  C   UNL A   1      33.214  24.401  26.347  1.00  0.00     0.128 A 
ATOM     15  C   UNL A   1      35.347  24.862  25.337  1.00  0.00     0.032 A 
ATOM     16  Cl  UNL A   1      37.285  23.056  24.951  1.00  0.00    -0.084 Cl
ATOM     17  C   UNL A   1      34.075  25.294  25.714  1.00  0.00     0.019 A 
ATOM     18  O   UNL A   1      31.975  24.736  26.807  1.00  0.00    -0.475 OA
ATOM     19  C   UNL A   1      33.628  26.645  25.425  1.00  0.00     0.027 C 
ATOM     20  C   UNL A   1      31.396  26.006  26.396  1.00  0.00     0.316 C 
BRANCH  11  21
ATOM     21  C   UNL A   1      35.124  21.098  26.001  1.00  0.00     0.037 C 
BRANCH  21  22
ATOM     22  C   UNL A   1      34.891  20.301  24.703  1.00  0.00     0.008 C 
BRANCH  22  23
ATOM     23  C   UNL A   1      33.453  19.796  24.450  1.00  0.00    -0.017 C 
ATOM     24  C   UNL A   1      32.748  19.331  25.723  1.00  0.00     0.007 C 
ATOM     25  C   UNL A   1      32.637  20.901  23.772  1.00  0.00     0.007 C 
ENDBRANCH  22  23
ENDBRANCH  21  22
ENDBRANCH  11  21
BRANCH  20  26
ATOM     26  C   UNL A   1      30.156  25.740  25.531  1.00  0.00     0.430 C 
ATOM     27  F   UNL A   1      30.400  24.786  24.603  1.00  0.00    -0.167 F 
ATOM     28  F   UNL A   1      29.110  25.318  26.275  1.00  0.00    -0.167 F 
ATOM     29  F   UNL A   1      29.762  26.855  24.873  1.00  0.00    -0.167 F 
ENDBRANCH  20  26
ENDBRANCH   8  10
ENDBRANCH   7   8
ENDBRANCH   6   7
ENDBRANCH   5   6
ENDBRANCH   4   5
ENDBRANCH   3   4
ENDBRANCH   2   3
ENDBRANCH   1   2
BRANCH   1  30
ATOM     30  C   UNL A   1      34.096  34.407  30.885  1.00  0.00     0.188 C 
BRANCH  30  31
ATOM     31  C   UNL A   1      34.009  34.701  32.401  1.00  0.00     0.188 C 
BRANCH  31  32
ATOM     32  O   UNL A   1      35.198  34.391  33.125  1.00  0.00    -0.376 OA
BRANCH  32  33
ATOM     33  C   UNL A   1      35.232  33.140  33.800  1.00  0.00     0.202 C 
BRANCH  33  34
ATOM     34  C   UNL A   1      36.575  32.411  33.696  1.00  0.00     0.261 C 
BRANCH  34  35
ATOM     35  O   UNL A   1      36.969  32.043  32.366  1.00  0.00    -0.460 OA
BRANCH  35  36
ATOM     36  C   UNL A   1      37.118  30.728  32.092  1.00  0.00     0.338 C 
ATOM     37  O   UNL A   1      36.267  29.860  32.169  1.00  0.00    -0.246 OA
BRANCH  36  38
ATOM     38  C   UNL A   1      38.453  30.558  31.482  1.00  0.00     0.060 A 
ATOM     39  C   UNL A   1      39.559  30.259  32.283  1.00  0.00     0.016 A 
ATOM     40  C   UNL A   1      38.604  30.741  30.101  1.00  0.00     0.016 A 
ATOM     41  C   UNL A   1      40.814  30.112  31.695  1.00  0.00     0.010 A 
ATOM     42  C   UNL A   1      39.865  30.599  29.515  1.00  0.00     0.010 A 
ATOM     43  C   UNL A   1      40.972  30.258  30.306  1.00  0.00    -0.014 A 
BRANCH  43  44
ATOM     44  C   UNL A   1      42.256  29.861  29.680  1.00  0.00     0.031 A 
ATOM     45  C   UNL A   1      43.430  30.787  29.606  1.00  0.00     0.074 A 
ATOM     46  C   UNL A   1      42.344  28.610  29.188  1.00  0.00     0.049 A 
ATOM     47  N   UNL A   1      44.645  30.533  29.192  1.00  0.00    -0.248 NA
ATOM     48  C   UNL A   1      43.219  32.174  30.045  1.00  0.00     0.031 C 
ATOM     49  C   UNL A   1      41.249  27.636  29.184  1.00  0.00     0.029 A 
ATOM     50  N   UNL A   1      43.391  27.938  28.616  1.00  0.00    -0.354 N 
ATOM     51  C   UNL A   1      45.357  31.716  29.343  1.00  0.00     0.074 A 
ATOM     52  C   UNL A   1      44.420  32.704  29.842  1.00  0.00     0.031 C 
ATOM     53  C   UNL A   1      41.693  26.482  28.664  1.00  0.00     0.029 A 
ATOM     54  C   UNL A   1      43.091  26.640  28.280  1.00  0.00     0.049 A 
ATOM     55  H   UNL A   1      44.274  28.347  28.461  1.00  0.00     0.167 HD
ATOM     56  C   UNL A   1      46.672  31.943  29.104  1.00  0.00     0.037 A 
ATOM     57  C   UNL A   1      43.859  25.678  27.735  1.00  0.00     0.037 A 
ATOM     58  C   UNL A   1      47.586  30.953  28.588  1.00  0.00     0.049 A 
ATOM     59  C   UNL A   1      45.302  25.971  27.439  1.00  0.00     0.074 A 
ATOM     60  C   UNL A   1      48.945  31.079  28.353  1.00  0.00     0.029 A 
ATOM     61  N   UNL A   1      47.238  29.663  28.214  1.00  0.00    -0.354 N 
ATOM     62  N   UNL A   1      45.979  27.072  27.663  1.00  0.00    -0.248 NA
ATOM     63  C   UNL A   1      46.086  24.892  26.825  1.00  0.00     0.031 C 
ATOM     64  C   UNL A   1      49.408  29.885  27.790  1.00  0.00     0.029 A 
ATOM     65  C   UNL A   1      48.348  28.994  27.720  1.00  0.00     0.049 A 
ATOM     66  H   UNL A   1      46.335  29.278  28.289  1.00  0.00     0.167 HD
ATOM     67  C   UNL A   1      47.274  26.814  27.229  1.00  0.00     0.074 A 
ATOM     68  C   UNL A   1      47.289  25.447  26.747  1.00  0.00     0.031 C 
ATOM     69  C   UNL A   1      48.351  27.637  27.230  1.00  0.00     0.037 A 
BRANCH  56  70
ATOM     70  C   UNL A   1      47.217  33.312  29.407  1.00  0.00     0.058 A 
ATOM     71  C   UNL A   1      47.711  33.634  30.681  1.00  0.00     0.135 A 
ATOM     72  C   UNL A   1      47.328  34.284  28.399  1.00  0.00     0.135 A 
ATOM     73  F   UNL A   1      47.625  32.745  31.684  1.00  0.00    -0.206 F 
ATOM     74  C   UNL A   1      48.282  34.874  30.949  1.00  0.00     0.059 A 
ATOM     75  C   UNL A   1      47.916  35.523  28.638  1.00  0.00     0.059 A 
ATOM     76  F   UNL A   1      46.875  34.027  27.161  1.00  0.00    -0.206 F 
ATOM     77  C   UNL A   1      48.383  35.812  29.920  1.00  0.00     0.060 A 
BRANCH  77  78
ATOM     78  S   UNL A   1      49.143  37.409  30.283  1.00  0.00     0.124 S 
ATOM     79  O   UNL A   1      49.578  37.833  28.956  1.00  0.00    -0.237 OA
ATOM     80  O   UNL A   1      48.030  38.160  30.855  1.00  0.00    -0.237 OA
ATOM     81  O   UNL A   1      50.215  37.074  31.214  1.00  0.00    -0.744 OA
ENDBRANCH  77  78
ENDBRANCH  56  70
BRANCH  57  82
ATOM     82  C   UNL A   1      43.274  24.339  27.475  1.00  0.00     0.058 A 
ATOM     83  C   UNL A   1      42.643  24.053  26.256  1.00  0.00     0.135 A 
ATOM     84  C   UNL A   1      43.377  23.305  28.420  1.00  0.00     0.135 A 
ATOM     85  F   UNL A   1      42.521  25.011  25.324  1.00  0.00    -0.206 F 
ATOM     86  C   UNL A   1      42.129  22.791  25.982  1.00  0.00     0.059 A 
ATOM     87  C   UNL A   1      42.892  22.028  28.159  1.00  0.00     0.059 A 
ATOM     88  F   UNL A   1      43.989  23.526  29.594  1.00  0.00    -0.206 F 
ATOM     89  C   UNL A   1      42.264  21.783  26.939  1.00  0.00     0.060 A 
BRANCH  89  90
ATOM     90  S   UNL A   1      41.647  20.133  26.544  1.00  0.00     0.124 S 
ATOM     91  O   UNL A   1      40.251  20.410  26.229  1.00  0.00    -0.237 OA
ATOM     92  O   UNL A   1      42.494  19.752  25.419  1.00  0.00    -0.237 OA
ATOM     93  O   UNL A   1      41.879  19.384  27.777  1.00  0.00    -0.744 OA
ENDBRANCH  89  90
ENDBRANCH  57  82
BRANCH  69  94
ATOM     94  C   UNL A   1      49.643  27.088  26.690  1.00  0.00     0.058 A 
ATOM     95  C   UNL A   1      50.553  26.413  27.517  1.00  0.00     0.135 A 
ATOM     96  C   UNL A   1      49.943  27.178  25.321  1.00  0.00     0.135 A 
ATOM     97  F   UNL A   1      50.318  26.308  28.835  1.00  0.00    -0.206 F 
ATOM     98  C   UNL A   1      51.722  25.855  27.010  1.00  0.00     0.059 A 
ATOM     99  C   UNL A   1      51.094  26.606  24.786  1.00  0.00     0.059 A 
ATOM    100  F   UNL A   1      49.104  27.809  24.484  1.00  0.00    -0.206 F 
ATOM    101  C   UNL A   1      51.981  25.951  25.641  1.00  0.00     0.060 A 
BRANCH 101 102
ATOM    102  S   UNL A   1      53.476  25.175  24.991  1.00  0.00     0.124 S 
ATOM    103  O   UNL A   1      54.513  25.815  25.793  1.00  0.00    -0.237 OA
ATOM    104  O   UNL A   1      53.240  23.763  25.270  1.00  0.00    -0.237 OA
ATOM    105  O   UNL A   1      53.462  25.541  23.577  1.00  0.00    -0.744 OA
ENDBRANCH 101 102
ENDBRANCH  69  94
ENDBRANCH  43  44
ENDBRANCH  36  38
ENDBRANCH  35  36
ENDBRANCH  34  35
ENDBRANCH  33  34
ENDBRANCH  32  33
ENDBRANCH  31  32
ENDBRANCH  30  31
ENDBRANCH   1  30
TORSDOF 27
ENDMDL
MODEL 3
REMARK VINA RESULT:      -9.7      1.360      2.273
REMARK SMILES CC(C)CCc1cc2c(cc1Cl)C=C(C(=O)OCCOCCOCCOCCOC(=O)c1ccc(-c3c4nc(c(-c5c(F)cc(S(=O)(=O)[O-])cc5F)c5ccc([nH]5)c(-c5c(F)cc(S(=O)(=O)[O-])cc5F)c5nc(c(-c6c(F)cc(S(=O)(=O)[O-])cc6F)c6ccc3[nH]6)C=C5)C=C4)cc1)[C@@H](C(F)(F)F)O2
REMARK SMILES IDX 23 1 22 2 21 3 20 4 19 5 18 6 17 7 15 8 16 9 14 10 6 11 7 12
REMARK SMILES IDX 11 13 8 14 10 15 12 16 9 17 103 18 13 19 98 20 5 21 4 22
REMARK SMILES IDX 2 23 1 24 3 25 99 26 100 27 101 28 102 29 24 30 25 31 26 32
REMARK SMILES IDX 27 33 28 34 29 35 30 36 31 37 32 38 33 39 97 40 34 41 96 42
REMARK SMILES IDX 35 43 36 44 37 45 90 46 38 47 95 48 89 49 91 50 39 51 94 52
REMARK SMILES IDX 88 53 87 54 40 56 74 57 53 58 73 59 54 60 57 61 72 62 92 63
REMARK SMILES IDX 55 64 56 65 71 67 93 68 58 69 41 70 42 71 51 72 43 73 44 74
REMARK SMILES IDX 50 75 52 76 45 77 46 78 47 79 48 80 49 81 75 82 76 83 85 84
REMARK SMILES IDX 77 85 78 86 84 87 86 88 79 89 80 90 81 91 82 92 83 93 59 94
REMARK SMILES IDX 60 95 69 96 61 97 62 98 68 99 70 100 63 101 64 102 65 103
REMARK SMILES IDX 66 104 67 105
REMARK H PARENT 91 55 57 66
REMARK Flexibility Score: inf
ROOT
ATOM      1  O   UNL A   1      33.015  29.666  27.819  1.00  0.00    -0.377 OA
ENDROOT
BRANCH   1   2
ATOM      2  C   UNL A   1      33.461  28.510  27.131  1.00  0.00     0.188 C 
BRANCH   2   3
ATOM      3  C   UNL A   1      34.417  28.840  25.971  1.00  0.00     0.188 C 
BRANCH   3   4
ATOM      4  O   UNL A   1      33.937  28.399  24.704  1.00  0.00    -0.376 OA
BRANCH   4   5
ATOM      5  C   UNL A   1      32.979  29.216  24.039  1.00  0.00     0.202 C 
BRANCH   5   6
ATOM      6  C   UNL A   1      31.502  29.054  24.435  1.00  0.00     0.261 C 
BRANCH   6   7
ATOM      7  O   UNL A   1      31.162  27.791  25.022  1.00  0.00    -0.460 OA
BRANCH   7   8
ATOM      8  C   UNL A   1      30.229  27.039  24.412  1.00  0.00     0.338 C 
ATOM      9  O   UNL A   1      29.174  27.420  23.936  1.00  0.00    -0.246 OA
BRANCH   8  10
ATOM     10  C   UNL A   1      30.796  25.683  24.232  1.00  0.00     0.087 C 
ATOM     11  C   UNL A   1      33.034  21.223  24.779  1.00  0.00    -0.026 A 
ATOM     12  C   UNL A   1      32.381  21.876  23.722  1.00  0.00     0.052 A 
ATOM     13  C   UNL A   1      32.874  21.761  26.069  1.00  0.00     0.045 A 
ATOM     14  C   UNL A   1      31.760  23.113  23.909  1.00  0.00     0.128 A 
ATOM     15  C   UNL A   1      32.208  22.976  26.267  1.00  0.00     0.032 A 
ATOM     16  Cl  UNL A   1      33.501  20.965  27.471  1.00  0.00    -0.084 Cl
ATOM     17  C   UNL A   1      31.705  23.686  25.176  1.00  0.00     0.019 A 
ATOM     18  O   UNL A   1      31.247  23.694  22.788  1.00  0.00    -0.475 OA
ATOM     19  C   UNL A   1      31.160  25.022  25.340  1.00  0.00     0.027 C 
ATOM     20  C   UNL A   1      30.852  25.093  22.843  1.00  0.00     0.316 C 
BRANCH  11  21
ATOM     21  C   UNL A   1      33.907  20.005  24.553  1.00  0.00     0.037 C 
BRANCH  21  22
ATOM     22  C   UNL A   1      33.254  18.708  24.038  1.00  0.00     0.008 C 
BRANCH  22  23
ATOM     23  C   UNL A   1      33.964  17.384  24.401  1.00  0.00    -0.017 C 
ATOM     24  C   UNL A   1      35.433  17.575  24.775  1.00  0.00     0.007 C 
ATOM     25  C   UNL A   1      33.213  16.703  25.550  1.00  0.00     0.007 C 
ENDBRANCH  22  23
ENDBRANCH  21  22
ENDBRANCH  11  21
BRANCH  20  26
ATOM     26  C   UNL A   1      31.761  25.911  21.915  1.00  0.00     0.430 C 
ATOM     27  F   UNL A   1      32.885  26.311  22.555  1.00  0.00    -0.167 F 
ATOM     28  F   UNL A   1      32.147  25.195  20.836  1.00  0.00    -0.167 F 
ATOM     29  F   UNL A   1      31.135  27.023  21.462  1.00  0.00    -0.167 F 
ENDBRANCH  20  26
ENDBRANCH   8  10
ENDBRANCH   7   8
ENDBRANCH   6   7
ENDBRANCH   5   6
ENDBRANCH   4   5
ENDBRANCH   3   4
ENDBRANCH   2   3
ENDBRANCH   1   2
BRANCH   1  30
ATOM     30  C   UNL A   1      33.433  30.937  27.317  1.00  0.00     0.188 C 
BRANCH  30  31
ATOM     31  C   UNL A   1      34.554  31.752  28.003  1.00  0.00     0.188 C 
BRANCH  31  32
ATOM     32  O   UNL A   1      34.179  33.085  28.347  1.00  0.00    -0.376 OA
BRANCH  32  33
ATOM     33  C   UNL A   1      34.998  33.758  29.295  1.00  0.00     0.202 C 
BRANCH  33  34
ATOM     34  C   UNL A   1      36.493  33.452  29.157  1.00  0.00     0.261 C 
BRANCH  34  35
ATOM     35  O   UNL A   1      37.160  33.098  30.377  1.00  0.00    -0.460 OA
BRANCH  35  36
ATOM     36  C   UNL A   1      37.070  31.817  30.797  1.00  0.00     0.338 C 
ATOM     37  O   UNL A   1      36.091  31.263  31.266  1.00  0.00    -0.246 OA
BRANCH  36  38
ATOM     38  C   UNL A   1      38.320  31.138  30.397  1.00  0.00     0.060 A 
ATOM     39  C   UNL A   1      38.511  30.745  29.070  1.00  0.00     0.016 A 
ATOM     40  C   UNL A   1      39.288  30.855  31.369  1.00  0.00     0.016 A 
ATOM     41  C   UNL A   1      39.690  30.096  28.708  1.00  0.00     0.010 A 
ATOM     42  C   UNL A   1      40.467  30.199  31.004  1.00  0.00     0.010 A 
ATOM     43  C   UNL A   1      40.686  29.839  29.667  1.00  0.00    -0.014 A 
BRANCH  43  44
ATOM     44  C   UNL A   1      42.018  29.371  29.216  1.00  0.00     0.031 A 
ATOM     45  C   UNL A   1      42.264  27.963  28.771  1.00  0.00     0.074 A 
ATOM     46  C   UNL A   1      43.017  30.274  29.200  1.00  0.00     0.049 A 
ATOM     47  N   UNL A   1      43.347  27.451  28.246  1.00  0.00    -0.248 NA
ATOM     48  C   UNL A   1      41.162  27.005  28.939  1.00  0.00     0.031 C 
ATOM     49  C   UNL A   1      42.891  31.667  29.640  1.00  0.00     0.029 A 
ATOM     50  N   UNL A   1      44.320  30.171  28.788  1.00  0.00    -0.354 N 
ATOM     51  C   UNL A   1      43.056  26.117  27.992  1.00  0.00     0.074 A 
ATOM     52  C   UNL A   1      41.706  25.888  28.469  1.00  0.00     0.031 C 
ATOM     53  C   UNL A   1      44.061  32.294  29.446  1.00  0.00     0.029 A 
ATOM     54  C   UNL A   1      45.021  31.348  28.889  1.00  0.00     0.049 A 
ATOM     55  H   UNL A   1      44.714  29.333  28.452  1.00  0.00     0.167 HD
ATOM     56  C   UNL A   1      43.840  25.183  27.399  1.00  0.00     0.037 A 
ATOM     57  C   UNL A   1      46.294  31.638  28.559  1.00  0.00     0.037 A 
ATOM     58  C   UNL A   1      45.189  25.423  26.948  1.00  0.00     0.049 A 
ATOM     59  C   UNL A   1      47.153  30.572  27.944  1.00  0.00     0.074 A 
ATOM     60  C   UNL A   1      46.046  24.549  26.298  1.00  0.00     0.029 A 
ATOM     61  N   UNL A   1      45.885  26.613  27.109  1.00  0.00    -0.354 N 
ATOM     62  N   UNL A   1      46.836  29.336  27.637  1.00  0.00    -0.248 NA
ATOM     63  C   UNL A   1      48.539  30.938  27.623  1.00  0.00     0.031 C 
ATOM     64  C   UNL A   1      47.274  25.193  26.112  1.00  0.00     0.029 A 
ATOM     65  C   UNL A   1      47.169  26.485  26.601  1.00  0.00     0.049 A 
ATOM     66  H   UNL A   1      45.520  27.428  27.522  1.00  0.00     0.167 HD
ATOM     67  C   UNL A   1      47.980  28.781  27.075  1.00  0.00     0.074 A 
ATOM     68  C   UNL A   1      48.989  29.821  27.067  1.00  0.00     0.031 C 
ATOM     69  C   UNL A   1      48.173  27.523  26.609  1.00  0.00     0.037 A 
BRANCH  56  70
ATOM     70  C   UNL A   1      43.262  23.811  27.187  1.00  0.00     0.058 A 
ATOM     71  C   UNL A   1      42.682  23.445  25.961  1.00  0.00     0.135 A 
ATOM     72  C   UNL A   1      43.363  22.824  28.181  1.00  0.00     0.135 A 
ATOM     73  F   UNL A   1      42.556  24.350  24.978  1.00  0.00    -0.206 F 
ATOM     74  C   UNL A   1      42.211  22.156  25.733  1.00  0.00     0.059 A 
ATOM     75  C   UNL A   1      42.918  21.521  27.968  1.00  0.00     0.059 A 
ATOM     76  F   UNL A   1      43.911  23.117  29.371  1.00  0.00    -0.206 F 
ATOM     77  C   UNL A   1      42.336  21.199  26.742  1.00  0.00     0.060 A 
BRANCH  77  78
ATOM     78  S   UNL A   1      41.734  19.527  26.422  1.00  0.00     0.124 S 
ATOM     79  O   UNL A   1      42.193  18.820  27.613  1.00  0.00    -0.237 OA
ATOM     80  O   UNL A   1      40.292  19.730  26.322  1.00  0.00    -0.237 OA
ATOM     81  O   UNL A   1      42.400  19.156  25.178  1.00  0.00    -0.744 OA
ENDBRANCH  77  78
ENDBRANCH  56  70
BRANCH  57  82
ATOM     82  C   UNL A   1      46.806  33.015  28.772  1.00  0.00     0.058 A 
ATOM     83  C   UNL A   1      47.439  33.369  29.971  1.00  0.00     0.135 A 
ATOM     84  C   UNL A   1      46.715  33.988  27.764  1.00  0.00     0.135 A 
ATOM     85  F   UNL A   1      47.546  32.472  30.963  1.00  0.00    -0.206 F 
ATOM     86  C   UNL A   1      47.962  34.642  30.168  1.00  0.00     0.059 A 
ATOM     87  C   UNL A   1      47.252  35.260  27.928  1.00  0.00     0.059 A 
ATOM     88  F   UNL A   1      46.135  33.690  26.591  1.00  0.00    -0.206 F 
ATOM     89  C   UNL A   1      47.869  35.580  29.137  1.00  0.00     0.060 A 
BRANCH  89  90
ATOM     90  S   UNL A   1      48.606  37.208  29.385  1.00  0.00     0.124 S 
ATOM     91  O   UNL A   1      47.436  38.074  29.316  1.00  0.00    -0.237 OA
ATOM     92  O   UNL A   1      49.221  37.067  30.700  1.00  0.00    -0.237 OA
ATOM     93  O   UNL A   1      49.544  37.325  28.271  1.00  0.00    -0.744 OA
ENDBRANCH  89  90
ENDBRANCH  57  82
BRANCH  69  94
ATOM     94  C   UNL A   1      49.530  27.191  26.052  1.00  0.00     0.058 A 
ATOM     95  C   UNL A   1      50.561  26.712  26.875  1.00  0.00     0.135 A 
ATOM     96  C   UNL A   1      49.782  27.289  24.674  1.00  0.00     0.135 A 
ATOM     97  F   UNL A   1      50.375  26.610  28.200  1.00  0.00    -0.206 F 
ATOM     98  C   UNL A   1      51.799  26.351  26.353  1.00  0.00     0.059 A 
ATOM     99  C   UNL A   1      51.005  26.910  24.127  1.00  0.00     0.059 A 
ATOM    100  F   UNL A   1      48.829  27.737  23.841  1.00  0.00    -0.206 F 
ATOM    101  C   UNL A   1      52.010  26.448  24.976  1.00  0.00     0.060 A 
BRANCH 101 102
ATOM    102  S   UNL A   1      53.605  25.925  24.310  1.00  0.00     0.124 S 
ATOM    103  O   UNL A   1      54.532  26.726  25.103  1.00  0.00    -0.237 OA
ATOM    104  O   UNL A   1      53.605  24.493  24.591  1.00  0.00    -0.237 OA
ATOM    105  O   UNL A   1      53.517  26.283  22.897  1.00  0.00    -0.744 OA
ENDBRANCH 101 102
ENDBRANCH  69  94
ENDBRANCH  43  44
ENDBRANCH  36  38
ENDBRANCH  35  36
ENDBRANCH  34  35
ENDBRANCH  33  34
ENDBRANCH  32  33
ENDBRANCH  31  32
ENDBRANCH  30  31
ENDBRANCH   1  30
TORSDOF 27
ENDMDL
