MODEL 1
REMARK VINA RESULT:      -9.5      0.000      0.000
REMARK SMILES C[C@@H](C(=O)OCCOCCOCCOCCOC(=O)c1ccc(-c2c3nc(c(-c4c(F)cc(S(=O)(=O)[O-])cc4F)c4ccc([nH]4)c(-c4c(F)cc(S(=O)(=O)[O-])cc4F)c4nc(c(-c5c(F)cc(S(=O)(=O)[O-])cc5F)c5ccc2[nH]5)C=C4)C=C3)cc1)c1ccc(-c2ccn(C(F)F)c(=O)c2)cc1
REMARK SMILES IDX 11 1 10 2 9 3 8 4 7 5 6 6 5 7 3 8 4 9 2 10 1 11 86 12 87 13
REMARK SMILES IDX 101 14 88 15 100 16 89 17 90 18 91 19 99 20 92 21 97 22
REMARK SMILES IDX 93 23 98 24 94 25 95 26 96 27 12 28 13 29 14 30 15 31 16 32
REMARK SMILES IDX 17 33 18 34 19 35 20 36 21 37 85 38 22 39 84 40 23 41 24 42
REMARK SMILES IDX 25 43 78 44 26 45 83 46 77 47 79 48 27 49 82 50 76 51 75 52
REMARK SMILES IDX 28 54 62 55 41 56 61 57 42 58 45 59 60 60 80 61 43 62 44 63
REMARK SMILES IDX 59 65 81 66 46 67 29 68 30 69 39 70 31 71 32 72 38 73 40 74
REMARK SMILES IDX 33 75 34 76 35 77 36 78 37 79 63 80 64 81 73 82 65 83 66 84
REMARK SMILES IDX 72 85 74 86 67 87 68 88 69 89 70 90 71 91 47 92 48 93 57 94
REMARK SMILES IDX 49 95 50 96 56 97 58 98 51 99 52 100 53 101 54 102 55 103
REMARK H PARENT 79 53 45 64
REMARK Flexibility Score: inf
ROOT
ATOM      1  O   UNL A   1      34.697  33.408  29.342  1.00  0.00    -0.377 OA
ENDROOT
BRANCH   1   2
ATOM      2  C   UNL A   1      34.654  32.175  28.655  1.00  0.00     0.188 C 
BRANCH   2   3
ATOM      3  C   UNL A   1      33.477  32.054  27.681  1.00  0.00     0.188 C 
BRANCH   3   4
ATOM      4  O   UNL A   1      33.057  30.756  27.320  1.00  0.00    -0.376 OA
BRANCH   4   5
ATOM      5  C   UNL A   1      31.936  30.560  26.470  1.00  0.00     0.202 C 
BRANCH   5   6
ATOM      6  C   UNL A   1      31.540  29.249  25.747  1.00  0.00     0.261 C 
BRANCH   6   7
ATOM      7  O   UNL A   1      31.427  29.270  24.320  1.00  0.00    -0.463 OA
BRANCH   7   8
ATOM      8  C   UNL A   1      30.267  29.704  23.773  1.00  0.00     0.313 C 
ATOM      9  O   UNL A   1      29.868  30.862  23.846  1.00  0.00    -0.252 OA
BRANCH   8  10
ATOM     10  C   UNL A   1      29.541  28.615  22.961  1.00  0.00     0.126 C 
ATOM     11  C   UNL A   1      28.002  28.640  23.072  1.00  0.00     0.025 C 
BRANCH  10  12
ATOM     12  C   UNL A   1      30.116  27.200  23.136  1.00  0.00    -0.034 A 
ATOM     13  C   UNL A   1      31.130  26.741  22.278  1.00  0.00     0.005 A 
ATOM     14  C   UNL A   1      29.713  26.341  24.169  1.00  0.00     0.005 A 
ATOM     15  C   UNL A   1      31.718  25.479  22.457  1.00  0.00     0.009 A 
ATOM     16  C   UNL A   1      30.250  25.061  24.316  1.00  0.00     0.009 A 
ATOM     17  C   UNL A   1      31.284  24.637  23.484  1.00  0.00    -0.018 A 
BRANCH  17  18
ATOM     18  C   UNL A   1      31.983  23.391  23.835  1.00  0.00    -0.011 A 
ATOM     19  C   UNL A   1      31.363  22.265  24.500  1.00  0.00     0.027 A 
ATOM     20  C   UNL A   1      33.316  23.396  23.653  1.00  0.00     0.080 A 
ATOM     21  C   UNL A   1      32.115  21.255  24.959  1.00  0.00     0.095 A 
ATOM     22  C   UNL A   1      34.160  22.275  24.138  1.00  0.00     0.255 A 
ATOM     23  N   UNL A   1      33.489  21.255  24.792  1.00  0.00    -0.258 N 
ATOM     24  O   UNL A   1      35.372  22.331  23.954  1.00  0.00    -0.269 OA
BRANCH  23  25
ATOM     25  C   UNL A   1      34.297  20.197  25.336  1.00  0.00     0.451 C 
ATOM     26  F   UNL A   1      33.587  19.423  26.193  1.00  0.00    -0.185 F 
ATOM     27  F   UNL A   1      34.777  19.398  24.350  1.00  0.00    -0.185 F 
ENDBRANCH  23  25
ENDBRANCH  17  18
ENDBRANCH  10  12
ENDBRANCH   8  10
ENDBRANCH   7   8
ENDBRANCH   6   7
ENDBRANCH   5   6
ENDBRANCH   4   5
ENDBRANCH   3   4
ENDBRANCH   2   3
ENDBRANCH   1   2
BRANCH   1  28
ATOM     28  C   UNL A   1      34.928  33.364  30.746  1.00  0.00     0.188 C 
BRANCH  28  29
ATOM     29  C   UNL A   1      35.866  34.389  31.427  1.00  0.00     0.188 C 
BRANCH  29  30
ATOM     30  O   UNL A   1      35.902  34.325  32.848  1.00  0.00    -0.376 OA
BRANCH  30  31
ATOM     31  C   UNL A   1      35.644  33.082  33.485  1.00  0.00     0.202 C 
BRANCH  31  32
ATOM     32  C   UNL A   1      36.832  32.126  33.679  1.00  0.00     0.261 C 
BRANCH  32  33
ATOM     33  O   UNL A   1      37.512  31.708  32.488  1.00  0.00    -0.460 OA
BRANCH  33  34
ATOM     34  C   UNL A   1      37.196  30.500  31.975  1.00  0.00     0.338 C 
ATOM     35  O   UNL A   1      36.104  29.958  31.995  1.00  0.00    -0.246 OA
BRANCH  34  36
ATOM     36  C   UNL A   1      38.357  30.031  31.190  1.00  0.00     0.060 A 
ATOM     37  C   UNL A   1      39.306  29.206  31.809  1.00  0.00     0.016 A 
ATOM     38  C   UNL A   1      38.496  30.384  29.846  1.00  0.00     0.016 A 
ATOM     39  C   UNL A   1      40.419  28.764  31.095  1.00  0.00     0.010 A 
ATOM     40  C   UNL A   1      39.624  29.963  29.139  1.00  0.00     0.010 A 
ATOM     41  C   UNL A   1      40.609  29.182  29.773  1.00  0.00    -0.014 A 
BRANCH  41  42
ATOM     42  C   UNL A   1      41.931  28.995  29.128  1.00  0.00     0.031 A 
ATOM     43  C   UNL A   1      42.251  27.640  28.557  1.00  0.00     0.074 A 
ATOM     44  C   UNL A   1      42.816  30.002  29.029  1.00  0.00     0.049 A 
ATOM     45  N   UNL A   1      43.351  27.212  27.996  1.00  0.00    -0.248 NA
ATOM     46  C   UNL A   1      41.183  26.629  28.636  1.00  0.00     0.031 C 
ATOM     47  C   UNL A   1      42.600  31.370  29.498  1.00  0.00     0.029 A 
ATOM     48  N   UNL A   1      44.085  30.022  28.504  1.00  0.00    -0.354 N 
ATOM     49  C   UNL A   1      43.113  25.883  27.668  1.00  0.00     0.074 A 
ATOM     50  C   UNL A   1      41.777  25.565  28.118  1.00  0.00     0.031 C 
ATOM     51  C   UNL A   1      43.705  32.095  29.250  1.00  0.00     0.029 A 
ATOM     52  C   UNL A   1      44.719  31.235  28.639  1.00  0.00     0.049 A 
ATOM     53  H   UNL A   1      44.501  29.243  28.071  1.00  0.00     0.167 HD
ATOM     54  C   UNL A   1      43.934  25.007  27.042  1.00  0.00     0.037 A 
ATOM     55  C   UNL A   1      45.981  31.597  28.327  1.00  0.00     0.037 A 
ATOM     56  C   UNL A   1      45.265  25.332  26.598  1.00  0.00     0.049 A 
ATOM     57  C   UNL A   1      46.905  30.582  27.700  1.00  0.00     0.074 A 
ATOM     58  C   UNL A   1      46.171  24.524  25.936  1.00  0.00     0.029 A 
ATOM     59  N   UNL A   1      45.884  26.560  26.783  1.00  0.00    -0.354 N 
ATOM     60  N   UNL A   1      46.662  29.334  27.372  1.00  0.00    -0.248 NA
ATOM     61  C   UNL A   1      48.273  31.024  27.400  1.00  0.00     0.031 C 
ATOM     62  C   UNL A   1      47.360  25.241  25.778  1.00  0.00     0.029 A 
ATOM     63  C   UNL A   1      47.172  26.520  26.278  1.00  0.00     0.049 A 
ATOM     64  H   UNL A   1      45.469  27.343  27.212  1.00  0.00     0.167 HD
ATOM     65  C   UNL A   1      47.836  28.855  26.795  1.00  0.00     0.074 A 
ATOM     66  C   UNL A   1      48.782  29.950  26.812  1.00  0.00     0.031 C 
ATOM     67  C   UNL A   1      48.103  27.623  26.293  1.00  0.00     0.037 A 
BRANCH  54  68
ATOM     68  C   UNL A   1      43.432  23.603  26.837  1.00  0.00     0.058 A 
ATOM     69  C   UNL A   1      43.064  23.121  25.571  1.00  0.00     0.135 A 
ATOM     70  C   UNL A   1      43.344  22.719  27.924  1.00  0.00     0.135 A 
ATOM     71  F   UNL A   1      43.108  23.930  24.499  1.00  0.00    -0.206 F 
ATOM     72  C   UNL A   1      42.601  21.821  25.394  1.00  0.00     0.059 A 
ATOM     73  C   UNL A   1      42.914  21.405  27.765  1.00  0.00     0.059 A 
ATOM     74  F   UNL A   1      43.677  23.128  29.158  1.00  0.00    -0.206 F 
ATOM     75  C   UNL A   1      42.532  20.969  26.498  1.00  0.00     0.060 A 
BRANCH  75  76
ATOM     76  S   UNL A   1      41.934  19.284  26.251  1.00  0.00     0.124 S 
ATOM     77  O   UNL A   1      42.262  18.668  27.533  1.00  0.00    -0.237 OA
ATOM     78  O   UNL A   1      40.513  19.495  25.994  1.00  0.00    -0.237 OA
ATOM     79  O   UNL A   1      42.711  18.810  25.110  1.00  0.00    -0.744 OA
ENDBRANCH  75  76
ENDBRANCH  54  68
BRANCH  55  80
ATOM     80  C   UNL A   1      46.452  32.981  28.611  1.00  0.00     0.058 A 
ATOM     81  C   UNL A   1      47.049  33.306  29.837  1.00  0.00     0.135 A 
ATOM     82  C   UNL A   1      46.309  34.007  27.664  1.00  0.00     0.135 A 
ATOM     83  F   UNL A   1      47.196  32.365  30.783  1.00  0.00    -0.206 F 
ATOM     84  C   UNL A   1      47.476  34.600  30.121  1.00  0.00     0.059 A 
ATOM     85  C   UNL A   1      46.755  35.301  27.912  1.00  0.00     0.059 A 
ATOM     86  F   UNL A   1      45.749  33.749  26.472  1.00  0.00    -0.206 F 
ATOM     87  C   UNL A   1      47.329  35.590  29.149  1.00  0.00     0.060 A 
BRANCH  87  88
ATOM     88  S   UNL A   1      47.936  37.252  29.509  1.00  0.00     0.124 S 
ATOM     89  O   UNL A   1      47.246  37.556  30.756  1.00  0.00    -0.237 OA
ATOM     90  O   UNL A   1      49.376  37.034  29.612  1.00  0.00    -0.237 OA
ATOM     91  O   UNL A   1      47.510  38.025  28.345  1.00  0.00    -0.744 OA
ENDBRANCH  87  88
ENDBRANCH  55  80
BRANCH  67  92
ATOM     92  C   UNL A   1      49.458  27.398  25.676  1.00  0.00     0.058 A 
ATOM     93  C   UNL A   1      49.681  27.536  24.297  1.00  0.00     0.135 A 
ATOM     94  C   UNL A   1      50.565  27.103  26.490  1.00  0.00     0.135 A 
ATOM     95  F   UNL A   1      48.659  27.813  23.472  1.00  0.00    -0.206 F 
ATOM     96  C   UNL A   1      50.946  27.362  23.744  1.00  0.00     0.059 A 
ATOM     97  C   UNL A   1      51.844  26.958  25.963  1.00  0.00     0.059 A 
ATOM     98  F   UNL A   1      50.414  26.973  27.818  1.00  0.00    -0.206 F 
ATOM     99  C   UNL A   1      52.023  27.077  24.586  1.00  0.00     0.060 A 
BRANCH  99 100
ATOM    100  S   UNL A   1      53.664  26.889  23.858  1.00  0.00     0.124 S 
ATOM    101  O   UNL A   1      54.511  26.847  25.047  1.00  0.00    -0.237 OA
ATOM    102  O   UNL A   1      53.537  25.633  23.126  1.00  0.00    -0.237 OA
ATOM    103  O   UNL A   1      53.808  28.080  23.028  1.00  0.00    -0.744 OA
ENDBRANCH  99 100
ENDBRANCH  67  92
ENDBRANCH  41  42
ENDBRANCH  34  36
ENDBRANCH  33  34
ENDBRANCH  32  33
ENDBRANCH  31  32
ENDBRANCH  30  31
ENDBRANCH  29  30
ENDBRANCH  28  29
ENDBRANCH   1  28
TORSDOF 26
ENDMDL
MODEL 2
REMARK VINA RESULT:      -9.0      5.102     11.327
REMARK SMILES C[C@@H](C(=O)OCCOCCOCCOCCOC(=O)c1ccc(-c2c3nc(c(-c4c(F)cc(S(=O)(=O)[O-])cc4F)c4ccc([nH]4)c(-c4c(F)cc(S(=O)(=O)[O-])cc4F)c4nc(c(-c5c(F)cc(S(=O)(=O)[O-])cc5F)c5ccc2[nH]5)C=C4)C=C3)cc1)c1ccc(-c2ccn(C(F)F)c(=O)c2)cc1
REMARK SMILES IDX 11 1 10 2 9 3 8 4 7 5 6 6 5 7 3 8 4 9 2 10 1 11 86 12 87 13
REMARK SMILES IDX 101 14 88 15 100 16 89 17 90 18 91 19 99 20 92 21 97 22
REMARK SMILES IDX 93 23 98 24 94 25 95 26 96 27 12 28 13 29 14 30 15 31 16 32
REMARK SMILES IDX 17 33 18 34 19 35 20 36 21 37 85 38 22 39 84 40 23 41 24 42
REMARK SMILES IDX 25 43 78 44 26 45 83 46 77 47 79 48 27 49 82 50 76 51 75 52
REMARK SMILES IDX 28 54 62 55 41 56 61 57 42 58 45 59 60 60 80 61 43 62 44 63
REMARK SMILES IDX 59 65 81 66 46 67 29 68 30 69 39 70 31 71 32 72 38 73 40 74
REMARK SMILES IDX 33 75 34 76 35 77 36 78 37 79 63 80 64 81 73 82 65 83 66 84
REMARK SMILES IDX 72 85 74 86 67 87 68 88 69 89 70 90 71 91 47 92 48 93 57 94
REMARK SMILES IDX 49 95 50 96 56 97 58 98 51 99 52 100 53 101 54 102 55 103
REMARK H PARENT 79 53 45 64
REMARK Flexibility Score: inf
ROOT
ATOM      1  O   UNL A   1      35.101  24.462  25.431  1.00  0.00    -0.377 OA
ENDROOT
BRANCH   1   2
ATOM      2  C   UNL A   1      34.002  23.811  26.034  1.00  0.00     0.188 C 
BRANCH   2   3
ATOM      3  C   UNL A   1      33.424  22.670  25.189  1.00  0.00     0.188 C 
BRANCH   3   4
ATOM      4  O   UNL A   1      32.091  22.280  25.442  1.00  0.00    -0.376 OA
BRANCH   4   5
ATOM      5  C   UNL A   1      31.256  23.043  26.301  1.00  0.00     0.202 C 
BRANCH   5   6
ATOM      6  C   UNL A   1      30.468  24.322  25.931  1.00  0.00     0.261 C 
BRANCH   6   7
ATOM      7  O   UNL A   1      30.410  24.708  24.553  1.00  0.00    -0.463 OA
BRANCH   7   8
ATOM      8  C   UNL A   1      31.159  25.761  24.149  1.00  0.00     0.313 C 
ATOM      9  O   UNL A   1      32.096  25.671  23.361  1.00  0.00    -0.252 OA
BRANCH   8  10
ATOM     10  C   UNL A   1      30.654  27.107  24.701  1.00  0.00     0.126 C 
ATOM     11  C   UNL A   1      29.794  27.930  23.718  1.00  0.00     0.025 C 
BRANCH  10  12
ATOM     12  C   UNL A   1      31.734  27.959  25.388  1.00  0.00    -0.034 A 
ATOM     13  C   UNL A   1      31.754  29.353  25.206  1.00  0.00     0.005 A 
ATOM     14  C   UNL A   1      32.692  27.412  26.254  1.00  0.00     0.005 A 
ATOM     15  C   UNL A   1      32.689  30.159  25.873  1.00  0.00     0.009 A 
ATOM     16  C   UNL A   1      33.662  28.201  26.873  1.00  0.00     0.009 A 
ATOM     17  C   UNL A   1      33.642  29.586  26.718  1.00  0.00    -0.018 A 
BRANCH  17  18
ATOM     18  C   UNL A   1      34.520  30.390  27.582  1.00  0.00    -0.011 A 
ATOM     19  C   UNL A   1      35.773  29.921  28.136  1.00  0.00     0.027 A 
ATOM     20  C   UNL A   1      34.020  31.570  27.988  1.00  0.00     0.080 A 
ATOM     21  C   UNL A   1      36.408  30.643  29.070  1.00  0.00     0.095 A 
ATOM     22  C   UNL A   1      34.723  32.390  29.006  1.00  0.00     0.255 A 
ATOM     23  N   UNL A   1      35.897  31.852  29.509  1.00  0.00    -0.258 N 
ATOM     24  O   UNL A   1      34.222  33.457  29.349  1.00  0.00    -0.269 OA
BRANCH  23  25
ATOM     25  C   UNL A   1      36.553  32.595  30.550  1.00  0.00     0.451 C 
ATOM     26  F   UNL A   1      37.530  31.863  31.139  1.00  0.00    -0.185 F 
ATOM     27  F   UNL A   1      37.117  33.726  30.058  1.00  0.00    -0.185 F 
ENDBRANCH  23  25
ENDBRANCH  17  18
ENDBRANCH  10  12
ENDBRANCH   8  10
ENDBRANCH   7   8
ENDBRANCH   6   7
ENDBRANCH   5   6
ENDBRANCH   4   5
ENDBRANCH   3   4
ENDBRANCH   2   3
ENDBRANCH   1   2
BRANCH   1  28
ATOM     28  C   UNL A   1      36.237  23.664  25.114  1.00  0.00     0.188 C 
BRANCH  28  29
ATOM     29  C   UNL A   1      37.385  23.478  26.134  1.00  0.00     0.188 C 
BRANCH  29  30
ATOM     30  O   UNL A   1      38.517  24.316  25.930  1.00  0.00    -0.376 OA
BRANCH  30  31
ATOM     31  C   UNL A   1      39.528  24.357  26.925  1.00  0.00     0.202 C 
BRANCH  31  32
ATOM     32  C   UNL A   1      40.172  25.719  27.226  1.00  0.00     0.261 C 
BRANCH  32  33
ATOM     33  O   UNL A   1      41.046  26.245  26.218  1.00  0.00    -0.460 OA
BRANCH  33  34
ATOM     34  C   UNL A   1      42.376  26.155  26.431  1.00  0.00     0.338 C 
ATOM     35  O   UNL A   1      43.104  25.222  26.138  1.00  0.00    -0.246 OA
BRANCH  34  36
ATOM     36  C   UNL A   1      42.844  27.479  26.891  1.00  0.00     0.060 A 
ATOM     37  C   UNL A   1      43.737  27.546  27.970  1.00  0.00     0.016 A 
ATOM     38  C   UNL A   1      42.423  28.646  26.248  1.00  0.00     0.016 A 
ATOM     39  C   UNL A   1      44.181  28.784  28.434  1.00  0.00     0.010 A 
ATOM     40  C   UNL A   1      42.848  29.886  26.731  1.00  0.00     0.010 A 
ATOM     41  C   UNL A   1      43.698  29.960  27.849  1.00  0.00    -0.014 A 
BRANCH  41  42
ATOM     42  C   UNL A   1      43.898  31.257  28.540  1.00  0.00     0.031 A 
ATOM     43  C   UNL A   1      45.063  32.109  28.113  1.00  0.00     0.074 A 
ATOM     44  C   UNL A   1      43.061  31.681  29.502  1.00  0.00     0.049 A 
ATOM     45  N   UNL A   1      45.479  33.251  28.595  1.00  0.00    -0.248 NA
ATOM     46  C   UNL A   1      45.869  31.600  26.990  1.00  0.00     0.031 C 
ATOM     47  C   UNL A   1      41.872  30.967  29.965  1.00  0.00     0.029 A 
ATOM     48  N   UNL A   1      43.092  32.818  30.270  1.00  0.00    -0.354 N 
ATOM     49  C   UNL A   1      46.600  33.588  27.845  1.00  0.00     0.074 A 
ATOM     50  C   UNL A   1      46.817  32.519  26.897  1.00  0.00     0.031 C 
ATOM     51  C   UNL A   1      41.292  31.679  30.948  1.00  0.00     0.029 A 
ATOM     52  C   UNL A   1      42.089  32.878  31.208  1.00  0.00     0.049 A 
ATOM     53  H   UNL A   1      43.769  33.525  30.160  1.00  0.00     0.167 HD
ATOM     54  C   UNL A   1      47.377  34.693  27.937  1.00  0.00     0.037 A 
ATOM     55  C   UNL A   1      41.858  33.787  32.179  1.00  0.00     0.037 A 
ATOM     56  C   UNL A   1      47.153  35.753  28.886  1.00  0.00     0.049 A 
ATOM     57  C   UNL A   1      42.781  34.972  32.313  1.00  0.00     0.074 A 
ATOM     58  C   UNL A   1      47.869  36.926  29.048  1.00  0.00     0.029 A 
ATOM     59  N   UNL A   1      46.148  35.762  29.842  1.00  0.00    -0.354 N 
ATOM     60  N   UNL A   1      43.825  35.295  31.585  1.00  0.00    -0.248 NA
ATOM     61  C   UNL A   1      42.496  35.919  33.400  1.00  0.00     0.031 C 
ATOM     62  C   UNL A   1      47.336  37.613  30.143  1.00  0.00     0.029 A 
ATOM     63  C   UNL A   1      46.244  36.904  30.618  1.00  0.00     0.049 A 
ATOM     64  H   UNL A   1      45.467  35.060  29.952  1.00  0.00     0.167 HD
ATOM     65  C   UNL A   1      44.297  36.498  32.103  1.00  0.00     0.074 A 
ATOM     66  C   UNL A   1      43.420  36.849  33.200  1.00  0.00     0.031 C 
ATOM     67  C   UNL A   1      45.357  37.246  31.704  1.00  0.00     0.037 A 
BRANCH  54  68
ATOM     68  C   UNL A   1      48.561  34.794  27.015  1.00  0.00     0.058 A 
ATOM     69  C   UNL A   1      49.813  34.252  27.347  1.00  0.00     0.135 A 
ATOM     70  C   UNL A   1      48.431  35.420  25.765  1.00  0.00     0.135 A 
ATOM     71  F   UNL A   1      50.000  33.661  28.539  1.00  0.00    -0.206 F 
ATOM     72  C   UNL A   1      50.901  34.352  26.486  1.00  0.00     0.059 A 
ATOM     73  C   UNL A   1      49.497  35.503  24.874  1.00  0.00     0.059 A 
ATOM     74  F   UNL A   1      47.259  35.960  25.398  1.00  0.00    -0.206 F 
ATOM     75  C   UNL A   1      50.732  34.978  25.249  1.00  0.00     0.060 A 
BRANCH  75  76
ATOM     76  S   UNL A   1      52.151  35.094  24.141  1.00  0.00     0.124 S 
ATOM     77  O   UNL A   1      51.869  36.341  23.437  1.00  0.00    -0.237 OA
ATOM     78  O   UNL A   1      53.272  35.134  25.076  1.00  0.00    -0.237 OA
ATOM     79  O   UNL A   1      52.055  33.882  23.334  1.00  0.00    -0.744 OA
ENDBRANCH  75  76
ENDBRANCH  54  68
BRANCH  55  80
ATOM     80  C   UNL A   1      40.710  33.608  33.111  1.00  0.00     0.058 A 
ATOM     81  C   UNL A   1      40.852  32.892  34.308  1.00  0.00     0.135 A 
ATOM     82  C   UNL A   1      39.446  34.145  32.819  1.00  0.00     0.135 A 
ATOM     83  F   UNL A   1      42.036  32.346  34.626  1.00  0.00    -0.206 F 
ATOM     84  C   UNL A   1      39.782  32.703  35.177  1.00  0.00     0.059 A 
ATOM     85  C   UNL A   1      38.368  33.995  33.686  1.00  0.00     0.059 A 
ATOM     86  F   UNL A   1      39.256  34.844  31.689  1.00  0.00    -0.206 F 
ATOM     87  C   UNL A   1      38.544  33.263  34.859  1.00  0.00     0.060 A 
BRANCH  87  88
ATOM     88  S   UNL A   1      37.177  33.056  36.021  1.00  0.00     0.124 S 
ATOM     89  O   UNL A   1      37.404  34.162  36.943  1.00  0.00    -0.237 OA
ATOM     90  O   UNL A   1      36.014  33.181  35.147  1.00  0.00    -0.237 OA
ATOM     91  O   UNL A   1      37.400  31.721  36.568  1.00  0.00    -0.744 OA
ENDBRANCH  87  88
ENDBRANCH  55  80
BRANCH  67  92
ATOM     92  C   UNL A   1      45.606  38.545  32.424  1.00  0.00     0.058 A 
ATOM     93  C   UNL A   1      46.516  38.645  33.488  1.00  0.00     0.135 A 
ATOM     94  C   UNL A   1      44.969  39.723  31.996  1.00  0.00     0.135 A 
ATOM     95  F   UNL A   1      47.149  37.551  33.940  1.00  0.00    -0.206 F 
ATOM     96  C   UNL A   1      46.764  39.859  34.121  1.00  0.00     0.059 A 
ATOM     97  C   UNL A   1      45.228  40.953  32.592  1.00  0.00     0.059 A 
ATOM     98  F   UNL A   1      44.100  39.690  30.974  1.00  0.00    -0.206 F 
ATOM     99  C   UNL A   1      46.118  41.009  33.662  1.00  0.00     0.060 A 
BRANCH  99 100
ATOM    100  S   UNL A   1      46.478  42.584  34.470  1.00  0.00     0.124 S 
ATOM    101  O   UNL A   1      47.098  43.337  33.385  1.00  0.00    -0.237 OA
ATOM    102  O   UNL A   1      45.150  43.034  34.877  1.00  0.00    -0.237 OA
ATOM    103  O   UNL A   1      47.370  42.210  35.563  1.00  0.00    -0.744 OA
ENDBRANCH  99 100
ENDBRANCH  67  92
ENDBRANCH  41  42
ENDBRANCH  34  36
ENDBRANCH  33  34
ENDBRANCH  32  33
ENDBRANCH  31  32
ENDBRANCH  30  31
ENDBRANCH  29  30
ENDBRANCH  28  29
ENDBRANCH   1  28
TORSDOF 26
ENDMDL
MODEL 3
REMARK VINA RESULT:      -8.9      5.342     11.723
REMARK SMILES C[C@@H](C(=O)OCCOCCOCCOCCOC(=O)c1ccc(-c2c3nc(c(-c4c(F)cc(S(=O)(=O)[O-])cc4F)c4ccc([nH]4)c(-c4c(F)cc(S(=O)(=O)[O-])cc4F)c4nc(c(-c5c(F)cc(S(=O)(=O)[O-])cc5F)c5ccc2[nH]5)C=C4)C=C3)cc1)c1ccc(-c2ccn(C(F)F)c(=O)c2)cc1
REMARK SMILES IDX 11 1 10 2 9 3 8 4 7 5 6 6 5 7 3 8 4 9 2 10 1 11 86 12 87 13
REMARK SMILES IDX 101 14 88 15 100 16 89 17 90 18 91 19 99 20 92 21 97 22
REMARK SMILES IDX 93 23 98 24 94 25 95 26 96 27 12 28 13 29 14 30 15 31 16 32
REMARK SMILES IDX 17 33 18 34 19 35 20 36 21 37 85 38 22 39 84 40 23 41 24 42
REMARK SMILES IDX 25 43 78 44 26 45 83 46 77 47 79 48 27 49 82 50 76 51 75 52
REMARK SMILES IDX 28 54 62 55 41 56 61 57 42 58 45 59 60 60 80 61 43 62 44 63
REMARK SMILES IDX 59 65 81 66 46 67 29 68 30 69 39 70 31 71 32 72 38 73 40 74
REMARK SMILES IDX 33 75 34 76 35 77 36 78 37 79 63 80 64 81 73 82 65 83 66 84
REMARK SMILES IDX 72 85 74 86 67 87 68 88 69 89 70 90 71 91 47 92 48 93 57 94
REMARK SMILES IDX 49 95 50 96 56 97 58 98 51 99 52 100 53 101 54 102 55 103
REMARK H PARENT 79 53 45 64
REMARK Flexibility Score: inf
ROOT
ATOM      1  O   UNL A   1      35.214  24.603  25.036  1.00  0.00    -0.377 OA
ENDROOT
BRANCH   1   2
ATOM      2  C   UNL A   1      34.065  24.173  25.736  1.00  0.00     0.188 C 
BRANCH   2   3
ATOM      3  C   UNL A   1      33.713  22.700  25.496  1.00  0.00     0.188 C 
BRANCH   3   4
ATOM      4  O   UNL A   1      32.566  22.189  26.139  1.00  0.00    -0.376 OA
BRANCH   4   5
ATOM      5  C   UNL A   1      31.697  23.041  26.871  1.00  0.00     0.202 C 
BRANCH   5   6
ATOM      6  C   UNL A   1      30.646  24.015  26.286  1.00  0.00     0.261 C 
BRANCH   6   7
ATOM      7  O   UNL A   1      30.551  24.136  24.862  1.00  0.00    -0.463 OA
BRANCH   7   8
ATOM      8  C   UNL A   1      31.049  25.251  24.278  1.00  0.00     0.313 C 
ATOM      9  O   UNL A   1      31.871  25.237  23.367  1.00  0.00    -0.252 OA
BRANCH   8  10
ATOM     10  C   UNL A   1      30.402  26.546  24.804  1.00  0.00     0.126 C 
ATOM     11  C   UNL A   1      29.453  27.249  23.811  1.00  0.00     0.025 C 
BRANCH  10  12
ATOM     12  C   UNL A   1      31.387  27.526  25.464  1.00  0.00    -0.034 A 
ATOM     13  C   UNL A   1      31.937  27.231  26.723  1.00  0.00     0.005 A 
ATOM     14  C   UNL A   1      31.820  28.703  24.835  1.00  0.00     0.005 A 
ATOM     15  C   UNL A   1      32.887  28.077  27.317  1.00  0.00     0.009 A 
ATOM     16  C   UNL A   1      32.718  29.578  25.446  1.00  0.00     0.009 A 
ATOM     17  C   UNL A   1      33.288  29.251  26.675  1.00  0.00    -0.018 A 
BRANCH  17  18
ATOM     18  C   UNL A   1      34.408  30.074  27.157  1.00  0.00    -0.011 A 
ATOM     19  C   UNL A   1      35.711  29.553  27.514  1.00  0.00     0.027 A 
ATOM     20  C   UNL A   1      34.118  31.360  27.420  1.00  0.00     0.080 A 
ATOM     21  C   UNL A   1      36.605  30.338  28.130  1.00  0.00     0.095 A 
ATOM     22  C   UNL A   1      35.106  32.248  28.083  1.00  0.00     0.255 A 
ATOM     23  N   UNL A   1      36.314  31.660  28.421  1.00  0.00    -0.258 N 
ATOM     24  O   UNL A   1      34.791  33.413  28.308  1.00  0.00    -0.269 OA
BRANCH  23  25
ATOM     25  C   UNL A   1      37.255  32.483  29.132  1.00  0.00     0.451 C 
ATOM     26  F   UNL A   1      38.492  31.929  29.135  1.00  0.00    -0.185 F 
ATOM     27  F   UNL A   1      37.349  33.712  28.566  1.00  0.00    -0.185 F 
ENDBRANCH  23  25
ENDBRANCH  17  18
ENDBRANCH  10  12
ENDBRANCH   8  10
ENDBRANCH   7   8
ENDBRANCH   6   7
ENDBRANCH   5   6
ENDBRANCH   4   5
ENDBRANCH   3   4
ENDBRANCH   2   3
ENDBRANCH   1   2
BRANCH   1  28
ATOM     28  C   UNL A   1      36.323  23.710  24.993  1.00  0.00     0.188 C 
BRANCH  28  29
ATOM     29  C   UNL A   1      37.303  23.606  26.186  1.00  0.00     0.188 C 
BRANCH  29  30
ATOM     30  O   UNL A   1      38.538  24.290  26.016  1.00  0.00    -0.376 OA
BRANCH  30  31
ATOM     31  C   UNL A   1      39.522  24.193  27.034  1.00  0.00     0.202 C 
BRANCH  31  32
ATOM     32  C   UNL A   1      39.990  25.499  27.695  1.00  0.00     0.261 C 
BRANCH  32  33
ATOM     33  O   UNL A   1      41.333  25.910  27.408  1.00  0.00    -0.460 OA
BRANCH  33  34
ATOM     34  C   UNL A   1      42.239  25.840  28.407  1.00  0.00     0.338 C 
ATOM     35  O   UNL A   1      42.807  24.841  28.813  1.00  0.00    -0.246 OA
BRANCH  34  36
ATOM     36  C   UNL A   1      42.588  27.225  28.789  1.00  0.00     0.060 A 
ATOM     37  C   UNL A   1      43.445  27.432  29.879  1.00  0.00     0.016 A 
ATOM     38  C   UNL A   1      42.093  28.310  28.062  1.00  0.00     0.016 A 
ATOM     39  C   UNL A   1      43.778  28.729  30.269  1.00  0.00     0.010 A 
ATOM     40  C   UNL A   1      42.405  29.608  28.470  1.00  0.00     0.010 A 
ATOM     41  C   UNL A   1      43.218  29.822  29.598  1.00  0.00    -0.014 A 
BRANCH  41  42
ATOM     42  C   UNL A   1      43.298  31.173  30.206  1.00  0.00     0.031 A 
ATOM     43  C   UNL A   1      44.275  32.154  29.617  1.00  0.00     0.074 A 
ATOM     44  C   UNL A   1      42.511  31.530  31.236  1.00  0.00     0.049 A 
ATOM     45  N   UNL A   1      44.568  33.368  30.001  1.00  0.00    -0.248 NA
ATOM     46  C   UNL A   1      45.027  31.698  28.436  1.00  0.00     0.031 C 
ATOM     47  C   UNL A   1      41.493  30.685  31.858  1.00  0.00     0.029 A 
ATOM     48  N   UNL A   1      42.455  32.704  31.946  1.00  0.00    -0.354 N 
ATOM     49  C   UNL A   1      45.545  33.815  29.119  1.00  0.00     0.074 A 
ATOM     50  C   UNL A   1      45.817  32.734  28.199  1.00  0.00     0.031 C 
ATOM     51  C   UNL A   1      40.920  31.365  32.867  1.00  0.00     0.029 A 
ATOM     52  C   UNL A   1      41.555  32.677  32.985  1.00  0.00     0.049 A 
ATOM     53  H   UNL A   1      43.006  33.490  31.732  1.00  0.00     0.167 HD
ATOM     54  C   UNL A   1      46.157  35.022  29.077  1.00  0.00     0.037 A 
ATOM     55  C   UNL A   1      41.296  33.599  33.936  1.00  0.00     0.037 A 
ATOM     56  C   UNL A   1      45.881  36.094  29.998  1.00  0.00     0.049 A 
ATOM     57  C   UNL A   1      42.046  34.909  33.916  1.00  0.00     0.074 A 
ATOM     58  C   UNL A   1      46.431  37.363  30.029  1.00  0.00     0.029 A 
ATOM     59  N   UNL A   1      44.989  36.017  31.058  1.00  0.00    -0.354 N 
ATOM     60  N   UNL A   1      42.950  35.331  33.064  1.00  0.00    -0.248 NA
ATOM     61  C   UNL A   1      41.738  35.868  34.986  1.00  0.00     0.031 C 
ATOM     62  C   UNL A   1      45.918  38.031  31.145  1.00  0.00     0.029 A 
ATOM     63  C   UNL A   1      44.997  37.205  31.768  1.00  0.00     0.049 A 
ATOM     64  H   UNL A   1      44.432  35.234  31.272  1.00  0.00     0.167 HD
ATOM     65  C   UNL A   1      43.293  36.617  33.475  1.00  0.00     0.074 A 
ATOM     66  C   UNL A   1      42.492  36.905  34.646  1.00  0.00     0.031 C 
ATOM     67  C   UNL A   1      44.186  37.482  32.930  1.00  0.00     0.037 A 
BRANCH  54  68
ATOM     68  C   UNL A   1      47.213  35.233  28.026  1.00  0.00     0.058 A 
ATOM     69  C   UNL A   1      46.921  35.812  26.781  1.00  0.00     0.135 A 
ATOM     70  C   UNL A   1      48.547  34.874  28.282  1.00  0.00     0.135 A 
ATOM     71  F   UNL A   1      45.658  36.155  26.473  1.00  0.00    -0.206 F 
ATOM     72  C   UNL A   1      47.906  36.002  25.817  1.00  0.00     0.059 A 
ATOM     73  C   UNL A   1      49.554  35.085  27.346  1.00  0.00     0.059 A 
ATOM     74  F   UNL A   1      48.882  34.312  29.453  1.00  0.00    -0.206 F 
ATOM     75  C   UNL A   1      49.221  35.637  26.110  1.00  0.00     0.060 A 
BRANCH  75  76
ATOM     76  S   UNL A   1      50.489  35.895  24.852  1.00  0.00     0.124 S 
ATOM     77  O   UNL A   1      49.772  36.713  23.879  1.00  0.00    -0.237 OA
ATOM     78  O   UNL A   1      51.537  36.578  25.604  1.00  0.00    -0.237 OA
ATOM     79  O   UNL A   1      50.816  34.542  24.414  1.00  0.00    -0.744 OA
ENDBRANCH  75  76
ENDBRANCH  54  68
BRANCH  55  80
ATOM     80  C   UNL A   1      40.288  33.317  34.995  1.00  0.00     0.058 A 
ATOM     81  C   UNL A   1      40.681  33.010  36.306  1.00  0.00     0.135 A 
ATOM     82  C   UNL A   1      38.913  33.341  34.717  1.00  0.00     0.135 A 
ATOM     83  F   UNL A   1      41.984  32.958  36.621  1.00  0.00    -0.206 F 
ATOM     84  C   UNL A   1      39.749  32.725  37.299  1.00  0.00     0.059 A 
ATOM     85  C   UNL A   1      37.961  33.089  35.699  1.00  0.00     0.059 A 
ATOM     86  F   UNL A   1      38.482  33.635  33.480  1.00  0.00    -0.206 F 
ATOM     87  C   UNL A   1      38.390  32.772  36.987  1.00  0.00     0.060 A 
BRANCH  87  88
ATOM     88  S   UNL A   1      37.189  32.454  38.298  1.00  0.00     0.124 S 
ATOM     89  O   UNL A   1      36.003  33.124  37.781  1.00  0.00    -0.237 OA
ATOM     90  O   UNL A   1      37.142  30.995  38.319  1.00  0.00    -0.237 OA
ATOM     91  O   UNL A   1      37.802  33.070  39.472  1.00  0.00    -0.744 OA
ENDBRANCH  87  88
ENDBRANCH  55  80
BRANCH  67  92
ATOM     92  C   UNL A   1      44.316  38.843  33.561  1.00  0.00     0.058 A 
ATOM     93  C   UNL A   1      43.624  39.961  33.070  1.00  0.00     0.135 A 
ATOM     94  C   UNL A   1      45.098  39.014  34.717  1.00  0.00     0.135 A 
ATOM     95  F   UNL A   1      42.866  39.856  31.967  1.00  0.00    -0.206 F 
ATOM     96  C   UNL A   1      43.724  41.205  33.686  1.00  0.00     0.059 A 
ATOM     97  C   UNL A   1      45.184  40.240  35.368  1.00  0.00     0.059 A 
ATOM     98  F   UNL A   1      45.770  37.975  35.239  1.00  0.00    -0.206 F 
ATOM     99  C   UNL A   1      44.504  41.334  34.837  1.00  0.00     0.060 A 
BRANCH  99 100
ATOM    100  S   UNL A   1      44.596  42.946  35.644  1.00  0.00     0.124 S 
ATOM    101  O   UNL A   1      43.702  43.744  34.811  1.00  0.00    -0.237 OA
ATOM    102  O   UNL A   1      44.113  42.648  36.989  1.00  0.00    -0.237 OA
ATOM    103  O   UNL A   1      46.011  43.292  35.554  1.00  0.00    -0.744 OA
ENDBRANCH  99 100
ENDBRANCH  67  92
ENDBRANCH  41  42
ENDBRANCH  34  36
ENDBRANCH  33  34
ENDBRANCH  32  33
ENDBRANCH  31  32
ENDBRANCH  30  31
ENDBRANCH  29  30
ENDBRANCH  28  29
ENDBRANCH   1  28
TORSDOF 26
ENDMDL
