MODEL 1
REMARK VINA RESULT:      -9.8      0.000      0.000
REMARK SMILES CCC(CC)(NC(=O)c1ccc(C)s1)C(=O)OCCOCCOCCOCCOC(=O)c1ccc(-c2c3nc(c(-c4c(F)cc(S(=O)(=O)[O-])cc4F)c4ccc([nH]4)c(-c4c(F)cc(S(=O)(=O)[O-])cc4F)c4nc(c(-c5c(F)cc(S(=O)(=O)[O-])cc5F)c5ccc2[nH]5)C=C4)C=C3)cc1
REMARK SMILES IDX 24 1 23 2 22 3 21 4 20 5 19 6 18 7 17 8 15 9 16 10 3 11 2 12
REMARK SMILES IDX 1 13 4 14 5 15 6 16 7 17 8 19 9 20 10 21 14 22 11 23 12 24
REMARK SMILES IDX 13 25 25 26 26 27 27 28 28 29 29 30 30 31 31 32 32 33 33 34
REMARK SMILES IDX 97 35 34 36 96 37 35 38 36 39 37 40 90 41 38 42 95 43 89 44
REMARK SMILES IDX 91 45 39 46 94 47 88 48 87 49 40 51 74 52 53 53 73 54 54 55
REMARK SMILES IDX 57 56 72 57 92 58 55 59 56 60 71 62 93 63 58 64 41 65 42 66
REMARK SMILES IDX 51 67 43 68 44 69 50 70 52 71 45 72 46 73 47 74 48 75 49 76
REMARK SMILES IDX 75 77 76 78 85 79 77 80 78 81 84 82 86 83 79 84 80 85 81 86
REMARK SMILES IDX 82 87 83 88 59 89 60 90 69 91 61 92 62 93 68 94 70 95 63 96
REMARK SMILES IDX 64 97 65 98 66 99 67 100
REMARK H PARENT 6 18 91 50 57 61
REMARK Flexibility Score: inf
ROOT
ATOM      1  C   UNL A   1      42.371  19.845  26.382  1.00  0.00     0.188 C 
ENDROOT
BRANCH   1   2
ATOM      2  O   UNL A   1      40.987  20.091  26.128  1.00  0.00    -0.377 OA
BRANCH   2   3
ATOM      3  C   UNL A   1      40.387  21.072  26.955  1.00  0.00     0.188 C 
BRANCH   3   4
ATOM      4  C   UNL A   1      39.408  22.007  26.246  1.00  0.00     0.188 C 
BRANCH   4   5
ATOM      5  O   UNL A   1      39.221  23.291  26.832  1.00  0.00    -0.376 OA
BRANCH   5   6
ATOM      6  C   UNL A   1      37.966  23.940  26.569  1.00  0.00     0.202 C 
BRANCH   6   7
ATOM      7  C   UNL A   1      37.238  23.457  25.319  1.00  0.00     0.261 C 
BRANCH   7   8
ATOM      8  O   UNL A   1      35.930  24.065  25.275  1.00  0.00    -0.461 OA
BRANCH   8   9
ATOM      9  C   UNL A   1      35.053  23.473  24.435  1.00  0.00     0.331 C 
ATOM     10  O   UNL A   1      35.176  22.319  24.033  1.00  0.00    -0.249 OA
BRANCH   9  11
ATOM     11  C   UNL A   1      33.813  24.354  24.100  1.00  0.00     0.137 C 
BRANCH  11  12
ATOM     12  C   UNL A   1      34.068  25.740  24.790  1.00  0.00     0.037 C 
ATOM     13  C   UNL A   1      33.140  26.169  25.916  1.00  0.00     0.007 C 
ENDBRANCH  11  12
BRANCH  11  14
ATOM     14  C   UNL A   1      32.578  23.616  24.685  1.00  0.00     0.037 C 
ATOM     15  C   UNL A   1      32.802  22.880  25.999  1.00  0.00     0.007 C 
ENDBRANCH  11  14
BRANCH  11  16
ATOM     16  N   UNL A   1      33.536  24.738  22.685  1.00  0.00    -0.335 N 
ATOM     17  C   UNL A   1      32.908  25.766  22.038  1.00  0.00     0.262 C 
ATOM     18  H   UNL A   1      33.900  24.078  22.051  1.00  0.00     0.165 HD
ATOM     19  O   UNL A   1      33.278  25.950  20.874  1.00  0.00    -0.268 OA
BRANCH  17  20
ATOM     20  C   UNL A   1      31.800  26.466  22.635  1.00  0.00     0.092 A 
ATOM     21  C   UNL A   1      30.604  26.041  23.172  1.00  0.00     0.026 A 
ATOM     22  S   UNL A   1      31.965  28.170  22.763  1.00  0.00    -0.135 S 
ATOM     23  C   UNL A   1      29.761  27.139  23.537  1.00  0.00     0.016 A 
ATOM     24  C   UNL A   1      30.350  28.358  23.276  1.00  0.00     0.002 A 
ATOM     25  C   UNL A   1      29.775  29.725  23.382  1.00  0.00     0.056 C 
ENDBRANCH  17  20
ENDBRANCH  11  16
ENDBRANCH   9  11
ENDBRANCH   8   9
ENDBRANCH   7   8
ENDBRANCH   6   7
ENDBRANCH   5   6
ENDBRANCH   4   5
ENDBRANCH   3   4
ENDBRANCH   2   3
ENDBRANCH   1   2
BRANCH   1  26
ATOM     26  C   UNL A   1      43.353  20.966  26.010  1.00  0.00     0.188 C 
BRANCH  26  27
ATOM     27  O   UNL A   1      43.054  21.765  24.870  1.00  0.00    -0.376 OA
BRANCH  27  28
ATOM     28  C   UNL A   1      43.481  23.125  24.861  1.00  0.00     0.202 C 
BRANCH  28  29
ATOM     29  C   UNL A   1      43.024  23.962  26.052  1.00  0.00     0.261 C 
BRANCH  29  30
ATOM     30  O   UNL A   1      41.838  24.708  25.728  1.00  0.00    -0.460 OA
BRANCH  30  31
ATOM     31  C   UNL A   1      41.950  26.048  25.842  1.00  0.00     0.338 C 
ATOM     32  O   UNL A   1      41.958  26.869  24.940  1.00  0.00    -0.246 OA
BRANCH  31  33
ATOM     33  C   UNL A   1      41.981  26.440  27.260  1.00  0.00     0.060 A 
ATOM     34  C   UNL A   1      40.851  26.156  28.034  1.00  0.00     0.016 A 
ATOM     35  C   UNL A   1      43.017  27.231  27.764  1.00  0.00     0.016 A 
ATOM     36  C   UNL A   1      40.705  26.751  29.283  1.00  0.00     0.010 A 
ATOM     37  C   UNL A   1      42.867  27.835  29.015  1.00  0.00     0.010 A 
ATOM     38  C   UNL A   1      41.680  27.649  29.745  1.00  0.00    -0.014 A 
BRANCH  38  39
ATOM     39  C   UNL A   1      41.327  28.568  30.852  1.00  0.00     0.031 A 
ATOM     40  C   UNL A   1      42.169  28.530  32.099  1.00  0.00     0.074 A 
ATOM     41  C   UNL A   1      40.325  29.453  30.731  1.00  0.00     0.049 A 
ATOM     42  N   UNL A   1      42.090  29.269  33.174  1.00  0.00    -0.248 NA
ATOM     43  C   UNL A   1      43.239  27.519  32.142  1.00  0.00     0.031 C 
ATOM     44  C   UNL A   1      39.452  29.573  29.569  1.00  0.00     0.029 A 
ATOM     45  N   UNL A   1      39.877  30.423  31.587  1.00  0.00    -0.354 N 
ATOM     46  C   UNL A   1      43.090  28.808  34.023  1.00  0.00     0.074 A 
ATOM     47  C   UNL A   1      43.749  27.711  33.348  1.00  0.00     0.031 C 
ATOM     48  C   UNL A   1      38.583  30.578  29.769  1.00  0.00     0.029 A 
ATOM     49  C   UNL A   1      38.818  31.148  31.093  1.00  0.00     0.049 A 
ATOM     50  H   UNL A   1      40.274  30.587  32.473  1.00  0.00     0.167 HD
ATOM     51  C   UNL A   1      43.430  29.263  35.251  1.00  0.00     0.037 A 
ATOM     52  C   UNL A   1      38.114  32.151  31.652  1.00  0.00     0.037 A 
ATOM     53  C   UNL A   1      42.762  30.352  35.913  1.00  0.00     0.049 A 
ATOM     54  C   UNL A   1      38.502  32.630  33.024  1.00  0.00     0.074 A 
ATOM     55  C   UNL A   1      43.028  30.901  37.155  1.00  0.00     0.029 A 
ATOM     56  N   UNL A   1      41.689  31.056  35.385  1.00  0.00    -0.354 N 
ATOM     57  N   UNL A   1      39.466  32.201  33.806  1.00  0.00    -0.248 NA
ATOM     58  C   UNL A   1      37.713  33.733  33.590  1.00  0.00     0.031 C 
ATOM     59  C   UNL A   1      42.092  31.914  37.393  1.00  0.00     0.029 A 
ATOM     60  C   UNL A   1      41.273  32.027  36.280  1.00  0.00     0.049 A 
ATOM     61  H   UNL A   1      41.283  30.889  34.505  1.00  0.00     0.167 HD
ATOM     62  C   UNL A   1      39.416  32.998  34.944  1.00  0.00     0.074 A 
ATOM     63  C   UNL A   1      38.334  33.941  34.742  1.00  0.00     0.031 C 
ATOM     64  C   UNL A   1      40.197  32.957  36.053  1.00  0.00     0.037 A 
BRANCH  51  65
ATOM     65  C   UNL A   1      44.550  28.558  35.963  1.00  0.00     0.058 A 
ATOM     66  C   UNL A   1      45.888  28.956  35.815  1.00  0.00     0.135 A 
ATOM     67  C   UNL A   1      44.280  27.470  36.809  1.00  0.00     0.135 A 
ATOM     68  F   UNL A   1      46.203  29.976  34.999  1.00  0.00    -0.206 F 
ATOM     69  C   UNL A   1      46.923  28.286  36.460  1.00  0.00     0.059 A 
ATOM     70  C   UNL A   1      45.298  26.800  37.483  1.00  0.00     0.059 A 
ATOM     71  F   UNL A   1      43.020  27.043  36.981  1.00  0.00    -0.206 F 
ATOM     72  C   UNL A   1      46.617  27.206  37.290  1.00  0.00     0.060 A 
BRANCH  72  73
ATOM     73  S   UNL A   1      47.967  26.344  38.122  1.00  0.00     0.124 S 
ATOM     74  O   UNL A   1      48.585  27.429  38.878  1.00  0.00    -0.237 OA
ATOM     75  O   UNL A   1      47.259  25.343  38.915  1.00  0.00    -0.237 OA
ATOM     76  O   UNL A   1      48.763  25.814  37.020  1.00  0.00    -0.744 OA
ENDBRANCH  72  73
ENDBRANCH  51  65
BRANCH  52  77
ATOM     77  C   UNL A   1      36.985  32.770  30.910  1.00  0.00     0.058 A 
ATOM     78  C   UNL A   1      35.653  32.482  31.245  1.00  0.00     0.135 A 
ATOM     79  C   UNL A   1      37.214  33.677  29.864  1.00  0.00     0.135 A 
ATOM     80  F   UNL A   1      35.381  31.617  32.234  1.00  0.00    -0.206 F 
ATOM     81  C   UNL A   1      34.589  33.063  30.563  1.00  0.00     0.059 A 
ATOM     82  C   UNL A   1      36.167  34.288  29.183  1.00  0.00     0.059 A 
ATOM     83  F   UNL A   1      38.470  33.997  29.515  1.00  0.00    -0.206 F 
ATOM     84  C   UNL A   1      34.856  33.968  29.534  1.00  0.00     0.060 A 
BRANCH  84  85
ATOM     85  S   UNL A   1      33.469  34.765  28.696  1.00  0.00     0.124 S 
ATOM     86  O   UNL A   1      32.531  34.956  29.795  1.00  0.00    -0.237 OA
ATOM     87  O   UNL A   1      34.086  35.976  28.164  1.00  0.00    -0.237 OA
ATOM     88  O   UNL A   1      33.076  33.781  27.691  1.00  0.00    -0.744 OA
ENDBRANCH  84  85
ENDBRANCH  52  77
BRANCH  64  89
ATOM     89  C   UNL A   1      39.933  33.993  37.108  1.00  0.00     0.058 A 
ATOM     90  C   UNL A   1      40.451  35.293  37.014  1.00  0.00     0.135 A 
ATOM     91  C   UNL A   1      39.129  33.682  38.217  1.00  0.00     0.135 A 
ATOM     92  F   UNL A   1      41.228  35.639  35.975  1.00  0.00    -0.206 F 
ATOM     93  C   UNL A   1      40.211  36.242  38.004  1.00  0.00     0.059 A 
ATOM     94  C   UNL A   1      38.855  34.622  39.204  1.00  0.00     0.059 A 
ATOM     95  F   UNL A   1      38.599  32.456  38.345  1.00  0.00    -0.206 F 
ATOM     96  C   UNL A   1      39.417  35.894  39.098  1.00  0.00     0.060 A 
BRANCH  96  97
ATOM     97  S   UNL A   1      39.108  37.130  40.377  1.00  0.00     0.124 S 
ATOM     98  O   UNL A   1      40.465  37.557  40.704  1.00  0.00    -0.237 OA
ATOM     99  O   UNL A   1      38.287  38.112  39.675  1.00  0.00    -0.237 OA
ATOM    100  O   UNL A   1      38.418  36.374  41.417  1.00  0.00    -0.744 OA
ENDBRANCH  96  97
ENDBRANCH  64  89
ENDBRANCH  38  39
ENDBRANCH  31  33
ENDBRANCH  30  31
ENDBRANCH  29  30
ENDBRANCH  28  29
ENDBRANCH  27  28
ENDBRANCH  26  27
ENDBRANCH   1  26
TORSDOF 27
ENDMDL
MODEL 2
REMARK VINA RESULT:      -9.6      5.075      6.985
REMARK SMILES CCC(CC)(NC(=O)c1ccc(C)s1)C(=O)OCCOCCOCCOCCOC(=O)c1ccc(-c2c3nc(c(-c4c(F)cc(S(=O)(=O)[O-])cc4F)c4ccc([nH]4)c(-c4c(F)cc(S(=O)(=O)[O-])cc4F)c4nc(c(-c5c(F)cc(S(=O)(=O)[O-])cc5F)c5ccc2[nH]5)C=C4)C=C3)cc1
REMARK SMILES IDX 24 1 23 2 22 3 21 4 20 5 19 6 18 7 17 8 15 9 16 10 3 11 2 12
REMARK SMILES IDX 1 13 4 14 5 15 6 16 7 17 8 19 9 20 10 21 14 22 11 23 12 24
REMARK SMILES IDX 13 25 25 26 26 27 27 28 28 29 29 30 30 31 31 32 32 33 33 34
REMARK SMILES IDX 97 35 34 36 96 37 35 38 36 39 37 40 90 41 38 42 95 43 89 44
REMARK SMILES IDX 91 45 39 46 94 47 88 48 87 49 40 51 74 52 53 53 73 54 54 55
REMARK SMILES IDX 57 56 72 57 92 58 55 59 56 60 71 62 93 63 58 64 41 65 42 66
REMARK SMILES IDX 51 67 43 68 44 69 50 70 52 71 45 72 46 73 47 74 48 75 49 76
REMARK SMILES IDX 75 77 76 78 85 79 77 80 78 81 84 82 86 83 79 84 80 85 81 86
REMARK SMILES IDX 82 87 83 88 59 89 60 90 69 91 61 92 62 93 68 94 70 95 63 96
REMARK SMILES IDX 64 97 65 98 66 99 67 100
REMARK H PARENT 6 18 91 50 57 61
REMARK Flexibility Score: inf
ROOT
ATOM      1  C   UNL A   1      33.597  19.603  24.689  1.00  0.00     0.188 C 
ENDROOT
BRANCH   1   2
ATOM      2  O   UNL A   1      32.771  20.107  23.639  1.00  0.00    -0.377 OA
BRANCH   2   3
ATOM      3  C   UNL A   1      32.067  21.297  23.944  1.00  0.00     0.188 C 
BRANCH   3   4
ATOM      4  C   UNL A   1      32.485  22.523  23.133  1.00  0.00     0.188 C 
BRANCH   4   5
ATOM      5  O   UNL A   1      32.679  23.730  23.864  1.00  0.00    -0.376 OA
BRANCH   5   6
ATOM      6  C   UNL A   1      33.830  24.515  23.515  1.00  0.00     0.202 C 
BRANCH   6   7
ATOM      7  C   UNL A   1      33.574  25.622  22.498  1.00  0.00     0.261 C 
BRANCH   7   8
ATOM      8  O   UNL A   1      32.357  26.312  22.853  1.00  0.00    -0.461 OA
BRANCH   8   9
ATOM      9  C   UNL A   1      32.523  27.387  23.654  1.00  0.00     0.331 C 
ATOM     10  O   UNL A   1      33.557  28.051  23.689  1.00  0.00    -0.249 OA
BRANCH   9  11
ATOM     11  C   UNL A   1      31.247  27.773  24.458  1.00  0.00     0.137 C 
BRANCH  11  12
ATOM     12  C   UNL A   1      30.089  26.884  23.884  1.00  0.00     0.037 C 
ATOM     13  C   UNL A   1      29.402  25.898  24.818  1.00  0.00     0.007 C 
ENDBRANCH  11  12
BRANCH  11  14
ATOM     14  C   UNL A   1      31.013  29.288  24.213  1.00  0.00     0.037 C 
ATOM     15  C   UNL A   1      29.960  29.640  23.171  1.00  0.00     0.007 C 
ENDBRANCH  11  14
BRANCH  11  16
ATOM     16  N   UNL A   1      31.180  27.493  25.923  1.00  0.00    -0.335 N 
ATOM     17  C   UNL A   1      31.667  28.062  27.067  1.00  0.00     0.262 C 
ATOM     18  H   UNL A   1      30.645  26.689  26.116  1.00  0.00     0.165 HD
ATOM     19  O   UNL A   1      31.028  27.798  28.091  1.00  0.00    -0.268 OA
BRANCH  17  20
ATOM     20  C   UNL A   1      32.914  28.782  27.078  1.00  0.00     0.092 A 
ATOM     21  C   UNL A   1      34.229  28.378  26.988  1.00  0.00     0.026 A 
ATOM     22  S   UNL A   1      32.798  30.491  27.183  1.00  0.00    -0.135 S 
ATOM     23  C   UNL A   1      35.138  29.469  27.173  1.00  0.00     0.016 A 
ATOM     24  C   UNL A   1      34.482  30.663  27.383  1.00  0.00     0.002 A 
ATOM     25  C   UNL A   1      35.040  31.994  27.741  1.00  0.00     0.056 C 
ENDBRANCH  17  20
ENDBRANCH  11  16
ENDBRANCH   9  11
ENDBRANCH   8   9
ENDBRANCH   7   8
ENDBRANCH   6   7
ENDBRANCH   5   6
ENDBRANCH   4   5
ENDBRANCH   3   4
ENDBRANCH   2   3
ENDBRANCH   1   2
BRANCH   1  26
ATOM     26  C   UNL A   1      34.038  20.607  25.765  1.00  0.00     0.188 C 
BRANCH  26  27
ATOM     27  O   UNL A   1      35.181  21.413  25.499  1.00  0.00    -0.376 OA
BRANCH  27  28
ATOM     28  C   UNL A   1      36.400  20.768  25.135  1.00  0.00     0.202 C 
BRANCH  28  29
ATOM     29  C   UNL A   1      37.555  21.701  24.785  1.00  0.00     0.261 C 
BRANCH  29  30
ATOM     30  O   UNL A   1      38.064  22.350  25.963  1.00  0.00    -0.460 OA
BRANCH  30  31
ATOM     31  C   UNL A   1      37.760  23.659  26.078  1.00  0.00     0.338 C 
ATOM     32  O   UNL A   1      36.687  24.192  25.848  1.00  0.00    -0.246 OA
BRANCH  31  33
ATOM     33  C   UNL A   1      38.907  24.405  26.621  1.00  0.00     0.060 A 
ATOM     34  C   UNL A   1      38.970  24.573  28.009  1.00  0.00     0.016 A 
ATOM     35  C   UNL A   1      39.791  25.078  25.775  1.00  0.00     0.016 A 
ATOM     36  C   UNL A   1      39.855  25.500  28.549  1.00  0.00     0.010 A 
ATOM     37  C   UNL A   1      40.675  26.014  26.318  1.00  0.00     0.010 A 
ATOM     38  C   UNL A   1      40.659  26.274  27.699  1.00  0.00    -0.014 A 
BRANCH  38  39
ATOM     39  C   UNL A   1      41.274  27.510  28.238  1.00  0.00     0.031 A 
ATOM     40  C   UNL A   1      42.767  27.664  28.127  1.00  0.00     0.074 A 
ATOM     41  C   UNL A   1      40.522  28.494  28.757  1.00  0.00     0.049 A 
ATOM     42  N   UNL A   1      43.523  28.671  28.475  1.00  0.00    -0.248 NA
ATOM     43  C   UNL A   1      43.506  26.527  27.551  1.00  0.00     0.031 C 
ATOM     44  C   UNL A   1      39.073  28.446  28.910  1.00  0.00     0.029 A 
ATOM     45  N   UNL A   1      40.869  29.726  29.244  1.00  0.00    -0.354 N 
ATOM     46  C   UNL A   1      44.825  28.287  28.171  1.00  0.00     0.074 A 
ATOM     47  C   UNL A   1      44.759  26.948  27.630  1.00  0.00     0.031 C 
ATOM     48  C   UNL A   1      38.644  29.607  29.433  1.00  0.00     0.029 A 
ATOM     49  C   UNL A   1      39.797  30.466  29.685  1.00  0.00     0.049 A 
ATOM     50  H   UNL A   1      41.798  30.051  29.277  1.00  0.00     0.167 HD
ATOM     51  C   UNL A   1      45.970  28.992  28.325  1.00  0.00     0.037 A 
ATOM     52  C   UNL A   1      39.757  31.693  30.237  1.00  0.00     0.037 A 
ATOM     53  C   UNL A   1      46.022  30.323  28.870  1.00  0.00     0.049 A 
ATOM     54  C   UNL A   1      41.045  32.452  30.411  1.00  0.00     0.074 A 
ATOM     55  C   UNL A   1      47.126  31.133  29.064  1.00  0.00     0.029 A 
ATOM     56  N   UNL A   1      44.917  31.037  29.313  1.00  0.00    -0.354 N 
ATOM     57  N   UNL A   1      42.265  32.087  30.097  1.00  0.00    -0.248 NA
ATOM     58  C   UNL A   1      40.950  33.791  31.008  1.00  0.00     0.031 C 
ATOM     59  C   UNL A   1      46.693  32.325  29.658  1.00  0.00     0.029 A 
ATOM     60  C   UNL A   1      45.314  32.274  29.791  1.00  0.00     0.049 A 
ATOM     61  H   UNL A   1      43.989  30.712  29.291  1.00  0.00     0.167 HD
ATOM     62  C   UNL A   1      43.082  33.161  30.432  1.00  0.00     0.074 A 
ATOM     63  C   UNL A   1      42.213  34.191  30.964  1.00  0.00     0.031 C 
ATOM     64  C   UNL A   1      44.427  33.285  30.309  1.00  0.00     0.037 A 
BRANCH  51  65
ATOM     65  C   UNL A   1      47.253  28.320  27.929  1.00  0.00     0.058 A 
ATOM     66  C   UNL A   1      48.015  27.578  28.847  1.00  0.00     0.135 A 
ATOM     67  C   UNL A   1      47.728  28.415  26.611  1.00  0.00     0.135 A 
ATOM     68  F   UNL A   1      47.619  27.475  30.126  1.00  0.00    -0.206 F 
ATOM     69  C   UNL A   1      49.214  26.976  28.479  1.00  0.00     0.059 A 
ATOM     70  C   UNL A   1      48.913  27.801  26.215  1.00  0.00     0.059 A 
ATOM     71  F   UNL A   1      47.044  29.118  25.696  1.00  0.00    -0.206 F 
ATOM     72  C   UNL A   1      49.657  27.096  27.160  1.00  0.00     0.060 A 
BRANCH  72  73
ATOM     73  S   UNL A   1      51.214  26.311  26.694  1.00  0.00     0.124 S 
ATOM     74  O   UNL A   1      51.038  24.968  27.237  1.00  0.00    -0.237 OA
ATOM     75  O   UNL A   1      51.193  26.413  25.238  1.00  0.00    -0.237 OA
ATOM     76  O   UNL A   1      52.221  27.130  27.360  1.00  0.00    -0.744 OA
ENDBRANCH  72  73
ENDBRANCH  51  65
BRANCH  52  77
ATOM     77  C   UNL A   1      38.455  32.279  30.652  1.00  0.00     0.058 A 
ATOM     78  C   UNL A   1      37.875  31.952  31.886  1.00  0.00     0.135 A 
ATOM     79  C   UNL A   1      37.776  33.192  29.832  1.00  0.00     0.135 A 
ATOM     80  F   UNL A   1      38.482  31.080  32.705  1.00  0.00    -0.206 F 
ATOM     81  C   UNL A   1      36.661  32.501  32.288  1.00  0.00     0.059 A 
ATOM     82  C   UNL A   1      36.573  33.772  30.222  1.00  0.00     0.059 A 
ATOM     83  F   UNL A   1      38.298  33.549  28.648  1.00  0.00    -0.206 F 
ATOM     84  C   UNL A   1      36.019  33.414  31.449  1.00  0.00     0.060 A 
BRANCH  84  85
ATOM     85  S   UNL A   1      34.476  34.169  32.006  1.00  0.00     0.124 S 
ATOM     86  O   UNL A   1      33.776  34.373  30.742  1.00  0.00    -0.237 OA
ATOM     87  O   UNL A   1      33.927  33.140  32.882  1.00  0.00    -0.237 OA
ATOM     88  O   UNL A   1      34.923  35.383  32.684  1.00  0.00    -0.744 OA
ENDBRANCH  84  85
ENDBRANCH  52  77
BRANCH  64  89
ATOM     89  C   UNL A   1      45.029  34.600  30.716  1.00  0.00     0.058 A 
ATOM     90  C   UNL A   1      45.161  35.664  29.811  1.00  0.00     0.135 A 
ATOM     91  C   UNL A   1      45.456  34.803  32.038  1.00  0.00     0.135 A 
ATOM     92  F   UNL A   1      44.771  35.519  28.534  1.00  0.00    -0.206 F 
ATOM     93  C   UNL A   1      45.731  36.875  30.194  1.00  0.00     0.059 A 
ATOM     94  C   UNL A   1      46.004  36.013  32.449  1.00  0.00     0.059 A 
ATOM     95  F   UNL A   1      45.338  33.820  32.945  1.00  0.00    -0.206 F 
ATOM     96  C   UNL A   1      46.155  37.036  31.514  1.00  0.00     0.060 A 
BRANCH  96  97
ATOM     97  S   UNL A   1      46.891  38.610  32.005  1.00  0.00     0.124 S 
ATOM     98  O   UNL A   1      48.312  38.278  32.011  1.00  0.00    -0.237 OA
ATOM     99  O   UNL A   1      46.454  39.508  30.940  1.00  0.00    -0.237 OA
ATOM    100  O   UNL A   1      46.300  38.866  33.315  1.00  0.00    -0.744 OA
ENDBRANCH  96  97
ENDBRANCH  64  89
ENDBRANCH  38  39
ENDBRANCH  31  33
ENDBRANCH  30  31
ENDBRANCH  29  30
ENDBRANCH  28  29
ENDBRANCH  27  28
ENDBRANCH  26  27
ENDBRANCH   1  26
TORSDOF 27
ENDMDL
MODEL 3
REMARK VINA RESULT:      -9.4      1.370      2.732
REMARK SMILES CCC(CC)(NC(=O)c1ccc(C)s1)C(=O)OCCOCCOCCOCCOC(=O)c1ccc(-c2c3nc(c(-c4c(F)cc(S(=O)(=O)[O-])cc4F)c4ccc([nH]4)c(-c4c(F)cc(S(=O)(=O)[O-])cc4F)c4nc(c(-c5c(F)cc(S(=O)(=O)[O-])cc5F)c5ccc2[nH]5)C=C4)C=C3)cc1
REMARK SMILES IDX 24 1 23 2 22 3 21 4 20 5 19 6 18 7 17 8 15 9 16 10 3 11 2 12
REMARK SMILES IDX 1 13 4 14 5 15 6 16 7 17 8 19 9 20 10 21 14 22 11 23 12 24
REMARK SMILES IDX 13 25 25 26 26 27 27 28 28 29 29 30 30 31 31 32 32 33 33 34
REMARK SMILES IDX 97 35 34 36 96 37 35 38 36 39 37 40 90 41 38 42 95 43 89 44
REMARK SMILES IDX 91 45 39 46 94 47 88 48 87 49 40 51 74 52 53 53 73 54 54 55
REMARK SMILES IDX 57 56 72 57 92 58 55 59 56 60 71 62 93 63 58 64 41 65 42 66
REMARK SMILES IDX 51 67 43 68 44 69 50 70 52 71 45 72 46 73 47 74 48 75 49 76
REMARK SMILES IDX 75 77 76 78 85 79 77 80 78 81 84 82 86 83 79 84 80 85 81 86
REMARK SMILES IDX 82 87 83 88 59 89 60 90 69 91 61 92 62 93 68 94 70 95 63 96
REMARK SMILES IDX 64 97 65 98 66 99 67 100
REMARK H PARENT 6 18 91 50 57 61
REMARK Flexibility Score: inf
ROOT
ATOM      1  C   UNL A   1      40.122  21.992  26.421  1.00  0.00     0.188 C 
ENDROOT
BRANCH   1   2
ATOM      2  O   UNL A   1      39.997  23.375  26.754  1.00  0.00    -0.377 OA
BRANCH   2   3
ATOM      3  C   UNL A   1      38.682  23.897  26.681  1.00  0.00     0.188 C 
BRANCH   3   4
ATOM      4  C   UNL A   1      37.739  23.150  25.738  1.00  0.00     0.188 C 
BRANCH   4   5
ATOM      5  O   UNL A   1      37.650  23.647  24.407  1.00  0.00    -0.376 OA
BRANCH   5   6
ATOM      6  C   UNL A   1      36.789  22.928  23.509  1.00  0.00     0.202 C 
BRANCH   6   7
ATOM      7  C   UNL A   1      35.301  23.011  23.834  1.00  0.00     0.261 C 
BRANCH   7   8
ATOM      8  O   UNL A   1      34.842  24.355  23.585  1.00  0.00    -0.461 OA
BRANCH   8   9
ATOM      9  C   UNL A   1      34.346  24.999  24.664  1.00  0.00     0.331 C 
ATOM     10  O   UNL A   1      34.918  25.034  25.751  1.00  0.00    -0.249 OA
BRANCH   9  11
ATOM     11  C   UNL A   1      33.030  25.780  24.378  1.00  0.00     0.137 C 
BRANCH  11  12
ATOM     12  C   UNL A   1      32.824  25.727  22.824  1.00  0.00     0.037 C 
ATOM     13  C   UNL A   1      31.588  26.389  22.235  1.00  0.00     0.007 C 
ENDBRANCH  11  12
BRANCH  11  14
ATOM     14  C   UNL A   1      33.253  27.225  24.901  1.00  0.00     0.037 C 
ATOM     15  C   UNL A   1      31.998  27.998  25.282  1.00  0.00     0.007 C 
ENDBRANCH  11  14
BRANCH  11  16
ATOM     16  N   UNL A   1      31.731  25.261  24.899  1.00  0.00    -0.335 N 
ATOM     17  C   UNL A   1      31.229  24.051  25.292  1.00  0.00     0.262 C 
ATOM     18  H   UNL A   1      31.060  25.977  24.982  1.00  0.00     0.165 HD
ATOM     19  O   UNL A   1      30.273  24.114  26.071  1.00  0.00    -0.268 OA
BRANCH  17  20
ATOM     20  C   UNL A   1      31.696  22.819  24.712  1.00  0.00     0.092 A 
ATOM     21  C   UNL A   1      31.708  22.338  23.420  1.00  0.00     0.026 A 
ATOM     22  S   UNL A   1      32.427  21.705  25.793  1.00  0.00    -0.135 S 
ATOM     23  C   UNL A   1      32.172  20.985  23.358  1.00  0.00     0.016 A 
ATOM     24  C   UNL A   1      32.507  20.491  24.600  1.00  0.00     0.002 A 
ATOM     25  C   UNL A   1      32.902  19.111  24.990  1.00  0.00     0.056 C 
ENDBRANCH  17  20
ENDBRANCH  11  16
ENDBRANCH   9  11
ENDBRANCH   8   9
ENDBRANCH   7   8
ENDBRANCH   6   7
ENDBRANCH   5   6
ENDBRANCH   4   5
ENDBRANCH   3   4
ENDBRANCH   2   3
ENDBRANCH   1   2
BRANCH   1  26
ATOM     26  C   UNL A   1      41.549  21.438  26.292  1.00  0.00     0.188 C 
BRANCH  26  27
ATOM     27  O   UNL A   1      42.631  22.362  26.335  1.00  0.00    -0.376 OA
BRANCH  27  28
ATOM     28  C   UNL A   1      43.107  22.912  25.108  1.00  0.00     0.202 C 
BRANCH  28  29
ATOM     29  C   UNL A   1      43.372  24.414  25.124  1.00  0.00     0.261 C 
BRANCH  29  30
ATOM     30  O   UNL A   1      42.158  25.146  25.367  1.00  0.00    -0.460 OA
BRANCH  30  31
ATOM     31  C   UNL A   1      42.306  26.480  25.503  1.00  0.00     0.338 C 
ATOM     32  O   UNL A   1      42.310  27.318  24.617  1.00  0.00    -0.246 OA
BRANCH  31  33
ATOM     33  C   UNL A   1      42.384  26.843  26.928  1.00  0.00     0.060 A 
ATOM     34  C   UNL A   1      41.375  26.368  27.772  1.00  0.00     0.016 A 
ATOM     35  C   UNL A   1      43.319  27.778  27.380  1.00  0.00     0.016 A 
ATOM     36  C   UNL A   1      41.235  26.908  29.047  1.00  0.00     0.010 A 
ATOM     37  C   UNL A   1      43.173  28.324  28.658  1.00  0.00     0.010 A 
ATOM     38  C   UNL A   1      42.089  27.938  29.465  1.00  0.00    -0.014 A 
BRANCH  38  39
ATOM     39  C   UNL A   1      41.683  28.767  30.624  1.00  0.00     0.031 A 
ATOM     40  C   UNL A   1      42.523  28.701  31.872  1.00  0.00     0.074 A 
ATOM     41  C   UNL A   1      40.634  29.602  30.551  1.00  0.00     0.049 A 
ATOM     42  N   UNL A   1      42.400  29.368  32.988  1.00  0.00    -0.248 NA
ATOM     43  C   UNL A   1      43.648  27.750  31.859  1.00  0.00     0.031 C 
ATOM     44  C   UNL A   1      39.758  29.743  29.394  1.00  0.00     0.029 A 
ATOM     45  N   UNL A   1      40.130  30.492  31.462  1.00  0.00    -0.354 N 
ATOM     46  C   UNL A   1      43.423  28.912  33.813  1.00  0.00     0.074 A 
ATOM     47  C   UNL A   1      44.144  27.897  33.078  1.00  0.00     0.031 C 
ATOM     48  C   UNL A   1      38.834  30.684  29.649  1.00  0.00     0.029 A 
ATOM     49  C   UNL A   1      39.033  31.185  31.006  1.00  0.00     0.049 A 
ATOM     50  H   UNL A   1      40.516  30.622  32.358  1.00  0.00     0.167 HD
ATOM     51  C   UNL A   1      43.734  29.310  35.069  1.00  0.00     0.037 A 
ATOM     52  C   UNL A   1      38.273  32.111  31.621  1.00  0.00     0.037 A 
ATOM     53  C   UNL A   1      43.005  30.318  35.792  1.00  0.00     0.049 A 
ATOM     54  C   UNL A   1      38.631  32.527  33.023  1.00  0.00     0.074 A 
ATOM     55  C   UNL A   1      43.238  30.804  37.066  1.00  0.00     0.029 A 
ATOM     56  N   UNL A   1      41.895  30.992  35.302  1.00  0.00    -0.354 N 
ATOM     57  N   UNL A   1      39.615  32.105  33.782  1.00  0.00    -0.248 NA
ATOM     58  C   UNL A   1      37.780  33.547  33.649  1.00  0.00     0.031 C 
ATOM     59  C   UNL A   1      42.246  31.747  37.360  1.00  0.00     0.029 A 
ATOM     60  C   UNL A   1      41.424  31.882  36.252  1.00  0.00     0.049 A 
ATOM     61  H   UNL A   1      41.502  30.857  34.410  1.00  0.00     0.167 HD
ATOM     62  C   UNL A   1      39.519  32.828  34.966  1.00  0.00     0.074 A 
ATOM     63  C   UNL A   1      38.386  33.719  34.816  1.00  0.00     0.031 C 
ATOM     64  C   UNL A   1      40.298  32.763  36.074  1.00  0.00     0.037 A 
BRANCH  51  65
ATOM     65  C   UNL A   1      44.890  28.627  35.743  1.00  0.00     0.058 A 
ATOM     66  C   UNL A   1      46.192  29.151  35.693  1.00  0.00     0.135 A 
ATOM     67  C   UNL A   1      44.693  27.431  36.453  1.00  0.00     0.135 A 
ATOM     68  F   UNL A   1      46.440  30.279  35.008  1.00  0.00    -0.206 F 
ATOM     69  C   UNL A   1      47.262  28.502  36.302  1.00  0.00     0.059 A 
ATOM     70  C   UNL A   1      45.745  26.778  37.089  1.00  0.00     0.059 A 
ATOM     71  F   UNL A   1      43.471  26.882  36.526  1.00  0.00    -0.206 F 
ATOM     72  C   UNL A   1      47.028  27.313  36.995  1.00  0.00     0.060 A 
BRANCH  72  73
ATOM     73  S   UNL A   1      48.424  26.480  37.780  1.00  0.00     0.124 S 
ATOM     74  O   UNL A   1      49.545  27.294  37.323  1.00  0.00    -0.237 OA
ATOM     75  O   UNL A   1      48.097  26.590  39.199  1.00  0.00    -0.237 OA
ATOM     76  O   UNL A   1      48.365  25.129  37.232  1.00  0.00    -0.744 OA
ENDBRANCH  72  73
ENDBRANCH  51  65
BRANCH  52  77
ATOM     77  C   UNL A   1      37.113  32.711  30.912  1.00  0.00     0.058 A 
ATOM     78  C   UNL A   1      37.274  33.818  30.067  1.00  0.00     0.135 A 
ATOM     79  C   UNL A   1      35.823  32.177  31.051  1.00  0.00     0.135 A 
ATOM     80  F   UNL A   1      38.487  34.369  29.906  1.00  0.00    -0.206 F 
ATOM     81  C   UNL A   1      36.196  34.382  29.392  1.00  0.00     0.059 A 
ATOM     82  C   UNL A   1      34.734  32.708  30.368  1.00  0.00     0.059 A 
ATOM     83  F   UNL A   1      35.619  31.108  31.837  1.00  0.00    -0.206 F 
ATOM     84  C   UNL A   1      34.929  33.818  29.547  1.00  0.00     0.060 A 
BRANCH  84  85
ATOM     85  S   UNL A   1      33.546  34.516  28.619  1.00  0.00     0.124 S 
ATOM     86  O   UNL A   1      33.111  33.369  27.831  1.00  0.00    -0.237 OA
ATOM     87  O   UNL A   1      32.643  34.940  29.684  1.00  0.00    -0.237 OA
ATOM     88  O   UNL A   1      34.165  35.604  27.865  1.00  0.00    -0.744 OA
ENDBRANCH  84  85
ENDBRANCH  52  77
BRANCH  64  89
ATOM     89  C   UNL A   1      39.975  33.717  37.189  1.00  0.00     0.058 A 
ATOM     90  C   UNL A   1      38.964  33.447  38.124  1.00  0.00     0.135 A 
ATOM     91  C   UNL A   1      40.707  34.906  37.336  1.00  0.00     0.135 A 
ATOM     92  F   UNL A   1      38.233  32.324  38.025  1.00  0.00    -0.206 F 
ATOM     93  C   UNL A   1      38.664  34.342  39.146  1.00  0.00     0.059 A 
ATOM     94  C   UNL A   1      40.442  35.802  38.365  1.00  0.00     0.059 A 
ATOM     95  F   UNL A   1      41.694  35.203  36.475  1.00  0.00    -0.206 F 
ATOM     96  C   UNL A   1      39.405  35.520  39.253  1.00  0.00     0.060 A 
BRANCH  96  97
ATOM     97  S   UNL A   1      39.012  36.677  40.583  1.00  0.00     0.124 S 
ATOM     98  O   UNL A   1      38.418  37.784  39.840  1.00  0.00    -0.237 OA
ATOM     99  O   UNL A   1      38.092  35.904  41.412  1.00  0.00    -0.237 OA
ATOM    100  O   UNL A   1      40.312  36.951  41.188  1.00  0.00    -0.744 OA
ENDBRANCH  96  97
ENDBRANCH  64  89
ENDBRANCH  38  39
ENDBRANCH  31  33
ENDBRANCH  30  31
ENDBRANCH  29  30
ENDBRANCH  28  29
ENDBRANCH  27  28
ENDBRANCH  26  27
ENDBRANCH   1  26
TORSDOF 27
ENDMDL
