MODEL 1
REMARK VINA RESULT:     -10.5      0.000      0.000
REMARK SMILES O=C(OCCOCCOCCOCCOC(=O)[C@]12C[NH2+]C[C@H]1CN(C(=O)c1ccccc1-n1cncn1)C2)c1ccc(-c2c3nc(c(-c4c(F)cc(S(=O)(=O)[O-])cc4F)c4ccc([nH]4)c(-c4c(F)cc(S(=O)(=O)[O-])cc4F)c4nc(c(-c5c(F)cc(S(=O)(=O)[O-])cc5F)c5ccc2[nH]5)C=C4)C=C3)cc1
REMARK SMILES IDX 9 1 8 2 7 3 6 4 5 5 4 6 3 7 2 8 1 9 39 10 40 11 104 12 41 13
REMARK SMILES IDX 103 14 42 15 43 16 44 17 97 18 45 19 102 20 96 21 98 22
REMARK SMILES IDX 46 23 101 24 95 25 94 26 47 28 81 29 60 30 80 31 61 32 64 33
REMARK SMILES IDX 79 34 99 35 62 36 63 37 78 39 100 40 65 41 48 42 49 43 58 44
REMARK SMILES IDX 50 45 51 46 57 47 59 48 52 49 53 50 54 51 55 52 56 53 82 54
REMARK SMILES IDX 83 55 92 56 84 57 85 58 91 59 93 60 86 61 87 62 88 63 89 64
REMARK SMILES IDX 90 65 66 66 67 67 76 68 68 69 69 70 75 71 77 72 70 73 71 74
REMARK SMILES IDX 72 75 73 76 74 77 10 78 11 79 12 80 13 81 14 82 15 83 16 84
REMARK SMILES IDX 17 85 18 86 19 87 22 88 38 89 20 90 21 91 23 92 24 93 25 96
REMARK SMILES IDX 26 97 27 98 28 99 32 100 29 101 31 102 30 103 33 104 34 105
REMARK SMILES IDX 37 106 35 107 36 108
REMARK H PARENT 98 27 64 38 20 94 20 95
REMARK Flexibility Score: inf
ROOT
ATOM      1  O   UNL A   1      37.775  21.671  24.793  1.00  0.00    -0.377 OA
ENDROOT
BRANCH   1   2
ATOM      2  C   UNL A   1      37.464  20.287  24.906  1.00  0.00     0.188 C 
BRANCH   2   3
ATOM      3  C   UNL A   1      38.585  19.328  25.382  1.00  0.00     0.188 C 
BRANCH   3   4
ATOM      4  O   UNL A   1      39.989  19.553  25.503  1.00  0.00    -0.376 OA
BRANCH   4   5
ATOM      5  C   UNL A   1      40.887  19.606  26.593  1.00  0.00     0.202 C 
BRANCH   5   6
ATOM      6  C   UNL A   1      41.992  20.678  26.670  1.00  0.00     0.261 C 
BRANCH   6   7
ATOM      7  O   UNL A   1      41.566  22.038  26.604  1.00  0.00    -0.460 OA
BRANCH   7   8
ATOM      8  C   UNL A   1      42.113  23.046  25.888  1.00  0.00     0.338 C 
ATOM      9  O   UNL A   1      42.662  22.778  24.819  1.00  0.00    -0.246 OA
BRANCH   8  10
ATOM     10  C   UNL A   1      42.230  24.431  26.407  1.00  0.00     0.060 A 
ATOM     11  C   UNL A   1      43.108  24.838  27.411  1.00  0.00     0.016 A 
ATOM     12  C   UNL A   1      41.353  25.376  25.839  1.00  0.00     0.016 A 
ATOM     13  C   UNL A   1      43.085  26.124  27.886  1.00  0.00     0.010 A 
ATOM     14  C   UNL A   1      41.298  26.667  26.333  1.00  0.00     0.010 A 
ATOM     15  C   UNL A   1      42.128  26.997  27.396  1.00  0.00    -0.014 A 
BRANCH  15  16
ATOM     16  C   UNL A   1      41.983  28.212  28.163  1.00  0.00     0.031 A 
ATOM     17  C   UNL A   1      43.151  29.125  28.129  1.00  0.00     0.074 A 
ATOM     18  C   UNL A   1      40.873  28.374  28.903  1.00  0.00     0.049 A 
ATOM     19  N   UNL A   1      43.919  29.485  29.105  1.00  0.00    -0.248 NA
ATOM     20  C   UNL A   1      43.609  29.574  26.804  1.00  0.00     0.031 C 
ATOM     21  C   UNL A   1      39.623  27.605  28.840  1.00  0.00     0.029 A 
ATOM     22  N   UNL A   1      40.594  29.334  29.813  1.00  0.00    -0.354 N 
ATOM     23  C   UNL A   1      44.822  30.390  28.553  1.00  0.00     0.074 A 
ATOM     24  C   UNL A   1      44.689  30.286  27.123  1.00  0.00     0.031 C 
ATOM     25  C   UNL A   1      38.653  28.294  29.478  1.00  0.00     0.029 A 
ATOM     26  C   UNL A   1      39.244  29.466  30.095  1.00  0.00     0.049 A 
ATOM     27  H   UNL A   1      41.287  29.890  30.238  1.00  0.00     0.167 HD
ATOM     28  C   UNL A   1      45.441  31.337  29.310  1.00  0.00     0.037 A 
ATOM     29  C   UNL A   1      38.663  30.542  30.677  1.00  0.00     0.037 A 
ATOM     30  C   UNL A   1      45.495  30.964  30.697  1.00  0.00     0.049 A 
ATOM     31  C   UNL A   1      39.737  31.272  31.407  1.00  0.00     0.074 A 
ATOM     32  C   UNL A   1      46.065  29.910  31.386  1.00  0.00     0.029 A 
ATOM     33  N   UNL A   1      44.591  31.528  31.564  1.00  0.00    -0.354 N 
ATOM     34  N   UNL A   1      40.367  30.789  32.446  1.00  0.00    -0.248 NA
ATOM     35  C   UNL A   1      40.442  32.334  30.699  1.00  0.00     0.031 C 
ATOM     36  C   UNL A   1      45.136  29.597  32.420  1.00  0.00     0.029 A 
ATOM     37  C   UNL A   1      44.085  30.512  32.338  1.00  0.00     0.049 A 
ATOM     38  H   UNL A   1      44.349  32.481  31.619  1.00  0.00     0.167 HD
ATOM     39  C   UNL A   1      41.689  31.182  32.286  1.00  0.00     0.074 A 
ATOM     40  C   UNL A   1      41.657  32.196  31.236  1.00  0.00     0.031 C 
ATOM     41  C   UNL A   1      42.720  30.457  32.817  1.00  0.00     0.037 A 
BRANCH  28  42
ATOM     42  C   UNL A   1      45.675  32.740  28.813  1.00  0.00     0.058 A 
ATOM     43  C   UNL A   1      46.966  33.301  28.845  1.00  0.00     0.135 A 
ATOM     44  C   UNL A   1      44.621  33.646  28.551  1.00  0.00     0.135 A 
ATOM     45  F   UNL A   1      48.036  32.537  29.119  1.00  0.00    -0.206 F 
ATOM     46  C   UNL A   1      47.187  34.668  28.667  1.00  0.00     0.059 A 
ATOM     47  C   UNL A   1      44.823  34.998  28.314  1.00  0.00     0.059 A 
ATOM     48  F   UNL A   1      43.335  33.278  28.608  1.00  0.00    -0.206 F 
ATOM     49  C   UNL A   1      46.105  35.510  28.412  1.00  0.00     0.060 A 
BRANCH  49  50
ATOM     50  S   UNL A   1      46.366  37.285  28.275  1.00  0.00     0.124 S 
ATOM     51  O   UNL A   1      47.375  37.511  29.303  1.00  0.00    -0.237 OA
ATOM     52  O   UNL A   1      46.817  37.421  26.894  1.00  0.00    -0.237 OA
ATOM     53  O   UNL A   1      45.044  37.841  28.552  1.00  0.00    -0.744 OA
ENDBRANCH  49  50
ENDBRANCH  28  42
BRANCH  29  54
ATOM     54  C   UNL A   1      37.383  31.165  30.249  1.00  0.00     0.058 A 
ATOM     55  C   UNL A   1      36.553  31.821  31.172  1.00  0.00     0.135 A 
ATOM     56  C   UNL A   1      37.064  31.350  28.885  1.00  0.00     0.135 A 
ATOM     57  F   UNL A   1      36.803  31.724  32.487  1.00  0.00    -0.206 F 
ATOM     58  C   UNL A   1      35.494  32.640  30.767  1.00  0.00     0.059 A 
ATOM     59  C   UNL A   1      36.004  32.145  28.460  1.00  0.00     0.059 A 
ATOM     60  F   UNL A   1      37.828  30.837  27.911  1.00  0.00    -0.206 F 
ATOM     61  C   UNL A   1      35.237  32.808  29.407  1.00  0.00     0.060 A 
BRANCH  61  62
ATOM     62  S   UNL A   1      33.979  33.992  28.874  1.00  0.00     0.124 S 
ATOM     63  O   UNL A   1      33.217  33.206  27.910  1.00  0.00    -0.237 OA
ATOM     64  O   UNL A   1      33.298  34.300  30.128  1.00  0.00    -0.237 OA
ATOM     65  O   UNL A   1      34.761  35.087  28.307  1.00  0.00    -0.744 OA
ENDBRANCH  61  62
ENDBRANCH  29  54
BRANCH  41  66
ATOM     66  C   UNL A   1      42.389  29.355  33.792  1.00  0.00     0.058 A 
ATOM     67  C   UNL A   1      41.894  28.093  33.416  1.00  0.00     0.135 A 
ATOM     68  C   UNL A   1      42.741  29.524  35.140  1.00  0.00     0.135 A 
ATOM     69  F   UNL A   1      41.642  27.808  32.132  1.00  0.00    -0.206 F 
ATOM     70  C   UNL A   1      41.713  27.063  34.344  1.00  0.00     0.059 A 
ATOM     71  C   UNL A   1      42.601  28.502  36.077  1.00  0.00     0.059 A 
ATOM     72  F   UNL A   1      43.287  30.680  35.552  1.00  0.00    -0.206 F 
ATOM     73  C   UNL A   1      42.072  27.277  35.674  1.00  0.00     0.060 A 
BRANCH  73  74
ATOM     74  S   UNL A   1      41.918  25.919  36.854  1.00  0.00     0.124 S 
ATOM     75  O   UNL A   1      40.476  25.691  36.874  1.00  0.00    -0.237 OA
ATOM     76  O   UNL A   1      42.717  24.865  36.234  1.00  0.00    -0.237 OA
ATOM     77  O   UNL A   1      42.479  26.470  38.085  1.00  0.00    -0.744 OA
ENDBRANCH  73  74
ENDBRANCH  41  66
ENDBRANCH  15  16
ENDBRANCH   8  10
ENDBRANCH   7   8
ENDBRANCH   6   7
ENDBRANCH   5   6
ENDBRANCH   4   5
ENDBRANCH   3   4
ENDBRANCH   2   3
ENDBRANCH   1   2
BRANCH   1  78
ATOM     78  C   UNL A   1      36.713  22.399  24.250  1.00  0.00     0.188 C 
BRANCH  78  79
ATOM     79  C   UNL A   1      36.317  23.669  25.006  1.00  0.00     0.188 C 
BRANCH  79  80
ATOM     80  O   UNL A   1      35.619  23.622  26.240  1.00  0.00    -0.376 OA
BRANCH  80  81
ATOM     81  C   UNL A   1      34.597  22.675  26.488  1.00  0.00     0.202 C 
BRANCH  81  82
ATOM     82  C   UNL A   1      33.175  23.147  26.815  1.00  0.00     0.261 C 
BRANCH  82  83
ATOM     83  O   UNL A   1      32.689  24.342  26.173  1.00  0.00    -0.463 OA
BRANCH  83  84
ATOM     84  C   UNL A   1      31.662  24.154  25.287  1.00  0.00     0.320 C 
ATOM     85  O   UNL A   1      30.554  23.739  25.611  1.00  0.00    -0.251 OA
BRANCH  84  86
ATOM     86  C   UNL A   1      32.173  24.383  23.812  1.00  0.00     0.144 C 
ATOM     87  C   UNL A   1      31.959  22.846  23.617  1.00  0.00     0.281 C 
ATOM     88  C   UNL A   1      33.384  24.280  22.786  1.00  0.00     0.088 C 
ATOM     89  C   UNL A   1      33.010  25.512  24.526  1.00  0.00     0.145 C 
ATOM     90  N   UNL A   1      32.501  22.254  22.391  1.00  0.00    -0.345 N 
ATOM     91  C   UNL A   1      32.995  23.376  21.644  1.00  0.00     0.267 C 
ATOM     92  C   UNL A   1      33.664  25.693  22.303  1.00  0.00     0.130 C 
ATOM     93  N   UNL A   1      33.451  26.430  23.509  1.00  0.00    -0.337 N 
ATOM     94  H   UNL A   1      31.771  21.767  21.871  1.00  0.00     0.346 HD
ATOM     95  H   UNL A   1      33.227  21.564  22.580  1.00  0.00     0.346 HD
BRANCH  93  96
ATOM     96  C   UNL A   1      33.521  27.805  23.611  1.00  0.00     0.256 C 
ATOM     97  O   UNL A   1      33.874  28.534  22.704  1.00  0.00    -0.269 OA
BRANCH  96  98
ATOM     98  C   UNL A   1      33.081  28.407  24.904  1.00  0.00     0.065 A 
ATOM     99  C   UNL A   1      34.105  28.554  25.857  1.00  0.00     0.016 A 
ATOM    100  C   UNL A   1      31.828  29.011  25.130  1.00  0.00     0.079 A 
ATOM    101  C   UNL A   1      33.891  29.291  27.024  1.00  0.00     0.001 A 
ATOM    102  C   UNL A   1      31.635  29.762  26.307  1.00  0.00     0.029 A 
ATOM    103  C   UNL A   1      32.656  29.892  27.248  1.00  0.00     0.002 A 
BRANCH 100 104
ATOM    104  N   UNL A   1      30.778  29.007  24.175  1.00  0.00    -0.220 N 
ATOM    105  C   UNL A   1      30.285  27.994  23.387  1.00  0.00     0.225 A 
ATOM    106  N   UNL A   1      30.163  30.167  23.822  1.00  0.00    -0.155 NA
ATOM    107  N   UNL A   1      29.514  28.481  22.440  1.00  0.00    -0.223 NA
ATOM    108  C   UNL A   1      29.501  29.813  22.721  1.00  0.00     0.246 A 
ENDBRANCH 100 104
ENDBRANCH  96  98
ENDBRANCH  93  96
ENDBRANCH  84  86
ENDBRANCH  83  84
ENDBRANCH  82  83
ENDBRANCH  81  82
ENDBRANCH  80  81
ENDBRANCH  79  80
ENDBRANCH  78  79
ENDBRANCH   1  78
TORSDOF 26
ENDMDL
MODEL 2
REMARK VINA RESULT:     -10.4      2.547      9.477
REMARK SMILES O=C(OCCOCCOCCOCCOC(=O)[C@]12C[NH2+]C[C@H]1CN(C(=O)c1ccccc1-n1cncn1)C2)c1ccc(-c2c3nc(c(-c4c(F)cc(S(=O)(=O)[O-])cc4F)c4ccc([nH]4)c(-c4c(F)cc(S(=O)(=O)[O-])cc4F)c4nc(c(-c5c(F)cc(S(=O)(=O)[O-])cc5F)c5ccc2[nH]5)C=C4)C=C3)cc1
REMARK SMILES IDX 9 1 8 2 7 3 6 4 5 5 4 6 3 7 2 8 1 9 39 10 40 11 104 12 41 13
REMARK SMILES IDX 103 14 42 15 43 16 44 17 97 18 45 19 102 20 96 21 98 22
REMARK SMILES IDX 46 23 101 24 95 25 94 26 47 28 81 29 60 30 80 31 61 32 64 33
REMARK SMILES IDX 79 34 99 35 62 36 63 37 78 39 100 40 65 41 48 42 49 43 58 44
REMARK SMILES IDX 50 45 51 46 57 47 59 48 52 49 53 50 54 51 55 52 56 53 82 54
REMARK SMILES IDX 83 55 92 56 84 57 85 58 91 59 93 60 86 61 87 62 88 63 89 64
REMARK SMILES IDX 90 65 66 66 67 67 76 68 68 69 69 70 75 71 77 72 70 73 71 74
REMARK SMILES IDX 72 75 73 76 74 77 10 78 11 79 12 80 13 81 14 82 15 83 16 84
REMARK SMILES IDX 17 85 18 86 19 87 22 88 38 89 20 90 21 91 23 92 24 93 25 96
REMARK SMILES IDX 26 97 27 98 28 99 32 100 29 101 31 102 30 103 33 104 34 105
REMARK SMILES IDX 37 106 35 107 36 108
REMARK H PARENT 98 27 64 38 20 94 20 95
REMARK Flexibility Score: inf
ROOT
ATOM      1  O   UNL A   1      34.734  33.461  29.066  1.00  0.00    -0.377 OA
ENDROOT
BRANCH   1   2
ATOM      2  C   UNL A   1      33.872  34.434  28.486  1.00  0.00     0.188 C 
BRANCH   2   3
ATOM      3  C   UNL A   1      33.012  35.302  29.440  1.00  0.00     0.188 C 
BRANCH   3   4
ATOM      4  O   UNL A   1      32.947  35.303  30.866  1.00  0.00    -0.376 OA
BRANCH   4   5
ATOM      5  C   UNL A   1      33.492  36.129  31.875  1.00  0.00     0.202 C 
BRANCH   5   6
ATOM      6  C   UNL A   1      34.210  35.530  33.100  1.00  0.00     0.261 C 
BRANCH   6   7
ATOM      7  O   UNL A   1      35.258  34.599  32.832  1.00  0.00    -0.460 OA
BRANCH   7   8
ATOM      8  C   UNL A   1      35.146  33.284  32.538  1.00  0.00     0.338 C 
ATOM      9  O   UNL A   1      34.109  32.699  32.850  1.00  0.00    -0.246 OA
BRANCH   8  10
ATOM     10  C   UNL A   1      36.274  32.478  32.012  1.00  0.00     0.060 A 
ATOM     11  C   UNL A   1      36.291  31.087  31.919  1.00  0.00     0.016 A 
ATOM     12  C   UNL A   1      37.412  33.205  31.607  1.00  0.00     0.016 A 
ATOM     13  C   UNL A   1      37.414  30.423  31.497  1.00  0.00     0.010 A 
ATOM     14  C   UNL A   1      38.562  32.545  31.212  1.00  0.00     0.010 A 
ATOM     15  C   UNL A   1      38.557  31.156  31.226  1.00  0.00    -0.014 A 
BRANCH  15  16
ATOM     16  C   UNL A   1      39.755  30.361  31.092  1.00  0.00     0.031 A 
ATOM     17  C   UNL A   1      40.613  30.302  32.300  1.00  0.00     0.074 A 
ATOM     18  C   UNL A   1      40.039  29.829  29.892  1.00  0.00     0.049 A 
ATOM     19  N   UNL A   1      41.819  30.742  32.452  1.00  0.00    -0.248 NA
ATOM     20  C   UNL A   1      39.985  29.823  33.542  1.00  0.00     0.031 C 
ATOM     21  C   UNL A   1      39.157  29.701  28.725  1.00  0.00     0.029 A 
ATOM     22  N   UNL A   1      41.166  29.197  29.491  1.00  0.00    -0.354 N 
ATOM     23  C   UNL A   1      42.184  30.388  33.747  1.00  0.00     0.074 A 
ATOM     24  C   UNL A   1      40.979  29.973  34.417  1.00  0.00     0.031 C 
ATOM     25  C   UNL A   1      39.693  28.811  27.864  1.00  0.00     0.029 A 
ATOM     26  C   UNL A   1      41.000  28.418  28.357  1.00  0.00     0.049 A 
ATOM     27  H   UNL A   1      42.027  29.282  29.962  1.00  0.00     0.167 HD
ATOM     28  C   UNL A   1      43.487  30.227  34.107  1.00  0.00     0.037 A 
ATOM     29  C   UNL A   1      41.834  27.431  27.951  1.00  0.00     0.037 A 
ATOM     30  C   UNL A   1      44.376  30.952  33.241  1.00  0.00     0.049 A 
ATOM     31  C   UNL A   1      43.152  27.685  28.596  1.00  0.00     0.074 A 
ATOM     32  C   UNL A   1      44.532  32.290  32.931  1.00  0.00     0.029 A 
ATOM     33  N   UNL A   1      45.045  30.263  32.260  1.00  0.00    -0.354 N 
ATOM     34  N   UNL A   1      43.906  28.718  28.325  1.00  0.00    -0.248 NA
ATOM     35  C   UNL A   1      43.414  27.053  29.883  1.00  0.00     0.031 C 
ATOM     36  C   UNL A   1      44.850  32.314  31.542  1.00  0.00     0.029 A 
ATOM     37  C   UNL A   1      44.926  30.991  31.101  1.00  0.00     0.049 A 
ATOM     38  H   UNL A   1      45.519  29.407  32.366  1.00  0.00     0.167 HD
ATOM     39  C   UNL A   1      44.440  29.111  29.546  1.00  0.00     0.074 A 
ATOM     40  C   UNL A   1      44.164  28.000  30.453  1.00  0.00     0.031 C 
ATOM     41  C   UNL A   1      44.807  30.407  29.782  1.00  0.00     0.037 A 
BRANCH  28  42
ATOM     42  C   UNL A   1      43.938  29.128  35.035  1.00  0.00     0.058 A 
ATOM     43  C   UNL A   1      43.657  27.782  34.734  1.00  0.00     0.135 A 
ATOM     44  C   UNL A   1      44.409  29.378  36.345  1.00  0.00     0.135 A 
ATOM     45  F   UNL A   1      43.173  27.437  33.530  1.00  0.00    -0.206 F 
ATOM     46  C   UNL A   1      43.799  26.764  35.681  1.00  0.00     0.059 A 
ATOM     47  C   UNL A   1      44.611  28.376  37.282  1.00  0.00     0.059 A 
ATOM     48  F   UNL A   1      44.602  30.619  36.808  1.00  0.00    -0.206 F 
ATOM     49  C   UNL A   1      44.267  27.075  36.956  1.00  0.00     0.060 A 
BRANCH  49  50
ATOM     50  S   UNL A   1      44.364  25.788  38.211  1.00  0.00     0.124 S 
ATOM     51  O   UNL A   1      43.627  26.400  39.311  1.00  0.00    -0.237 OA
ATOM     52  O   UNL A   1      43.710  24.666  37.548  1.00  0.00    -0.237 OA
ATOM     53  O   UNL A   1      45.801  25.633  38.422  1.00  0.00    -0.744 OA
ENDBRANCH  49  50
ENDBRANCH  28  42
BRANCH  29  54
ATOM     54  C   UNL A   1      41.407  26.104  27.434  1.00  0.00     0.058 A 
ATOM     55  C   UNL A   1      42.157  25.435  26.454  1.00  0.00     0.135 A 
ATOM     56  C   UNL A   1      40.396  25.347  28.067  1.00  0.00     0.135 A 
ATOM     57  F   UNL A   1      43.157  26.069  25.824  1.00  0.00    -0.206 F 
ATOM     58  C   UNL A   1      41.941  24.087  26.145  1.00  0.00     0.059 A 
ATOM     59  C   UNL A   1      40.151  24.012  27.763  1.00  0.00     0.059 A 
ATOM     60  F   UNL A   1      39.667  25.855  29.072  1.00  0.00    -0.206 F 
ATOM     61  C   UNL A   1      40.944  23.380  26.817  1.00  0.00     0.060 A 
BRANCH  61  62
ATOM     62  S   UNL A   1      40.771  21.602  26.542  1.00  0.00     0.124 S 
ATOM     63  O   UNL A   1      41.917  21.318  25.686  1.00  0.00    -0.237 OA
ATOM     64  O   UNL A   1      40.840  21.073  27.900  1.00  0.00    -0.237 OA
ATOM     65  O   UNL A   1      39.466  21.484  25.897  1.00  0.00    -0.744 OA
ENDBRANCH  61  62
ENDBRANCH  29  54
BRANCH  41  66
ATOM     66  C   UNL A   1      44.855  31.359  28.614  1.00  0.00     0.058 A 
ATOM     67  C   UNL A   1      45.909  31.413  27.684  1.00  0.00     0.135 A 
ATOM     68  C   UNL A   1      43.718  32.130  28.330  1.00  0.00     0.135 A 
ATOM     69  F   UNL A   1      46.983  30.623  27.815  1.00  0.00    -0.206 F 
ATOM     70  C   UNL A   1      45.855  32.230  26.551  1.00  0.00     0.059 A 
ATOM     71  C   UNL A   1      43.627  32.927  27.190  1.00  0.00     0.059 A 
ATOM     72  F   UNL A   1      42.647  32.070  29.138  1.00  0.00    -0.206 F 
ATOM     73  C   UNL A   1      44.707  32.982  26.310  1.00  0.00     0.060 A 
BRANCH  73  74
ATOM     74  S   UNL A   1      44.603  33.972  24.803  1.00  0.00     0.124 S 
ATOM     75  O   UNL A   1      44.279  32.965  23.797  1.00  0.00    -0.237 OA
ATOM     76  O   UNL A   1      43.537  34.920  25.117  1.00  0.00    -0.237 OA
ATOM     77  O   UNL A   1      45.934  34.562  24.689  1.00  0.00    -0.744 OA
ENDBRANCH  73  74
ENDBRANCH  41  66
ENDBRANCH  15  16
ENDBRANCH   8  10
ENDBRANCH   7   8
ENDBRANCH   6   7
ENDBRANCH   5   6
ENDBRANCH   4   5
ENDBRANCH   3   4
ENDBRANCH   2   3
ENDBRANCH   1   2
BRANCH   1  78
ATOM     78  C   UNL A   1      35.847  33.208  28.260  1.00  0.00     0.188 C 
BRANCH  78  79
ATOM     79  C   UNL A   1      36.082  31.744  27.886  1.00  0.00     0.188 C 
BRANCH  79  80
ATOM     80  O   UNL A   1      35.381  30.685  28.518  1.00  0.00    -0.376 OA
BRANCH  80  81
ATOM     81  C   UNL A   1      34.831  29.606  27.786  1.00  0.00     0.202 C 
BRANCH  81  82
ATOM     82  C   UNL A   1      33.854  29.878  26.636  1.00  0.00     0.261 C 
BRANCH  82  83
ATOM     83  O   UNL A   1      34.015  29.133  25.414  1.00  0.00    -0.463 OA
BRANCH  83  84
ATOM     84  C   UNL A   1      33.411  27.904  25.395  1.00  0.00     0.320 C 
ATOM     85  O   UNL A   1      33.570  27.056  26.267  1.00  0.00    -0.251 OA
BRANCH  84  86
ATOM     86  C   UNL A   1      32.643  27.702  24.031  1.00  0.00     0.144 C 
ATOM     87  C   UNL A   1      32.087  29.147  24.258  1.00  0.00     0.281 C 
ATOM     88  C   UNL A   1      31.268  27.355  23.312  1.00  0.00     0.088 C 
ATOM     89  C   UNL A   1      32.644  26.204  24.522  1.00  0.00     0.145 C 
ATOM     90  N   UNL A   1      31.004  29.583  23.374  1.00  0.00    -0.345 N 
ATOM     91  C   UNL A   1      30.859  28.510  22.432  1.00  0.00     0.267 C 
ATOM     92  C   UNL A   1      31.511  26.097  22.495  1.00  0.00     0.130 C 
ATOM     93  N   UNL A   1      32.375  25.375  23.377  1.00  0.00    -0.337 N 
ATOM     94  H   UNL A   1      31.253  30.450  22.898  1.00  0.00     0.346 HD
ATOM     95  H   UNL A   1      30.140  29.773  23.882  1.00  0.00     0.346 HD
BRANCH  93  96
ATOM     96  C   UNL A   1      32.952  24.155  23.084  1.00  0.00     0.256 C 
ATOM     97  O   UNL A   1      32.783  23.559  22.038  1.00  0.00    -0.269 OA
BRANCH  96  98
ATOM     98  C   UNL A   1      33.877  23.586  24.109  1.00  0.00     0.065 A 
ATOM     99  C   UNL A   1      35.240  23.667  23.774  1.00  0.00     0.016 A 
ATOM    100  C   UNL A   1      33.502  23.205  25.413  1.00  0.00     0.079 A 
ATOM    101  C   UNL A   1      36.225  23.372  24.719  1.00  0.00     0.001 A 
ATOM    102  C   UNL A   1      34.509  22.924  26.358  1.00  0.00     0.029 A 
ATOM    103  C   UNL A   1      35.858  22.999  26.009  1.00  0.00     0.002 A 
BRANCH 100 104
ATOM    104  N   UNL A   1      32.157  23.204  25.869  1.00  0.00    -0.220 N 
ATOM    105  C   UNL A   1      31.500  24.052  26.729  1.00  0.00     0.225 A 
ATOM    106  N   UNL A   1      31.324  22.178  25.552  1.00  0.00    -0.155 NA
ATOM    107  N   UNL A   1      30.355  23.528  27.106  1.00  0.00    -0.223 NA
ATOM    108  C   UNL A   1      30.308  22.368  26.394  1.00  0.00     0.246 A 
ENDBRANCH 100 104
ENDBRANCH  96  98
ENDBRANCH  93  96
ENDBRANCH  84  86
ENDBRANCH  83  84
ENDBRANCH  82  83
ENDBRANCH  81  82
ENDBRANCH  80  81
ENDBRANCH  79  80
ENDBRANCH  78  79
ENDBRANCH   1  78
TORSDOF 26
ENDMDL
MODEL 3
REMARK VINA RESULT:      -9.6      2.552      9.477
REMARK SMILES O=C(OCCOCCOCCOCCOC(=O)[C@]12C[NH2+]C[C@H]1CN(C(=O)c1ccccc1-n1cncn1)C2)c1ccc(-c2c3nc(c(-c4c(F)cc(S(=O)(=O)[O-])cc4F)c4ccc([nH]4)c(-c4c(F)cc(S(=O)(=O)[O-])cc4F)c4nc(c(-c5c(F)cc(S(=O)(=O)[O-])cc5F)c5ccc2[nH]5)C=C4)C=C3)cc1
REMARK SMILES IDX 9 1 8 2 7 3 6 4 5 5 4 6 3 7 2 8 1 9 39 10 40 11 104 12 41 13
REMARK SMILES IDX 103 14 42 15 43 16 44 17 97 18 45 19 102 20 96 21 98 22
REMARK SMILES IDX 46 23 101 24 95 25 94 26 47 28 81 29 60 30 80 31 61 32 64 33
REMARK SMILES IDX 79 34 99 35 62 36 63 37 78 39 100 40 65 41 48 42 49 43 58 44
REMARK SMILES IDX 50 45 51 46 57 47 59 48 52 49 53 50 54 51 55 52 56 53 82 54
REMARK SMILES IDX 83 55 92 56 84 57 85 58 91 59 93 60 86 61 87 62 88 63 89 64
REMARK SMILES IDX 90 65 66 66 67 67 76 68 68 69 69 70 75 71 77 72 70 73 71 74
REMARK SMILES IDX 72 75 73 76 74 77 10 78 11 79 12 80 13 81 14 82 15 83 16 84
REMARK SMILES IDX 17 85 18 86 19 87 22 88 38 89 20 90 21 91 23 92 24 93 25 96
REMARK SMILES IDX 26 97 27 98 28 99 32 100 29 101 31 102 30 103 33 104 34 105
REMARK SMILES IDX 37 106 35 107 36 108
REMARK H PARENT 98 27 64 38 20 94 20 95
REMARK Flexibility Score: inf
ROOT
ATOM      1  O   UNL A   1      35.046  32.630  28.793  1.00  0.00    -0.377 OA
ENDROOT
BRANCH   1   2
ATOM      2  C   UNL A   1      34.662  33.682  27.916  1.00  0.00     0.188 C 
BRANCH   2   3
ATOM      3  C   UNL A   1      33.648  34.731  28.441  1.00  0.00     0.188 C 
BRANCH   3   4
ATOM      4  O   UNL A   1      33.108  34.903  29.751  1.00  0.00    -0.376 OA
BRANCH   4   5
ATOM      5  C   UNL A   1      33.205  35.917  30.730  1.00  0.00     0.202 C 
BRANCH   5   6
ATOM      6  C   UNL A   1      33.408  35.576  32.220  1.00  0.00     0.261 C 
BRANCH   6   7
ATOM      7  O   UNL A   1      34.530  34.754  32.537  1.00  0.00    -0.460 OA
BRANCH   7   8
ATOM      8  C   UNL A   1      34.599  33.403  32.524  1.00  0.00     0.338 C 
ATOM      9  O   UNL A   1      33.668  32.762  33.010  1.00  0.00    -0.246 OA
BRANCH   8  10
ATOM     10  C   UNL A   1      35.816  32.664  32.105  1.00  0.00     0.060 A 
ATOM     11  C   UNL A   1      35.913  31.277  31.997  1.00  0.00     0.016 A 
ATOM     12  C   UNL A   1      36.949  33.455  31.829  1.00  0.00     0.016 A 
ATOM     13  C   UNL A   1      37.106  30.678  31.684  1.00  0.00     0.010 A 
ATOM     14  C   UNL A   1      38.166  32.860  31.545  1.00  0.00     0.010 A 
ATOM     15  C   UNL A   1      38.232  31.472  31.541  1.00  0.00    -0.014 A 
BRANCH  15  16
ATOM     16  C   UNL A   1      39.476  30.741  31.520  1.00  0.00     0.031 A 
ATOM     17  C   UNL A   1      40.202  30.691  32.812  1.00  0.00     0.074 A 
ATOM     18  C   UNL A   1      39.915  30.256  30.346  1.00  0.00     0.049 A 
ATOM     19  N   UNL A   1      41.360  31.185  33.104  1.00  0.00    -0.248 NA
ATOM     20  C   UNL A   1      39.470  30.147  33.968  1.00  0.00     0.031 C 
ATOM     21  C   UNL A   1      39.171  30.118  29.088  1.00  0.00     0.029 A 
ATOM     22  N   UNL A   1      41.110  29.691  30.056  1.00  0.00    -0.354 N 
ATOM     23  C   UNL A   1      41.602  30.813  34.423  1.00  0.00     0.074 A 
ATOM     24  C   UNL A   1      40.355  30.322  34.949  1.00  0.00     0.031 C 
ATOM     25  C   UNL A   1      39.841  29.279  28.271  1.00  0.00     0.029 A 
ATOM     26  C   UNL A   1      41.106  28.938  28.894  1.00  0.00     0.049 A 
ATOM     27  H   UNL A   1      41.909  29.806  30.619  1.00  0.00     0.167 HD
ATOM     28  C   UNL A   1      42.865  30.706  34.918  1.00  0.00     0.037 A 
ATOM     29  C   UNL A   1      42.029  28.004  28.559  1.00  0.00     0.037 A 
ATOM     30  C   UNL A   1      43.803  31.498  34.171  1.00  0.00     0.049 A 
ATOM     31  C   UNL A   1      43.255  28.304  29.349  1.00  0.00     0.074 A 
ATOM     32  C   UNL A   1      43.923  32.849  33.909  1.00  0.00     0.029 A 
ATOM     33  N   UNL A   1      44.609  30.869  33.253  1.00  0.00    -0.354 N 
ATOM     34  N   UNL A   1      43.980  29.380  29.184  1.00  0.00    -0.248 NA
ATOM     35  C   UNL A   1      43.410  27.650  30.643  1.00  0.00     0.031 C 
ATOM     36  C   UNL A   1      44.387  32.927  32.564  1.00  0.00     0.029 A 
ATOM     37  C   UNL A   1      44.577  31.623  32.104  1.00  0.00     0.049 A 
ATOM     38  H   UNL A   1      45.112  30.034  33.391  1.00  0.00     0.167 HD
ATOM     39  C   UNL A   1      44.359  29.764  30.464  1.00  0.00     0.074 A 
ATOM     40  C   UNL A   1      44.044  28.617  31.312  1.00  0.00     0.031 C 
ATOM     41  C   UNL A   1      44.631  31.069  30.768  1.00  0.00     0.037 A 
BRANCH  28  42
ATOM     42  C   UNL A   1      43.270  29.605  35.865  1.00  0.00     0.058 A 
ATOM     43  C   UNL A   1      43.975  29.904  37.046  1.00  0.00     0.135 A 
ATOM     44  C   UNL A   1      43.216  28.236  35.514  1.00  0.00     0.135 A 
ATOM     45  F   UNL A   1      44.117  31.176  37.453  1.00  0.00    -0.206 F 
ATOM     46  C   UNL A   1      44.611  28.917  37.802  1.00  0.00     0.059 A 
ATOM     47  C   UNL A   1      43.792  27.233  36.281  1.00  0.00     0.059 A 
ATOM     48  F   UNL A   1      42.685  27.816  34.360  1.00  0.00    -0.206 F 
ATOM     49  C   UNL A   1      44.522  27.585  37.404  1.00  0.00     0.060 A 
BRANCH  49  50
ATOM     50  S   UNL A   1      45.416  26.316  38.316  1.00  0.00     0.124 S 
ATOM     51  O   UNL A   1      46.799  26.725  38.101  1.00  0.00    -0.237 OA
ATOM     52  O   UNL A   1      44.898  26.493  39.668  1.00  0.00    -0.237 OA
ATOM     53  O   UNL A   1      45.011  25.079  37.654  1.00  0.00    -0.744 OA
ENDBRANCH  49  50
ENDBRANCH  28  42
BRANCH  29  54
ATOM     54  C   UNL A   1      41.729  26.672  27.970  1.00  0.00     0.058 A 
ATOM     55  C   UNL A   1      42.654  26.027  27.133  1.00  0.00     0.135 A 
ATOM     56  C   UNL A   1      40.640  25.889  28.413  1.00  0.00     0.135 A 
ATOM     57  F   UNL A   1      43.734  26.688  26.690  1.00  0.00    -0.206 F 
ATOM     58  C   UNL A   1      42.525  24.678  26.784  1.00  0.00     0.059 A 
ATOM     59  C   UNL A   1      40.482  24.551  28.064  1.00  0.00     0.059 A 
ATOM     60  F   UNL A   1      39.735  26.372  29.276  1.00  0.00    -0.206 F 
ATOM     61  C   UNL A   1      41.443  23.944  27.269  1.00  0.00     0.060 A 
BRANCH  61  62
ATOM     62  S   UNL A   1      41.360  22.165  26.960  1.00  0.00     0.124 S 
ATOM     63  O   UNL A   1      40.109  21.805  27.618  1.00  0.00    -0.237 OA
ATOM     64  O   UNL A   1      41.354  22.107  25.502  1.00  0.00    -0.237 OA
ATOM     65  O   UNL A   1      42.571  21.653  27.597  1.00  0.00    -0.744 OA
ENDBRANCH  61  62
ENDBRANCH  29  54
BRANCH  41  66
ATOM     66  C   UNL A   1      44.755  32.055  29.633  1.00  0.00     0.058 A 
ATOM     67  C   UNL A   1      45.936  32.268  28.899  1.00  0.00     0.135 A 
ATOM     68  C   UNL A   1      43.593  32.687  29.163  1.00  0.00     0.135 A 
ATOM     69  F   UNL A   1      47.064  31.614  29.207  1.00  0.00    -0.206 F 
ATOM     70  C   UNL A   1      45.971  33.104  27.780  1.00  0.00     0.059 A 
ATOM     71  C   UNL A   1      43.597  33.500  28.032  1.00  0.00     0.059 A 
ATOM     72  F   UNL A   1      42.417  32.470  29.774  1.00  0.00    -0.206 F 
ATOM     73  C   UNL A   1      44.794  33.715  27.352  1.00  0.00     0.060 A 
BRANCH  73  74
ATOM     74  S   UNL A   1      44.823  34.729  25.857  1.00  0.00     0.124 S 
ATOM     75  O   UNL A   1      44.889  36.081  26.404  1.00  0.00    -0.237 OA
ATOM     76  O   UNL A   1      46.028  34.260  25.178  1.00  0.00    -0.237 OA
ATOM     77  O   UNL A   1      43.571  34.387  25.188  1.00  0.00    -0.744 OA
ENDBRANCH  73  74
ENDBRANCH  41  66
ENDBRANCH  15  16
ENDBRANCH   8  10
ENDBRANCH   7   8
ENDBRANCH   6   7
ENDBRANCH   5   6
ENDBRANCH   4   5
ENDBRANCH   3   4
ENDBRANCH   2   3
ENDBRANCH   1   2
BRANCH   1  78
ATOM     78  C   UNL A   1      36.048  31.830  28.236  1.00  0.00     0.188 C 
BRANCH  78  79
ATOM     79  C   UNL A   1      35.616  30.431  27.794  1.00  0.00     0.188 C 
BRANCH  79  80
ATOM     80  O   UNL A   1      34.486  30.221  26.963  1.00  0.00    -0.376 OA
BRANCH  80  81
ATOM     81  C   UNL A   1      33.910  28.939  26.789  1.00  0.00     0.202 C 
BRANCH  81  82
ATOM     82  C   UNL A   1      33.695  28.379  25.377  1.00  0.00     0.261 C 
BRANCH  82  83
ATOM     83  O   UNL A   1      33.663  26.949  25.209  1.00  0.00    -0.463 OA
BRANCH  83  84
ATOM     84  C   UNL A   1      32.548  26.459  24.583  1.00  0.00     0.320 C 
ATOM     85  O   UNL A   1      31.439  26.418  25.106  1.00  0.00    -0.251 OA
BRANCH  84  86
ATOM     86  C   UNL A   1      32.945  25.821  23.196  1.00  0.00     0.144 C 
ATOM     87  C   UNL A   1      31.969  26.867  22.561  1.00  0.00     0.281 C 
ATOM     88  C   UNL A   1      32.545  24.830  22.018  1.00  0.00     0.088 C 
ATOM     89  C   UNL A   1      33.086  24.533  24.093  1.00  0.00     0.145 C 
ATOM     90  N   UNL A   1      31.642  26.690  21.145  1.00  0.00    -0.345 N 
ATOM     91  C   UNL A   1      32.471  25.597  20.722  1.00  0.00     0.267 C 
ATOM     92  C   UNL A   1      33.623  23.761  21.967  1.00  0.00     0.130 C 
ATOM     93  N   UNL A   1      33.885  23.584  23.362  1.00  0.00    -0.337 N 
ATOM     94  H   UNL A   1      31.859  27.534  20.615  1.00  0.00     0.346 HD
ATOM     95  H   UNL A   1      30.650  26.505  20.995  1.00  0.00     0.346 HD
BRANCH  93  96
ATOM     96  C   UNL A   1      34.850  22.743  23.879  1.00  0.00     0.256 C 
ATOM     97  O   UNL A   1      35.862  22.427  23.284  1.00  0.00    -0.269 OA
BRANCH  96  98
ATOM     98  C   UNL A   1      34.637  22.252  25.273  1.00  0.00     0.065 A 
ATOM     99  C   UNL A   1      34.907  23.203  26.273  1.00  0.00     0.016 A 
ATOM    100  C   UNL A   1      34.001  21.042  25.616  1.00  0.00     0.079 A 
ATOM    101  C   UNL A   1      34.553  22.959  27.602  1.00  0.00     0.001 A 
ATOM    102  C   UNL A   1      33.638  20.818  26.959  1.00  0.00     0.029 A 
ATOM    103  C   UNL A   1      33.921  21.767  27.943  1.00  0.00     0.002 A 
BRANCH 100 104
ATOM    104  N   UNL A   1      33.592  20.078  24.657  1.00  0.00    -0.220 N 
ATOM    105  C   UNL A   1      32.457  20.005  23.884  1.00  0.00     0.225 A 
ATOM    106  N   UNL A   1      34.313  18.940  24.474  1.00  0.00    -0.155 NA
ATOM    107  N   UNL A   1      32.339  18.809  23.351  1.00  0.00    -0.223 NA
ATOM    108  C   UNL A   1      33.472  18.182  23.771  1.00  0.00     0.246 A 
ENDBRANCH 100 104
ENDBRANCH  96  98
ENDBRANCH  93  96
ENDBRANCH  84  86
ENDBRANCH  83  84
ENDBRANCH  82  83
ENDBRANCH  81  82
ENDBRANCH  80  81
ENDBRANCH  79  80
ENDBRANCH  78  79
ENDBRANCH   1  78
TORSDOF 26
ENDMDL
