MODEL 1
REMARK VINA RESULT:      -8.3      0.000      0.000
REMARK SMILES Cc1ccc(N(CC(=O)OCCOCCOCCOCCOC(=O)c2ccc(-c3c4nc(c(-c5c(F)cc(S(=O)(=O)[O-])cc5F)c5ccc([nH]5)c(-c5c(F)cc(S(=O)(=O)[O-])cc5F)c5nc(c(-c6c(F)cc(S(=O)(=O)[O-])cc6F)c6ccc3[nH]6)C=C5)C=C4)cc2)C(=O)C[C@H]2C[NH2+]CCO2)cc1
REMARK SMILES IDX 15 1 14 2 13 3 12 4 11 5 10 6 8 7 9 8 7 9 6 10 5 11 1 12
REMARK SMILES IDX 2 13 3 14 101 15 4 16 100 17 91 18 92 19 93 20 94 21 95 22
REMARK SMILES IDX 99 23 96 24 98 25 97 26 16 29 17 30 18 31 19 32 20 33 21 34
REMARK SMILES IDX 22 35 23 36 24 37 25 38 26 39 90 40 27 41 89 42 28 43 29 44
REMARK SMILES IDX 30 45 83 46 31 47 88 48 82 49 84 50 32 51 87 52 81 53 80 54
REMARK SMILES IDX 33 56 67 57 46 58 66 59 47 60 50 61 65 62 85 63 48 64 49 65
REMARK SMILES IDX 64 67 86 68 51 69 34 70 35 71 44 72 36 73 37 74 43 75 45 76
REMARK SMILES IDX 38 77 39 78 40 79 41 80 42 81 68 82 69 83 78 84 70 85 71 86
REMARK SMILES IDX 77 87 79 88 72 89 73 90 74 91 75 92 76 93 52 94 53 95 62 96
REMARK SMILES IDX 54 97 55 98 61 99 63 100 56 101 57 102 58 103 59 104 60 105
REMARK H PARENT 96 27 96 28 84 55 50 66
REMARK Flexibility Score: inf
ROOT
ATOM      1  C   UNL A   1      50.197  28.934  30.046  1.00  0.00     0.188 C 
ENDROOT
BRANCH   1   2
ATOM      2  C   UNL A   1      50.452  27.820  29.006  1.00  0.00     0.188 C 
BRANCH   2   3
ATOM      3  O   UNL A   1      51.314  27.901  27.834  1.00  0.00    -0.376 OA
BRANCH   3   4
ATOM      4  C   UNL A   1      51.118  28.006  26.342  1.00  0.00     0.202 C 
BRANCH   4   5
ATOM      5  C   UNL A   1      49.896  28.194  25.073  1.00  0.00     0.261 C 
BRANCH   5   6
ATOM      6  O   UNL A   1      48.098  27.987  24.921  1.00  0.00    -0.462 OA
BRANCH   6   7
ATOM      7  C   UNL A   1      46.799  27.203  25.118  1.00  0.00     0.326 C 
ATOM      8  O   UNL A   1      45.867  27.370  24.313  1.00  0.00    -0.250 OA
BRANCH   7   9
ATOM      9  C   UNL A   1      46.293  26.224  26.512  1.00  0.00     0.248 C 
BRANCH   9  10
ATOM     10  N   UNL A   1      45.684  24.788  26.847  1.00  0.00    -0.301 N 
BRANCH  10  11
ATOM     11  C   UNL A   1      45.218  24.382  28.225  1.00  0.00     0.044 A 
ATOM     12  C   UNL A   1      43.637  23.535  32.256  1.00  0.00     0.044 C 
ATOM     13  C   UNL A   1      44.228  23.782  30.895  1.00  0.00    -0.051 A 
ATOM     14  C   UNL A   1      44.072  22.888  29.828  1.00  0.00     0.005 A 
ATOM     15  C   UNL A   1      44.886  24.972  30.634  1.00  0.00     0.005 A 
ATOM     16  C   UNL A   1      44.576  23.171  28.523  1.00  0.00     0.026 A 
ATOM     17  C   UNL A   1      45.363  25.254  29.341  1.00  0.00     0.026 A 
ENDBRANCH  10  11
BRANCH  10  18
ATOM     18  C   UNL A   1      45.332  23.896  25.817  1.00  0.00     0.230 C 
ATOM     19  O   UNL A   1      45.121  24.203  24.640  1.00  0.00    -0.274 OA
BRANCH  18  20
ATOM     20  C   UNL A   1      45.358  22.425  26.083  1.00  0.00     0.138 C 
BRANCH  20  21
ATOM     21  C   UNL A   1      45.379  21.610  24.776  1.00  0.00     0.182 C 
ATOM     22  C   UNL A   1      46.571  20.645  24.554  1.00  0.00     0.293 C 
ATOM     23  O   UNL A   1      44.128  20.972  24.473  1.00  0.00    -0.366 OA
ATOM     24  N   UNL A   1      46.451  19.334  25.209  1.00  0.00    -0.342 N 
ATOM     25  C   UNL A   1      43.961  19.654  25.007  1.00  0.00     0.222 C 
ATOM     26  C   UNL A   1      45.167  18.727  24.847  1.00  0.00     0.289 C 
ATOM     27  H   UNL A   1      46.498  19.453  26.221  1.00  0.00     0.346 HD
ATOM     28  H   UNL A   1      47.212  18.729  24.903  1.00  0.00     0.346 HD
ENDBRANCH  20  21
ENDBRANCH  18  20
ENDBRANCH  10  18
ENDBRANCH   9  10
ENDBRANCH   7   9
ENDBRANCH   6   7
ENDBRANCH   5   6
ENDBRANCH   4   5
ENDBRANCH   3   4
ENDBRANCH   2   3
ENDBRANCH   1   2
BRANCH   1  29
ATOM     29  O   UNL A   1      49.369  28.564  31.133  1.00  0.00    -0.377 OA
BRANCH  29  30
ATOM     30  C   UNL A   1      47.972  28.762  31.013  1.00  0.00     0.188 C 
BRANCH  30  31
ATOM     31  C   UNL A   1      47.115  27.673  31.670  1.00  0.00     0.188 C 
BRANCH  31  32
ATOM     32  O   UNL A   1      47.917  26.560  32.039  1.00  0.00    -0.376 OA
BRANCH  32  33
ATOM     33  C   UNL A   1      47.742  26.096  33.380  1.00  0.00     0.202 C 
BRANCH  33  34
ATOM     34  C   UNL A   1      46.802  24.886  33.612  1.00  0.00     0.261 C 
BRANCH  34  35
ATOM     35  O   UNL A   1      46.556  24.779  35.039  1.00  0.00    -0.460 OA
BRANCH  35  36
ATOM     36  C   UNL A   1      45.296  24.522  35.496  1.00  0.00     0.338 C 
ATOM     37  O   UNL A   1      44.832  23.425  35.720  1.00  0.00    -0.246 OA
BRANCH  36  38
ATOM     38  C   UNL A   1      44.513  25.814  35.381  1.00  0.00     0.060 A 
ATOM     39  C   UNL A   1      43.304  25.856  34.702  1.00  0.00     0.016 A 
ATOM     40  C   UNL A   1      45.154  27.033  35.612  1.00  0.00     0.016 A 
ATOM     41  C   UNL A   1      42.904  27.072  34.084  1.00  0.00     0.010 A 
ATOM     42  C   UNL A   1      44.880  28.145  34.790  1.00  0.00     0.010 A 
ATOM     43  C   UNL A   1      43.812  28.157  33.891  1.00  0.00    -0.014 A 
BRANCH  43  44
ATOM     44  C   UNL A   1      43.619  29.441  32.874  1.00  0.00     0.031 A 
ATOM     45  C   UNL A   1      42.979  30.449  34.183  1.00  0.00     0.074 A 
ATOM     46  C   UNL A   1      43.564  29.619  31.250  1.00  0.00     0.049 A 
ATOM     47  N   UNL A   1      41.715  30.788  34.340  1.00  0.00    -0.248 NA
ATOM     48  C   UNL A   1      43.754  30.959  35.333  1.00  0.00     0.031 C 
ATOM     49  C   UNL A   1      42.943  30.783  30.209  1.00  0.00     0.029 A 
ATOM     50  N   UNL A   1      43.713  28.745  30.058  1.00  0.00    -0.354 N 
ATOM     51  C   UNL A   1      41.673  31.899  35.126  1.00  0.00     0.074 A 
ATOM     52  C   UNL A   1      42.863  31.763  35.947  1.00  0.00     0.031 C 
ATOM     53  C   UNL A   1      42.775  30.478  28.937  1.00  0.00     0.029 A 
ATOM     54  C   UNL A   1      42.882  29.088  28.915  1.00  0.00     0.049 A 
ATOM     55  H   UNL A   1      44.336  27.984  30.044  1.00  0.00     0.167 HD
ATOM     56  C   UNL A   1      40.946  33.032  34.834  1.00  0.00     0.037 A 
ATOM     57  C   UNL A   1      41.827  28.437  28.331  1.00  0.00     0.037 A 
ATOM     58  C   UNL A   1      40.478  33.162  33.412  1.00  0.00     0.049 A 
ATOM     59  C   UNL A   1      40.488  29.280  28.524  1.00  0.00     0.074 A 
ATOM     60  C   UNL A   1      40.948  33.983  32.390  1.00  0.00     0.029 A 
ATOM     61  N   UNL A   1      39.603  32.268  32.749  1.00  0.00    -0.354 N 
ATOM     62  N   UNL A   1      40.279  30.061  29.577  1.00  0.00    -0.248 NA
ATOM     63  C   UNL A   1      39.441  29.507  27.531  1.00  0.00     0.031 C 
ATOM     64  C   UNL A   1      40.501  33.503  31.131  1.00  0.00     0.029 A 
ATOM     65  C   UNL A   1      39.649  32.427  31.338  1.00  0.00     0.049 A 
ATOM     66  H   UNL A   1      39.030  31.614  33.211  1.00  0.00     0.167 HD
ATOM     67  C   UNL A   1      39.165  30.860  29.442  1.00  0.00     0.074 A 
ATOM     68  C   UNL A   1      38.682  30.462  28.120  1.00  0.00     0.031 C 
ATOM     69  C   UNL A   1      38.716  31.807  30.359  1.00  0.00     0.037 A 
BRANCH  56  70
ATOM     70  C   UNL A   1      41.102  34.190  35.824  1.00  0.00     0.058 A 
ATOM     71  C   UNL A   1      42.230  35.024  35.941  1.00  0.00     0.135 A 
ATOM     72  C   UNL A   1      40.078  34.445  36.770  1.00  0.00     0.135 A 
ATOM     73  F   UNL A   1      43.271  34.932  35.108  1.00  0.00    -0.206 F 
ATOM     74  C   UNL A   1      42.367  35.982  36.957  1.00  0.00     0.059 A 
ATOM     75  C   UNL A   1      40.201  35.379  37.807  1.00  0.00     0.059 A 
ATOM     76  F   UNL A   1      38.938  33.732  36.735  1.00  0.00    -0.206 F 
ATOM     77  C   UNL A   1      41.357  36.143  37.898  1.00  0.00     0.060 A 
BRANCH  77  78
ATOM     78  S   UNL A   1      41.600  37.306  39.261  1.00  0.00     0.124 S 
ATOM     79  O   UNL A   1      40.274  37.896  39.417  1.00  0.00    -0.237 OA
ATOM     80  O   UNL A   1      42.032  36.425  40.341  1.00  0.00    -0.237 OA
ATOM     81  O   UNL A   1      42.620  38.218  38.750  1.00  0.00    -0.744 OA
ENDBRANCH  77  78
ENDBRANCH  56  70
BRANCH  57  82
ATOM     82  C   UNL A   1      42.142  27.010  28.010  1.00  0.00     0.058 A 
ATOM     83  C   UNL A   1      41.698  26.070  28.972  1.00  0.00     0.135 A 
ATOM     84  C   UNL A   1      42.388  26.494  26.730  1.00  0.00     0.135 A 
ATOM     85  F   UNL A   1      41.496  26.472  30.239  1.00  0.00    -0.206 F 
ATOM     86  C   UNL A   1      41.336  24.760  28.651  1.00  0.00     0.059 A 
ATOM     87  C   UNL A   1      42.003  25.183  26.370  1.00  0.00     0.059 A 
ATOM     88  F   UNL A   1      42.908  27.280  25.775  1.00  0.00    -0.206 F 
ATOM     89  C   UNL A   1      41.448  24.332  27.331  1.00  0.00     0.060 A 
BRANCH  89  90
ATOM     90  S   UNL A   1      40.679  22.740  26.882  1.00  0.00     0.124 S 
ATOM     91  O   UNL A   1      39.330  23.166  26.522  1.00  0.00    -0.237 OA
ATOM     92  O   UNL A   1      41.494  22.291  25.753  1.00  0.00    -0.237 OA
ATOM     93  O   UNL A   1      40.769  21.948  28.105  1.00  0.00    -0.744 OA
ENDBRANCH  89  90
ENDBRANCH  57  82
BRANCH  69  94
ATOM     94  C   UNL A   1      37.329  32.447  30.312  1.00  0.00     0.058 A 
ATOM     95  C   UNL A   1      36.368  32.249  31.314  1.00  0.00     0.135 A 
ATOM     96  C   UNL A   1      37.000  33.444  29.351  1.00  0.00     0.135 A 
ATOM     97  F   UNL A   1      36.584  31.394  32.324  1.00  0.00    -0.206 F 
ATOM     98  C   UNL A   1      35.166  32.959  31.350  1.00  0.00     0.059 A 
ATOM     99  C   UNL A   1      35.839  34.207  29.405  1.00  0.00     0.059 A 
ATOM    100  F   UNL A   1      37.805  33.741  28.323  1.00  0.00    -0.206 F 
ATOM    101  C   UNL A   1      34.918  33.949  30.403  1.00  0.00     0.060 A 
BRANCH 101 102
ATOM    102  S   UNL A   1      33.433  34.958  30.527  1.00  0.00     0.124 S 
ATOM    103  O   UNL A   1      32.970  34.627  31.871  1.00  0.00    -0.237 OA
ATOM    104  O   UNL A   1      33.952  36.311  30.351  1.00  0.00    -0.237 OA
ATOM    105  O   UNL A   1      32.603  34.467  29.431  1.00  0.00    -0.744 OA
ENDBRANCH 101 102
ENDBRANCH  69  94
ENDBRANCH  43  44
ENDBRANCH  36  38
ENDBRANCH  35  36
ENDBRANCH  34  35
ENDBRANCH  33  34
ENDBRANCH  32  33
ENDBRANCH  31  32
ENDBRANCH  30  31
ENDBRANCH  29  30
ENDBRANCH   1  29
TORSDOF 28
ENDMDL
MODEL 2
REMARK VINA RESULT:      -7.6      5.858     14.020
REMARK SMILES Cc1ccc(N(CC(=O)OCCOCCOCCOCCOC(=O)c2ccc(-c3c4nc(c(-c5c(F)cc(S(=O)(=O)[O-])cc5F)c5ccc([nH]5)c(-c5c(F)cc(S(=O)(=O)[O-])cc5F)c5nc(c(-c6c(F)cc(S(=O)(=O)[O-])cc6F)c6ccc3[nH]6)C=C5)C=C4)cc2)C(=O)C[C@H]2C[NH2+]CCO2)cc1
REMARK SMILES IDX 15 1 14 2 13 3 12 4 11 5 10 6 8 7 9 8 7 9 6 10 5 11 1 12
REMARK SMILES IDX 2 13 3 14 101 15 4 16 100 17 91 18 92 19 93 20 94 21 95 22
REMARK SMILES IDX 99 23 96 24 98 25 97 26 16 29 17 30 18 31 19 32 20 33 21 34
REMARK SMILES IDX 22 35 23 36 24 37 25 38 26 39 90 40 27 41 89 42 28 43 29 44
REMARK SMILES IDX 30 45 83 46 31 47 88 48 82 49 84 50 32 51 87 52 81 53 80 54
REMARK SMILES IDX 33 56 67 57 46 58 66 59 47 60 50 61 65 62 85 63 48 64 49 65
REMARK SMILES IDX 64 67 86 68 51 69 34 70 35 71 44 72 36 73 37 74 43 75 45 76
REMARK SMILES IDX 38 77 39 78 40 79 41 80 42 81 68 82 69 83 78 84 70 85 71 86
REMARK SMILES IDX 77 87 79 88 72 89 73 90 74 91 75 92 76 93 52 94 53 95 62 96
REMARK SMILES IDX 54 97 55 98 61 99 63 100 56 101 57 102 58 103 59 104 60 105
REMARK H PARENT 96 27 96 28 84 55 50 66
REMARK Flexibility Score: inf
ROOT
ATOM      1  C   UNL A   1      40.123  25.947  28.405  1.00  0.00     0.188 C 
ENDROOT
BRANCH   1   2
ATOM      2  C   UNL A   1      39.050  26.939  28.906  1.00  0.00     0.188 C 
BRANCH   2   3
ATOM      3  O   UNL A   1      38.887  28.329  28.498  1.00  0.00    -0.376 OA
BRANCH   3   4
ATOM      4  C   UNL A   1      37.767  29.340  28.492  1.00  0.00     0.202 C 
BRANCH   4   5
ATOM      5  C   UNL A   1      36.302  29.839  27.629  1.00  0.00     0.261 C 
BRANCH   5   6
ATOM      6  O   UNL A   1      34.810  29.038  26.971  1.00  0.00    -0.462 OA
BRANCH   6   7
ATOM      7  C   UNL A   1      34.096  27.967  26.146  1.00  0.00     0.326 C 
ATOM      8  O   UNL A   1      32.865  28.047  25.992  1.00  0.00    -0.250 OA
BRANCH   7   9
ATOM      9  C   UNL A   1      34.732  26.421  25.542  1.00  0.00     0.248 C 
BRANCH   9  10
ATOM     10  N   UNL A   1      34.293  25.183  24.636  1.00  0.00    -0.301 N 
BRANCH  10  11
ATOM     11  C   UNL A   1      34.854  23.791  24.802  1.00  0.00     0.044 A 
ATOM     12  C   UNL A   1      36.518  19.705  24.879  1.00  0.00     0.044 C 
ATOM     13  C   UNL A   1      35.926  21.087  24.915  1.00  0.00    -0.051 A 
ATOM     14  C   UNL A   1      36.529  22.153  25.594  1.00  0.00     0.005 A 
ATOM     15  C   UNL A   1      34.781  21.366  24.186  1.00  0.00     0.005 A 
ATOM     16  C   UNL A   1      35.992  23.475  25.557  1.00  0.00     0.026 A 
ATOM     17  C   UNL A   1      34.269  22.675  24.137  1.00  0.00     0.026 A 
ENDBRANCH  10  11
BRANCH  10  18
ATOM     18  C   UNL A   1      33.182  25.276  23.778  1.00  0.00     0.230 C 
ATOM     19  O   UNL A   1      33.215  25.628  22.595  1.00  0.00    -0.274 OA
BRANCH  18  20
ATOM     20  C   UNL A   1      31.855  24.767  24.242  1.00  0.00     0.138 C 
BRANCH  20  21
ATOM     21  C   UNL A   1      31.694  24.906  25.768  1.00  0.00     0.182 C 
ATOM     22  C   UNL A   1      30.452  25.674  26.289  1.00  0.00     0.293 C 
ATOM     23  O   UNL A   1      31.883  23.675  26.483  1.00  0.00    -0.366 OA
ATOM     24  N   UNL A   1      29.212  24.889  26.367  1.00  0.00    -0.342 N 
ATOM     25  C   UNL A   1      30.705  22.885  26.675  1.00  0.00     0.222 C 
ATOM     26  C   UNL A   1      29.464  23.659  27.122  1.00  0.00     0.289 C 
ATOM     27  H   UNL A   1      28.899  24.652  25.425  1.00  0.00     0.346 HD
ATOM     28  H   UNL A   1      28.491  25.436  26.837  1.00  0.00     0.346 HD
ENDBRANCH  20  21
ENDBRANCH  18  20
ENDBRANCH  10  18
ENDBRANCH   9  10
ENDBRANCH   7   9
ENDBRANCH   6   7
ENDBRANCH   5   6
ENDBRANCH   4   5
ENDBRANCH   3   4
ENDBRANCH   2   3
ENDBRANCH   1   2
BRANCH   1  29
ATOM     29  O   UNL A   1      39.937  25.477  27.083  1.00  0.00    -0.377 OA
BRANCH  29  30
ATOM     30  C   UNL A   1      40.400  24.178  26.759  1.00  0.00     0.188 C 
BRANCH  30  31
ATOM     31  C   UNL A   1      39.937  23.078  27.723  1.00  0.00     0.188 C 
BRANCH  31  32
ATOM     32  O   UNL A   1      40.448  21.814  27.320  1.00  0.00    -0.376 OA
BRANCH  32  33
ATOM     33  C   UNL A   1      41.093  21.792  26.044  1.00  0.00     0.202 C 
BRANCH  33  34
ATOM     34  C   UNL A   1      42.329  20.874  25.871  1.00  0.00     0.261 C 
BRANCH  34  35
ATOM     35  O   UNL A   1      43.517  21.699  25.990  1.00  0.00    -0.460 OA
BRANCH  35  36
ATOM     36  C   UNL A   1      43.724  22.726  25.116  1.00  0.00     0.338 C 
ATOM     37  O   UNL A   1      44.059  22.615  23.957  1.00  0.00    -0.246 OA
BRANCH  36  38
ATOM     38  C   UNL A   1      43.749  24.002  25.933  1.00  0.00     0.060 A 
ATOM     39  C   UNL A   1      43.793  25.243  25.314  1.00  0.00     0.016 A 
ATOM     40  C   UNL A   1      44.110  23.952  27.281  1.00  0.00     0.016 A 
ATOM     41  C   UNL A   1      44.410  26.329  25.993  1.00  0.00     0.010 A 
ATOM     42  C   UNL A   1      44.938  24.952  27.831  1.00  0.00     0.010 A 
ATOM     43  C   UNL A   1      45.229  26.133  27.146  1.00  0.00    -0.014 A 
BRANCH  43  44
ATOM     44  C   UNL A   1      46.300  27.207  27.793  1.00  0.00     0.031 A 
ATOM     45  C   UNL A   1      47.609  26.604  26.762  1.00  0.00     0.074 A 
ATOM     46  C   UNL A   1      46.329  28.123  29.146  1.00  0.00     0.049 A 
ATOM     47  N   UNL A   1      48.612  25.847  27.161  1.00  0.00    -0.248 NA
ATOM     48  C   UNL A   1      47.700  26.778  25.297  1.00  0.00     0.031 C 
ATOM     49  C   UNL A   1      47.540  28.861  30.049  1.00  0.00     0.029 A 
ATOM     50  N   UNL A   1      45.417  28.404  30.284  1.00  0.00    -0.354 N 
ATOM     51  C   UNL A   1      49.621  25.977  26.256  1.00  0.00     0.074 A 
ATOM     52  C   UNL A   1      48.917  26.270  25.021  1.00  0.00     0.031 C 
ATOM     53  C   UNL A   1      47.266  29.265  31.274  1.00  0.00     0.029 A 
ATOM     54  C   UNL A   1      46.060  28.629  31.569  1.00  0.00     0.049 A 
ATOM     55  H   UNL A   1      44.440  28.436  30.175  1.00  0.00     0.167 HD
ATOM     56  C   UNL A   1      50.934  26.229  26.587  1.00  0.00     0.037 A 
ATOM     57  C   UNL A   1      46.064  27.894  32.726  1.00  0.00     0.037 A 
ATOM     58  C   UNL A   1      51.173  26.736  27.981  1.00  0.00     0.049 A 
ATOM     59  C   UNL A   1      47.526  27.328  33.012  1.00  0.00     0.074 A 
ATOM     60  C   UNL A   1      51.492  28.018  28.421  1.00  0.00     0.029 A 
ATOM     61  N   UNL A   1      50.868  26.038  29.174  1.00  0.00    -0.354 N 
ATOM     62  N   UNL A   1      48.381  27.033  32.041  1.00  0.00    -0.248 NA
ATOM     63  C   UNL A   1      48.209  27.270  34.302  1.00  0.00     0.031 C 
ATOM     64  C   UNL A   1      51.232  28.138  29.812  1.00  0.00     0.029 A 
ATOM     65  C   UNL A   1      50.844  26.900  30.303  1.00  0.00     0.049 A 
ATOM     66  H   UNL A   1      50.694  25.070  29.217  1.00  0.00     0.167 HD
ATOM     67  C   UNL A   1      49.652  26.770  32.505  1.00  0.00     0.074 A 
ATOM     68  C   UNL A   1      49.474  26.941  33.948  1.00  0.00     0.031 C 
ATOM     69  C   UNL A   1      50.767  26.471  31.726  1.00  0.00     0.037 A 
BRANCH  56  70
ATOM     70  C   UNL A   1      51.891  26.407  25.404  1.00  0.00     0.058 A 
ATOM     71  C   UNL A   1      52.774  25.430  24.907  1.00  0.00     0.135 A 
ATOM     72  C   UNL A   1      51.979  27.667  24.760  1.00  0.00     0.135 A 
ATOM     73  F   UNL A   1      52.795  24.183  25.386  1.00  0.00    -0.206 F 
ATOM     74  C   UNL A   1      53.719  25.697  23.906  1.00  0.00     0.059 A 
ATOM     75  C   UNL A   1      52.931  27.964  23.776  1.00  0.00     0.059 A 
ATOM     76  F   UNL A   1      51.162  28.669  25.129  1.00  0.00    -0.206 F 
ATOM     77  C   UNL A   1      53.806  26.971  23.356  1.00  0.00     0.060 A 
BRANCH  77  78
ATOM     78  S   UNL A   1      55.104  27.322  22.147  1.00  0.00     0.124 S 
ATOM     79  O   UNL A   1      56.287  26.739  22.772  1.00  0.00    -0.237 OA
ATOM     80  O   UNL A   1      54.610  26.632  20.960  1.00  0.00    -0.237 OA
ATOM     81  O   UNL A   1      55.108  28.780  22.068  1.00  0.00    -0.744 OA
ENDBRANCH  77  78
ENDBRANCH  56  70
BRANCH  57  82
ATOM     82  C   UNL A   1      44.684  27.538  33.180  1.00  0.00     0.058 A 
ATOM     83  C   UNL A   1      44.311  26.190  32.957  1.00  0.00     0.135 A 
ATOM     84  C   UNL A   1      43.945  28.214  34.162  1.00  0.00     0.135 A 
ATOM     85  F   UNL A   1      44.929  25.489  31.991  1.00  0.00    -0.206 F 
ATOM     86  C   UNL A   1      43.411  25.500  33.772  1.00  0.00     0.059 A 
ATOM     87  C   UNL A   1      43.052  27.535  35.020  1.00  0.00     0.059 A 
ATOM     88  F   UNL A   1      44.150  29.522  34.379  1.00  0.00    -0.206 F 
ATOM     89  C   UNL A   1      42.814  26.168  34.838  1.00  0.00     0.060 A 
BRANCH  89  90
ATOM     90  S   UNL A   1      41.899  25.175  36.064  1.00  0.00     0.124 S 
ATOM     91  O   UNL A   1      40.550  25.714  35.917  1.00  0.00    -0.237 OA
ATOM     92  O   UNL A   1      42.063  23.810  35.565  1.00  0.00    -0.237 OA
ATOM     93  O   UNL A   1      42.553  25.488  37.330  1.00  0.00    -0.744 OA
ENDBRANCH  89  90
ENDBRANCH  57  82
BRANCH  69  94
ATOM     94  C   UNL A   1      52.067  25.895  32.286  1.00  0.00     0.058 A 
ATOM     95  C   UNL A   1      52.318  24.517  32.357  1.00  0.00     0.135 A 
ATOM     96  C   UNL A   1      53.184  26.726  32.583  1.00  0.00     0.135 A 
ATOM     97  F   UNL A   1      51.377  23.623  32.027  1.00  0.00    -0.206 F 
ATOM     98  C   UNL A   1      53.565  24.001  32.716  1.00  0.00     0.059 A 
ATOM     99  C   UNL A   1      54.449  26.233  32.881  1.00  0.00     0.059 A 
ATOM    100  F   UNL A   1      53.104  28.064  32.576  1.00  0.00    -0.206 F 
ATOM    101  C   UNL A   1      54.629  24.864  32.959  1.00  0.00     0.060 A 
BRANCH 101 102
ATOM    102  S   UNL A   1      56.268  24.199  33.290  1.00  0.00     0.124 S 
ATOM    103  O   UNL A   1      55.956  22.811  33.612  1.00  0.00    -0.237 OA
ATOM    104  O   UNL A   1      56.961  24.416  32.024  1.00  0.00    -0.237 OA
ATOM    105  O   UNL A   1      56.743  25.017  34.402  1.00  0.00    -0.744 OA
ENDBRANCH 101 102
ENDBRANCH  69  94
ENDBRANCH  43  44
ENDBRANCH  36  38
ENDBRANCH  35  36
ENDBRANCH  34  35
ENDBRANCH  33  34
ENDBRANCH  32  33
ENDBRANCH  31  32
ENDBRANCH  30  31
ENDBRANCH  29  30
ENDBRANCH   1  29
TORSDOF 28
ENDMDL
MODEL 3
REMARK VINA RESULT:      -7.6      4.741     10.627
REMARK SMILES Cc1ccc(N(CC(=O)OCCOCCOCCOCCOC(=O)c2ccc(-c3c4nc(c(-c5c(F)cc(S(=O)(=O)[O-])cc5F)c5ccc([nH]5)c(-c5c(F)cc(S(=O)(=O)[O-])cc5F)c5nc(c(-c6c(F)cc(S(=O)(=O)[O-])cc6F)c6ccc3[nH]6)C=C5)C=C4)cc2)C(=O)C[C@H]2C[NH2+]CCO2)cc1
REMARK SMILES IDX 15 1 14 2 13 3 12 4 11 5 10 6 8 7 9 8 7 9 6 10 5 11 1 12
REMARK SMILES IDX 2 13 3 14 101 15 4 16 100 17 91 18 92 19 93 20 94 21 95 22
REMARK SMILES IDX 99 23 96 24 98 25 97 26 16 29 17 30 18 31 19 32 20 33 21 34
REMARK SMILES IDX 22 35 23 36 24 37 25 38 26 39 90 40 27 41 89 42 28 43 29 44
REMARK SMILES IDX 30 45 83 46 31 47 88 48 82 49 84 50 32 51 87 52 81 53 80 54
REMARK SMILES IDX 33 56 67 57 46 58 66 59 47 60 50 61 65 62 85 63 48 64 49 65
REMARK SMILES IDX 64 67 86 68 51 69 34 70 35 71 44 72 36 73 37 74 43 75 45 76
REMARK SMILES IDX 38 77 39 78 40 79 41 80 42 81 68 82 69 83 78 84 70 85 71 86
REMARK SMILES IDX 77 87 79 88 72 89 73 90 74 91 75 92 76 93 52 94 53 95 62 96
REMARK SMILES IDX 54 97 55 98 61 99 63 100 56 101 57 102 58 103 59 104 60 105
REMARK H PARENT 96 27 96 28 84 55 50 66
REMARK Flexibility Score: inf
ROOT
ATOM      1  C   UNL A   1      48.001  34.996  33.242  1.00  0.00     0.188 C 
ENDROOT
BRANCH   1   2
ATOM      2  C   UNL A   1      46.832  35.543  32.392  1.00  0.00     0.188 C 
BRANCH   2   3
ATOM      3  O   UNL A   1      45.637  34.817  31.981  1.00  0.00    -0.376 OA
BRANCH   3   4
ATOM      4  C   UNL A   1      44.546  34.033  32.668  1.00  0.00     0.202 C 
BRANCH   4   5
ATOM      5  C   UNL A   1      43.429  32.671  32.474  1.00  0.00     0.261 C 
BRANCH   5   6
ATOM      6  O   UNL A   1      42.135  32.172  31.302  1.00  0.00    -0.462 OA
BRANCH   6   7
ATOM      7  C   UNL A   1      40.788  32.365  30.602  1.00  0.00     0.326 C 
ATOM      8  O   UNL A   1      40.539  33.459  30.068  1.00  0.00    -0.250 OA
BRANCH   7   9
ATOM      9  C   UNL A   1      39.357  31.312  30.636  1.00  0.00     0.248 C 
BRANCH   9  10
ATOM     10  N   UNL A   1      38.559  30.296  29.700  1.00  0.00    -0.301 N 
BRANCH  10  11
ATOM     11  C   UNL A   1      39.197  29.098  29.037  1.00  0.00     0.044 A 
ATOM     12  C   UNL A   1      40.703  25.411  27.137  1.00  0.00     0.044 C 
ATOM     13  C   UNL A   1      40.254  26.685  27.799  1.00  0.00    -0.051 A 
ATOM     14  C   UNL A   1      40.307  27.930  27.161  1.00  0.00     0.005 A 
ATOM     15  C   UNL A   1      39.682  26.642  29.060  1.00  0.00     0.005 A 
ATOM     16  C   UNL A   1      39.809  29.118  27.776  1.00  0.00     0.026 A 
ATOM     17  C   UNL A   1      39.175  27.813  29.652  1.00  0.00     0.026 A 
ENDBRANCH  10  11
BRANCH  10  18
ATOM     18  C   UNL A   1      37.155  30.333  29.628  1.00  0.00     0.230 C 
ATOM     19  O   UNL A   1      36.381  29.697  30.349  1.00  0.00    -0.274 OA
BRANCH  18  20
ATOM     20  C   UNL A   1      36.495  31.326  28.726  1.00  0.00     0.138 C 
BRANCH  20  21
ATOM     21  C   UNL A   1      35.652  32.342  29.519  1.00  0.00     0.182 C 
ATOM     22  C   UNL A   1      36.199  33.788  29.636  1.00  0.00     0.293 C 
ATOM     23  O   UNL A   1      34.260  32.339  29.165  1.00  0.00    -0.366 OA
ATOM     24  N   UNL A   1      35.923  34.662  28.487  1.00  0.00    -0.342 N 
ATOM     25  C   UNL A   1      33.890  33.226  28.104  1.00  0.00     0.222 C 
ATOM     26  C   UNL A   1      34.489  34.631  28.188  1.00  0.00     0.289 C 
ATOM     27  H   UNL A   1      36.448  34.333  27.676  1.00  0.00     0.346 HD
ATOM     28  H   UNL A   1      36.204  35.616  28.709  1.00  0.00     0.346 HD
ENDBRANCH  20  21
ENDBRANCH  18  20
ENDBRANCH  10  18
ENDBRANCH   9  10
ENDBRANCH   7   9
ENDBRANCH   6   7
ENDBRANCH   5   6
ENDBRANCH   4   5
ENDBRANCH   3   4
ENDBRANCH   2   3
ENDBRANCH   1   2
BRANCH   1  29
ATOM     29  O   UNL A   1      49.235  34.876  32.559  1.00  0.00    -0.377 OA
BRANCH  29  30
ATOM     30  C   UNL A   1      49.272  34.116  31.364  1.00  0.00     0.188 C 
BRANCH  30  31
ATOM     31  C   UNL A   1      48.713  32.694  31.494  1.00  0.00     0.188 C 
BRANCH  31  32
ATOM     32  O   UNL A   1      49.173  31.876  30.427  1.00  0.00    -0.376 OA
BRANCH  32  33
ATOM     33  C   UNL A   1      48.318  30.784  30.079  1.00  0.00     0.202 C 
BRANCH  33  34
ATOM     34  C   UNL A   1      47.331  30.982  28.902  1.00  0.00     0.261 C 
BRANCH  34  35
ATOM     35  O   UNL A   1      46.449  29.829  28.861  1.00  0.00    -0.460 OA
BRANCH  35  36
ATOM     36  C   UNL A   1      46.709  28.803  27.998  1.00  0.00     0.338 C 
ATOM     37  O   UNL A   1      46.938  28.913  26.813  1.00  0.00    -0.246 OA
BRANCH  36  38
ATOM     38  C   UNL A   1      46.365  27.519  28.724  1.00  0.00     0.060 A 
ATOM     39  C   UNL A   1      45.184  26.844  28.455  1.00  0.00     0.016 A 
ATOM     40  C   UNL A   1      47.020  27.203  29.916  1.00  0.00     0.016 A 
ATOM     41  C   UNL A   1      44.590  26.060  29.482  1.00  0.00     0.010 A 
ATOM     42  C   UNL A   1      46.301  26.645  30.993  1.00  0.00     0.010 A 
ATOM     43  C   UNL A   1      44.997  26.167  30.847  1.00  0.00    -0.014 A 
BRANCH  43  44
ATOM     44  C   UNL A   1      44.171  25.638  32.171  1.00  0.00     0.031 A 
ATOM     45  C   UNL A   1      43.448  27.237  32.424  1.00  0.00     0.074 A 
ATOM     46  C   UNL A   1      44.298  24.344  33.162  1.00  0.00     0.049 A 
ATOM     47  N   UNL A   1      43.788  28.090  33.369  1.00  0.00    -0.248 NA
ATOM     48  C   UNL A   1      42.442  27.873  31.549  1.00  0.00     0.031 C 
ATOM     49  C   UNL A   1      43.796  24.000  34.728  1.00  0.00     0.029 A 
ATOM     50  N   UNL A   1      45.141  23.125  33.248  1.00  0.00    -0.354 N 
ATOM     51  C   UNL A   1      42.751  28.955  33.546  1.00  0.00     0.074 A 
ATOM     52  C   UNL A   1      42.128  28.989  32.236  1.00  0.00     0.031 C 
ATOM     53  C   UNL A   1      44.335  22.977  35.361  1.00  0.00     0.029 A 
ATOM     54  C   UNL A   1      45.457  22.668  34.592  1.00  0.00     0.049 A 
ATOM     55  H   UNL A   1      45.466  22.656  32.446  1.00  0.00     0.167 HD
ATOM     56  C   UNL A   1      42.215  29.285  34.771  1.00  0.00     0.037 A 
ATOM     57  C   UNL A   1      46.638  22.626  35.285  1.00  0.00     0.037 A 
ATOM     58  C   UNL A   1      42.565  28.368  35.909  1.00  0.00     0.049 A 
ATOM     59  C   UNL A   1      46.586  23.634  36.518  1.00  0.00     0.074 A 
ATOM     60  C   UNL A   1      41.787  27.408  36.552  1.00  0.00     0.029 A 
ATOM     61  N   UNL A   1      43.871  28.126  36.398  1.00  0.00    -0.354 N 
ATOM     62  N   UNL A   1      45.873  24.753  36.499  1.00  0.00    -0.248 NA
ATOM     63  C   UNL A   1      47.086  23.395  37.870  1.00  0.00     0.031 C 
ATOM     64  C   UNL A   1      42.616  26.513  37.278  1.00  0.00     0.029 A 
ATOM     65  C   UNL A   1      43.930  26.952  37.197  1.00  0.00     0.049 A 
ATOM     66  H   UNL A   1      44.646  28.701  36.207  1.00  0.00     0.167 HD
ATOM     67  C   UNL A   1      45.793  25.362  37.732  1.00  0.00     0.074 A 
ATOM     68  C   UNL A   1      46.581  24.447  38.559  1.00  0.00     0.031 C 
ATOM     69  C   UNL A   1      45.084  26.522  38.032  1.00  0.00     0.037 A 
BRANCH  56  70
ATOM     70  C   UNL A   1      41.005  30.224  34.730  1.00  0.00     0.058 A 
ATOM     71  C   UNL A   1      39.743  29.913  34.190  1.00  0.00     0.135 A 
ATOM     72  C   UNL A   1      41.135  31.553  35.205  1.00  0.00     0.135 A 
ATOM     73  F   UNL A   1      39.449  28.696  33.727  1.00  0.00    -0.206 F 
ATOM     74  C   UNL A   1      38.715  30.861  34.062  1.00  0.00     0.059 A 
ATOM     75  C   UNL A   1      40.132  32.522  35.066  1.00  0.00     0.059 A 
ATOM     76  F   UNL A   1      42.286  31.956  35.772  1.00  0.00    -0.206 F 
ATOM     77  C   UNL A   1      38.922  32.169  34.485  1.00  0.00     0.060 A 
BRANCH  77  78
ATOM     78  S   UNL A   1      37.625  33.398  34.210  1.00  0.00     0.124 S 
ATOM     79  O   UNL A   1      38.354  34.659  34.317  1.00  0.00    -0.237 OA
ATOM     80  O   UNL A   1      37.153  33.051  32.875  1.00  0.00    -0.237 OA
ATOM     81  O   UNL A   1      36.681  33.143  35.296  1.00  0.00    -0.744 OA
ENDBRANCH  77  78
ENDBRANCH  56  70
BRANCH  57  82
ATOM     82  C   UNL A   1      47.729  21.951  34.515  1.00  0.00     0.058 A 
ATOM     83  C   UNL A   1      48.868  22.756  34.264  1.00  0.00     0.135 A 
ATOM     84  C   UNL A   1      47.937  20.568  34.431  1.00  0.00     0.135 A 
ATOM     85  F   UNL A   1      48.740  24.094  34.266  1.00  0.00    -0.206 F 
ATOM     86  C   UNL A   1      50.157  22.237  34.132  1.00  0.00     0.059 A 
ATOM     87  C   UNL A   1      49.233  20.015  34.330  1.00  0.00     0.059 A 
ATOM     88  F   UNL A   1      46.903  19.722  34.551  1.00  0.00    -0.206 F 
ATOM     89  C   UNL A   1      50.343  20.859  34.212  1.00  0.00     0.060 A 
BRANCH  89  90
ATOM     90  S   UNL A   1      52.051  20.235  34.355  1.00  0.00     0.124 S 
ATOM     91  O   UNL A   1      52.610  21.159  35.338  1.00  0.00    -0.237 OA
ATOM     92  O   UNL A   1      51.859  18.871  34.847  1.00  0.00    -0.237 OA
ATOM     93  O   UNL A   1      52.590  20.371  33.006  1.00  0.00    -0.744 OA
ENDBRANCH  89  90
ENDBRANCH  57  82
BRANCH  69  94
ATOM     94  C   UNL A   1      45.265  27.321  39.322  1.00  0.00     0.058 A 
ATOM     95  C   UNL A   1      44.825  26.857  40.570  1.00  0.00     0.135 A 
ATOM     96  C   UNL A   1      46.072  28.493  39.367  1.00  0.00     0.135 A 
ATOM     97  F   UNL A   1      44.123  25.721  40.680  1.00  0.00    -0.206 F 
ATOM     98  C   UNL A   1      45.134  27.512  41.765  1.00  0.00     0.059 A 
ATOM     99  C   UNL A   1      46.444  29.124  40.548  1.00  0.00     0.059 A 
ATOM    100  F   UNL A   1      46.557  29.072  38.260  1.00  0.00    -0.206 F 
ATOM    101  C   UNL A   1      45.958  28.633  41.747  1.00  0.00     0.060 A 
BRANCH 101 102
ATOM    102  S   UNL A   1      46.468  29.398  43.294  1.00  0.00     0.124 S 
ATOM    103  O   UNL A   1      45.384  30.349  43.516  1.00  0.00    -0.237 OA
ATOM    104  O   UNL A   1      46.512  28.263  44.211  1.00  0.00    -0.237 OA
ATOM    105  O   UNL A   1      47.766  29.980  42.968  1.00  0.00    -0.744 OA
ENDBRANCH 101 102
ENDBRANCH  69  94
ENDBRANCH  43  44
ENDBRANCH  36  38
ENDBRANCH  35  36
ENDBRANCH  34  35
ENDBRANCH  33  34
ENDBRANCH  32  33
ENDBRANCH  31  32
ENDBRANCH  30  31
ENDBRANCH  29  30
ENDBRANCH   1  29
TORSDOF 28
ENDMDL
