MODEL 1
REMARK VINA RESULT:      -8.1      0.000      0.000
REMARK SMILES O=C(OCCOCCOCCOCCOC(=O)c1cccc(Nc2ccc([N+](=O)[O-])cc2)c1)c1ccc(-c2c3nc(c(-c4c(F)cc(S(=O)(=O)[O-])cc4F)c4ccc([nH]4)c(-c4c(F)cc(S(=O)(=O)[O-])cc4F)c4nc(c(-c5c(F)cc(S(=O)(=O)[O-])cc5F)c5ccc2[nH]5)C=C4)C=C3)cc1
REMARK SMILES IDX 9 1 8 2 7 3 6 4 5 5 4 6 3 7 2 8 1 9 34 10 35 11 99 12 36 13
REMARK SMILES IDX 98 14 37 15 38 16 39 17 92 18 40 19 97 20 91 21 93 22 41 23
REMARK SMILES IDX 96 24 90 25 89 26 42 28 76 29 55 30 75 31 56 32 59 33 74 34
REMARK SMILES IDX 94 35 57 36 58 37 73 39 95 40 60 41 43 42 44 43 53 44 45 45
REMARK SMILES IDX 46 46 52 47 54 48 47 49 48 50 49 51 50 52 51 53 77 54 78 55
REMARK SMILES IDX 87 56 79 57 80 58 86 59 88 60 81 61 82 62 83 63 84 64 85 65
REMARK SMILES IDX 61 66 62 67 71 68 63 69 64 70 70 71 72 72 65 73 66 74 67 75
REMARK SMILES IDX 68 76 69 77 10 78 11 79 12 80 13 81 14 82 15 83 16 84 17 85
REMARK SMILES IDX 18 86 19 87 33 88 20 89 22 90 21 91 23 92 24 94 25 95 32 96
REMARK SMILES IDX 26 97 31 98 27 99 28 100 29 101 30 102
REMARK H PARENT 93 27 59 38 23 93
REMARK Flexibility Score: inf
ROOT
ATOM      1  O   UNL A   1      39.114  26.415  28.048  1.00  0.00    -0.377 OA
ENDROOT
BRANCH   1   2
ATOM      2  C   UNL A   1      38.923  26.947  29.357  1.00  0.00     0.188 C 
BRANCH   2   3
ATOM      3  C   UNL A   1      38.578  28.435  29.430  1.00  0.00     0.188 C 
BRANCH   3   4
ATOM      4  O   UNL A   1      37.671  28.727  30.489  1.00  0.00    -0.376 OA
BRANCH   4   5
ATOM      5  C   UNL A   1      36.579  29.600  30.207  1.00  0.00     0.202 C 
BRANCH   5   6
ATOM      6  C   UNL A   1      36.259  30.637  31.283  1.00  0.00     0.261 C 
BRANCH   6   7
ATOM      7  O   UNL A   1      37.349  30.909  32.174  1.00  0.00    -0.460 OA
BRANCH   7   8
ATOM      8  C   UNL A   1      38.389  31.762  32.010  1.00  0.00     0.338 C 
ATOM      9  O   UNL A   1      38.193  32.956  32.238  1.00  0.00    -0.246 OA
BRANCH   8  10
ATOM     10  C   UNL A   1      39.755  31.360  31.555  1.00  0.00     0.060 A 
ATOM     11  C   UNL A   1      40.330  31.666  30.322  1.00  0.00     0.016 A 
ATOM     12  C   UNL A   1      40.553  30.685  32.493  1.00  0.00     0.016 A 
ATOM     13  C   UNL A   1      41.613  31.273  29.987  1.00  0.00     0.010 A 
ATOM     14  C   UNL A   1      41.854  30.286  32.175  1.00  0.00     0.010 A 
ATOM     15  C   UNL A   1      42.364  30.551  30.900  1.00  0.00    -0.014 A 
BRANCH  15  16
ATOM     16  C   UNL A   1      43.559  29.871  30.387  1.00  0.00     0.031 A 
ATOM     17  C   UNL A   1      44.866  30.580  30.569  1.00  0.00     0.074 A 
ATOM     18  C   UNL A   1      43.479  28.608  29.938  1.00  0.00     0.049 A 
ATOM     19  N   UNL A   1      46.046  30.269  30.120  1.00  0.00    -0.248 NA
ATOM     20  C   UNL A   1      44.833  31.812  31.381  1.00  0.00     0.031 C 
ATOM     21  C   UNL A   1      42.259  27.795  29.914  1.00  0.00     0.029 A 
ATOM     22  N   UNL A   1      44.444  27.780  29.440  1.00  0.00    -0.354 N 
ATOM     23  C   UNL A   1      46.884  31.292  30.547  1.00  0.00     0.074 A 
ATOM     24  C   UNL A   1      46.083  32.231  31.293  1.00  0.00     0.031 C 
ATOM     25  C   UNL A   1      42.553  26.582  29.419  1.00  0.00     0.029 A 
ATOM     26  C   UNL A   1      43.955  26.567  29.018  1.00  0.00     0.049 A 
ATOM     27  H   UNL A   1      45.395  28.027  29.388  1.00  0.00     0.167 HD
ATOM     28  C   UNL A   1      48.208  31.427  30.312  1.00  0.00     0.037 A 
ATOM     29  C   UNL A   1      44.574  25.589  28.331  1.00  0.00     0.037 A 
ATOM     30  C   UNL A   1      48.954  30.453  29.564  1.00  0.00     0.049 A 
ATOM     31  C   UNL A   1      46.021  25.808  27.978  1.00  0.00     0.074 A 
ATOM     32  C   UNL A   1      50.279  30.480  29.182  1.00  0.00     0.029 A 
ATOM     33  N   UNL A   1      48.415  29.262  29.083  1.00  0.00    -0.354 N 
ATOM     34  N   UNL A   1      46.798  26.823  28.287  1.00  0.00    -0.248 NA
ATOM     35  C   UNL A   1      46.675  24.769  27.177  1.00  0.00     0.031 C 
ATOM     36  C   UNL A   1      50.527  29.332  28.422  1.00  0.00     0.029 A 
ATOM     37  C   UNL A   1      49.376  28.555  28.389  1.00  0.00     0.049 A 
ATOM     38  H   UNL A   1      47.486  28.969  29.217  1.00  0.00     0.167 HD
ATOM     39  C   UNL A   1      48.041  26.536  27.740  1.00  0.00     0.074 A 
ATOM     40  C   UNL A   1      47.911  25.245  27.087  1.00  0.00     0.031 C 
ATOM     41  C   UNL A   1      49.188  27.261  27.772  1.00  0.00     0.037 A 
BRANCH  28  42
ATOM     42  C   UNL A   1      48.863  32.696  30.777  1.00  0.00     0.058 A 
ATOM     43  C   UNL A   1      49.448  32.823  32.048  1.00  0.00     0.135 A 
ATOM     44  C   UNL A   1      48.844  33.834  29.954  1.00  0.00     0.135 A 
ATOM     45  F   UNL A   1      49.459  31.781  32.895  1.00  0.00    -0.206 F 
ATOM     46  C   UNL A   1      49.955  34.039  32.499  1.00  0.00     0.059 A 
ATOM     47  C   UNL A   1      49.371  35.052  30.371  1.00  0.00     0.059 A 
ATOM     48  F   UNL A   1      48.279  33.778  28.738  1.00  0.00    -0.206 F 
ATOM     49  C   UNL A   1      49.908  35.150  31.653  1.00  0.00     0.060 A 
BRANCH  49  50
ATOM     50  S   UNL A   1      50.549  36.725  32.259  1.00  0.00     0.124 S 
ATOM     51  O   UNL A   1      49.554  37.662  31.744  1.00  0.00    -0.237 OA
ATOM     52  O   UNL A   1      50.544  36.527  33.705  1.00  0.00    -0.237 OA
ATOM     53  O   UNL A   1      51.870  36.814  31.646  1.00  0.00    -0.744 OA
ENDBRANCH  49  50
ENDBRANCH  28  42
BRANCH  29  54
ATOM     54  C   UNL A   1      43.817  24.386  27.891  1.00  0.00     0.058 A 
ATOM     55  C   UNL A   1      43.336  24.260  26.580  1.00  0.00     0.135 A 
ATOM     56  C   UNL A   1      43.584  23.315  28.772  1.00  0.00     0.135 A 
ATOM     57  F   UNL A   1      43.525  25.254  25.698  1.00  0.00    -0.206 F 
ATOM     58  C   UNL A   1      42.646  23.125  26.160  1.00  0.00     0.059 A 
ATOM     59  C   UNL A   1      42.923  22.159  28.368  1.00  0.00     0.059 A 
ATOM     60  F   UNL A   1      44.029  23.374  30.037  1.00  0.00    -0.206 F 
ATOM     61  C   UNL A   1      42.450  22.076  27.061  1.00  0.00     0.060 A 
BRANCH  61  62
ATOM     62  S   UNL A   1      41.595  20.591  26.492  1.00  0.00     0.124 S 
ATOM     63  O   UNL A   1      42.514  20.093  25.474  1.00  0.00    -0.237 OA
ATOM     64  O   UNL A   1      41.509  19.800  27.716  1.00  0.00    -0.237 OA
ATOM     65  O   UNL A   1      40.322  21.103  25.995  1.00  0.00    -0.744 OA
ENDBRANCH  61  62
ENDBRANCH  29  54
BRANCH  41  66
ATOM     66  C   UNL A   1      50.396  26.649  27.131  1.00  0.00     0.058 A 
ATOM     67  C   UNL A   1      50.631  26.743  25.752  1.00  0.00     0.135 A 
ATOM     68  C   UNL A   1      51.373  26.033  27.932  1.00  0.00     0.135 A 
ATOM     69  F   UNL A   1      49.723  27.317  24.948  1.00  0.00    -0.206 F 
ATOM     70  C   UNL A   1      51.792  26.233  25.183  1.00  0.00     0.059 A 
ATOM     71  C   UNL A   1      52.554  25.547  27.388  1.00  0.00     0.059 A 
ATOM     72  F   UNL A   1      51.195  25.932  29.259  1.00  0.00    -0.206 F 
ATOM     73  C   UNL A   1      52.750  25.644  26.012  1.00  0.00     0.060 A 
BRANCH  73  74
ATOM     74  S   UNL A   1      54.276  25.039  25.268  1.00  0.00     0.124 S 
ATOM     75  O   UNL A   1      55.187  25.066  26.408  1.00  0.00    -0.237 OA
ATOM     76  O   UNL A   1      53.888  23.715  24.796  1.00  0.00    -0.237 OA
ATOM     77  O   UNL A   1      54.554  26.016  24.219  1.00  0.00    -0.744 OA
ENDBRANCH  73  74
ENDBRANCH  41  66
ENDBRANCH  15  16
ENDBRANCH   8  10
ENDBRANCH   7   8
ENDBRANCH   6   7
ENDBRANCH   5   6
ENDBRANCH   4   5
ENDBRANCH   3   4
ENDBRANCH   2   3
ENDBRANCH   1   2
BRANCH   1  78
ATOM     78  C   UNL A   1      39.708  25.122  27.970  1.00  0.00     0.188 C 
BRANCH  78  79
ATOM     79  C   UNL A   1      39.110  24.079  26.991  1.00  0.00     0.188 C 
BRANCH  79  80
ATOM     80  O   UNL A   1      37.861  24.454  26.440  1.00  0.00    -0.376 OA
BRANCH  80  81
ATOM     81  C   UNL A   1      37.373  23.646  25.376  1.00  0.00     0.202 C 
BRANCH  81  82
ATOM     82  C   UNL A   1      36.621  22.346  25.728  1.00  0.00     0.261 C 
BRANCH  82  83
ATOM     83  O   UNL A   1      35.225  22.470  26.066  1.00  0.00    -0.460 OA
BRANCH  83  84
ATOM     84  C   UNL A   1      34.314  21.814  25.314  1.00  0.00     0.338 C 
ATOM     85  O   UNL A   1      33.999  20.639  25.397  1.00  0.00    -0.246 OA
BRANCH  84  86
ATOM     86  C   UNL A   1      33.578  22.826  24.518  1.00  0.00     0.062 A 
ATOM     87  C   UNL A   1      33.813  22.894  23.137  1.00  0.00     0.016 A 
ATOM     88  C   UNL A   1      32.586  23.624  25.101  1.00  0.00     0.041 A 
ATOM     89  C   UNL A   1      33.014  23.707  22.337  1.00  0.00     0.003 A 
ATOM     90  C   UNL A   1      31.862  24.535  24.318  1.00  0.00     0.039 A 
ATOM     91  C   UNL A   1      32.052  24.526  22.928  1.00  0.00     0.026 A 
BRANCH  90  92
ATOM     92  N   UNL A   1      30.978  25.443  24.948  1.00  0.00    -0.355 N 
ATOM     93  H   UNL A   1      30.055  25.139  25.101  1.00  0.00     0.167 HD
BRANCH  92  94
ATOM     94  C   UNL A   1      31.307  26.743  25.375  1.00  0.00     0.039 A 
ATOM     95  C   UNL A   1      31.277  27.797  24.452  1.00  0.00     0.033 A 
ATOM     96  C   UNL A   1      31.570  27.022  26.721  1.00  0.00     0.033 A 
ATOM     97  C   UNL A   1      31.507  29.114  24.862  1.00  0.00     0.088 A 
ATOM     98  C   UNL A   1      31.806  28.333  27.145  1.00  0.00     0.088 A 
ATOM     99  C   UNL A   1      31.771  29.376  26.210  1.00  0.00     0.269 A 
BRANCH  99 100
ATOM    100  N   UNL A   1      32.009  30.757  26.648  1.00  0.00     0.062 N 
ATOM    101  O   UNL A   1      31.254  31.639  26.214  1.00  0.00    -0.258 OA
ATOM    102  O   UNL A   1      32.953  30.963  27.424  1.00  0.00    -0.258 OA
ENDBRANCH  99 100
ENDBRANCH  92  94
ENDBRANCH  90  92
ENDBRANCH  84  86
ENDBRANCH  83  84
ENDBRANCH  82  83
ENDBRANCH  81  82
ENDBRANCH  80  81
ENDBRANCH  79  80
ENDBRANCH  78  79
ENDBRANCH   1  78
TORSDOF 26
ENDMDL
MODEL 2
REMARK VINA RESULT:      -8.0      1.389      8.118
REMARK SMILES O=C(OCCOCCOCCOCCOC(=O)c1cccc(Nc2ccc([N+](=O)[O-])cc2)c1)c1ccc(-c2c3nc(c(-c4c(F)cc(S(=O)(=O)[O-])cc4F)c4ccc([nH]4)c(-c4c(F)cc(S(=O)(=O)[O-])cc4F)c4nc(c(-c5c(F)cc(S(=O)(=O)[O-])cc5F)c5ccc2[nH]5)C=C4)C=C3)cc1
REMARK SMILES IDX 9 1 8 2 7 3 6 4 5 5 4 6 3 7 2 8 1 9 34 10 35 11 99 12 36 13
REMARK SMILES IDX 98 14 37 15 38 16 39 17 92 18 40 19 97 20 91 21 93 22 41 23
REMARK SMILES IDX 96 24 90 25 89 26 42 28 76 29 55 30 75 31 56 32 59 33 74 34
REMARK SMILES IDX 94 35 57 36 58 37 73 39 95 40 60 41 43 42 44 43 53 44 45 45
REMARK SMILES IDX 46 46 52 47 54 48 47 49 48 50 49 51 50 52 51 53 77 54 78 55
REMARK SMILES IDX 87 56 79 57 80 58 86 59 88 60 81 61 82 62 83 63 84 64 85 65
REMARK SMILES IDX 61 66 62 67 71 68 63 69 64 70 70 71 72 72 65 73 66 74 67 75
REMARK SMILES IDX 68 76 69 77 10 78 11 79 12 80 13 81 14 82 15 83 16 84 17 85
REMARK SMILES IDX 18 86 19 87 33 88 20 89 22 90 21 91 23 92 24 94 25 95 32 96
REMARK SMILES IDX 26 97 31 98 27 99 28 100 29 101 30 102
REMARK H PARENT 93 27 59 38 23 93
REMARK Flexibility Score: inf
ROOT
ATOM      1  O   UNL A   1      38.899  26.436  28.161  1.00  0.00    -0.377 OA
ENDROOT
BRANCH   1   2
ATOM      2  C   UNL A   1      38.739  27.062  29.431  1.00  0.00     0.188 C 
BRANCH   2   3
ATOM      3  C   UNL A   1      38.165  28.480  29.409  1.00  0.00     0.188 C 
BRANCH   3   4
ATOM      4  O   UNL A   1      37.559  28.836  30.648  1.00  0.00    -0.376 OA
BRANCH   4   5
ATOM      5  C   UNL A   1      36.517  29.810  30.621  1.00  0.00     0.202 C 
BRANCH   5   6
ATOM      6  C   UNL A   1      36.490  30.790  31.794  1.00  0.00     0.261 C 
BRANCH   6   7
ATOM      7  O   UNL A   1      37.649  30.726  32.634  1.00  0.00    -0.460 OA
BRANCH   7   8
ATOM      8  C   UNL A   1      38.855  31.321  32.467  1.00  0.00     0.338 C 
ATOM      9  O   UNL A   1      39.030  32.421  32.992  1.00  0.00    -0.246 OA
BRANCH   8  10
ATOM     10  C   UNL A   1      39.987  30.744  31.678  1.00  0.00     0.060 A 
ATOM     11  C   UNL A   1      40.858  29.743  32.108  1.00  0.00     0.016 A 
ATOM     12  C   UNL A   1      40.124  31.200  30.357  1.00  0.00     0.016 A 
ATOM     13  C   UNL A   1      41.869  29.249  31.304  1.00  0.00     0.010 A 
ATOM     14  C   UNL A   1      41.135  30.707  29.528  1.00  0.00     0.010 A 
ATOM     15  C   UNL A   1      42.031  29.756  30.025  1.00  0.00    -0.014 A 
BRANCH  15  16
ATOM     16  C   UNL A   1      43.299  29.459  29.349  1.00  0.00     0.031 A 
ATOM     17  C   UNL A   1      43.409  28.122  28.683  1.00  0.00     0.074 A 
ATOM     18  C   UNL A   1      44.230  30.417  29.204  1.00  0.00     0.049 A 
ATOM     19  N   UNL A   1      44.437  27.559  28.119  1.00  0.00    -0.248 NA
ATOM     20  C   UNL A   1      42.178  27.309  28.644  1.00  0.00     0.031 C 
ATOM     21  C   UNL A   1      44.097  31.801  29.669  1.00  0.00     0.029 A 
ATOM     22  N   UNL A   1      45.456  30.380  28.605  1.00  0.00    -0.354 N 
ATOM     23  C   UNL A   1      43.993  26.309  27.707  1.00  0.00     0.074 A 
ATOM     24  C   UNL A   1      42.605  26.192  28.081  1.00  0.00     0.031 C 
ATOM     25  C   UNL A   1      45.208  32.479  29.339  1.00  0.00     0.029 A 
ATOM     26  C   UNL A   1      46.153  31.558  28.719  1.00  0.00     0.049 A 
ATOM     27  H   UNL A   1      45.807  29.587  28.138  1.00  0.00     0.167 HD
ATOM     28  C   UNL A   1      44.706  25.344  27.084  1.00  0.00     0.037 A 
ATOM     29  C   UNL A   1      47.434  31.826  28.406  1.00  0.00     0.037 A 
ATOM     30  C   UNL A   1      46.088  25.522  26.732  1.00  0.00     0.049 A 
ATOM     31  C   UNL A   1      48.247  30.705  27.817  1.00  0.00     0.074 A 
ATOM     32  C   UNL A   1      46.962  24.619  26.165  1.00  0.00     0.029 A 
ATOM     33  N   UNL A   1      46.793  26.707  26.926  1.00  0.00    -0.354 N 
ATOM     34  N   UNL A   1      47.865  29.482  27.520  1.00  0.00    -0.248 NA
ATOM     35  C   UNL A   1      49.658  30.982  27.534  1.00  0.00     0.031 C 
ATOM     36  C   UNL A   1      48.212  25.240  26.067  1.00  0.00     0.029 A 
ATOM     37  C   UNL A   1      48.100  26.553  26.509  1.00  0.00     0.049 A 
ATOM     38  H   UNL A   1      46.416  27.532  27.307  1.00  0.00     0.167 HD
ATOM     39  C   UNL A   1      48.981  28.848  26.990  1.00  0.00     0.074 A 
ATOM     40  C   UNL A   1      50.051  29.831  27.003  1.00  0.00     0.031 C 
ATOM     41  C   UNL A   1      49.118  27.578  26.532  1.00  0.00     0.037 A 
BRANCH  28  42
ATOM     42  C   UNL A   1      44.026  24.024  26.858  1.00  0.00     0.058 A 
ATOM     43  C   UNL A   1      43.948  23.034  27.853  1.00  0.00     0.135 A 
ATOM     44  C   UNL A   1      43.497  23.718  25.593  1.00  0.00     0.135 A 
ATOM     45  F   UNL A   1      44.474  23.253  29.069  1.00  0.00    -0.206 F 
ATOM     46  C   UNL A   1      43.407  21.778  27.589  1.00  0.00     0.059 A 
ATOM     47  C   UNL A   1      42.925  22.481  25.316  1.00  0.00     0.059 A 
ATOM     48  F   UNL A   1      43.563  24.617  24.599  1.00  0.00    -0.206 F 
ATOM     49  C   UNL A   1      42.901  21.510  26.316  1.00  0.00     0.060 A 
BRANCH  49  50
ATOM     50  S   UNL A   1      42.223  19.871  25.982  1.00  0.00     0.124 S 
ATOM     51  O   UNL A   1      42.334  19.237  27.293  1.00  0.00    -0.237 OA
ATOM     52  O   UNL A   1      40.866  20.179  25.542  1.00  0.00    -0.237 OA
ATOM     53  O   UNL A   1      43.107  19.339  24.951  1.00  0.00    -0.744 OA
ENDBRANCH  49  50
ENDBRANCH  28  42
BRANCH  29  54
ATOM     54  C   UNL A   1      48.016  33.163  28.704  1.00  0.00     0.058 A 
ATOM     55  C   UNL A   1      48.606  33.446  29.944  1.00  0.00     0.135 A 
ATOM     56  C   UNL A   1      48.020  34.184  27.737  1.00  0.00     0.135 A 
ATOM     57  F   UNL A   1      48.626  32.511  30.906  1.00  0.00    -0.206 F 
ATOM     58  C   UNL A   1      49.171  34.690  30.218  1.00  0.00     0.059 A 
ATOM     59  C   UNL A   1      48.603  35.424  27.976  1.00  0.00     0.059 A 
ATOM     60  F   UNL A   1      47.478  33.969  26.528  1.00  0.00    -0.206 F 
ATOM     61  C   UNL A   1      49.170  35.672  29.224  1.00  0.00     0.060 A 
BRANCH  61  62
ATOM     62  S   UNL A   1      49.946  37.264  29.575  1.00  0.00     0.124 S 
ATOM     63  O   UNL A   1      49.844  37.933  28.283  1.00  0.00    -0.237 OA
ATOM     64  O   UNL A   1      49.094  37.791  30.637  1.00  0.00    -0.237 OA
ATOM     65  O   UNL A   1      51.297  36.897  29.989  1.00  0.00    -0.744 OA
ENDBRANCH  61  62
ENDBRANCH  29  54
BRANCH  41  66
ATOM     66  C   UNL A   1      50.452  27.204  25.960  1.00  0.00     0.058 A 
ATOM     67  C   UNL A   1      50.748  27.372  24.599  1.00  0.00     0.135 A 
ATOM     68  C   UNL A   1      51.473  26.750  26.811  1.00  0.00     0.135 A 
ATOM     69  F   UNL A   1      49.801  27.797  23.748  1.00  0.00    -0.206 F 
ATOM     70  C   UNL A   1      52.012  27.089  24.097  1.00  0.00     0.059 A 
ATOM     71  C   UNL A   1      52.751  26.493  26.336  1.00  0.00     0.059 A 
ATOM     72  F   UNL A   1      51.238  26.586  28.123  1.00  0.00    -0.206 F 
ATOM     73  C   UNL A   1      53.009  26.658  24.976  1.00  0.00     0.060 A 
BRANCH  73  74
ATOM     74  S   UNL A   1      54.659  26.349  24.321  1.00  0.00     0.124 S 
ATOM     75  O   UNL A   1      55.430  27.412  24.958  1.00  0.00    -0.237 OA
ATOM     76  O   UNL A   1      54.933  24.996  24.791  1.00  0.00    -0.237 OA
ATOM     77  O   UNL A   1      54.483  26.481  22.877  1.00  0.00    -0.744 OA
ENDBRANCH  73  74
ENDBRANCH  41  66
ENDBRANCH  15  16
ENDBRANCH   8  10
ENDBRANCH   7   8
ENDBRANCH   6   7
ENDBRANCH   5   6
ENDBRANCH   4   5
ENDBRANCH   3   4
ENDBRANCH   2   3
ENDBRANCH   1   2
BRANCH   1  78
ATOM     78  C   UNL A   1      39.341  25.081  28.175  1.00  0.00     0.188 C 
BRANCH  78  79
ATOM     79  C   UNL A   1      38.814  24.107  27.090  1.00  0.00     0.188 C 
BRANCH  79  80
ATOM     80  O   UNL A   1      37.599  24.516  26.489  1.00  0.00    -0.376 OA
BRANCH  80  81
ATOM     81  C   UNL A   1      37.106  23.692  25.439  1.00  0.00     0.202 C 
BRANCH  81  82
ATOM     82  C   UNL A   1      36.364  22.393  25.814  1.00  0.00     0.261 C 
BRANCH  82  83
ATOM     83  O   UNL A   1      35.093  22.535  26.479  1.00  0.00    -0.460 OA
BRANCH  83  84
ATOM     84  C   UNL A   1      34.063  21.755  26.086  1.00  0.00     0.338 C 
ATOM     85  O   UNL A   1      33.781  20.643  26.500  1.00  0.00    -0.246 OA
BRANCH  84  86
ATOM     86  C   UNL A   1      33.180  22.579  25.225  1.00  0.00     0.062 A 
ATOM     87  C   UNL A   1      32.907  22.135  23.923  1.00  0.00     0.016 A 
ATOM     88  C   UNL A   1      32.537  23.717  25.728  1.00  0.00     0.041 A 
ATOM     89  C   UNL A   1      31.948  22.789  23.155  1.00  0.00     0.003 A 
ATOM     90  C   UNL A   1      31.661  24.451  24.914  1.00  0.00     0.039 A 
ATOM     91  C   UNL A   1      31.337  23.943  23.647  1.00  0.00     0.026 A 
BRANCH  90  92
ATOM     92  N   UNL A   1      31.145  25.682  25.382  1.00  0.00    -0.355 N 
ATOM     93  H   UNL A   1      30.166  25.778  25.410  1.00  0.00     0.167 HD
BRANCH  92  94
ATOM     94  C   UNL A   1      31.912  26.781  25.813  1.00  0.00     0.039 A 
ATOM     95  C   UNL A   1      31.429  27.593  26.848  1.00  0.00     0.033 A 
ATOM     96  C   UNL A   1      33.190  27.024  25.294  1.00  0.00     0.033 A 
ATOM     97  C   UNL A   1      32.206  28.635  27.362  1.00  0.00     0.088 A 
ATOM     98  C   UNL A   1      33.976  28.065  25.795  1.00  0.00     0.088 A 
ATOM     99  C   UNL A   1      33.480  28.867  26.832  1.00  0.00     0.269 A 
BRANCH  99 100
ATOM    100  N   UNL A   1      34.302  29.957  27.370  1.00  0.00     0.062 N 
ATOM    101  O   UNL A   1      35.534  29.842  27.296  1.00  0.00    -0.258 OA
ATOM    102  O   UNL A   1      33.719  30.928  27.872  1.00  0.00    -0.258 OA
ENDBRANCH  99 100
ENDBRANCH  92  94
ENDBRANCH  90  92
ENDBRANCH  84  86
ENDBRANCH  83  84
ENDBRANCH  82  83
ENDBRANCH  81  82
ENDBRANCH  80  81
ENDBRANCH  79  80
ENDBRANCH  78  79
ENDBRANCH   1  78
TORSDOF 26
ENDMDL
MODEL 3
REMARK VINA RESULT:      -7.9      4.260      6.312
REMARK SMILES O=C(OCCOCCOCCOCCOC(=O)c1cccc(Nc2ccc([N+](=O)[O-])cc2)c1)c1ccc(-c2c3nc(c(-c4c(F)cc(S(=O)(=O)[O-])cc4F)c4ccc([nH]4)c(-c4c(F)cc(S(=O)(=O)[O-])cc4F)c4nc(c(-c5c(F)cc(S(=O)(=O)[O-])cc5F)c5ccc2[nH]5)C=C4)C=C3)cc1
REMARK SMILES IDX 9 1 8 2 7 3 6 4 5 5 4 6 3 7 2 8 1 9 34 10 35 11 99 12 36 13
REMARK SMILES IDX 98 14 37 15 38 16 39 17 92 18 40 19 97 20 91 21 93 22 41 23
REMARK SMILES IDX 96 24 90 25 89 26 42 28 76 29 55 30 75 31 56 32 59 33 74 34
REMARK SMILES IDX 94 35 57 36 58 37 73 39 95 40 60 41 43 42 44 43 53 44 45 45
REMARK SMILES IDX 46 46 52 47 54 48 47 49 48 50 49 51 50 52 51 53 77 54 78 55
REMARK SMILES IDX 87 56 79 57 80 58 86 59 88 60 81 61 82 62 83 63 84 64 85 65
REMARK SMILES IDX 61 66 62 67 71 68 63 69 64 70 70 71 72 72 65 73 66 74 67 75
REMARK SMILES IDX 68 76 69 77 10 78 11 79 12 80 13 81 14 82 15 83 16 84 17 85
REMARK SMILES IDX 18 86 19 87 33 88 20 89 22 90 21 91 23 92 24 94 25 95 32 96
REMARK SMILES IDX 26 97 31 98 27 99 28 100 29 101 30 102
REMARK H PARENT 93 27 59 38 23 93
REMARK Flexibility Score: inf
ROOT
ATOM      1  O   UNL A   1      34.079  32.845  30.927  1.00  0.00    -0.377 OA
ENDROOT
BRANCH   1   2
ATOM      2  C   UNL A   1      34.931  33.164  32.025  1.00  0.00     0.188 C 
BRANCH   2   3
ATOM      3  C   UNL A   1      36.306  33.728  31.662  1.00  0.00     0.188 C 
BRANCH   3   4
ATOM      4  O   UNL A   1      36.728  34.744  32.567  1.00  0.00    -0.376 OA
BRANCH   4   5
ATOM      5  C   UNL A   1      37.521  34.350  33.684  1.00  0.00     0.202 C 
BRANCH   5   6
ATOM      6  C   UNL A   1      36.751  33.840  34.902  1.00  0.00     0.261 C 
BRANCH   6   7
ATOM      7  O   UNL A   1      36.880  32.430  35.124  1.00  0.00    -0.460 OA
BRANCH   7   8
ATOM      8  C   UNL A   1      37.810  31.765  35.853  1.00  0.00     0.338 C 
ATOM      9  O   UNL A   1      37.618  31.656  37.065  1.00  0.00    -0.246 OA
BRANCH   8  10
ATOM     10  C   UNL A   1      39.062  31.168  35.295  1.00  0.00     0.060 A 
ATOM     11  C   UNL A   1      40.328  31.231  35.875  1.00  0.00     0.016 A 
ATOM     12  C   UNL A   1      38.922  30.408  34.122  1.00  0.00     0.016 A 
ATOM     13  C   UNL A   1      41.434  30.630  35.301  1.00  0.00     0.010 A 
ATOM     14  C   UNL A   1      40.026  29.788  33.532  1.00  0.00     0.010 A 
ATOM     15  C   UNL A   1      41.291  29.938  34.110  1.00  0.00    -0.014 A 
BRANCH  15  16
ATOM     16  C   UNL A   1      42.521  29.621  33.375  1.00  0.00     0.031 A 
ATOM     17  C   UNL A   1      43.042  30.675  32.448  1.00  0.00     0.074 A 
ATOM     18  C   UNL A   1      43.215  28.508  33.665  1.00  0.00     0.049 A 
ATOM     19  N   UNL A   1      44.029  30.622  31.603  1.00  0.00    -0.248 NA
ATOM     20  C   UNL A   1      42.350  31.979  32.488  1.00  0.00     0.031 C 
ATOM     21  C   UNL A   1      42.854  27.532  34.698  1.00  0.00     0.029 A 
ATOM     22  N   UNL A   1      44.377  28.023  33.137  1.00  0.00    -0.354 N 
ATOM     23  C   UNL A   1      44.044  31.860  30.974  1.00  0.00     0.074 A 
ATOM     24  C   UNL A   1      42.972  32.648  31.533  1.00  0.00     0.031 C 
ATOM     25  C   UNL A   1      43.780  26.560  34.722  1.00  0.00     0.029 A 
ATOM     26  C   UNL A   1      44.743  26.804  33.655  1.00  0.00     0.049 A 
ATOM     27  H   UNL A   1      44.900  28.498  32.452  1.00  0.00     0.167 HD
ATOM     28  C   UNL A   1      44.881  32.282  30.000  1.00  0.00     0.037 A 
ATOM     29  C   UNL A   1      45.717  25.965  33.257  1.00  0.00     0.037 A 
ATOM     30  C   UNL A   1      45.935  31.451  29.487  1.00  0.00     0.049 A 
ATOM     31  C   UNL A   1      46.568  26.402  32.095  1.00  0.00     0.074 A 
ATOM     32  C   UNL A   1      46.817  31.705  28.458  1.00  0.00     0.029 A 
ATOM     33  N   UNL A   1      46.239  30.186  29.982  1.00  0.00    -0.354 N 
ATOM     34  N   UNL A   1      46.522  27.531  31.421  1.00  0.00    -0.248 NA
ATOM     35  C   UNL A   1      47.587  25.460  31.625  1.00  0.00     0.031 C 
ATOM     36  C   UNL A   1      47.619  30.570  28.294  1.00  0.00     0.029 A 
ATOM     37  C   UNL A   1      47.284  29.636  29.267  1.00  0.00     0.049 A 
ATOM     38  H   UNL A   1      45.777  29.747  30.732  1.00  0.00     0.167 HD
ATOM     39  C   UNL A   1      47.522  27.448  30.462  1.00  0.00     0.074 A 
ATOM     40  C   UNL A   1      48.161  26.157  30.652  1.00  0.00     0.031 C 
ATOM     41  C   UNL A   1      47.888  28.347  29.515  1.00  0.00     0.037 A 
BRANCH  28  42
ATOM     42  C   UNL A   1      44.606  33.628  29.392  1.00  0.00     0.058 A 
ATOM     43  C   UNL A   1      44.959  34.830  30.028  1.00  0.00     0.135 A 
ATOM     44  C   UNL A   1      43.913  33.715  28.174  1.00  0.00     0.135 A 
ATOM     45  F   UNL A   1      45.586  34.810  31.216  1.00  0.00    -0.206 F 
ATOM     46  C   UNL A   1      44.600  36.067  29.498  1.00  0.00     0.059 A 
ATOM     47  C   UNL A   1      43.571  34.940  27.610  1.00  0.00     0.059 A 
ATOM     48  F   UNL A   1      43.531  32.600  27.532  1.00  0.00    -0.206 F 
ATOM     49  C   UNL A   1      43.902  36.111  28.289  1.00  0.00     0.060 A 
BRANCH  49  50
ATOM     50  S   UNL A   1      43.425  37.720  27.625  1.00  0.00     0.124 S 
ATOM     51  O   UNL A   1      44.628  38.102  26.890  1.00  0.00    -0.237 OA
ATOM     52  O   UNL A   1      42.263  37.387  26.807  1.00  0.00    -0.237 OA
ATOM     53  O   UNL A   1      43.141  38.511  28.818  1.00  0.00    -0.744 OA
ENDBRANCH  49  50
ENDBRANCH  28  42
BRANCH  29  54
ATOM     54  C   UNL A   1      45.879  24.638  33.911  1.00  0.00     0.058 A 
ATOM     55  C   UNL A   1      46.852  24.420  34.897  1.00  0.00     0.135 A 
ATOM     56  C   UNL A   1      45.036  23.561  33.583  1.00  0.00     0.135 A 
ATOM     57  F   UNL A   1      47.687  25.411  35.246  1.00  0.00    -0.206 F 
ATOM     58  C   UNL A   1      46.990  23.185  35.527  1.00  0.00     0.059 A 
ATOM     59  C   UNL A   1      45.135  22.327  34.218  1.00  0.00     0.059 A 
ATOM     60  F   UNL A   1      44.080  23.713  32.653  1.00  0.00    -0.206 F 
ATOM     61  C   UNL A   1      46.122  22.145  35.184  1.00  0.00     0.060 A 
BRANCH  61  62
ATOM     62  S   UNL A   1      46.281  20.564  36.040  1.00  0.00     0.124 S 
ATOM     63  O   UNL A   1      45.468  19.691  35.201  1.00  0.00    -0.237 OA
ATOM     64  O   UNL A   1      47.723  20.335  35.993  1.00  0.00    -0.237 OA
ATOM     65  O   UNL A   1      45.742  20.842  37.368  1.00  0.00    -0.744 OA
ENDBRANCH  61  62
ENDBRANCH  29  54
BRANCH  41  66
ATOM     66  C   UNL A   1      49.062  27.986  28.654  1.00  0.00     0.058 A 
ATOM     67  C   UNL A   1      48.903  27.344  27.418  1.00  0.00     0.135 A 
ATOM     68  C   UNL A   1      50.355  28.372  29.042  1.00  0.00     0.135 A 
ATOM     69  F   UNL A   1      47.686  26.952  27.009  1.00  0.00    -0.206 F 
ATOM     70  C   UNL A   1      49.994  27.081  26.598  1.00  0.00     0.059 A 
ATOM     71  C   UNL A   1      51.453  28.149  28.223  1.00  0.00     0.059 A 
ATOM     72  F   UNL A   1      50.552  29.001  30.212  1.00  0.00    -0.206 F 
ATOM     73  C   UNL A   1      51.264  27.495  27.007  1.00  0.00     0.060 A 
BRANCH  73  74
ATOM     74  S   UNL A   1      52.661  27.200  25.908  1.00  0.00     0.124 S 
ATOM     75  O   UNL A   1      53.598  26.527  26.801  1.00  0.00    -0.237 OA
ATOM     76  O   UNL A   1      52.067  26.369  24.867  1.00  0.00    -0.237 OA
ATOM     77  O   UNL A   1      53.050  28.542  25.484  1.00  0.00    -0.744 OA
ENDBRANCH  73  74
ENDBRANCH  41  66
ENDBRANCH  15  16
ENDBRANCH   8  10
ENDBRANCH   7   8
ENDBRANCH   6   7
ENDBRANCH   5   6
ENDBRANCH   4   5
ENDBRANCH   3   4
ENDBRANCH   2   3
ENDBRANCH   1   2
BRANCH   1  78
ATOM     78  C   UNL A   1      34.476  33.343  29.652  1.00  0.00     0.188 C 
BRANCH  78  79
ATOM     79  C   UNL A   1      34.885  32.336  28.547  1.00  0.00     0.188 C 
BRANCH  79  80
ATOM     80  O   UNL A   1      33.919  31.333  28.293  1.00  0.00    -0.376 OA
BRANCH  80  81
ATOM     81  C   UNL A   1      34.193  30.453  27.210  1.00  0.00     0.202 C 
BRANCH  81  82
ATOM     82  C   UNL A   1      33.788  28.971  27.348  1.00  0.00     0.261 C 
BRANCH  82  83
ATOM     83  O   UNL A   1      33.256  28.327  26.174  1.00  0.00    -0.460 OA
BRANCH  83  84
ATOM     84  C   UNL A   1      32.546  27.187  26.324  1.00  0.00     0.338 C 
ATOM     85  O   UNL A   1      31.531  27.033  26.981  1.00  0.00    -0.246 OA
BRANCH  84  86
ATOM     86  C   UNL A   1      33.076  26.198  25.354  1.00  0.00     0.062 A 
ATOM     87  C   UNL A   1      32.918  26.450  23.984  1.00  0.00     0.016 A 
ATOM     88  C   UNL A   1      33.820  25.091  25.783  1.00  0.00     0.041 A 
ATOM     89  C   UNL A   1      33.556  25.636  23.052  1.00  0.00     0.003 A 
ATOM     90  C   UNL A   1      34.361  24.198  24.846  1.00  0.00     0.039 A 
ATOM     91  C   UNL A   1      34.264  24.515  23.483  1.00  0.00     0.026 A 
BRANCH  90  92
ATOM     92  N   UNL A   1      34.970  23.004  25.298  1.00  0.00    -0.355 N 
ATOM     93  H   UNL A   1      35.836  23.087  25.759  1.00  0.00     0.167 HD
BRANCH  92  94
ATOM     94  C   UNL A   1      34.445  21.707  25.144  1.00  0.00     0.039 A 
ATOM     95  C   UNL A   1      33.056  21.531  25.089  1.00  0.00     0.033 A 
ATOM     96  C   UNL A   1      35.282  20.602  24.950  1.00  0.00     0.033 A 
ATOM     97  C   UNL A   1      32.504  20.271  24.843  1.00  0.00     0.088 A 
ATOM     98  C   UNL A   1      34.744  19.334  24.709  1.00  0.00     0.088 A 
ATOM     99  C   UNL A   1      33.353  19.175  24.655  1.00  0.00     0.269 A 
BRANCH  99 100
ATOM    100  N   UNL A   1      32.780  17.849  24.393  1.00  0.00     0.062 N 
ATOM    101  O   UNL A   1      31.907  17.433  25.168  1.00  0.00    -0.258 OA
ATOM    102  O   UNL A   1      33.203  17.219  23.413  1.00  0.00    -0.258 OA
ENDBRANCH  99 100
ENDBRANCH  92  94
ENDBRANCH  90  92
ENDBRANCH  84  86
ENDBRANCH  83  84
ENDBRANCH  82  83
ENDBRANCH  81  82
ENDBRANCH  80  81
ENDBRANCH  79  80
ENDBRANCH  78  79
ENDBRANCH   1  78
TORSDOF 26
ENDMDL
