MODEL 1
REMARK VINA RESULT:     -10.3      0.000      0.000
REMARK SMILES O=C(/C=C/c1ccccc1Oc1cccc(Cl)c1)OCCOCCOCCOCCOC(=O)c1ccc(-c2c3nc(c(-c4c(F)cc(S(=O)(=O)[O-])cc4F)c4ccc([nH]4)c(-c4c(F)cc(S(=O)(=O)[O-])cc4F)c4nc(c(-c5c(F)cc(S(=O)(=O)[O-])cc5F)c5ccc2[nH]5)C=C4)C=C3)cc1
REMARK SMILES IDX 25 1 24 2 23 3 22 4 21 5 20 6 19 7 2 8 1 9 3 10 4 11 5 12
REMARK SMILES IDX 6 13 10 14 7 15 9 16 8 17 11 18 12 19 13 20 18 21 14 22
REMARK SMILES IDX 16 23 15 24 17 25 26 26 27 27 28 28 29 29 30 30 31 31 32 32
REMARK SMILES IDX 33 33 34 34 35 35 99 36 36 37 98 38 37 39 38 40 39 41 92 42
REMARK SMILES IDX 40 43 97 44 91 45 93 46 41 47 96 48 90 49 89 50 42 52 76 53
REMARK SMILES IDX 55 54 75 55 56 56 59 57 74 58 94 59 57 60 58 61 73 63 95 64
REMARK SMILES IDX 60 65 43 66 44 67 53 68 45 69 46 70 52 71 54 72 47 73 48 74
REMARK SMILES IDX 49 75 50 76 51 77 77 78 78 79 87 80 79 81 80 82 86 83 88 84
REMARK SMILES IDX 81 85 82 86 83 87 84 88 85 89 61 90 62 91 71 92 63 93 64 94
REMARK SMILES IDX 70 95 72 96 65 97 66 98 67 99 68 100 69 101
REMARK H PARENT 93 51 59 62
REMARK Flexibility Score: inf
ROOT
ATOM      1  O   UNL A   1      31.357  29.837  24.176  1.00  0.00    -0.377 OA
ENDROOT
BRANCH   1   2
ATOM      2  C   UNL A   1      29.978  29.937  23.855  1.00  0.00     0.188 C 
BRANCH   2   3
ATOM      3  C   UNL A   1      29.481  28.887  22.870  1.00  0.00     0.188 C 
BRANCH   3   4
ATOM      4  O   UNL A   1      29.183  27.537  23.236  1.00  0.00    -0.376 OA
BRANCH   4   5
ATOM      5  C   UNL A   1      30.084  26.553  23.712  1.00  0.00     0.202 C 
BRANCH   5   6
ATOM      6  C   UNL A   1      30.019  25.970  25.124  1.00  0.00     0.261 C 
BRANCH   6   7
ATOM      7  O   UNL A   1      30.035  24.554  25.245  1.00  0.00    -0.460 OA
BRANCH   7   8
ATOM      8  C   UNL A   1      30.948  23.861  25.947  1.00  0.00     0.330 C 
ATOM      9  O   UNL A   1      31.512  24.398  26.897  1.00  0.00    -0.247 OA
BRANCH   8  10
ATOM     10  C   UNL A   1      31.466  22.578  25.432  1.00  0.00     0.094 C 
ATOM     11  C   UNL A   1      32.053  22.212  24.285  1.00  0.00     0.019 C 
BRANCH  11  12
ATOM     12  C   UNL A   1      32.666  20.872  24.181  1.00  0.00     0.017 A 
ATOM     13  C   UNL A   1      32.140  20.055  23.155  1.00  0.00     0.012 A 
ATOM     14  C   UNL A   1      33.689  20.344  24.991  1.00  0.00     0.134 A 
ATOM     15  C   UNL A   1      32.573  18.742  22.960  1.00  0.00     0.001 A 
ATOM     16  C   UNL A   1      34.100  19.011  24.798  1.00  0.00     0.048 A 
ATOM     17  C   UNL A   1      33.546  18.214  23.794  1.00  0.00     0.004 A 
BRANCH  14  18
ATOM     18  O   UNL A   1      34.295  20.936  26.086  1.00  0.00    -0.457 OA
BRANCH  18  19
ATOM     19  C   UNL A   1      35.306  21.840  25.886  1.00  0.00     0.128 A 
ATOM     20  C   UNL A   1      35.052  23.206  25.723  1.00  0.00     0.047 A 
ATOM     21  C   UNL A   1      36.609  21.346  25.824  1.00  0.00     0.067 A 
ATOM     22  C   UNL A   1      36.126  24.092  25.582  1.00  0.00     0.005 A 
ATOM     23  C   UNL A   1      37.673  22.236  25.707  1.00  0.00     0.044 A 
ATOM     24  C   UNL A   1      37.437  23.606  25.587  1.00  0.00     0.021 A 
ATOM     25  Cl  UNL A   1      39.284  21.642  25.815  1.00  0.00    -0.084 Cl
ENDBRANCH  18  19
ENDBRANCH  14  18
ENDBRANCH  11  12
ENDBRANCH   8  10
ENDBRANCH   7   8
ENDBRANCH   6   7
ENDBRANCH   5   6
ENDBRANCH   4   5
ENDBRANCH   3   4
ENDBRANCH   2   3
ENDBRANCH   1   2
BRANCH   1  26
ATOM     26  C   UNL A   1      31.588  29.457  25.522  1.00  0.00     0.188 C 
BRANCH  26  27
ATOM     27  C   UNL A   1      32.924  29.987  26.084  1.00  0.00     0.188 C 
BRANCH  27  28
ATOM     28  O   UNL A   1      32.760  30.804  27.228  1.00  0.00    -0.376 OA
BRANCH  28  29
ATOM     29  C   UNL A   1      33.904  31.297  27.902  1.00  0.00     0.202 C 
BRANCH  29  30
ATOM     30  C   UNL A   1      35.315  30.733  27.655  1.00  0.00     0.261 C 
BRANCH  30  31
ATOM     31  O   UNL A   1      35.741  29.590  28.406  1.00  0.00    -0.460 OA
BRANCH  31  32
ATOM     32  C   UNL A   1      36.346  29.737  29.605  1.00  0.00     0.338 C 
ATOM     33  O   UNL A   1      35.805  29.828  30.692  1.00  0.00    -0.246 OA
BRANCH  32  34
ATOM     34  C   UNL A   1      37.793  29.466  29.361  1.00  0.00     0.060 A 
ATOM     35  C   UNL A   1      38.270  29.423  28.038  1.00  0.00     0.016 A 
ATOM     36  C   UNL A   1      38.698  29.454  30.429  1.00  0.00     0.016 A 
ATOM     37  C   UNL A   1      39.645  29.348  27.786  1.00  0.00     0.010 A 
ATOM     38  C   UNL A   1      40.066  29.344  30.178  1.00  0.00     0.010 A 
ATOM     39  C   UNL A   1      40.542  29.251  28.858  1.00  0.00    -0.014 A 
BRANCH  39  40
ATOM     40  C   UNL A   1      41.898  28.687  28.649  1.00  0.00     0.031 A 
ATOM     41  C   UNL A   1      43.026  29.681  28.609  1.00  0.00     0.074 A 
ATOM     42  C   UNL A   1      42.126  27.383  28.421  1.00  0.00     0.049 A 
ATOM     43  N   UNL A   1      44.274  29.517  28.264  1.00  0.00    -0.248 NA
ATOM     44  C   UNL A   1      42.682  31.063  28.989  1.00  0.00     0.031 C 
ATOM     45  C   UNL A   1      41.123  26.322  28.462  1.00  0.00     0.029 A 
ATOM     46  N   UNL A   1      43.287  26.738  28.066  1.00  0.00    -0.354 N 
ATOM     47  C   UNL A   1      44.853  30.777  28.359  1.00  0.00     0.074 A 
ATOM     48  C   UNL A   1      43.822  31.696  28.779  1.00  0.00     0.031 C 
ATOM     49  C   UNL A   1      41.704  25.162  28.105  1.00  0.00     0.029 A 
ATOM     50  C   UNL A   1      43.108  25.408  27.768  1.00  0.00     0.049 A 
ATOM     51  H   UNL A   1      44.163  27.187  28.030  1.00  0.00     0.167 HD
ATOM     52  C   UNL A   1      46.130  31.141  28.107  1.00  0.00     0.037 A 
ATOM     53  C   UNL A   1      43.968  24.512  27.241  1.00  0.00     0.037 A 
ATOM     54  C   UNL A   1      47.143  30.227  27.662  1.00  0.00     0.049 A 
ATOM     55  C   UNL A   1      45.379  24.939  26.918  1.00  0.00     0.074 A 
ATOM     56  C   UNL A   1      48.474  30.482  27.396  1.00  0.00     0.029 A 
ATOM     57  N   UNL A   1      46.926  28.883  27.396  1.00  0.00    -0.354 N 
ATOM     58  N   UNL A   1      45.931  26.124  27.047  1.00  0.00    -0.248 NA
ATOM     59  C   UNL A   1      46.285  23.914  26.378  1.00  0.00     0.031 C 
ATOM     60  C   UNL A   1      49.052  29.302  26.917  1.00  0.00     0.029 A 
ATOM     61  C   UNL A   1      48.095  28.298  26.944  1.00  0.00     0.049 A 
ATOM     62  H   UNL A   1      46.067  28.415  27.511  1.00  0.00     0.167 HD
ATOM     63  C   UNL A   1      47.252  25.980  26.630  1.00  0.00     0.074 A 
ATOM     64  C   UNL A   1      47.416  24.594  26.244  1.00  0.00     0.031 C 
ATOM     65  C   UNL A   1      48.240  26.910  26.578  1.00  0.00     0.037 A 
BRANCH  52  66
ATOM     66  C   UNL A   1      46.461  32.599  28.250  1.00  0.00     0.058 A 
ATOM     67  C   UNL A   1      46.302  33.506  27.189  1.00  0.00     0.135 A 
ATOM     68  C   UNL A   1      46.997  33.085  29.453  1.00  0.00     0.135 A 
ATOM     69  F   UNL A   1      45.823  33.086  26.006  1.00  0.00    -0.206 F 
ATOM     70  C   UNL A   1      46.708  34.831  27.300  1.00  0.00     0.059 A 
ATOM     71  C   UNL A   1      47.379  34.415  29.596  1.00  0.00     0.059 A 
ATOM     72  F   UNL A   1      47.180  32.259  30.495  1.00  0.00    -0.206 F 
ATOM     73  C   UNL A   1      47.254  35.273  28.506  1.00  0.00     0.060 A 
BRANCH  73  74
ATOM     74  S   UNL A   1      47.812  36.985  28.624  1.00  0.00     0.124 S 
ATOM     75  O   UNL A   1      47.129  37.429  29.835  1.00  0.00    -0.237 OA
ATOM     76  O   UNL A   1      49.259  36.835  28.733  1.00  0.00    -0.237 OA
ATOM     77  O   UNL A   1      47.338  37.583  27.380  1.00  0.00    -0.744 OA
ENDBRANCH  73  74
ENDBRANCH  52  66
BRANCH  53  78
ATOM     78  C   UNL A   1      43.502  23.125  26.962  1.00  0.00     0.058 A 
ATOM     79  C   UNL A   1      43.331  22.664  25.649  1.00  0.00     0.135 A 
ATOM     80  C   UNL A   1      43.264  22.218  28.008  1.00  0.00     0.135 A 
ATOM     81  F   UNL A   1      43.527  23.496  24.616  1.00  0.00    -0.206 F 
ATOM     82  C   UNL A   1      42.956  21.351  25.381  1.00  0.00     0.059 A 
ATOM     83  C   UNL A   1      42.909  20.895  27.765  1.00  0.00     0.059 A 
ATOM     84  F   UNL A   1      43.413  22.609  29.283  1.00  0.00    -0.206 F 
ATOM     85  C   UNL A   1      42.760  20.469  26.446  1.00  0.00     0.060 A 
BRANCH  85  86
ATOM     86  S   UNL A   1      42.377  18.742  26.079  1.00  0.00     0.124 S 
ATOM     87  O   UNL A   1      42.617  18.104  27.368  1.00  0.00    -0.237 OA
ATOM     88  O   UNL A   1      40.982  18.823  25.657  1.00  0.00    -0.237 OA
ATOM     89  O   UNL A   1      43.325  18.405  25.021  1.00  0.00    -0.744 OA
ENDBRANCH  85  86
ENDBRANCH  53  78
BRANCH  65  90
ATOM     90  C   UNL A   1      49.608  26.466  26.138  1.00  0.00     0.058 A 
ATOM     91  C   UNL A   1      50.094  26.729  24.849  1.00  0.00     0.135 A 
ATOM     92  C   UNL A   1      50.486  25.877  27.065  1.00  0.00     0.135 A 
ATOM     93  F   UNL A   1      49.295  27.287  23.926  1.00  0.00    -0.206 F 
ATOM     94  C   UNL A   1      51.403  26.419  24.491  1.00  0.00     0.059 A 
ATOM     95  C   UNL A   1      51.805  25.584  26.736  1.00  0.00     0.059 A 
ATOM     96  F   UNL A   1      50.073  25.618  28.315  1.00  0.00    -0.206 F 
ATOM     97  C   UNL A   1      52.254  25.856  25.445  1.00  0.00     0.060 A 
BRANCH  97  98
ATOM     98  S   UNL A   1      53.970  25.529  24.991  1.00  0.00     0.124 S 
ATOM     99  O   UNL A   1      54.015  26.033  23.623  1.00  0.00    -0.237 OA
ATOM    100  O   UNL A   1      54.709  26.309  25.980  1.00  0.00    -0.237 OA
ATOM    101  O   UNL A   1      54.089  24.080  25.130  1.00  0.00    -0.744 OA
ENDBRANCH  97  98
ENDBRANCH  65  90
ENDBRANCH  39  40
ENDBRANCH  32  34
ENDBRANCH  31  32
ENDBRANCH  30  31
ENDBRANCH  29  30
ENDBRANCH  28  29
ENDBRANCH  27  28
ENDBRANCH  26  27
ENDBRANCH   1  26
TORSDOF 26
ENDMDL
MODEL 2
REMARK VINA RESULT:     -10.0      1.099      2.454
REMARK SMILES O=C(/C=C/c1ccccc1Oc1cccc(Cl)c1)OCCOCCOCCOCCOC(=O)c1ccc(-c2c3nc(c(-c4c(F)cc(S(=O)(=O)[O-])cc4F)c4ccc([nH]4)c(-c4c(F)cc(S(=O)(=O)[O-])cc4F)c4nc(c(-c5c(F)cc(S(=O)(=O)[O-])cc5F)c5ccc2[nH]5)C=C4)C=C3)cc1
REMARK SMILES IDX 25 1 24 2 23 3 22 4 21 5 20 6 19 7 2 8 1 9 3 10 4 11 5 12
REMARK SMILES IDX 6 13 10 14 7 15 9 16 8 17 11 18 12 19 13 20 18 21 14 22
REMARK SMILES IDX 16 23 15 24 17 25 26 26 27 27 28 28 29 29 30 30 31 31 32 32
REMARK SMILES IDX 33 33 34 34 35 35 99 36 36 37 98 38 37 39 38 40 39 41 92 42
REMARK SMILES IDX 40 43 97 44 91 45 93 46 41 47 96 48 90 49 89 50 42 52 76 53
REMARK SMILES IDX 55 54 75 55 56 56 59 57 74 58 94 59 57 60 58 61 73 63 95 64
REMARK SMILES IDX 60 65 43 66 44 67 53 68 45 69 46 70 52 71 54 72 47 73 48 74
REMARK SMILES IDX 49 75 50 76 51 77 77 78 78 79 87 80 79 81 80 82 86 83 88 84
REMARK SMILES IDX 81 85 82 86 83 87 84 88 85 89 61 90 62 91 71 92 63 93 64 94
REMARK SMILES IDX 70 95 72 96 65 97 66 98 67 99 68 100 69 101
REMARK H PARENT 93 51 59 62
REMARK Flexibility Score: inf
ROOT
ATOM      1  O   UNL A   1      31.570  29.299  24.145  1.00  0.00    -0.377 OA
ENDROOT
BRANCH   1   2
ATOM      2  C   UNL A   1      30.320  29.246  23.475  1.00  0.00     0.188 C 
BRANCH   2   3
ATOM      3  C   UNL A   1      30.002  27.899  22.840  1.00  0.00     0.188 C 
BRANCH   3   4
ATOM      4  O   UNL A   1      30.947  26.829  22.736  1.00  0.00    -0.376 OA
BRANCH   4   5
ATOM      5  C   UNL A   1      31.724  26.262  23.775  1.00  0.00     0.202 C 
BRANCH   5   6
ATOM      6  C   UNL A   1      31.189  25.205  24.742  1.00  0.00     0.261 C 
BRANCH   6   7
ATOM      7  O   UNL A   1      31.949  24.950  25.915  1.00  0.00    -0.460 OA
BRANCH   7   8
ATOM      8  C   UNL A   1      33.185  25.428  26.139  1.00  0.00     0.330 C 
ATOM      9  O   UNL A   1      33.349  26.639  26.266  1.00  0.00    -0.247 OA
BRANCH   8  10
ATOM     10  C   UNL A   1      34.363  24.554  25.972  1.00  0.00     0.094 C 
ATOM     11  C   UNL A   1      35.450  24.607  25.191  1.00  0.00     0.019 C 
BRANCH  11  12
ATOM     12  C   UNL A   1      36.567  23.675  25.441  1.00  0.00     0.017 A 
ATOM     13  C   UNL A   1      37.523  24.128  26.378  1.00  0.00     0.012 A 
ATOM     14  C   UNL A   1      36.769  22.415  24.845  1.00  0.00     0.134 A 
ATOM     15  C   UNL A   1      38.666  23.390  26.686  1.00  0.00     0.001 A 
ATOM     16  C   UNL A   1      37.938  21.692  25.147  1.00  0.00     0.048 A 
ATOM     17  C   UNL A   1      38.882  22.173  26.056  1.00  0.00     0.004 A 
BRANCH  14  18
ATOM     18  O   UNL A   1      36.005  21.810  23.861  1.00  0.00    -0.457 OA
BRANCH  18  19
ATOM     19  C   UNL A   1      34.702  21.481  24.131  1.00  0.00     0.128 A 
ATOM     20  C   UNL A   1      33.633  22.232  23.631  1.00  0.00     0.047 A 
ATOM     21  C   UNL A   1      34.474  20.376  24.953  1.00  0.00     0.067 A 
ATOM     22  C   UNL A   1      32.322  21.815  23.887  1.00  0.00     0.005 A 
ATOM     23  C   UNL A   1      33.167  19.956  25.184  1.00  0.00     0.044 A 
ATOM     24  C   UNL A   1      32.091  20.669  24.655  1.00  0.00     0.021 A 
ATOM     25  Cl  UNL A   1      32.894  18.490  26.043  1.00  0.00    -0.084 Cl
ENDBRANCH  18  19
ENDBRANCH  14  18
ENDBRANCH  11  12
ENDBRANCH   8  10
ENDBRANCH   7   8
ENDBRANCH   6   7
ENDBRANCH   5   6
ENDBRANCH   4   5
ENDBRANCH   3   4
ENDBRANCH   2   3
ENDBRANCH   1   2
BRANCH   1  26
ATOM     26  C   UNL A   1      31.477  29.843  25.451  1.00  0.00     0.188 C 
BRANCH  26  27
ATOM     27  C   UNL A   1      32.853  30.117  26.096  1.00  0.00     0.188 C 
BRANCH  27  28
ATOM     28  O   UNL A   1      32.791  31.045  27.163  1.00  0.00    -0.376 OA
BRANCH  28  29
ATOM     29  C   UNL A   1      33.986  31.453  27.803  1.00  0.00     0.202 C 
BRANCH  29  30
ATOM     30  C   UNL A   1      35.321  30.709  27.610  1.00  0.00     0.261 C 
BRANCH  30  31
ATOM     31  O   UNL A   1      35.768  29.817  28.639  1.00  0.00    -0.460 OA
BRANCH  31  32
ATOM     32  C   UNL A   1      36.443  30.284  29.712  1.00  0.00     0.338 C 
ATOM     33  O   UNL A   1      35.969  30.662  30.768  1.00  0.00    -0.246 OA
BRANCH  32  34
ATOM     34  C   UNL A   1      37.877  29.962  29.455  1.00  0.00     0.060 A 
ATOM     35  C   UNL A   1      38.328  29.851  28.127  1.00  0.00     0.016 A 
ATOM     36  C   UNL A   1      38.801  29.968  30.507  1.00  0.00     0.016 A 
ATOM     37  C   UNL A   1      39.696  29.726  27.854  1.00  0.00     0.010 A 
ATOM     38  C   UNL A   1      40.161  29.809  30.237  1.00  0.00     0.010 A 
ATOM     39  C   UNL A   1      40.609  29.648  28.914  1.00  0.00    -0.014 A 
BRANCH  39  40
ATOM     40  C   UNL A   1      41.945  29.038  28.706  1.00  0.00     0.031 A 
ATOM     41  C   UNL A   1      43.107  29.993  28.662  1.00  0.00     0.074 A 
ATOM     42  C   UNL A   1      42.128  27.726  28.481  1.00  0.00     0.049 A 
ATOM     43  N   UNL A   1      44.348  29.785  28.316  1.00  0.00    -0.248 NA
ATOM     44  C   UNL A   1      42.810  31.387  29.038  1.00  0.00     0.031 C 
ATOM     45  C   UNL A   1      41.090  26.700  28.526  1.00  0.00     0.029 A 
ATOM     46  N   UNL A   1      43.267  27.041  28.127  1.00  0.00    -0.354 N 
ATOM     47  C   UNL A   1      44.969  31.025  28.406  1.00  0.00     0.074 A 
ATOM     48  C   UNL A   1      43.971  31.980  28.826  1.00  0.00     0.031 C 
ATOM     49  C   UNL A   1      41.631  25.520  28.171  1.00  0.00     0.029 A 
ATOM     50  C   UNL A   1      43.042  25.717  27.832  1.00  0.00     0.049 A 
ATOM     51  H   UNL A   1      44.157  27.460  28.089  1.00  0.00     0.167 HD
ATOM     52  C   UNL A   1      46.258  31.345  28.152  1.00  0.00     0.037 A 
ATOM     53  C   UNL A   1      43.870  24.790  27.307  1.00  0.00     0.037 A 
ATOM     54  C   UNL A   1      47.238  30.395  27.709  1.00  0.00     0.049 A 
ATOM     55  C   UNL A   1      45.295  25.168  26.982  1.00  0.00     0.074 A 
ATOM     56  C   UNL A   1      48.578  30.604  27.441  1.00  0.00     0.029 A 
ATOM     57  N   UNL A   1      46.975  29.059  27.447  1.00  0.00    -0.354 N 
ATOM     58  N   UNL A   1      45.887  26.334  27.106  1.00  0.00    -0.248 NA
ATOM     59  C   UNL A   1      46.164  24.112  26.444  1.00  0.00     0.031 C 
ATOM     60  C   UNL A   1      49.114  29.404  26.965  1.00  0.00     0.029 A 
ATOM     61  C   UNL A   1      48.123  28.433  26.996  1.00  0.00     0.049 A 
ATOM     62  H   UNL A   1      46.102  28.620  27.565  1.00  0.00     0.167 HD
ATOM     63  C   UNL A   1      47.202  26.144  26.689  1.00  0.00     0.074 A 
ATOM     64  C   UNL A   1      47.318  24.752  26.307  1.00  0.00     0.031 C 
ATOM     65  C   UNL A   1      48.221  27.039  26.634  1.00  0.00     0.037 A 
BRANCH  52  66
ATOM     66  C   UNL A   1      46.639  32.791  28.291  1.00  0.00     0.058 A 
ATOM     67  C   UNL A   1      47.126  33.319  29.499  1.00  0.00     0.135 A 
ATOM     68  C   UNL A   1      46.462  33.673  27.214  1.00  0.00     0.135 A 
ATOM     69  F   UNL A   1      47.283  32.523  30.571  1.00  0.00    -0.206 F 
ATOM     70  C   UNL A   1      47.378  34.678  29.648  1.00  0.00     0.059 A 
ATOM     71  C   UNL A   1      46.740  35.031  27.331  1.00  0.00     0.059 A 
ATOM     72  F   UNL A   1      45.990  33.223  26.041  1.00  0.00    -0.206 F 
ATOM     73  C   UNL A   1      47.174  35.527  28.559  1.00  0.00     0.060 A 
BRANCH  73  74
ATOM     74  S   UNL A   1      47.468  37.294  28.776  1.00  0.00     0.124 S 
ATOM     75  O   UNL A   1      48.926  37.340  28.827  1.00  0.00    -0.237 OA
ATOM     76  O   UNL A   1      46.859  37.862  27.578  1.00  0.00    -0.237 OA
ATOM     77  O   UNL A   1      46.786  37.600  30.029  1.00  0.00    -0.744 OA
ENDBRANCH  73  74
ENDBRANCH  52  66
BRANCH  53  78
ATOM     78  C   UNL A   1      43.358  23.420  27.033  1.00  0.00     0.058 A 
ATOM     79  C   UNL A   1      42.958  23.035  25.745  1.00  0.00     0.135 A 
ATOM     80  C   UNL A   1      43.302  22.452  28.049  1.00  0.00     0.135 A 
ATOM     81  F   UNL A   1      42.974  23.928  24.744  1.00  0.00    -0.206 F 
ATOM     82  C   UNL A   1      42.536  21.738  25.469  1.00  0.00     0.059 A 
ATOM     83  C   UNL A   1      42.904  21.143  27.794  1.00  0.00     0.059 A 
ATOM     84  F   UNL A   1      43.673  22.768  29.300  1.00  0.00    -0.206 F 
ATOM     85  C   UNL A   1      42.525  20.793  26.499  1.00  0.00     0.060 A 
BRANCH  85  86
ATOM     86  S   UNL A   1      42.077  19.089  26.103  1.00  0.00     0.124 S 
ATOM     87  O   UNL A   1      42.982  18.793  24.999  1.00  0.00    -0.237 OA
ATOM     88  O   UNL A   1      42.357  18.402  27.360  1.00  0.00    -0.237 OA
ATOM     89  O   UNL A   1      40.663  19.187  25.752  1.00  0.00    -0.744 OA
ENDBRANCH  85  86
ENDBRANCH  53  78
BRANCH  65  90
ATOM     90  C   UNL A   1      49.573  26.549  26.193  1.00  0.00     0.058 A 
ATOM     91  C   UNL A   1      50.042  26.741  24.887  1.00  0.00     0.135 A 
ATOM     92  C   UNL A   1      50.454  25.985  27.133  1.00  0.00     0.135 A 
ATOM     93  F   UNL A   1      49.240  27.273  23.951  1.00  0.00    -0.206 F 
ATOM     94  C   UNL A   1      51.339  26.389  24.523  1.00  0.00     0.059 A 
ATOM     95  C   UNL A   1      51.762  25.650  26.798  1.00  0.00     0.059 A 
ATOM     96  F   UNL A   1      50.057  25.792  28.400  1.00  0.00    -0.206 F 
ATOM     97  C   UNL A   1      52.195  25.853  25.489  1.00  0.00     0.060 A 
BRANCH  97  98
ATOM     98  S   UNL A   1      53.896  25.470  25.025  1.00  0.00     0.124 S 
ATOM     99  O   UNL A   1      53.895  24.012  25.078  1.00  0.00    -0.237 OA
ATOM    100  O   UNL A   1      53.996  26.056  23.691  1.00  0.00    -0.237 OA
ATOM    101  O   UNL A   1      54.689  26.135  26.055  1.00  0.00    -0.744 OA
ENDBRANCH  97  98
ENDBRANCH  65  90
ENDBRANCH  39  40
ENDBRANCH  32  34
ENDBRANCH  31  32
ENDBRANCH  30  31
ENDBRANCH  29  30
ENDBRANCH  28  29
ENDBRANCH  27  28
ENDBRANCH  26  27
ENDBRANCH   1  26
TORSDOF 26
ENDMDL
MODEL 3
REMARK VINA RESULT:      -9.9      5.765     11.382
REMARK SMILES O=C(/C=C/c1ccccc1Oc1cccc(Cl)c1)OCCOCCOCCOCCOC(=O)c1ccc(-c2c3nc(c(-c4c(F)cc(S(=O)(=O)[O-])cc4F)c4ccc([nH]4)c(-c4c(F)cc(S(=O)(=O)[O-])cc4F)c4nc(c(-c5c(F)cc(S(=O)(=O)[O-])cc5F)c5ccc2[nH]5)C=C4)C=C3)cc1
REMARK SMILES IDX 25 1 24 2 23 3 22 4 21 5 20 6 19 7 2 8 1 9 3 10 4 11 5 12
REMARK SMILES IDX 6 13 10 14 7 15 9 16 8 17 11 18 12 19 13 20 18 21 14 22
REMARK SMILES IDX 16 23 15 24 17 25 26 26 27 27 28 28 29 29 30 30 31 31 32 32
REMARK SMILES IDX 33 33 34 34 35 35 99 36 36 37 98 38 37 39 38 40 39 41 92 42
REMARK SMILES IDX 40 43 97 44 91 45 93 46 41 47 96 48 90 49 89 50 42 52 76 53
REMARK SMILES IDX 55 54 75 55 56 56 59 57 74 58 94 59 57 60 58 61 73 63 95 64
REMARK SMILES IDX 60 65 43 66 44 67 53 68 45 69 46 70 52 71 54 72 47 73 48 74
REMARK SMILES IDX 49 75 50 76 51 77 77 78 78 79 87 80 79 81 80 82 86 83 88 84
REMARK SMILES IDX 81 85 82 86 83 87 84 88 85 89 61 90 62 91 71 92 63 93 64 94
REMARK SMILES IDX 70 95 72 96 65 97 66 98 67 99 68 100 69 101
REMARK H PARENT 93 51 59 62
REMARK Flexibility Score: inf
ROOT
ATOM      1  O   UNL A   1      34.224  21.294  26.460  1.00  0.00    -0.377 OA
ENDROOT
BRANCH   1   2
ATOM      2  C   UNL A   1      33.096  20.441  26.340  1.00  0.00     0.188 C 
BRANCH   2   3
ATOM      3  C   UNL A   1      33.055  19.626  25.054  1.00  0.00     0.188 C 
BRANCH   3   4
ATOM      4  O   UNL A   1      32.246  19.969  23.925  1.00  0.00    -0.376 OA
BRANCH   4   5
ATOM      5  C   UNL A   1      32.280  21.168  23.172  1.00  0.00     0.202 C 
BRANCH   5   6
ATOM      6  C   UNL A   1      31.414  22.386  23.494  1.00  0.00     0.261 C 
BRANCH   6   7
ATOM      7  O   UNL A   1      31.826  23.211  24.576  1.00  0.00    -0.460 OA
BRANCH   7   8
ATOM      8  C   UNL A   1      30.993  23.953  25.326  1.00  0.00     0.330 C 
ATOM      9  O   UNL A   1      30.398  23.429  26.264  1.00  0.00    -0.247 OA
BRANCH   8  10
ATOM     10  C   UNL A   1      30.589  25.300  24.878  1.00  0.00     0.094 C 
ATOM     11  C   UNL A   1      30.742  25.979  23.733  1.00  0.00     0.019 C 
BRANCH  11  12
ATOM     12  C   UNL A   1      30.005  27.243  23.537  1.00  0.00     0.017 A 
ATOM     13  C   UNL A   1      28.598  27.114  23.507  1.00  0.00     0.012 A 
ATOM     14  C   UNL A   1      30.557  28.528  23.374  1.00  0.00     0.134 A 
ATOM     15  C   UNL A   1      27.759  28.205  23.276  1.00  0.00     0.001 A 
ATOM     16  C   UNL A   1      29.700  29.616  23.119  1.00  0.00     0.048 A 
ATOM     17  C   UNL A   1      28.313  29.459  23.067  1.00  0.00     0.004 A 
BRANCH  14  18
ATOM     18  O   UNL A   1      31.895  28.874  23.302  1.00  0.00    -0.457 OA
BRANCH  18  19
ATOM     19  C   UNL A   1      32.670  28.793  24.430  1.00  0.00     0.128 A 
ATOM     20  C   UNL A   1      33.537  27.719  24.653  1.00  0.00     0.047 A 
ATOM     21  C   UNL A   1      32.546  29.816  25.372  1.00  0.00     0.067 A 
ATOM     22  C   UNL A   1      34.350  27.718  25.793  1.00  0.00     0.005 A 
ATOM     23  C   UNL A   1      33.374  29.818  26.490  1.00  0.00     0.044 A 
ATOM     24  C   UNL A   1      34.276  28.775  26.704  1.00  0.00     0.021 A 
ATOM     25  Cl  UNL A   1      33.349  31.171  27.553  1.00  0.00    -0.084 Cl
ENDBRANCH  18  19
ENDBRANCH  14  18
ENDBRANCH  11  12
ENDBRANCH   8  10
ENDBRANCH   7   8
ENDBRANCH   6   7
ENDBRANCH   5   6
ENDBRANCH   4   5
ENDBRANCH   3   4
ENDBRANCH   2   3
ENDBRANCH   1   2
BRANCH   1  26
ATOM     26  C   UNL A   1      35.230  21.023  25.499  1.00  0.00     0.188 C 
BRANCH  26  27
ATOM     27  C   UNL A   1      36.141  22.236  25.213  1.00  0.00     0.188 C 
BRANCH  27  28
ATOM     28  O   UNL A   1      37.309  21.893  24.489  1.00  0.00    -0.376 OA
BRANCH  28  29
ATOM     29  C   UNL A   1      38.224  20.964  25.042  1.00  0.00     0.202 C 
BRANCH  29  30
ATOM     30  C   UNL A   1      39.289  21.370  26.077  1.00  0.00     0.261 C 
BRANCH  30  31
ATOM     31  O   UNL A   1      39.625  22.757  26.212  1.00  0.00    -0.460 OA
BRANCH  31  32
ATOM     32  C   UNL A   1      40.911  23.146  26.350  1.00  0.00     0.338 C 
ATOM     33  O   UNL A   1      41.882  22.683  25.780  1.00  0.00    -0.246 OA
BRANCH  32  34
ATOM     34  C   UNL A   1      40.862  24.435  27.101  1.00  0.00     0.060 A 
ATOM     35  C   UNL A   1      41.773  25.455  26.774  1.00  0.00     0.016 A 
ATOM     36  C   UNL A   1      39.803  24.701  27.977  1.00  0.00     0.016 A 
ATOM     37  C   UNL A   1      41.637  26.730  27.336  1.00  0.00     0.010 A 
ATOM     38  C   UNL A   1      39.686  25.962  28.563  1.00  0.00     0.010 A 
ATOM     39  C   UNL A   1      40.625  26.969  28.276  1.00  0.00    -0.014 A 
BRANCH  39  40
ATOM     40  C   UNL A   1      40.744  28.097  29.231  1.00  0.00     0.031 A 
ATOM     41  C   UNL A   1      41.816  27.965  30.278  1.00  0.00     0.074 A 
ATOM     42  C   UNL A   1      39.905  29.146  29.239  1.00  0.00     0.049 A 
ATOM     43  N   UNL A   1      42.038  28.685  31.343  1.00  0.00    -0.248 NA
ATOM     44  C   UNL A   1      42.751  26.839  30.104  1.00  0.00     0.031 C 
ATOM     45  C   UNL A   1      38.849  29.401  28.263  1.00  0.00     0.029 A 
ATOM     46  N   UNL A   1      39.792  30.180  30.138  1.00  0.00    -0.354 N 
ATOM     47  C   UNL A   1      43.118  28.082  31.978  1.00  0.00     0.074 A 
ATOM     48  C   UNL A   1      43.497  26.934  31.189  1.00  0.00     0.031 C 
ATOM     49  C   UNL A   1      38.167  30.500  28.639  1.00  0.00     0.029 A 
ATOM     50  C   UNL A   1      38.712  30.997  29.904  1.00  0.00     0.049 A 
ATOM     51  H   UNL A   1      40.426  30.322  30.879  1.00  0.00     0.167 HD
ATOM     52  C   UNL A   1      43.734  28.445  33.125  1.00  0.00     0.037 A 
ATOM     53  C   UNL A   1      38.200  31.998  30.650  1.00  0.00     0.037 A 
ATOM     54  C   UNL A   1      43.334  29.572  33.918  1.00  0.00     0.049 A 
ATOM     55  C   UNL A   1      38.867  32.367  31.953  1.00  0.00     0.074 A 
ATOM     56  C   UNL A   1      43.899  30.045  35.087  1.00  0.00     0.029 A 
ATOM     57  N   UNL A   1      42.249  30.388  33.632  1.00  0.00    -0.354 N 
ATOM     58  N   UNL A   1      39.911  31.817  32.529  1.00  0.00    -0.248 NA
ATOM     59  C   UNL A   1      38.289  33.487  32.710  1.00  0.00     0.031 C 
ATOM     60  C   UNL A   1      43.123  31.118  35.538  1.00  0.00     0.029 A 
ATOM     61  C   UNL A   1      42.112  31.351  34.617  1.00  0.00     0.049 A 
ATOM     62  H   UNL A   1      41.664  30.297  32.846  1.00  0.00     0.167 HD
ATOM     63  C   UNL A   1      40.131  32.540  33.699  1.00  0.00     0.074 A 
ATOM     64  C   UNL A   1      39.110  33.566  33.750  1.00  0.00     0.031 C 
ATOM     65  C   UNL A   1      41.094  32.373  34.640  1.00  0.00     0.037 A 
BRANCH  52  66
ATOM     66  C   UNL A   1      44.857  27.568  33.600  1.00  0.00     0.058 A 
ATOM     67  C   UNL A   1      46.203  27.882  33.350  1.00  0.00     0.135 A 
ATOM     68  C   UNL A   1      44.577  26.367  34.271  1.00  0.00     0.135 A 
ATOM     69  F   UNL A   1      46.524  29.004  32.684  1.00  0.00    -0.206 F 
ATOM     70  C   UNL A   1      47.229  27.012  33.703  1.00  0.00     0.059 A 
ATOM     71  C   UNL A   1      45.590  25.498  34.663  1.00  0.00     0.059 A 
ATOM     72  F   UNL A   1      43.307  26.014  34.526  1.00  0.00    -0.206 F 
ATOM     73  C   UNL A   1      46.910  25.818  34.353  1.00  0.00     0.060 A 
BRANCH  73  74
ATOM     74  S   UNL A   1      48.247  24.681  34.772  1.00  0.00     0.124 S 
ATOM     75  O   UNL A   1      48.910  24.526  33.481  1.00  0.00    -0.237 OA
ATOM     76  O   UNL A   1      48.991  25.430  35.779  1.00  0.00    -0.237 OA
ATOM     77  O   UNL A   1      47.545  23.499  35.264  1.00  0.00    -0.744 OA
ENDBRANCH  73  74
ENDBRANCH  52  66
BRANCH  53  78
ATOM     78  C   UNL A   1      36.972  32.703  30.190  1.00  0.00     0.058 A 
ATOM     79  C   UNL A   1      35.695  32.266  30.570  1.00  0.00     0.135 A 
ATOM     80  C   UNL A   1      37.056  33.858  29.395  1.00  0.00     0.135 A 
ATOM     81  F   UNL A   1      35.560  31.157  31.311  1.00  0.00    -0.206 F 
ATOM     82  C   UNL A   1      34.546  32.955  30.193  1.00  0.00     0.059 A 
ATOM     83  C   UNL A   1      35.924  34.577  29.024  1.00  0.00     0.059 A 
ATOM     84  F   UNL A   1      38.254  34.319  29.004  1.00  0.00    -0.206 F 
ATOM     85  C   UNL A   1      34.671  34.119  29.431  1.00  0.00     0.060 A 
BRANCH  85  86
ATOM     86  S   UNL A   1      33.180  35.061  29.040  1.00  0.00     0.124 S 
ATOM     87  O   UNL A   1      32.593  35.249  30.361  1.00  0.00    -0.237 OA
ATOM     88  O   UNL A   1      33.732  36.257  28.411  1.00  0.00    -0.237 OA
ATOM     89  O   UNL A   1      32.447  34.171  28.143  1.00  0.00    -0.744 OA
ENDBRANCH  85  86
ENDBRANCH  53  78
BRANCH  65  90
ATOM     90  C   UNL A   1      41.138  33.344  35.789  1.00  0.00     0.058 A 
ATOM     91  C   UNL A   1      40.391  33.143  36.958  1.00  0.00     0.135 A 
ATOM     92  C   UNL A   1      42.036  34.425  35.759  1.00  0.00     0.135 A 
ATOM     93  F   UNL A   1      39.517  32.126  37.037  1.00  0.00    -0.206 F 
ATOM     94  C   UNL A   1      40.530  33.983  38.060  1.00  0.00     0.059 A 
ATOM     95  C   UNL A   1      42.209  35.260  36.858  1.00  0.00     0.059 A 
ATOM     96  F   UNL A   1      42.783  34.652  34.668  1.00  0.00    -0.206 F 
ATOM     97  C   UNL A   1      41.449  35.033  38.004  1.00  0.00     0.060 A 
BRANCH  97  98
ATOM     98  S   UNL A   1      41.674  36.069  39.464  1.00  0.00     0.124 S 
ATOM     99  O   UNL A   1      43.129  36.146  39.549  1.00  0.00    -0.237 OA
ATOM    100  O   UNL A   1      40.995  37.303  39.080  1.00  0.00    -0.237 OA
ATOM    101  O   UNL A   1      41.022  35.308  40.527  1.00  0.00    -0.744 OA
ENDBRANCH  97  98
ENDBRANCH  65  90
ENDBRANCH  39  40
ENDBRANCH  32  34
ENDBRANCH  31  32
ENDBRANCH  30  31
ENDBRANCH  29  30
ENDBRANCH  28  29
ENDBRANCH  27  28
ENDBRANCH  26  27
ENDBRANCH   1  26
TORSDOF 26
ENDMDL
