MODEL 1
REMARK VINA RESULT:      -7.7      0.000      0.000
REMARK SMILES CC1(C)CC[C@@]2(C(=O)OCCOCCOCCOCCOC(=O)c3ccc(-c4c5nc(c(-c6c(F)cc(S(=O)(=O)[O-])cc6F)c6ccc([nH]6)c(-c6c(F)cc(S(=O)(=O)[O-])cc6F)c6nc(c(-c7c(F)cc(S(=O)(=O)[O-])cc7F)c7ccc4[nH]7)C=C6)C=C5)cc3)CC[C@@]3(C)C(=CC[C@H]4[C@@]5(C)CC[C@H](O)C(C)(C)[C@@H]5CC[C@]43C)[C@@H]2C1
REMARK SMILES IDX 16 1 15 2 14 3 13 4 12 5 11 6 10 7 9 8 7 9 8 10 6 11 1 12
REMARK SMILES IDX 2 13 3 14 4 15 113 16 5 17 112 18 94 19 90 20 92 21 95 22
REMARK SMILES IDX 91 23 93 24 110 25 96 26 97 27 109 28 111 29 98 30 108 31
REMARK SMILES IDX 99 32 100 33 107 34 101 35 104 36 102 37 105 38 106 39
REMARK SMILES IDX 103 40 17 42 18 43 19 44 20 45 21 46 22 47 23 48 24 49 25 50
REMARK SMILES IDX 89 51 26 52 88 53 27 54 28 55 29 56 82 57 30 58 87 59 81 60
REMARK SMILES IDX 83 61 31 62 86 63 80 64 79 65 32 67 66 68 45 69 65 70 46 71
REMARK SMILES IDX 49 72 64 73 84 74 47 75 48 76 63 78 85 79 50 80 33 81 34 82
REMARK SMILES IDX 43 83 35 84 36 85 42 86 44 87 37 88 38 89 39 90 40 91 41 92
REMARK SMILES IDX 67 93 68 94 77 95 69 96 70 97 76 98 78 99 71 100 72 101
REMARK SMILES IDX 73 102 74 103 75 104 51 105 52 106 61 107 53 108 54 109
REMARK SMILES IDX 60 110 62 111 55 112 56 113 57 114 58 115 59 116
REMARK H PARENT 103 41 83 66 49 77
REMARK Flexibility Score: inf
ROOT
ATOM      1  C   UNL A   1      47.779  26.803  26.977  1.00  0.00     0.188 C 
ENDROOT
BRANCH   1   2
ATOM      2  O   UNL A   1      46.923  27.453  26.042  1.00  0.00    -0.377 OA
BRANCH   2   3
ATOM      3  C   UNL A   1      46.584  28.830  26.192  1.00  0.00     0.188 C 
BRANCH   3   4
ATOM      4  C   UNL A   1      46.432  29.394  27.605  1.00  0.00     0.188 C 
BRANCH   4   5
ATOM      5  O   UNL A   1      46.918  30.692  27.731  1.00  0.00    -0.376 OA
BRANCH   5   6
ATOM      6  C   UNL A   1      47.196  31.043  29.074  1.00  0.00     0.202 C 
BRANCH   6   7
ATOM      7  C   UNL A   1      46.429  32.270  29.517  1.00  0.00     0.261 C 
BRANCH   7   8
ATOM      8  O   UNL A   1      46.279  32.160  30.885  1.00  0.00    -0.463 OA
BRANCH   8   9
ATOM      9  C   UNL A   1      46.663  33.357  31.359  1.00  0.00     0.312 C 
ATOM     10  O   UNL A   1      46.612  34.351  30.705  1.00  0.00    -0.252 OA
BRANCH   9  11
ATOM     11  C   UNL A   1      47.196  33.259  32.742  1.00  0.00     0.075 C 
ATOM     12  C   UNL A   1      50.512  35.954  32.135  1.00  0.00     0.011 C 
ATOM     13  C   UNL A   1      49.239  35.214  31.653  1.00  0.00    -0.035 C 
ATOM     14  C   UNL A   1      49.125  35.702  30.160  1.00  0.00     0.011 C 
ATOM     15  C   UNL A   1      49.606  33.707  31.763  1.00  0.00     0.007 C 
ATOM     16  C   UNL A   1      47.933  35.687  32.463  1.00  0.00     0.015 C 
ATOM     17  C   UNL A   1      48.713  32.875  32.723  1.00  0.00     0.020 C 
ATOM     18  C   UNL A   1      46.933  34.679  33.223  1.00  0.00     0.033 C 
ATOM     19  C   UNL A   1      45.336  35.031  33.160  1.00  0.00    -0.063 C 
ATOM     20  C   UNL A   1      46.289  32.255  33.486  1.00  0.00     0.020 C 
ATOM     21  C   UNL A   1      44.170  33.899  33.058  1.00  0.00    -0.006 C 
ATOM     22  C   UNL A   1      44.993  36.286  32.807  1.00  0.00    -0.027 C 
ATOM     23  C   UNL A   1      44.757  32.394  33.130  1.00  0.00     0.013 C 
ATOM     24  C   UNL A   1      43.564  33.969  34.523  1.00  0.00     0.017 C 
ATOM     25  C   UNL A   1      42.938  34.339  31.738  1.00  0.00    -0.020 C 
ATOM     26  C   UNL A   1      44.160  36.664  31.598  1.00  0.00     0.032 C 
ATOM     27  C   UNL A   1      43.385  35.594  30.809  1.00  0.00     0.006 C 
ATOM     28  C   UNL A   1      42.195  33.331  30.681  1.00  0.00     0.008 C 
ATOM     29  C   UNL A   1      41.672  34.815  32.598  1.00  0.00     0.012 C 
ATOM     30  C   UNL A   1      43.645  35.556  29.109  1.00  0.00    -0.025 C 
ATOM     31  C   UNL A   1      42.122  33.610  29.065  1.00  0.00     0.005 C 
ATOM     32  C   UNL A   1      42.545  36.503  28.520  1.00  0.00     0.012 C 
ATOM     33  C   UNL A   1      45.002  36.186  28.669  1.00  0.00     0.010 C 
ATOM     34  C   UNL A   1      43.442  34.148  28.471  1.00  0.00     0.003 C 
ATOM     35  C   UNL A   1      45.624  35.833  27.304  1.00  0.00     0.033 C 
ATOM     36  C   UNL A   1      44.051  33.854  26.932  1.00  0.00    -0.006 C 
ATOM     37  C   UNL A   1      45.490  34.400  26.809  1.00  0.00     0.120 C 
ATOM     38  C   UNL A   1      43.378  34.566  25.806  1.00  0.00     0.014 C 
ATOM     39  C   UNL A   1      44.046  32.363  26.449  1.00  0.00     0.014 C 
BRANCH  37  40
ATOM     40  O   UNL A   1      46.072  34.253  25.501  1.00  0.00    -0.393 OA
ATOM     41  H   UNL A   1      45.416  34.487  24.827  1.00  0.00     0.210 HD
ENDBRANCH  37  40
ENDBRANCH   9  11
ENDBRANCH   8   9
ENDBRANCH   7   8
ENDBRANCH   6   7
ENDBRANCH   5   6
ENDBRANCH   4   5
ENDBRANCH   3   4
ENDBRANCH   2   3
ENDBRANCH   1   2
BRANCH   1  42
ATOM     42  C   UNL A   1      48.282  25.477  26.357  1.00  0.00     0.188 C 
BRANCH  42  43
ATOM     43  O   UNL A   1      47.640  24.226  26.610  1.00  0.00    -0.376 OA
BRANCH  43  44
ATOM     44  C   UNL A   1      46.683  24.210  27.654  1.00  0.00     0.202 C 
BRANCH  44  45
ATOM     45  C   UNL A   1      45.144  24.278  27.374  1.00  0.00     0.261 C 
BRANCH  45  46
ATOM     46  O   UNL A   1      44.551  25.041  26.283  1.00  0.00    -0.460 OA
BRANCH  46  47
ATOM     47  C   UNL A   1      43.165  25.028  26.272  1.00  0.00     0.338 C 
ATOM     48  O   UNL A   1      42.487  24.484  25.410  1.00  0.00    -0.246 OA
BRANCH  47  49
ATOM     49  C   UNL A   1      42.497  25.947  27.268  1.00  0.00     0.060 A 
ATOM     50  C   UNL A   1      41.401  25.596  28.081  1.00  0.00     0.016 A 
ATOM     51  C   UNL A   1      43.012  27.244  27.416  1.00  0.00     0.016 A 
ATOM     52  C   UNL A   1      40.915  26.483  29.114  1.00  0.00     0.010 A 
ATOM     53  C   UNL A   1      42.570  28.087  28.477  1.00  0.00     0.010 A 
ATOM     54  C   UNL A   1      41.523  27.726  29.376  1.00  0.00    -0.014 A 
BRANCH  54  55
ATOM     55  C   UNL A   1      41.020  28.757  30.404  1.00  0.00     0.031 A 
ATOM     56  C   UNL A   1      41.708  28.687  31.753  1.00  0.00     0.074 A 
ATOM     57  C   UNL A   1      40.003  29.665  30.310  1.00  0.00     0.049 A 
ATOM     58  N   UNL A   1      41.418  29.279  32.883  1.00  0.00    -0.248 NA
ATOM     59  C   UNL A   1      42.834  27.744  31.846  1.00  0.00     0.031 C 
ATOM     60  C   UNL A   1      39.140  29.903  29.160  1.00  0.00     0.029 A 
ATOM     61  N   UNL A   1      39.494  30.574  31.243  1.00  0.00    -0.354 N 
ATOM     62  C   UNL A   1      42.302  28.738  33.804  1.00  0.00     0.074 A 
ATOM     63  C   UNL A   1      42.986  27.648  33.151  1.00  0.00     0.031 C 
ATOM     64  C   UNL A   1      38.226  30.859  29.438  1.00  0.00     0.029 A 
ATOM     65  C   UNL A   1      38.429  31.350  30.799  1.00  0.00     0.049 A 
ATOM     66  H   UNL A   1      39.864  30.658  32.151  1.00  0.00     0.167 HD
ATOM     67  C   UNL A   1      42.637  29.162  35.042  1.00  0.00     0.037 A 
ATOM     68  C   UNL A   1      37.717  32.349  31.391  1.00  0.00     0.037 A 
ATOM     69  C   UNL A   1      42.077  30.302  35.696  1.00  0.00     0.049 A 
ATOM     70  C   UNL A   1      38.083  32.809  32.795  1.00  0.00     0.074 A 
ATOM     71  C   UNL A   1      42.427  30.842  36.918  1.00  0.00     0.029 A 
ATOM     72  N   UNL A   1      41.065  31.089  35.176  1.00  0.00    -0.354 N 
ATOM     73  N   UNL A   1      39.018  32.355  33.595  1.00  0.00    -0.248 NA
ATOM     74  C   UNL A   1      37.316  33.933  33.370  1.00  0.00     0.031 C 
ATOM     75  C   UNL A   1      41.597  31.941  37.159  1.00  0.00     0.029 A 
ATOM     76  C   UNL A   1      40.767  32.108  36.063  1.00  0.00     0.049 A 
ATOM     77  H   UNL A   1      40.623  30.945  34.309  1.00  0.00     0.167 HD
ATOM     78  C   UNL A   1      38.989  33.172  34.728  1.00  0.00     0.074 A 
ATOM     79  C   UNL A   1      37.944  34.148  34.518  1.00  0.00     0.031 C 
ATOM     80  C   UNL A   1      39.765  33.116  35.837  1.00  0.00     0.037 A 
BRANCH  67  81
ATOM     81  C   UNL A   1      43.734  28.399  35.723  1.00  0.00     0.058 A 
ATOM     82  C   UNL A   1      43.443  27.403  36.674  1.00  0.00     0.135 A 
ATOM     83  C   UNL A   1      45.076  28.715  35.483  1.00  0.00     0.135 A 
ATOM     84  F   UNL A   1      42.168  27.092  36.963  1.00  0.00    -0.206 F 
ATOM     85  C   UNL A   1      44.446  26.797  37.414  1.00  0.00     0.059 A 
ATOM     86  C   UNL A   1      46.100  28.085  36.180  1.00  0.00     0.059 A 
ATOM     87  F   UNL A   1      45.401  29.662  34.589  1.00  0.00    -0.206 F 
ATOM     88  C   UNL A   1      45.772  27.149  37.160  1.00  0.00     0.060 A 
BRANCH  88  89
ATOM     89  S   UNL A   1      47.063  26.361  38.140  1.00  0.00     0.124 S 
ATOM     90  O   UNL A   1      47.004  27.136  39.374  1.00  0.00    -0.237 OA
ATOM     91  O   UNL A   1      46.586  24.985  38.232  1.00  0.00    -0.237 OA
ATOM     92  O   UNL A   1      48.263  26.553  37.333  1.00  0.00    -0.744 OA
ENDBRANCH  88  89
ENDBRANCH  67  81
BRANCH  68  93
ATOM     93  C   UNL A   1      36.602  33.083  30.685  1.00  0.00     0.058 A 
ATOM     94  C   UNL A   1      36.879  34.122  29.772  1.00  0.00     0.135 A 
ATOM     95  C   UNL A   1      35.249  32.871  31.000  1.00  0.00     0.135 A 
ATOM     96  F   UNL A   1      38.152  34.409  29.460  1.00  0.00    -0.206 F 
ATOM     97  C   UNL A   1      35.876  34.927  29.227  1.00  0.00     0.059 A 
ATOM     98  C   UNL A   1      34.224  33.650  30.448  1.00  0.00     0.059 A 
ATOM     99  F   UNL A   1      34.907  31.912  31.875  1.00  0.00    -0.206 F 
ATOM    100  C   UNL A   1      34.548  34.685  29.570  1.00  0.00     0.060 A 
BRANCH 100 101
ATOM    101  S   UNL A   1      33.255  35.719  28.834  1.00  0.00     0.124 S 
ATOM    102  O   UNL A   1      32.712  36.401  30.004  1.00  0.00    -0.237 OA
ATOM    103  O   UNL A   1      34.019  36.552  27.910  1.00  0.00    -0.237 OA
ATOM    104  O   UNL A   1      32.366  34.749  28.202  1.00  0.00    -0.744 OA
ENDBRANCH 100 101
ENDBRANCH  68  93
BRANCH  80 105
ATOM    105  C   UNL A   1      39.599  34.165  36.905  1.00  0.00     0.058 A 
ATOM    106  C   UNL A   1      38.863  33.927  38.075  1.00  0.00     0.135 A 
ATOM    107  C   UNL A   1      40.301  35.380  36.812  1.00  0.00     0.135 A 
ATOM    108  F   UNL A   1      38.175  32.783  38.220  1.00  0.00    -0.206 F 
ATOM    109  C   UNL A   1      38.824  34.857  39.112  1.00  0.00     0.059 A 
ATOM    110  C   UNL A   1      40.301  36.310  37.847  1.00  0.00     0.059 A 
ATOM    111  F   UNL A   1      41.036  35.654  35.722  1.00  0.00    -0.206 F 
ATOM    112  C   UNL A   1      39.555  36.041  38.993  1.00  0.00     0.060 A 
BRANCH 112 113
ATOM    113  S   UNL A   1      39.554  37.204  40.374  1.00  0.00     0.124 S 
ATOM    114  O   UNL A   1      38.755  36.488  41.363  1.00  0.00    -0.237 OA
ATOM    115  O   UNL A   1      40.977  37.328  40.679  1.00  0.00    -0.237 OA
ATOM    116  O   UNL A   1      38.935  38.401  39.814  1.00  0.00    -0.744 OA
ENDBRANCH 112 113
ENDBRANCH  80 105
ENDBRANCH  54  55
ENDBRANCH  47  49
ENDBRANCH  46  47
ENDBRANCH  45  46
ENDBRANCH  44  45
ENDBRANCH  43  44
ENDBRANCH  42  43
ENDBRANCH   1  42
TORSDOF 24
ENDMDL
MODEL 2
REMARK VINA RESULT:      -7.5      3.510      9.262
REMARK SMILES CC1(C)CC[C@@]2(C(=O)OCCOCCOCCOCCOC(=O)c3ccc(-c4c5nc(c(-c6c(F)cc(S(=O)(=O)[O-])cc6F)c6ccc([nH]6)c(-c6c(F)cc(S(=O)(=O)[O-])cc6F)c6nc(c(-c7c(F)cc(S(=O)(=O)[O-])cc7F)c7ccc4[nH]7)C=C6)C=C5)cc3)CC[C@@]3(C)C(=CC[C@H]4[C@@]5(C)CC[C@H](O)C(C)(C)[C@@H]5CC[C@]43C)[C@@H]2C1
REMARK SMILES IDX 16 1 15 2 14 3 13 4 12 5 11 6 10 7 9 8 7 9 8 10 6 11 1 12
REMARK SMILES IDX 2 13 3 14 4 15 113 16 5 17 112 18 94 19 90 20 92 21 95 22
REMARK SMILES IDX 91 23 93 24 110 25 96 26 97 27 109 28 111 29 98 30 108 31
REMARK SMILES IDX 99 32 100 33 107 34 101 35 104 36 102 37 105 38 106 39
REMARK SMILES IDX 103 40 17 42 18 43 19 44 20 45 21 46 22 47 23 48 24 49 25 50
REMARK SMILES IDX 89 51 26 52 88 53 27 54 28 55 29 56 82 57 30 58 87 59 81 60
REMARK SMILES IDX 83 61 31 62 86 63 80 64 79 65 32 67 66 68 45 69 65 70 46 71
REMARK SMILES IDX 49 72 64 73 84 74 47 75 48 76 63 78 85 79 50 80 33 81 34 82
REMARK SMILES IDX 43 83 35 84 36 85 42 86 44 87 37 88 38 89 39 90 40 91 41 92
REMARK SMILES IDX 67 93 68 94 77 95 69 96 70 97 76 98 78 99 71 100 72 101
REMARK SMILES IDX 73 102 74 103 75 104 51 105 52 106 61 107 53 108 54 109
REMARK SMILES IDX 60 110 62 111 55 112 56 113 57 114 58 115 59 116
REMARK H PARENT 103 41 83 66 49 77
REMARK Flexibility Score: inf
ROOT
ATOM      1  C   UNL A   1      51.623  24.239  35.404  1.00  0.00     0.188 C 
ENDROOT
BRANCH   1   2
ATOM      2  O   UNL A   1      52.759  23.612  34.815  1.00  0.00    -0.377 OA
BRANCH   2   3
ATOM      3  C   UNL A   1      52.871  23.478  33.400  1.00  0.00     0.188 C 
BRANCH   3   4
ATOM      4  C   UNL A   1      51.596  23.552  32.557  1.00  0.00     0.188 C 
BRANCH   4   5
ATOM      5  O   UNL A   1      51.458  24.760  31.880  1.00  0.00    -0.376 OA
BRANCH   5   6
ATOM      6  C   UNL A   1      50.105  25.151  31.731  1.00  0.00     0.202 C 
BRANCH   6   7
ATOM      7  C   UNL A   1      49.898  26.056  30.535  1.00  0.00     0.261 C 
BRANCH   7   8
ATOM      8  O   UNL A   1      48.836  25.526  29.830  1.00  0.00    -0.463 OA
BRANCH   8   9
ATOM      9  C   UNL A   1      48.046  26.583  29.576  1.00  0.00     0.312 C 
ATOM     10  O   UNL A   1      48.481  27.658  29.308  1.00  0.00    -0.252 OA
BRANCH   9  11
ATOM     11  C   UNL A   1      46.607  26.247  29.730  1.00  0.00     0.075 C 
ATOM     12  C   UNL A   1      45.589  29.711  32.094  1.00  0.00     0.011 C 
ATOM     13  C   UNL A   1      46.588  28.848  31.284  1.00  0.00    -0.035 C 
ATOM     14  C   UNL A   1      47.921  29.677  31.421  1.00  0.00     0.011 C 
ATOM     15  C   UNL A   1      46.643  27.498  32.054  1.00  0.00     0.007 C 
ATOM     16  C   UNL A   1      46.179  28.763  29.731  1.00  0.00     0.015 C 
ATOM     17  C   UNL A   1      46.197  26.252  31.241  1.00  0.00     0.020 C 
ATOM     18  C   UNL A   1      45.987  27.381  28.927  1.00  0.00     0.033 C 
ATOM     19  C   UNL A   1      46.505  27.348  27.374  1.00  0.00    -0.063 C 
ATOM     20  C   UNL A   1      46.398  24.895  29.014  1.00  0.00     0.020 C 
ATOM     21  C   UNL A   1      47.189  26.043  26.683  1.00  0.00    -0.006 C 
ATOM     22  C   UNL A   1      46.715  28.533  26.768  1.00  0.00    -0.027 C 
ATOM     23  C   UNL A   1      47.205  24.757  27.663  1.00  0.00     0.013 C 
ATOM     24  C   UNL A   1      46.016  25.571  25.723  1.00  0.00     0.017 C 
ATOM     25  C   UNL A   1      48.736  26.515  25.768  1.00  0.00    -0.020 C 
ATOM     26  C   UNL A   1      48.039  29.014  26.207  1.00  0.00     0.032 C 
ATOM     27  C   UNL A   1      49.220  28.042  26.034  1.00  0.00     0.006 C 
ATOM     28  C   UNL A   1      50.143  25.682  25.676  1.00  0.00     0.008 C 
ATOM     29  C   UNL A   1      48.266  26.430  24.237  1.00  0.00     0.012 C 
ATOM     30  C   UNL A   1      50.718  28.525  26.730  1.00  0.00    -0.025 C 
ATOM     31  C   UNL A   1      51.613  26.358  25.948  1.00  0.00     0.005 C 
ATOM     32  C   UNL A   1      51.450  29.306  25.588  1.00  0.00     0.012 C 
ATOM     33  C   UNL A   1      50.565  29.552  27.893  1.00  0.00     0.010 C 
ATOM     34  C   UNL A   1      51.633  27.333  27.145  1.00  0.00     0.003 C 
ATOM     35  C   UNL A   1      51.691  29.736  28.930  1.00  0.00     0.033 C 
ATOM     36  C   UNL A   1      52.914  27.615  28.197  1.00  0.00    -0.006 C 
ATOM     37  C   UNL A   1      52.456  28.499  29.378  1.00  0.00     0.120 C 
ATOM     38  C   UNL A   1      54.047  28.423  27.659  1.00  0.00     0.014 C 
ATOM     39  C   UNL A   1      53.637  26.351  28.778  1.00  0.00     0.014 C 
BRANCH  37  40
ATOM     40  O   UNL A   1      53.505  28.851  30.299  1.00  0.00    -0.393 OA
ATOM     41  H   UNL A   1      54.244  28.232  30.198  1.00  0.00     0.210 HD
ENDBRANCH  37  40
ENDBRANCH   9  11
ENDBRANCH   8   9
ENDBRANCH   7   8
ENDBRANCH   6   7
ENDBRANCH   5   6
ENDBRANCH   4   5
ENDBRANCH   3   4
ENDBRANCH   2   3
ENDBRANCH   1   2
BRANCH   1  42
ATOM     42  C   UNL A   1      51.944  24.567  36.883  1.00  0.00     0.188 C 
BRANCH  42  43
ATOM     43  O   UNL A   1      51.020  25.254  37.729  1.00  0.00    -0.376 OA
BRANCH  43  44
ATOM     44  C   UNL A   1      49.961  24.479  38.263  1.00  0.00     0.202 C 
BRANCH  44  45
ATOM     45  C   UNL A   1      48.801  23.927  37.367  1.00  0.00     0.261 C 
BRANCH  45  46
ATOM     46  O   UNL A   1      47.853  24.775  36.653  1.00  0.00    -0.460 OA
BRANCH  46  47
ATOM     47  C   UNL A   1      46.639  24.937  37.301  1.00  0.00     0.338 C 
ATOM     48  O   UNL A   1      46.195  24.161  38.138  1.00  0.00    -0.246 OA
BRANCH  47  49
ATOM     49  C   UNL A   1      45.743  26.016  36.743  1.00  0.00     0.060 A 
ATOM     50  C   UNL A   1      46.187  27.141  36.020  1.00  0.00     0.016 A 
ATOM     51  C   UNL A   1      44.359  25.890  36.939  1.00  0.00     0.016 A 
ATOM     52  C   UNL A   1      45.255  28.051  35.392  1.00  0.00     0.010 A 
ATOM     53  C   UNL A   1      43.446  26.753  36.265  1.00  0.00     0.010 A 
ATOM     54  C   UNL A   1      43.862  27.848  35.451  1.00  0.00    -0.014 A 
BRANCH  54  55
ATOM     55  C   UNL A   1      42.804  28.807  34.876  1.00  0.00     0.031 A 
ATOM     56  C   UNL A   1      42.382  28.499  33.452  1.00  0.00     0.074 A 
ATOM     57  C   UNL A   1      42.250  29.932  35.421  1.00  0.00     0.049 A 
ATOM     58  N   UNL A   1      41.654  29.192  32.616  1.00  0.00    -0.248 NA
ATOM     59  C   UNL A   1      42.939  27.264  32.877  1.00  0.00     0.031 C 
ATOM     60  C   UNL A   1      42.518  30.493  36.739  1.00  0.00     0.029 A 
ATOM     61  N   UNL A   1      41.330  30.846  34.902  1.00  0.00    -0.354 N 
ATOM     62  C   UNL A   1      41.716  28.488  31.423  1.00  0.00     0.074 A 
ATOM     63  C   UNL A   1      42.697  27.443  31.594  1.00  0.00     0.031 C 
ATOM     64  C   UNL A   1      41.809  31.628  36.929  1.00  0.00     0.029 A 
ATOM     65  C   UNL A   1      40.990  31.897  35.748  1.00  0.00     0.049 A 
ATOM     66  H   UNL A   1      40.948  30.754  34.000  1.00  0.00     0.167 HD
ATOM     67  C   UNL A   1      40.952  28.586  30.313  1.00  0.00     0.037 A 
ATOM     68  C   UNL A   1      40.117  32.933  35.615  1.00  0.00     0.037 A 
ATOM     69  C   UNL A   1      39.891  29.525  30.132  1.00  0.00     0.049 A 
ATOM     70  C   UNL A   1      39.274  33.053  34.353  1.00  0.00     0.074 A 
ATOM     71  C   UNL A   1      39.017  29.630  29.066  1.00  0.00     0.029 A 
ATOM     72  N   UNL A   1      39.544  30.507  31.041  1.00  0.00    -0.354 N 
ATOM     73  N   UNL A   1      39.266  32.287  33.289  1.00  0.00    -0.248 NA
ATOM     74  C   UNL A   1      38.301  34.162  34.282  1.00  0.00     0.031 C 
ATOM     75  C   UNL A   1      38.160  30.705  29.314  1.00  0.00     0.029 A 
ATOM     76  C   UNL A   1      38.473  31.234  30.554  1.00  0.00     0.049 A 
ATOM     77  H   UNL A   1      39.992  30.666  31.903  1.00  0.00     0.167 HD
ATOM     78  C   UNL A   1      38.256  32.783  32.461  1.00  0.00     0.074 A 
ATOM     79  C   UNL A   1      37.673  33.917  33.139  1.00  0.00     0.031 C 
ATOM     80  C   UNL A   1      37.852  32.331  31.249  1.00  0.00     0.037 A 
BRANCH  67  81
ATOM     81  C   UNL A   1      41.217  27.572  29.242  1.00  0.00     0.058 A 
ATOM     82  C   UNL A   1      40.399  26.436  29.099  1.00  0.00     0.135 A 
ATOM     83  C   UNL A   1      42.334  27.694  28.407  1.00  0.00     0.135 A 
ATOM     84  F   UNL A   1      39.337  26.259  29.902  1.00  0.00    -0.206 F 
ATOM     85  C   UNL A   1      40.720  25.422  28.210  1.00  0.00     0.059 A 
ATOM     86  C   UNL A   1      42.649  26.711  27.477  1.00  0.00     0.059 A 
ATOM     87  F   UNL A   1      43.147  28.757  28.512  1.00  0.00    -0.206 F 
ATOM     88  C   UNL A   1      41.851  25.569  27.406  1.00  0.00     0.060 A 
BRANCH  88  89
ATOM     89  S   UNL A   1      42.263  24.236  26.265  1.00  0.00     0.124 S 
ATOM     90  O   UNL A   1      43.375  23.594  26.959  1.00  0.00    -0.237 OA
ATOM     91  O   UNL A   1      41.019  23.473  26.219  1.00  0.00    -0.237 OA
ATOM     92  O   UNL A   1      42.609  24.939  25.036  1.00  0.00    -0.744 OA
ENDBRANCH  88  89
ENDBRANCH  67  81
BRANCH  68  93
ATOM     93  C   UNL A   1      39.889  33.953  36.706  1.00  0.00     0.058 A 
ATOM     94  C   UNL A   1      40.682  35.115  36.791  1.00  0.00     0.135 A 
ATOM     95  C   UNL A   1      38.984  33.733  37.758  1.00  0.00     0.135 A 
ATOM     96  F   UNL A   1      41.599  35.365  35.843  1.00  0.00    -0.206 F 
ATOM     97  C   UNL A   1      40.608  35.995  37.874  1.00  0.00     0.059 A 
ATOM     98  C   UNL A   1      38.875  34.612  38.843  1.00  0.00     0.059 A 
ATOM     99  F   UNL A   1      38.208  32.638  37.757  1.00  0.00    -0.206 F 
ATOM    100  C   UNL A   1      39.700  35.736  38.898  1.00  0.00     0.060 A 
BRANCH 100 101
ATOM    101  S   UNL A   1      39.594  36.900  40.284  1.00  0.00     0.124 S 
ATOM    102  O   UNL A   1      38.586  37.842  39.810  1.00  0.00    -0.237 OA
ATOM    103  O   UNL A   1      39.185  36.031  41.383  1.00  0.00    -0.237 OA
ATOM    104  O   UNL A   1      40.952  37.428  40.384  1.00  0.00    -0.744 OA
ENDBRANCH 100 101
ENDBRANCH  68  93
BRANCH  80 105
ATOM    105  C   UNL A   1      36.676  32.989  30.575  1.00  0.00     0.058 A 
ATOM    106  C   UNL A   1      35.360  32.804  31.024  1.00  0.00     0.135 A 
ATOM    107  C   UNL A   1      36.888  33.923  29.546  1.00  0.00     0.135 A 
ATOM    108  F   UNL A   1      35.099  31.926  32.007  1.00  0.00    -0.206 F 
ATOM    109  C   UNL A   1      34.297  33.517  30.476  1.00  0.00     0.059 A 
ATOM    110  C   UNL A   1      35.845  34.668  29.004  1.00  0.00     0.059 A 
ATOM    111  F   UNL A   1      38.129  34.154  29.088  1.00  0.00    -0.206 F 
ATOM    112  C   UNL A   1      34.550  34.455  29.473  1.00  0.00     0.060 A 
BRANCH 112 113
ATOM    113  S   UNL A   1      33.173  35.424  28.822  1.00  0.00     0.124 S 
ATOM    114  O   UNL A   1      32.480  34.437  28.001  1.00  0.00    -0.237 OA
ATOM    115  O   UNL A   1      32.479  35.837  30.038  1.00  0.00    -0.237 OA
ATOM    116  O   UNL A   1      33.829  36.501  28.088  1.00  0.00    -0.744 OA
ENDBRANCH 112 113
ENDBRANCH  80 105
ENDBRANCH  54  55
ENDBRANCH  47  49
ENDBRANCH  46  47
ENDBRANCH  45  46
ENDBRANCH  44  45
ENDBRANCH  43  44
ENDBRANCH  42  43
ENDBRANCH   1  42
TORSDOF 24
ENDMDL
MODEL 3
REMARK VINA RESULT:      -7.4      4.734      9.856
REMARK SMILES CC1(C)CC[C@@]2(C(=O)OCCOCCOCCOCCOC(=O)c3ccc(-c4c5nc(c(-c6c(F)cc(S(=O)(=O)[O-])cc6F)c6ccc([nH]6)c(-c6c(F)cc(S(=O)(=O)[O-])cc6F)c6nc(c(-c7c(F)cc(S(=O)(=O)[O-])cc7F)c7ccc4[nH]7)C=C6)C=C5)cc3)CC[C@@]3(C)C(=CC[C@H]4[C@@]5(C)CC[C@H](O)C(C)(C)[C@@H]5CC[C@]43C)[C@@H]2C1
REMARK SMILES IDX 16 1 15 2 14 3 13 4 12 5 11 6 10 7 9 8 7 9 8 10 6 11 1 12
REMARK SMILES IDX 2 13 3 14 4 15 113 16 5 17 112 18 94 19 90 20 92 21 95 22
REMARK SMILES IDX 91 23 93 24 110 25 96 26 97 27 109 28 111 29 98 30 108 31
REMARK SMILES IDX 99 32 100 33 107 34 101 35 104 36 102 37 105 38 106 39
REMARK SMILES IDX 103 40 17 42 18 43 19 44 20 45 21 46 22 47 23 48 24 49 25 50
REMARK SMILES IDX 89 51 26 52 88 53 27 54 28 55 29 56 82 57 30 58 87 59 81 60
REMARK SMILES IDX 83 61 31 62 86 63 80 64 79 65 32 67 66 68 45 69 65 70 46 71
REMARK SMILES IDX 49 72 64 73 84 74 47 75 48 76 63 78 85 79 50 80 33 81 34 82
REMARK SMILES IDX 43 83 35 84 36 85 42 86 44 87 37 88 38 89 39 90 40 91 41 92
REMARK SMILES IDX 67 93 68 94 77 95 69 96 70 97 76 98 78 99 71 100 72 101
REMARK SMILES IDX 73 102 74 103 75 104 51 105 52 106 61 107 53 108 54 109
REMARK SMILES IDX 60 110 62 111 55 112 56 113 57 114 58 115 59 116
REMARK H PARENT 103 41 83 66 49 77
REMARK Flexibility Score: inf
ROOT
ATOM      1  C   UNL A   1      55.129  25.148  31.335  1.00  0.00     0.188 C 
ENDROOT
BRANCH   1   2
ATOM      2  O   UNL A   1      54.725  26.475  31.010  1.00  0.00    -0.377 OA
BRANCH   2   3
ATOM      3  C   UNL A   1      53.370  26.767  30.671  1.00  0.00     0.188 C 
BRANCH   3   4
ATOM      4  C   UNL A   1      52.816  28.151  31.011  1.00  0.00     0.188 C 
BRANCH   4   5
ATOM      5  O   UNL A   1      52.124  28.180  32.219  1.00  0.00    -0.376 OA
BRANCH   5   6
ATOM      6  C   UNL A   1      51.224  29.270  32.307  1.00  0.00     0.202 C 
BRANCH   6   7
ATOM      7  C   UNL A   1      49.872  28.853  32.845  1.00  0.00     0.261 C 
BRANCH   7   8
ATOM      8  O   UNL A   1      49.335  27.989  31.913  1.00  0.00    -0.463 OA
BRANCH   8   9
ATOM      9  C   UNL A   1      48.754  27.025  32.648  1.00  0.00     0.312 C 
ATOM     10  O   UNL A   1      48.270  27.238  33.715  1.00  0.00    -0.252 OA
BRANCH   9  11
ATOM     11  C   UNL A   1      48.851  25.695  31.993  1.00  0.00     0.075 C 
ATOM     12  C   UNL A   1      50.645  23.670  35.355  1.00  0.00     0.011 C 
ATOM     13  C   UNL A   1      50.032  24.918  34.673  1.00  0.00    -0.035 C 
ATOM     14  C   UNL A   1      50.148  26.001  35.811  1.00  0.00     0.011 C 
ATOM     15  C   UNL A   1      50.980  25.206  33.475  1.00  0.00     0.007 C 
ATOM     16  C   UNL A   1      48.480  24.698  34.313  1.00  0.00     0.015 C 
ATOM     17  C   UNL A   1      50.314  25.146  32.073  1.00  0.00     0.020 C 
ATOM     18  C   UNL A   1      47.859  24.914  32.843  1.00  0.00     0.033 C 
ATOM     19  C   UNL A   1      46.366  25.579  32.758  1.00  0.00    -0.063 C 
ATOM     20  C   UNL A   1      48.313  25.879  30.558  1.00  0.00     0.020 C 
ATOM     21  C   UNL A   1      45.909  26.613  31.587  1.00  0.00    -0.006 C 
ATOM     22  C   UNL A   1      45.620  25.569  33.880  1.00  0.00    -0.027 C 
ATOM     23  C   UNL A   1      47.053  26.828  30.465  1.00  0.00     0.013 C 
ATOM     24  C   UNL A   1      44.941  25.685  30.737  1.00  0.00     0.017 C 
ATOM     25  C   UNL A   1      45.049  28.092  32.312  1.00  0.00    -0.020 C 
ATOM     26  C   UNL A   1      45.094  26.794  34.600  1.00  0.00     0.032 C 
ATOM     27  C   UNL A   1      45.138  28.180  33.931  1.00  0.00     0.006 C 
ATOM     28  C   UNL A   1      45.170  29.656  31.840  1.00  0.00     0.008 C 
ATOM     29  C   UNL A   1      43.515  27.812  31.939  1.00  0.00     0.012 C 
ATOM     30  C   UNL A   1      45.866  29.447  34.840  1.00  0.00    -0.025 C 
ATOM     31  C   UNL A   1      45.450  30.895  32.880  1.00  0.00     0.005 C 
ATOM     32  C   UNL A   1      44.683  30.089  35.639  1.00  0.00     0.012 C 
ATOM     33  C   UNL A   1      46.865  28.944  35.926  1.00  0.00     0.010 C 
ATOM     34  C   UNL A   1      46.502  30.567  33.961  1.00  0.00     0.003 C 
ATOM     35  C   UNL A   1      47.943  29.887  36.496  1.00  0.00     0.033 C 
ATOM     36  C   UNL A   1      47.594  31.635  34.666  1.00  0.00    -0.006 C 
ATOM     37  C   UNL A   1      48.608  30.868  35.542  1.00  0.00     0.120 C 
ATOM     38  C   UNL A   1      47.032  32.599  35.657  1.00  0.00     0.014 C 
ATOM     39  C   UNL A   1      48.391  32.569  33.691  1.00  0.00     0.014 C 
BRANCH  37  40
ATOM     40  O   UNL A   1      49.544  31.708  36.241  1.00  0.00    -0.393 OA
ATOM     41  H   UNL A   1      50.079  31.167  36.842  1.00  0.00     0.210 HD
ENDBRANCH  37  40
ENDBRANCH   9  11
ENDBRANCH   8   9
ENDBRANCH   7   8
ENDBRANCH   6   7
ENDBRANCH   5   6
ENDBRANCH   4   5
ENDBRANCH   3   4
ENDBRANCH   2   3
ENDBRANCH   1   2
BRANCH   1  42
ATOM     42  C   UNL A   1      56.332  24.759  30.443  1.00  0.00     0.188 C 
BRANCH  42  43
ATOM     43  O   UNL A   1      56.165  24.118  29.176  1.00  0.00    -0.376 OA
BRANCH  43  44
ATOM     44  C   UNL A   1      56.105  24.968  28.044  1.00  0.00     0.202 C 
BRANCH  44  45
ATOM     45  C   UNL A   1      55.459  24.510  26.693  1.00  0.00     0.261 C 
BRANCH  45  46
ATOM     46  O   UNL A   1      54.518  25.319  25.928  1.00  0.00    -0.460 OA
BRANCH  46  47
ATOM     47  C   UNL A   1      53.328  24.674  25.632  1.00  0.00     0.338 C 
ATOM     48  O   UNL A   1      53.250  23.616  25.020  1.00  0.00    -0.246 OA
BRANCH  47  49
ATOM     49  C   UNL A   1      52.072  25.472  25.892  1.00  0.00     0.060 A 
ATOM     50  C   UNL A   1      51.280  26.078  24.896  1.00  0.00     0.016 A 
ATOM     51  C   UNL A   1      51.643  25.611  27.220  1.00  0.00     0.016 A 
ATOM     52  C   UNL A   1      50.013  26.698  25.214  1.00  0.00     0.010 A 
ATOM     53  C   UNL A   1      50.363  26.166  27.518  1.00  0.00     0.010 A 
ATOM     54  C   UNL A   1      49.496  26.707  26.524  1.00  0.00    -0.014 A 
BRANCH  54  55
ATOM     55  C   UNL A   1      48.196  27.409  26.956  1.00  0.00     0.031 A 
ATOM     56  C   UNL A   1      46.973  26.514  26.973  1.00  0.00     0.074 A 
ATOM     57  C   UNL A   1      47.965  28.724  27.249  1.00  0.00     0.049 A 
ATOM     58  N   UNL A   1      45.707  26.812  27.117  1.00  0.00    -0.248 NA
ATOM     59  C   UNL A   1      47.223  25.089  26.704  1.00  0.00     0.031 C 
ATOM     60  C   UNL A   1      48.938  29.809  27.251  1.00  0.00     0.029 A 
ATOM     61  N   UNL A   1      46.788  29.395  27.593  1.00  0.00    -0.354 N 
ATOM     62  C   UNL A   1      45.035  25.616  26.912  1.00  0.00     0.074 A 
ATOM     63  C   UNL A   1      46.006  24.656  26.445  1.00  0.00     0.031 C 
ATOM     64  C   UNL A   1      48.346  30.983  27.563  1.00  0.00     0.029 A 
ATOM     65  C   UNL A   1      46.924  30.761  27.817  1.00  0.00     0.049 A 
ATOM     66  H   UNL A   1      45.922  28.934  27.671  1.00  0.00     0.167 HD
ATOM     67  C   UNL A   1      43.760  25.274  27.197  1.00  0.00     0.037 A 
ATOM     68  C   UNL A   1      46.034  31.717  28.204  1.00  0.00     0.037 A 
ATOM     69  C   UNL A   1      42.786  26.151  27.766  1.00  0.00     0.049 A 
ATOM     70  C   UNL A   1      44.592  31.331  28.503  1.00  0.00     0.074 A 
ATOM     71  C   UNL A   1      41.497  25.851  28.161  1.00  0.00     0.029 A 
ATOM     72  N   UNL A   1      42.996  27.490  28.041  1.00  0.00    -0.354 N 
ATOM     73  N   UNL A   1      44.018  30.155  28.420  1.00  0.00    -0.248 NA
ATOM     74  C   UNL A   1      43.682  32.395  28.973  1.00  0.00     0.031 C 
ATOM     75  C   UNL A   1      40.909  27.024  28.643  1.00  0.00     0.029 A 
ATOM     76  C   UNL A   1      41.851  28.036  28.590  1.00  0.00     0.049 A 
ATOM     77  H   UNL A   1      43.833  27.979  27.869  1.00  0.00     0.167 HD
ATOM     78  C   UNL A   1      42.711  30.329  28.883  1.00  0.00     0.074 A 
ATOM     79  C   UNL A   1      42.571  31.721  29.241  1.00  0.00     0.031 C 
ATOM     80  C   UNL A   1      41.722  29.410  29.000  1.00  0.00     0.037 A 
BRANCH  67  81
ATOM     81  C   UNL A   1      43.395  23.840  26.954  1.00  0.00     0.058 A 
ATOM     82  C   UNL A   1      43.120  23.372  25.656  1.00  0.00     0.135 A 
ATOM     83  C   UNL A   1      43.245  22.953  28.025  1.00  0.00     0.135 A 
ATOM     84  F   UNL A   1      43.215  24.199  24.601  1.00  0.00    -0.206 F 
ATOM     85  C   UNL A   1      42.640  22.090  25.438  1.00  0.00     0.059 A 
ATOM     86  C   UNL A   1      42.811  21.648  27.824  1.00  0.00     0.059 A 
ATOM     87  F   UNL A   1      43.491  23.357  29.281  1.00  0.00    -0.206 F 
ATOM     88  C   UNL A   1      42.486  21.237  26.531  1.00  0.00     0.060 A 
BRANCH  88  89
ATOM     89  S   UNL A   1      41.849  19.578  26.232  1.00  0.00     0.124 S 
ATOM     90  O   UNL A   1      42.278  18.881  27.440  1.00  0.00    -0.237 OA
ATOM     91  O   UNL A   1      40.414  19.814  26.112  1.00  0.00    -0.237 OA
ATOM     92  O   UNL A   1      42.520  19.176  25.001  1.00  0.00    -0.744 OA
ENDBRANCH  88  89
ENDBRANCH  67  81
BRANCH  68  93
ATOM     93  C   UNL A   1      46.429  33.159  28.419  1.00  0.00     0.058 A 
ATOM     94  C   UNL A   1      46.837  33.619  29.688  1.00  0.00     0.135 A 
ATOM     95  C   UNL A   1      46.280  34.133  27.417  1.00  0.00     0.135 A 
ATOM     96  F   UNL A   1      46.957  32.750  30.703  1.00  0.00    -0.206 F 
ATOM     97  C   UNL A   1      47.052  34.973  29.960  1.00  0.00     0.059 A 
ATOM     98  C   UNL A   1      46.513  35.493  27.660  1.00  0.00     0.059 A 
ATOM     99  F   UNL A   1      45.877  33.775  26.188  1.00  0.00    -0.206 F 
ATOM    100  C   UNL A   1      46.888  35.906  28.938  1.00  0.00     0.060 A 
BRANCH 100 101
ATOM    101  S   UNL A   1      47.198  37.655  29.298  1.00  0.00     0.124 S 
ATOM    102  O   UNL A   1      46.033  38.008  30.102  1.00  0.00    -0.237 OA
ATOM    103  O   UNL A   1      48.470  37.599  30.012  1.00  0.00    -0.237 OA
ATOM    104  O   UNL A   1      47.257  38.266  27.973  1.00  0.00    -0.744 OA
ENDBRANCH 100 101
ENDBRANCH  68  93
BRANCH  80 105
ATOM    105  C   UNL A   1      40.405  29.821  29.606  1.00  0.00     0.058 A 
ATOM    106  C   UNL A   1      40.272  30.115  30.971  1.00  0.00     0.135 A 
ATOM    107  C   UNL A   1      39.293  30.053  28.777  1.00  0.00     0.135 A 
ATOM    108  F   UNL A   1      41.303  29.915  31.809  1.00  0.00    -0.206 F 
ATOM    109  C   UNL A   1      39.084  30.618  31.494  1.00  0.00     0.059 A 
ATOM    110  C   UNL A   1      38.106  30.584  29.273  1.00  0.00     0.059 A 
ATOM    111  F   UNL A   1      39.368  29.807  27.459  1.00  0.00    -0.206 F 
ATOM    112  C   UNL A   1      38.009  30.859  30.636  1.00  0.00     0.060 A 
BRANCH 112 113
ATOM    113  S   UNL A   1      36.498  31.579  31.316  1.00  0.00     0.124 S 
ATOM    114  O   UNL A   1      36.870  32.985  31.435  1.00  0.00    -0.237 OA
ATOM    115  O   UNL A   1      35.513  31.270  30.284  1.00  0.00    -0.237 OA
ATOM    116  O   UNL A   1      36.318  30.868  32.577  1.00  0.00    -0.744 OA
ENDBRANCH 112 113
ENDBRANCH  80 105
ENDBRANCH  54  55
ENDBRANCH  47  49
ENDBRANCH  46  47
ENDBRANCH  45  46
ENDBRANCH  44  45
ENDBRANCH  43  44
ENDBRANCH  42  43
ENDBRANCH   1  42
TORSDOF 24
ENDMDL
