MODEL 1
REMARK VINA RESULT:      -9.3      0.000      0.000
REMARK SMILES CCCn1ncc(C(=O)N2CCC(C(=O)OCCOCCOCCOCCOC(=O)c3ccc(-c4c5nc(c(-c6c(F)cc(S(=O)(=O)[O-])cc6F)c6ccc([nH]6)c(-c6c(F)cc(S(=O)(=O)[O-])cc6F)c6nc(c(-c7c(F)cc(S(=O)(=O)[O-])cc7F)c7ccc4[nH]7)C=C6)C=C5)cc3)CC2)c1C
REMARK SMILES IDX 22 1 21 2 20 3 19 4 18 5 17 6 16 7 14 8 15 9 13 10 8 11 9 12
REMARK SMILES IDX 10 13 11 14 98 15 12 16 97 17 7 18 4 19 5 20 99 21 6 22
REMARK SMILES IDX 100 23 3 24 2 25 1 26 23 27 24 28 25 29 26 30 27 31 28 32
REMARK SMILES IDX 29 33 30 34 31 35 32 36 96 37 33 38 95 39 34 40 35 41 36 42
REMARK SMILES IDX 89 43 37 44 94 45 88 46 90 47 38 48 93 49 87 50 86 51 39 53
REMARK SMILES IDX 73 54 52 55 72 56 53 57 56 58 71 59 91 60 54 61 55 62 70 64
REMARK SMILES IDX 92 65 57 66 40 67 41 68 50 69 42 70 43 71 49 72 51 73 44 74
REMARK SMILES IDX 45 75 46 76 47 77 48 78 74 79 75 80 84 81 76 82 77 83 83 84
REMARK SMILES IDX 85 85 78 86 79 87 80 88 81 89 82 90 58 91 59 92 68 93 60 94
REMARK SMILES IDX 61 95 67 96 69 97 62 98 63 99 64 100 65 101 66 102
REMARK H PARENT 90 52 56 63
REMARK Flexibility Score: inf
ROOT
ATOM      1  O   UNL A   1      33.342  34.692  28.566  1.00  0.00    -0.377 OA
ENDROOT
BRANCH   1   2
ATOM      2  C   UNL A   1      34.053  33.664  27.911  1.00  0.00     0.188 C 
BRANCH   2   3
ATOM      3  C   UNL A   1      34.099  32.296  28.628  1.00  0.00     0.188 C 
BRANCH   3   4
ATOM      4  O   UNL A   1      34.853  31.206  28.106  1.00  0.00    -0.376 OA
BRANCH   4   5
ATOM      5  C   UNL A   1      34.275  30.365  27.122  1.00  0.00     0.202 C 
BRANCH   5   6
ATOM      6  C   UNL A   1      33.087  29.472  27.518  1.00  0.00     0.261 C 
BRANCH   6   7
ATOM      7  O   UNL A   1      32.536  28.635  26.482  1.00  0.00    -0.463 OA
BRANCH   7   8
ATOM      8  C   UNL A   1      31.627  27.715  26.885  1.00  0.00     0.309 C 
ATOM      9  O   UNL A   1      31.008  27.767  27.944  1.00  0.00    -0.252 OA
BRANCH   8  10
ATOM     10  C   UNL A   1      31.457  26.539  25.931  1.00  0.00     0.103 C 
ATOM     11  C   UNL A   1      33.594  23.646  24.207  1.00  0.00     0.257 C 
ATOM     12  O   UNL A   1      34.552  24.298  23.800  1.00  0.00    -0.269 OA
ATOM     13  N   UNL A   1      32.368  24.227  24.485  1.00  0.00    -0.338 N 
ATOM     14  C   UNL A   1      31.962  25.378  23.717  1.00  0.00     0.120 C 
ATOM     15  C   UNL A   1      31.709  24.049  25.771  1.00  0.00     0.120 C 
ATOM     16  C   UNL A   1      32.063  26.657  24.529  1.00  0.00     0.037 C 
ATOM     17  C   UNL A   1      31.956  25.279  26.639  1.00  0.00     0.037 C 
BRANCH  11  18
ATOM     18  C   UNL A   1      33.630  22.198  24.305  1.00  0.00     0.080 A 
ATOM     19  N   UNL A   1      33.103  20.070  24.124  1.00  0.00    -0.269 N 
ATOM     20  N   UNL A   1      34.020  20.098  25.116  1.00  0.00    -0.180 NA
ATOM     21  C   UNL A   1      32.906  21.297  23.539  1.00  0.00     0.048 A 
ATOM     22  C   UNL A   1      34.305  21.392  25.246  1.00  0.00     0.149 A 
ATOM     23  C   UNL A   1      32.032  21.564  22.368  1.00  0.00     0.067 C 
BRANCH  19  24
ATOM     24  C   UNL A   1      32.498  18.794  23.792  1.00  0.00     0.144 C 
BRANCH  24  25
ATOM     25  C   UNL A   1      32.717  17.694  24.833  1.00  0.00     0.020 C 
ATOM     26  C   UNL A   1      33.313  16.413  24.266  1.00  0.00     0.006 C 
ENDBRANCH  24  25
ENDBRANCH  19  24
ENDBRANCH  11  18
ENDBRANCH   8  10
ENDBRANCH   7   8
ENDBRANCH   6   7
ENDBRANCH   5   6
ENDBRANCH   4   5
ENDBRANCH   3   4
ENDBRANCH   2   3
ENDBRANCH   1   2
BRANCH   1  27
ATOM     27  C   UNL A   1      34.127  35.822  28.911  1.00  0.00     0.188 C 
BRANCH  27  28
ATOM     28  C   UNL A   1      33.390  37.179  28.853  1.00  0.00     0.188 C 
BRANCH  28  29
ATOM     29  O   UNL A   1      32.985  37.697  30.122  1.00  0.00    -0.376 OA
BRANCH  29  30
ATOM     30  C   UNL A   1      33.687  37.358  31.312  1.00  0.00     0.202 C 
BRANCH  30  31
ATOM     31  C   UNL A   1      32.881  36.759  32.467  1.00  0.00     0.261 C 
BRANCH  31  32
ATOM     32  O   UNL A   1      33.632  35.918  33.319  1.00  0.00    -0.460 OA
BRANCH  32  33
ATOM     33  C   UNL A   1      34.021  34.753  32.762  1.00  0.00     0.338 C 
ATOM     34  O   UNL A   1      33.433  34.105  31.921  1.00  0.00    -0.246 OA
BRANCH  33  35
ATOM     35  C   UNL A   1      35.253  34.323  33.423  1.00  0.00     0.060 A 
ATOM     36  C   UNL A   1      36.379  35.089  33.127  1.00  0.00     0.016 A 
ATOM     37  C   UNL A   1      35.324  33.011  33.915  1.00  0.00     0.016 A 
ATOM     38  C   UNL A   1      37.565  34.420  32.996  1.00  0.00     0.010 A 
ATOM     39  C   UNL A   1      36.505  32.342  33.765  1.00  0.00     0.010 A 
ATOM     40  C   UNL A   1      37.566  33.036  33.197  1.00  0.00    -0.014 A 
BRANCH  40  41
ATOM     41  C   UNL A   1      38.758  32.316  32.839  1.00  0.00     0.031 A 
ATOM     42  C   UNL A   1      39.605  32.050  34.007  1.00  0.00     0.074 A 
ATOM     43  C   UNL A   1      38.999  31.912  31.581  1.00  0.00     0.049 A 
ATOM     44  N   UNL A   1      40.690  32.670  34.323  1.00  0.00    -0.248 NA
ATOM     45  C   UNL A   1      39.062  31.189  35.067  1.00  0.00     0.031 C 
ATOM     46  C   UNL A   1      38.108  31.941  30.420  1.00  0.00     0.029 A 
ATOM     47  N   UNL A   1      40.102  31.288  31.103  1.00  0.00    -0.354 N 
ATOM     48  C   UNL A   1      41.109  32.070  35.499  1.00  0.00     0.074 A 
ATOM     49  C   UNL A   1      39.966  31.374  36.029  1.00  0.00     0.031 C 
ATOM     50  C   UNL A   1      38.628  31.155  29.448  1.00  0.00     0.029 A 
ATOM     51  C   UNL A   1      39.927  30.663  29.878  1.00  0.00     0.049 A 
ATOM     52  H   UNL A   1      40.960  31.280  31.588  1.00  0.00     0.167 HD
ATOM     53  C   UNL A   1      42.434  31.939  35.769  1.00  0.00     0.037 A 
ATOM     54  C   UNL A   1      40.762  29.736  29.341  1.00  0.00     0.037 A 
ATOM     55  C   UNL A   1      43.226  32.815  34.938  1.00  0.00     0.049 A 
ATOM     56  C   UNL A   1      42.092  29.926  29.995  1.00  0.00     0.074 A 
ATOM     57  C   UNL A   1      43.244  34.182  34.723  1.00  0.00     0.029 A 
ATOM     58  N   UNL A   1      43.891  32.258  33.869  1.00  0.00    -0.354 N 
ATOM     59  N   UNL A   1      42.836  30.985  29.811  1.00  0.00    -0.248 NA
ATOM     60  C   UNL A   1      42.370  29.190  31.222  1.00  0.00     0.031 C 
ATOM     61  C   UNL A   1      43.495  34.338  33.328  1.00  0.00     0.029 A 
ATOM     62  C   UNL A   1      43.685  33.069  32.779  1.00  0.00     0.049 A 
ATOM     63  H   UNL A   1      44.421  31.429  33.883  1.00  0.00     0.167 HD
ATOM     64  C   UNL A   1      43.338  31.296  31.069  1.00  0.00     0.074 A 
ATOM     65  C   UNL A   1      43.096  30.103  31.878  1.00  0.00     0.031 C 
ATOM     66  C   UNL A   1      43.624  32.587  31.417  1.00  0.00     0.037 A 
BRANCH  53  67
ATOM     67  C   UNL A   1      43.009  30.742  36.479  1.00  0.00     0.058 A 
ATOM     68  C   UNL A   1      43.883  30.949  37.560  1.00  0.00     0.135 A 
ATOM     69  C   UNL A   1      42.954  29.420  35.977  1.00  0.00     0.135 A 
ATOM     70  F   UNL A   1      44.021  32.170  38.102  1.00  0.00    -0.206 F 
ATOM     71  C   UNL A   1      44.695  29.933  38.061  1.00  0.00     0.059 A 
ATOM     72  C   UNL A   1      43.707  28.381  36.502  1.00  0.00     0.059 A 
ATOM     73  F   UNL A   1      42.252  29.086  34.889  1.00  0.00    -0.206 F 
ATOM     74  C   UNL A   1      44.608  28.656  37.514  1.00  0.00     0.060 A 
BRANCH  74  75
ATOM     75  S   UNL A   1      45.729  27.370  38.080  1.00  0.00     0.124 S 
ATOM     76  O   UNL A   1      45.516  27.418  39.522  1.00  0.00    -0.237 OA
ATOM     77  O   UNL A   1      45.206  26.194  37.393  1.00  0.00    -0.237 OA
ATOM     78  O   UNL A   1      47.033  27.832  37.616  1.00  0.00    -0.744 OA
ENDBRANCH  74  75
ENDBRANCH  53  67
BRANCH  54  79
ATOM     79  C   UNL A   1      40.383  28.492  28.612  1.00  0.00     0.058 A 
ATOM     80  C   UNL A   1      40.885  28.228  27.324  1.00  0.00     0.135 A 
ATOM     81  C   UNL A   1      39.753  27.407  29.257  1.00  0.00     0.135 A 
ATOM     82  F   UNL A   1      41.507  29.194  26.630  1.00  0.00    -0.206 F 
ATOM     83  C   UNL A   1      40.834  26.953  26.746  1.00  0.00     0.059 A 
ATOM     84  C   UNL A   1      39.677  26.134  28.695  1.00  0.00     0.059 A 
ATOM     85  F   UNL A   1      39.272  27.514  30.504  1.00  0.00    -0.206 F 
ATOM     86  C   UNL A   1      40.252  25.904  27.455  1.00  0.00     0.060 A 
BRANCH  86  87
ATOM     87  S   UNL A   1      40.377  24.213  26.826  1.00  0.00     0.124 S 
ATOM     88  O   UNL A   1      40.551  23.446  28.054  1.00  0.00    -0.237 OA
ATOM     89  O   UNL A   1      39.099  24.043  26.142  1.00  0.00    -0.237 OA
ATOM     90  O   UNL A   1      41.544  24.265  25.949  1.00  0.00    -0.744 OA
ENDBRANCH  86  87
ENDBRANCH  54  79
BRANCH  66  91
ATOM     91  C   UNL A   1      43.658  33.621  30.318  1.00  0.00     0.058 A 
ATOM     92  C   UNL A   1      42.519  34.263  29.793  1.00  0.00     0.135 A 
ATOM     93  C   UNL A   1      44.904  34.064  29.855  1.00  0.00     0.135 A 
ATOM     94  F   UNL A   1      41.297  33.997  30.270  1.00  0.00    -0.206 F 
ATOM     95  C   UNL A   1      42.614  35.238  28.799  1.00  0.00     0.059 A 
ATOM     96  C   UNL A   1      45.025  35.062  28.890  1.00  0.00     0.059 A 
ATOM     97  F   UNL A   1      46.034  33.551  30.369  1.00  0.00    -0.206 F 
ATOM     98  C   UNL A   1      43.873  35.625  28.346  1.00  0.00     0.060 A 
BRANCH  98  99
ATOM     99  S   UNL A   1      43.997  36.904  27.078  1.00  0.00     0.124 S 
ATOM    100  O   UNL A   1      44.314  38.088  27.869  1.00  0.00    -0.237 OA
ATOM    101  O   UNL A   1      45.073  36.405  26.224  1.00  0.00    -0.237 OA
ATOM    102  O   UNL A   1      42.673  36.901  26.460  1.00  0.00    -0.744 OA
ENDBRANCH  98  99
ENDBRANCH  66  91
ENDBRANCH  40  41
ENDBRANCH  33  35
ENDBRANCH  32  33
ENDBRANCH  31  32
ENDBRANCH  30  31
ENDBRANCH  29  30
ENDBRANCH  28  29
ENDBRANCH  27  28
ENDBRANCH   1  27
TORSDOF 26
ENDMDL
MODEL 2
REMARK VINA RESULT:      -9.1      3.155      9.991
REMARK SMILES CCCn1ncc(C(=O)N2CCC(C(=O)OCCOCCOCCOCCOC(=O)c3ccc(-c4c5nc(c(-c6c(F)cc(S(=O)(=O)[O-])cc6F)c6ccc([nH]6)c(-c6c(F)cc(S(=O)(=O)[O-])cc6F)c6nc(c(-c7c(F)cc(S(=O)(=O)[O-])cc7F)c7ccc4[nH]7)C=C6)C=C5)cc3)CC2)c1C
REMARK SMILES IDX 22 1 21 2 20 3 19 4 18 5 17 6 16 7 14 8 15 9 13 10 8 11 9 12
REMARK SMILES IDX 10 13 11 14 98 15 12 16 97 17 7 18 4 19 5 20 99 21 6 22
REMARK SMILES IDX 100 23 3 24 2 25 1 26 23 27 24 28 25 29 26 30 27 31 28 32
REMARK SMILES IDX 29 33 30 34 31 35 32 36 96 37 33 38 95 39 34 40 35 41 36 42
REMARK SMILES IDX 89 43 37 44 94 45 88 46 90 47 38 48 93 49 87 50 86 51 39 53
REMARK SMILES IDX 73 54 52 55 72 56 53 57 56 58 71 59 91 60 54 61 55 62 70 64
REMARK SMILES IDX 92 65 57 66 40 67 41 68 50 69 42 70 43 71 49 72 51 73 44 74
REMARK SMILES IDX 45 75 46 76 47 77 48 78 74 79 75 80 84 81 76 82 77 83 83 84
REMARK SMILES IDX 85 85 78 86 79 87 80 88 81 89 82 90 58 91 59 92 68 93 60 94
REMARK SMILES IDX 61 95 67 96 69 97 62 98 63 99 64 100 65 101 66 102
REMARK H PARENT 90 52 56 63
REMARK Flexibility Score: inf
ROOT
ATOM      1  O   UNL A   1      39.516  20.399  25.795  1.00  0.00    -0.377 OA
ENDROOT
BRANCH   1   2
ATOM      2  C   UNL A   1      39.152  21.692  26.229  1.00  0.00     0.188 C 
BRANCH   2   3
ATOM      3  C   UNL A   1      38.000  22.376  25.459  1.00  0.00     0.188 C 
BRANCH   3   4
ATOM      4  O   UNL A   1      37.105  21.630  24.640  1.00  0.00    -0.376 OA
BRANCH   4   5
ATOM      5  C   UNL A   1      36.048  20.903  25.243  1.00  0.00     0.202 C 
BRANCH   5   6
ATOM      6  C   UNL A   1      34.861  21.680  25.837  1.00  0.00     0.261 C 
BRANCH   6   7
ATOM      7  O   UNL A   1      33.627  20.951  25.994  1.00  0.00    -0.463 OA
BRANCH   7   8
ATOM      8  C   UNL A   1      32.840  20.875  24.894  1.00  0.00     0.309 C 
ATOM      9  O   UNL A   1      32.995  20.069  23.983  1.00  0.00    -0.252 OA
BRANCH   8  10
ATOM     10  C   UNL A   1      31.743  21.932  24.832  1.00  0.00     0.103 C 
ATOM     11  C   UNL A   1      31.134  25.784  25.671  1.00  0.00     0.257 C 
ATOM     12  O   UNL A   1      31.616  25.838  26.799  1.00  0.00    -0.269 OA
ATOM     13  N   UNL A   1      30.697  24.595  25.109  1.00  0.00    -0.338 N 
ATOM     14  C   UNL A   1      30.169  23.576  25.982  1.00  0.00     0.120 C 
ATOM     15  C   UNL A   1      31.163  24.145  23.806  1.00  0.00     0.120 C 
ATOM     16  C   UNL A   1      31.144  22.425  26.154  1.00  0.00     0.037 C 
ATOM     17  C   UNL A   1      32.260  23.102  23.995  1.00  0.00     0.037 C 
BRANCH  11  18
ATOM     18  C   UNL A   1      30.865  26.975  24.886  1.00  0.00     0.080 A 
ATOM     19  N   UNL A   1      30.002  28.370  23.421  1.00  0.00    -0.269 N 
ATOM     20  N   UNL A   1      31.187  28.930  23.749  1.00  0.00    -0.180 NA
ATOM     21  C   UNL A   1      29.720  27.241  24.151  1.00  0.00     0.048 A 
ATOM     22  C   UNL A   1      31.720  28.061  24.606  1.00  0.00     0.149 A 
ATOM     23  C   UNL A   1      28.457  26.463  24.081  1.00  0.00     0.067 C 
BRANCH  19  24
ATOM     24  C   UNL A   1      29.196  29.027  22.410  1.00  0.00     0.144 C 
BRANCH  24  25
ATOM     25  C   UNL A   1      29.146  30.553  22.525  1.00  0.00     0.020 C 
ATOM     26  C   UNL A   1      27.918  31.079  23.254  1.00  0.00     0.006 C 
ENDBRANCH  24  25
ENDBRANCH  19  24
ENDBRANCH  11  18
ENDBRANCH   8  10
ENDBRANCH   7   8
ENDBRANCH   6   7
ENDBRANCH   5   6
ENDBRANCH   4   5
ENDBRANCH   3   4
ENDBRANCH   2   3
ENDBRANCH   1   2
BRANCH   1  27
ATOM     27  C   UNL A   1      40.716  19.904  26.367  1.00  0.00     0.188 C 
BRANCH  27  28
ATOM     28  C   UNL A   1      41.354  20.810  27.445  1.00  0.00     0.188 C 
BRANCH  28  29
ATOM     29  O   UNL A   1      42.599  21.403  27.069  1.00  0.00    -0.376 OA
BRANCH  29  30
ATOM     30  C   UNL A   1      42.965  21.539  25.701  1.00  0.00     0.202 C 
BRANCH  30  31
ATOM     31  C   UNL A   1      43.990  22.617  25.344  1.00  0.00     0.261 C 
BRANCH  31  32
ATOM     32  O   UNL A   1      43.453  23.704  24.617  1.00  0.00    -0.460 OA
BRANCH  32  33
ATOM     33  C   UNL A   1      43.938  24.912  24.968  1.00  0.00     0.338 C 
ATOM     34  O   UNL A   1      45.041  25.361  24.734  1.00  0.00    -0.246 OA
BRANCH  33  35
ATOM     35  C   UNL A   1      42.932  25.584  25.791  1.00  0.00     0.060 A 
ATOM     36  C   UNL A   1      42.440  26.776  25.265  1.00  0.00     0.016 A 
ATOM     37  C   UNL A   1      42.857  25.257  27.154  1.00  0.00     0.016 A 
ATOM     38  C   UNL A   1      42.188  27.787  26.152  1.00  0.00     0.010 A 
ATOM     39  C   UNL A   1      42.623  26.273  28.036  1.00  0.00     0.010 A 
ATOM     40  C   UNL A   1      42.410  27.541  27.511  1.00  0.00    -0.014 A 
BRANCH  40  41
ATOM     41  C   UNL A   1      42.360  28.666  28.403  1.00  0.00     0.031 A 
ATOM     42  C   UNL A   1      43.580  29.479  28.323  1.00  0.00     0.074 A 
ATOM     43  C   UNL A   1      41.284  28.931  29.163  1.00  0.00     0.049 A 
ATOM     44  N   UNL A   1      44.545  29.497  29.176  1.00  0.00    -0.248 NA
ATOM     45  C   UNL A   1      43.880  30.142  27.046  1.00  0.00     0.031 C 
ATOM     46  C   UNL A   1      39.962  28.306  29.132  1.00  0.00     0.029 A 
ATOM     47  N   UNL A   1      41.136  29.914  30.083  1.00  0.00    -0.354 N 
ATOM     48  C   UNL A   1      45.458  30.401  28.657  1.00  0.00     0.074 A 
ATOM     49  C   UNL A   1      45.127  30.556  27.265  1.00  0.00     0.031 C 
ATOM     50  C   UNL A   1      39.094  29.079  29.827  1.00  0.00     0.029 A 
ATOM     51  C   UNL A   1      39.822  30.182  30.434  1.00  0.00     0.049 A 
ATOM     52  H   UNL A   1      41.901  30.399  30.472  1.00  0.00     0.167 HD
ATOM     53  C   UNL A   1      46.203  31.176  29.486  1.00  0.00     0.037 A 
ATOM     54  C   UNL A   1      39.392  31.293  31.087  1.00  0.00     0.037 A 
ATOM     55  C   UNL A   1      46.205  30.652  30.832  1.00  0.00     0.049 A 
ATOM     56  C   UNL A   1      40.576  31.852  31.806  1.00  0.00     0.074 A 
ATOM     57  C   UNL A   1      46.558  29.438  31.393  1.00  0.00     0.029 A 
ATOM     58  N   UNL A   1      45.409  31.278  31.765  1.00  0.00    -0.354 N 
ATOM     59  N   UNL A   1      41.154  31.250  32.812  1.00  0.00    -0.248 NA
ATOM     60  C   UNL A   1      41.417  32.817  31.108  1.00  0.00     0.031 C 
ATOM     61  C   UNL A   1      45.589  29.199  32.410  1.00  0.00     0.029 A 
ATOM     62  C   UNL A   1      44.740  30.304  32.466  1.00  0.00     0.049 A 
ATOM     63  H   UNL A   1      45.334  32.250  31.906  1.00  0.00     0.167 HD
ATOM     64  C   UNL A   1      42.516  31.414  32.596  1.00  0.00     0.074 A 
ATOM     65  C   UNL A   1      42.616  32.466  31.587  1.00  0.00     0.031 C 
ATOM     66  C   UNL A   1      43.418  30.479  33.026  1.00  0.00     0.037 A 
BRANCH  53  67
ATOM     67  C   UNL A   1      46.576  32.598  29.161  1.00  0.00     0.058 A 
ATOM     68  C   UNL A   1      47.919  32.995  29.284  1.00  0.00     0.135 A 
ATOM     69  C   UNL A   1      45.639  33.645  28.997  1.00  0.00     0.135 A 
ATOM     70  F   UNL A   1      48.887  32.080  29.458  1.00  0.00    -0.206 F 
ATOM     71  C   UNL A   1      48.296  34.336  29.313  1.00  0.00     0.059 A 
ATOM     72  C   UNL A   1      46.000  34.984  28.960  1.00  0.00     0.059 A 
ATOM     73  F   UNL A   1      44.318  33.440  28.971  1.00  0.00    -0.206 F 
ATOM     74  C   UNL A   1      47.325  35.322  29.164  1.00  0.00     0.060 A 
BRANCH  74  75
ATOM     75  S   UNL A   1      47.788  37.053  29.310  1.00  0.00     0.124 S 
ATOM     76  O   UNL A   1      47.464  37.320  30.707  1.00  0.00    -0.237 OA
ATOM     77  O   UNL A   1      49.207  37.012  28.977  1.00  0.00    -0.237 OA
ATOM     78  O   UNL A   1      46.937  37.712  28.325  1.00  0.00    -0.744 OA
ENDBRANCH  74  75
ENDBRANCH  53  67
BRANCH  54  79
ATOM     79  C   UNL A   1      38.158  32.083  30.812  1.00  0.00     0.058 A 
ATOM     80  C   UNL A   1      38.165  33.132  29.874  1.00  0.00     0.135 A 
ATOM     81  C   UNL A   1      36.884  31.659  31.245  1.00  0.00     0.135 A 
ATOM     82  F   UNL A   1      39.328  33.602  29.395  1.00  0.00    -0.206 F 
ATOM     83  C   UNL A   1      36.986  33.671  29.343  1.00  0.00     0.059 A 
ATOM     84  C   UNL A   1      35.699  32.191  30.743  1.00  0.00     0.059 A 
ATOM     85  F   UNL A   1      36.738  30.639  32.103  1.00  0.00    -0.206 F 
ATOM     86  C   UNL A   1      35.755  33.172  29.765  1.00  0.00     0.060 A 
BRANCH  86  87
ATOM     87  S   UNL A   1      34.238  33.695  28.932  1.00  0.00     0.124 S 
ATOM     88  O   UNL A   1      33.476  34.278  30.030  1.00  0.00    -0.237 OA
ATOM     89  O   UNL A   1      34.741  34.633  27.934  1.00  0.00    -0.237 OA
ATOM     90  O   UNL A   1      33.703  32.447  28.393  1.00  0.00    -0.744 OA
ENDBRANCH  86  87
ENDBRANCH  54  79
BRANCH  66  91
ATOM     91  C   UNL A   1      42.931  29.421  33.987  1.00  0.00     0.058 A 
ATOM     92  C   UNL A   1      42.223  28.265  33.606  1.00  0.00     0.135 A 
ATOM     93  C   UNL A   1      43.294  29.526  35.337  1.00  0.00     0.135 A 
ATOM     94  F   UNL A   1      41.948  28.018  32.319  1.00  0.00    -0.206 F 
ATOM     95  C   UNL A   1      41.827  27.302  34.535  1.00  0.00     0.059 A 
ATOM     96  C   UNL A   1      42.942  28.559  36.276  1.00  0.00     0.059 A 
ATOM     97  F   UNL A   1      44.036  30.564  35.755  1.00  0.00    -0.206 F 
ATOM     98  C   UNL A   1      42.183  27.463  35.872  1.00  0.00     0.060 A 
BRANCH  98  99
ATOM     99  S   UNL A   1      41.692  26.205  37.071  1.00  0.00     0.124 S 
ATOM    100  O   UNL A   1      42.709  26.358  38.106  1.00  0.00    -0.237 OA
ATOM    101  O   UNL A   1      40.342  26.624  37.441  1.00  0.00    -0.237 OA
ATOM    102  O   UNL A   1      41.760  24.962  36.307  1.00  0.00    -0.744 OA
ENDBRANCH  98  99
ENDBRANCH  66  91
ENDBRANCH  40  41
ENDBRANCH  33  35
ENDBRANCH  32  33
ENDBRANCH  31  32
ENDBRANCH  30  31
ENDBRANCH  29  30
ENDBRANCH  28  29
ENDBRANCH  27  28
ENDBRANCH   1  27
TORSDOF 26
ENDMDL
MODEL 3
REMARK VINA RESULT:      -8.8      4.529     10.328
REMARK SMILES CCCn1ncc(C(=O)N2CCC(C(=O)OCCOCCOCCOCCOC(=O)c3ccc(-c4c5nc(c(-c6c(F)cc(S(=O)(=O)[O-])cc6F)c6ccc([nH]6)c(-c6c(F)cc(S(=O)(=O)[O-])cc6F)c6nc(c(-c7c(F)cc(S(=O)(=O)[O-])cc7F)c7ccc4[nH]7)C=C6)C=C5)cc3)CC2)c1C
REMARK SMILES IDX 22 1 21 2 20 3 19 4 18 5 17 6 16 7 14 8 15 9 13 10 8 11 9 12
REMARK SMILES IDX 10 13 11 14 98 15 12 16 97 17 7 18 4 19 5 20 99 21 6 22
REMARK SMILES IDX 100 23 3 24 2 25 1 26 23 27 24 28 25 29 26 30 27 31 28 32
REMARK SMILES IDX 29 33 30 34 31 35 32 36 96 37 33 38 95 39 34 40 35 41 36 42
REMARK SMILES IDX 89 43 37 44 94 45 88 46 90 47 38 48 93 49 87 50 86 51 39 53
REMARK SMILES IDX 73 54 52 55 72 56 53 57 56 58 71 59 91 60 54 61 55 62 70 64
REMARK SMILES IDX 92 65 57 66 40 67 41 68 50 69 42 70 43 71 49 72 51 73 44 74
REMARK SMILES IDX 45 75 46 76 47 77 48 78 74 79 75 80 84 81 76 82 77 83 83 84
REMARK SMILES IDX 85 85 78 86 79 87 80 88 81 89 82 90 58 91 59 92 68 93 60 94
REMARK SMILES IDX 61 95 67 96 69 97 62 98 63 99 64 100 65 101 66 102
REMARK H PARENT 90 52 56 63
REMARK Flexibility Score: inf
ROOT
ATOM      1  O   UNL A   1      39.173  20.859  25.750  1.00  0.00    -0.377 OA
ENDROOT
BRANCH   1   2
ATOM      2  C   UNL A   1      38.377  22.010  25.935  1.00  0.00     0.188 C 
BRANCH   2   3
ATOM      3  C   UNL A   1      37.493  22.434  24.741  1.00  0.00     0.188 C 
BRANCH   3   4
ATOM      4  O   UNL A   1      36.449  21.597  24.253  1.00  0.00    -0.376 OA
BRANCH   4   5
ATOM      5  C   UNL A   1      35.609  20.920  25.172  1.00  0.00     0.202 C 
BRANCH   5   6
ATOM      6  C   UNL A   1      34.601  21.740  25.994  1.00  0.00     0.261 C 
BRANCH   6   7
ATOM      7  O   UNL A   1      33.421  21.045  26.446  1.00  0.00    -0.463 OA
BRANCH   7   8
ATOM      8  C   UNL A   1      32.407  20.955  25.551  1.00  0.00     0.309 C 
ATOM      9  O   UNL A   1      32.203  19.985  24.829  1.00  0.00    -0.252 OA
BRANCH   8  10
ATOM     10  C   UNL A   1      31.540  22.204  25.455  1.00  0.00     0.103 C 
ATOM     11  C   UNL A   1      31.854  26.119  24.755  1.00  0.00     0.257 C 
ATOM     12  O   UNL A   1      32.795  26.395  25.493  1.00  0.00    -0.269 OA
ATOM     13  N   UNL A   1      31.068  24.995  24.948  1.00  0.00    -0.338 N 
ATOM     14  C   UNL A   1      30.869  24.517  26.295  1.00  0.00     0.120 C 
ATOM     15  C   UNL A   1      30.837  24.028  23.885  1.00  0.00     0.120 C 
ATOM     16  C   UNL A   1      31.667  23.255  26.565  1.00  0.00     0.037 C 
ATOM     17  C   UNL A   1      31.764  22.832  24.080  1.00  0.00     0.037 C 
BRANCH  11  18
ATOM     18  C   UNL A   1      31.408  27.012  23.701  1.00  0.00     0.080 A 
ATOM     19  N   UNL A   1      30.499  28.705  22.633  1.00  0.00    -0.269 N 
ATOM     20  N   UNL A   1      30.636  27.754  21.683  1.00  0.00    -0.180 NA
ATOM     21  C   UNL A   1      31.038  28.341  23.842  1.00  0.00     0.048 A 
ATOM     22  C   UNL A   1      31.151  26.720  22.345  1.00  0.00     0.149 A 
ATOM     23  C   UNL A   1      31.122  29.207  25.046  1.00  0.00     0.067 C 
BRANCH  19  24
ATOM     24  C   UNL A   1      29.862  29.954  22.258  1.00  0.00     0.144 C 
BRANCH  24  25
ATOM     25  C   UNL A   1      28.358  29.849  21.993  1.00  0.00     0.020 C 
ATOM     26  C   UNL A   1      27.608  28.999  23.008  1.00  0.00     0.006 C 
ENDBRANCH  24  25
ENDBRANCH  19  24
ENDBRANCH  11  18
ENDBRANCH   8  10
ENDBRANCH   7   8
ENDBRANCH   6   7
ENDBRANCH   5   6
ENDBRANCH   4   5
ENDBRANCH   3   4
ENDBRANCH   2   3
ENDBRANCH   1   2
BRANCH   1  27
ATOM     27  C   UNL A   1      40.394  20.867  26.472  1.00  0.00     0.188 C 
BRANCH  27  28
ATOM     28  C   UNL A   1      40.703  22.179  27.228  1.00  0.00     0.188 C 
BRANCH  28  29
ATOM     29  O   UNL A   1      41.791  22.937  26.695  1.00  0.00    -0.376 OA
BRANCH  29  30
ATOM     30  C   UNL A   1      42.433  22.550  25.486  1.00  0.00     0.202 C 
BRANCH  30  31
ATOM     31  C   UNL A   1      43.340  23.576  24.803  1.00  0.00     0.261 C 
BRANCH  31  32
ATOM     32  O   UNL A   1      44.257  23.014  23.886  1.00  0.00    -0.460 OA
BRANCH  32  33
ATOM     33  C   UNL A   1      45.191  22.216  24.440  1.00  0.00     0.338 C 
ATOM     34  O   UNL A   1      45.332  21.022  24.276  1.00  0.00    -0.246 OA
BRANCH  33  35
ATOM     35  C   UNL A   1      45.975  23.017  25.380  1.00  0.00     0.060 A 
ATOM     36  C   UNL A   1      45.868  22.632  26.714  1.00  0.00     0.016 A 
ATOM     37  C   UNL A   1      46.395  24.295  24.980  1.00  0.00     0.016 A 
ATOM     38  C   UNL A   1      45.848  23.633  27.647  1.00  0.00     0.010 A 
ATOM     39  C   UNL A   1      46.356  25.294  25.911  1.00  0.00     0.010 A 
ATOM     40  C   UNL A   1      45.967  24.953  27.200  1.00  0.00    -0.014 A 
BRANCH  40  41
ATOM     41  C   UNL A   1      45.719  25.999  28.154  1.00  0.00     0.031 A 
ATOM     42  C   UNL A   1      44.294  26.340  28.229  1.00  0.00     0.074 A 
ATOM     43  C   UNL A   1      46.699  26.533  28.901  1.00  0.00     0.049 A 
ATOM     44  N   UNL A   1      43.727  27.376  27.715  1.00  0.00    -0.248 NA
ATOM     45  C   UNL A   1      43.363  25.303  28.698  1.00  0.00     0.031 C 
ATOM     46  C   UNL A   1      48.088  26.096  29.044  1.00  0.00     0.029 A 
ATOM     47  N   UNL A   1      46.609  27.559  29.782  1.00  0.00    -0.354 N 
ATOM     48  C   UNL A   1      42.387  27.245  28.044  1.00  0.00     0.074 A 
ATOM     49  C   UNL A   1      42.191  25.866  28.404  1.00  0.00     0.031 C 
ATOM     50  C   UNL A   1      48.632  26.707  30.122  1.00  0.00     0.029 A 
ATOM     51  C   UNL A   1      47.670  27.649  30.671  1.00  0.00     0.049 A 
ATOM     52  H   UNL A   1      45.852  28.189  29.790  1.00  0.00     0.167 HD
ATOM     53  C   UNL A   1      41.631  28.345  28.293  1.00  0.00     0.037 A 
ATOM     54  C   UNL A   1      47.676  28.378  31.817  1.00  0.00     0.037 A 
ATOM     55  C   UNL A   1      42.264  29.541  27.787  1.00  0.00     0.049 A 
ATOM     56  C   UNL A   1      46.629  29.433  31.660  1.00  0.00     0.074 A 
ATOM     57  C   UNL A   1      42.714  29.939  26.541  1.00  0.00     0.029 A 
ATOM     58  N   UNL A   1      42.886  30.370  28.693  1.00  0.00    -0.354 N 
ATOM     59  N   UNL A   1      46.725  30.418  30.806  1.00  0.00    -0.248 NA
ATOM     60  C   UNL A   1      45.269  29.125  32.086  1.00  0.00     0.031 C 
ATOM     61  C   UNL A   1      43.922  30.654  26.790  1.00  0.00     0.029 A 
ATOM     62  C   UNL A   1      44.109  30.716  28.172  1.00  0.00     0.049 A 
ATOM     63  H   UNL A   1      42.521  30.663  29.559  1.00  0.00     0.167 HD
ATOM     64  C   UNL A   1      45.456  30.544  30.257  1.00  0.00     0.074 A 
ATOM     65  C   UNL A   1      44.580  29.789  31.151  1.00  0.00     0.031 C 
ATOM     66  C   UNL A   1      45.280  30.990  28.976  1.00  0.00     0.037 A 
BRANCH  53  67
ATOM     67  C   UNL A   1      40.544  28.373  29.335  1.00  0.00     0.058 A 
ATOM     68  C   UNL A   1      39.262  28.818  28.970  1.00  0.00     0.135 A 
ATOM     69  C   UNL A   1      40.776  28.239  30.725  1.00  0.00     0.135 A 
ATOM     70  F   UNL A   1      38.943  28.991  27.677  1.00  0.00    -0.206 F 
ATOM     71  C   UNL A   1      38.303  29.172  29.917  1.00  0.00     0.059 A 
ATOM     72  C   UNL A   1      39.814  28.526  31.682  1.00  0.00     0.059 A 
ATOM     73  F   UNL A   1      41.972  27.928  31.235  1.00  0.00    -0.206 F 
ATOM     74  C   UNL A   1      38.596  29.035  31.271  1.00  0.00     0.060 A 
BRANCH  74  75
ATOM     75  S   UNL A   1      37.406  29.592  32.497  1.00  0.00     0.124 S 
ATOM     76  O   UNL A   1      36.228  29.823  31.670  1.00  0.00    -0.237 OA
ATOM     77  O   UNL A   1      37.344  28.445  33.397  1.00  0.00    -0.237 OA
ATOM     78  O   UNL A   1      38.033  30.786  33.055  1.00  0.00    -0.744 OA
ENDBRANCH  74  75
ENDBRANCH  53  67
BRANCH  54  79
ATOM     79  C   UNL A   1      48.241  27.981  33.138  1.00  0.00     0.058 A 
ATOM     80  C   UNL A   1      49.233  28.760  33.763  1.00  0.00     0.135 A 
ATOM     81  C   UNL A   1      47.636  26.997  33.948  1.00  0.00     0.135 A 
ATOM     82  F   UNL A   1      49.863  29.728  33.079  1.00  0.00    -0.206 F 
ATOM     83  C   UNL A   1      49.549  28.623  35.121  1.00  0.00     0.059 A 
ATOM     84  C   UNL A   1      47.945  26.833  35.296  1.00  0.00     0.059 A 
ATOM     85  F   UNL A   1      46.647  26.219  33.486  1.00  0.00    -0.206 F 
ATOM     86  C   UNL A   1      48.876  27.673  35.887  1.00  0.00     0.060 A 
BRANCH  86  87
ATOM     87  S   UNL A   1      49.106  27.634  37.680  1.00  0.00     0.124 S 
ATOM     88  O   UNL A   1      50.308  26.819  37.813  1.00  0.00    -0.237 OA
ATOM     89  O   UNL A   1      49.255  29.050  38.003  1.00  0.00    -0.237 OA
ATOM     90  O   UNL A   1      47.874  27.017  38.165  1.00  0.00    -0.744 OA
ENDBRANCH  86  87
ENDBRANCH  54  79
BRANCH  66  91
ATOM     91  C   UNL A   1      46.466  31.611  28.278  1.00  0.00     0.058 A 
ATOM     92  C   UNL A   1      47.531  30.881  27.715  1.00  0.00     0.135 A 
ATOM     93  C   UNL A   1      46.469  32.997  28.071  1.00  0.00     0.135 A 
ATOM     94  F   UNL A   1      47.544  29.542  27.750  1.00  0.00    -0.206 F 
ATOM     95  C   UNL A   1      48.586  31.508  27.050  1.00  0.00     0.059 A 
ATOM     96  C   UNL A   1      47.492  33.641  27.379  1.00  0.00     0.059 A 
ATOM     97  F   UNL A   1      45.445  33.746  28.514  1.00  0.00    -0.206 F 
ATOM     98  C   UNL A   1      48.563  32.892  26.896  1.00  0.00     0.060 A 
BRANCH  98  99
ATOM     99  S   UNL A   1      49.915  33.702  26.016  1.00  0.00     0.124 S 
ATOM    100  O   UNL A   1      50.617  34.386  27.097  1.00  0.00    -0.237 OA
ATOM    101  O   UNL A   1      50.623  32.576  25.411  1.00  0.00    -0.237 OA
ATOM    102  O   UNL A   1      49.229  34.575  25.066  1.00  0.00    -0.744 OA
ENDBRANCH  98  99
ENDBRANCH  66  91
ENDBRANCH  40  41
ENDBRANCH  33  35
ENDBRANCH  32  33
ENDBRANCH  31  32
ENDBRANCH  30  31
ENDBRANCH  29  30
ENDBRANCH  28  29
ENDBRANCH  27  28
ENDBRANCH   1  27
TORSDOF 26
ENDMDL
