MODEL 1
REMARK VINA RESULT:      -8.5      0.000      0.000
REMARK SMILES C[N@H+]1Cc2ccccc2C[C@@H]1C(=O)NCCC(=O)NCC(=O)OCCOCCOCCOCCOC(=O)c1ccc(-c2c3nc(c(-c4c(F)cc(S(=O)(=O)[O-])cc4F)c4ccc([nH]4)c(-c4c(F)cc(S(=O)(=O)[O-])cc4F)c4nc(c(-c5c(F)cc(S(=O)(=O)[O-])cc5F)c5ccc2[nH]5)C=C4)C=C3)cc1
REMARK SMILES IDX 28 1 27 2 26 3 25 4 24 5 23 6 21 7 22 8 20 9 19 10 17 11
REMARK SMILES IDX 18 12 16 14 15 15 14 16 12 17 13 18 11 20 1 21 2 22 3 23
REMARK SMILES IDX 4 25 10 26 5 27 9 28 6 29 8 30 7 31 29 32 30 33 31 34 32 35
REMARK SMILES IDX 33 36 34 37 35 38 36 39 37 40 38 41 39 42 103 43 40 44
REMARK SMILES IDX 102 45 41 46 42 47 43 48 96 49 44 50 101 51 95 52 97 53
REMARK SMILES IDX 45 54 100 55 94 56 93 57 46 59 80 60 59 61 79 62 60 63 63 64
REMARK SMILES IDX 78 65 98 66 61 67 62 68 77 70 99 71 64 72 47 73 48 74 57 75
REMARK SMILES IDX 49 76 50 77 56 78 58 79 51 80 52 81 53 82 54 83 55 84 81 85
REMARK SMILES IDX 82 86 91 87 83 88 84 89 90 90 92 91 85 92 86 93 87 94 88 95
REMARK SMILES IDX 89 96 65 97 66 98 75 99 67 100 68 101 74 102 76 103 69 104
REMARK SMILES IDX 70 105 71 106 72 107 73 108
REMARK H PARENT 19 13 14 19 2 24 97 58 63 69
REMARK Flexibility Score: inf
ROOT
ATOM      1  C   UNL A   1      36.381  31.393  29.269  1.00  0.00     0.188 C 
ENDROOT
BRANCH   1   2
ATOM      2  C   UNL A   1      35.668  30.852  28.016  1.00  0.00     0.188 C 
BRANCH   2   3
ATOM      3  O   UNL A   1      34.747  29.774  28.094  1.00  0.00    -0.376 OA
BRANCH   3   4
ATOM      4  C   UNL A   1      34.340  29.073  26.930  1.00  0.00     0.202 C 
BRANCH   4   5
ATOM      5  C   UNL A   1      32.866  28.714  26.703  1.00  0.00     0.261 C 
BRANCH   5   6
ATOM      6  O   UNL A   1      32.479  27.351  26.947  1.00  0.00    -0.462 OA
BRANCH   6   7
ATOM      7  C   UNL A   1      31.401  26.877  26.264  1.00  0.00     0.325 C 
ATOM      8  O   UNL A   1      30.622  26.040  26.715  1.00  0.00    -0.250 OA
BRANCH   7   9
ATOM      9  C   UNL A   1      31.163  27.596  24.914  1.00  0.00     0.238 C 
BRANCH   9  10
ATOM     10  N   UNL A   1      31.636  27.026  23.648  1.00  0.00    -0.345 N 
ATOM     11  C   UNL A   1      31.298  25.892  22.996  1.00  0.00     0.222 C 
ATOM     12  O   UNL A   1      31.795  25.687  21.885  1.00  0.00    -0.275 OA
ATOM     13  H   UNL A   1      32.322  27.566  23.192  1.00  0.00     0.164 HD
BRANCH  11  14
ATOM     14  C   UNL A   1      30.347  24.910  23.606  1.00  0.00     0.121 C 
BRANCH  14  15
ATOM     15  C   UNL A   1      31.005  23.545  23.717  1.00  0.00     0.126 C 
BRANCH  15  16
ATOM     16  N   UNL A   1      32.340  23.522  24.299  1.00  0.00    -0.350 N 
ATOM     17  C   UNL A   1      32.615  22.791  25.432  1.00  0.00     0.278 C 
ATOM     18  O   UNL A   1      32.087  23.042  26.516  1.00  0.00    -0.268 OA
ATOM     19  H   UNL A   1      33.061  24.041  23.874  1.00  0.00     0.163 HD
BRANCH  17  20
ATOM     20  C   UNL A   1      33.421  21.516  25.274  1.00  0.00     0.278 C 
ATOM     21  C   UNL A   1      35.570  22.564  25.783  1.00  0.00     0.333 C 
ATOM     22  N   UNL A   1      34.847  21.651  24.894  1.00  0.00    -0.323 N 
ATOM     23  C   UNL A   1      35.470  20.299  25.012  1.00  0.00     0.299 C 
ATOM     24  H   UNL A   1      34.900  22.028  23.947  1.00  0.00     0.348 HD
ATOM     25  C   UNL A   1      34.616  19.134  24.528  1.00  0.00     0.010 A 
ATOM     26  C   UNL A   1      32.695  20.691  24.210  1.00  0.00     0.111 C 
ATOM     27  C   UNL A   1      35.131  17.835  24.521  1.00  0.00     0.010 A 
ATOM     28  C   UNL A   1      33.271  19.316  24.168  1.00  0.00    -0.033 A 
ATOM     29  C   UNL A   1      34.324  16.755  24.146  1.00  0.00     0.001 A 
ATOM     30  C   UNL A   1      32.471  18.242  23.767  1.00  0.00     0.004 A 
ATOM     31  C   UNL A   1      32.998  16.959  23.765  1.00  0.00     0.000 A 
ENDBRANCH  17  20
ENDBRANCH  15  16
ENDBRANCH  14  15
ENDBRANCH  11  14
ENDBRANCH   9  10
ENDBRANCH   7   9
ENDBRANCH   6   7
ENDBRANCH   5   6
ENDBRANCH   4   5
ENDBRANCH   3   4
ENDBRANCH   2   3
ENDBRANCH   1   2
BRANCH   1  32
ATOM     32  O   UNL A   1      35.914  30.894  30.505  1.00  0.00    -0.377 OA
BRANCH  32  33
ATOM     33  C   UNL A   1      36.861  30.847  31.565  1.00  0.00     0.188 C 
BRANCH  33  34
ATOM     34  C   UNL A   1      36.497  31.603  32.859  1.00  0.00     0.188 C 
BRANCH  34  35
ATOM     35  O   UNL A   1      37.374  31.355  33.949  1.00  0.00    -0.376 OA
BRANCH  35  36
ATOM     36  C   UNL A   1      37.636  32.371  34.905  1.00  0.00     0.202 C 
BRANCH  36  37
ATOM     37  C   UNL A   1      38.315  33.679  34.461  1.00  0.00     0.261 C 
BRANCH  37  38
ATOM     38  O   UNL A   1      39.449  33.562  33.594  1.00  0.00    -0.460 OA
BRANCH  38  39
ATOM     39  C   UNL A   1      39.255  33.753  32.274  1.00  0.00     0.338 C 
ATOM     40  O   UNL A   1      38.549  34.604  31.754  1.00  0.00    -0.246 OA
BRANCH  39  41
ATOM     41  C   UNL A   1      40.215  32.899  31.548  1.00  0.00     0.060 A 
ATOM     42  C   UNL A   1      40.711  31.750  32.181  1.00  0.00     0.016 A 
ATOM     43  C   UNL A   1      40.626  33.227  30.254  1.00  0.00     0.016 A 
ATOM     44  C   UNL A   1      41.661  30.957  31.544  1.00  0.00     0.010 A 
ATOM     45  C   UNL A   1      41.602  32.448  29.628  1.00  0.00     0.010 A 
ATOM     46  C   UNL A   1      42.155  31.337  30.290  1.00  0.00    -0.014 A 
BRANCH  46  47
ATOM     47  C   UNL A   1      43.414  30.732  29.797  1.00  0.00     0.031 A 
ATOM     48  C   UNL A   1      43.354  29.322  29.272  1.00  0.00     0.074 A 
ATOM     49  C   UNL A   1      44.567  31.423  29.775  1.00  0.00     0.049 A 
ATOM     50  N   UNL A   1      44.318  28.553  28.842  1.00  0.00    -0.248 NA
ATOM     51  C   UNL A   1      42.020  28.694  29.227  1.00  0.00     0.031 C 
ATOM     52  C   UNL A   1      44.732  32.810  30.202  1.00  0.00     0.029 A 
ATOM     53  N   UNL A   1      45.824  31.040  29.380  1.00  0.00    -0.354 N 
ATOM     54  C   UNL A   1      43.712  27.355  28.483  1.00  0.00     0.074 A 
ATOM     55  C   UNL A   1      42.303  27.483  28.776  1.00  0.00     0.031 C 
ATOM     56  C   UNL A   1      46.023  33.159  30.060  1.00  0.00     0.029 A 
ATOM     57  C   UNL A   1      46.780  32.008  29.569  1.00  0.00     0.049 A 
ATOM     58  H   UNL A   1      46.021  30.155  28.995  1.00  0.00     0.167 HD
ATOM     59  C   UNL A   1      44.280  26.249  27.947  1.00  0.00     0.037 A 
ATOM     60  C   UNL A   1      48.116  31.956  29.391  1.00  0.00     0.037 A 
ATOM     61  C   UNL A   1      45.684  26.131  27.659  1.00  0.00     0.049 A 
ATOM     62  C   UNL A   1      48.738  30.680  28.875  1.00  0.00     0.074 A 
ATOM     63  C   UNL A   1      46.363  25.054  27.117  1.00  0.00     0.029 A 
ATOM     64  N   UNL A   1      46.627  27.122  27.893  1.00  0.00    -0.354 N 
ATOM     65  N   UNL A   1      48.156  29.556  28.532  1.00  0.00    -0.248 NA
ATOM     66  C   UNL A   1      50.199  30.669  28.716  1.00  0.00     0.031 C 
ATOM     67  C   UNL A   1      47.723  25.373  27.075  1.00  0.00     0.029 A 
ATOM     68  C   UNL A   1      47.884  26.673  27.528  1.00  0.00     0.049 A 
ATOM     69  H   UNL A   1      46.430  28.012  28.266  1.00  0.00     0.167 HD
ATOM     70  C   UNL A   1      49.174  28.720  28.081  1.00  0.00     0.074 A 
ATOM     71  C   UNL A   1      50.406  29.472  28.185  1.00  0.00     0.031 C 
ATOM     72  C   UNL A   1      49.098  27.446  27.618  1.00  0.00     0.037 A 
BRANCH  59  73
ATOM     73  C   UNL A   1      43.390  25.072  27.660  1.00  0.00     0.058 A 
ATOM     74  C   UNL A   1      42.951  24.209  28.678  1.00  0.00     0.135 A 
ATOM     75  C   UNL A   1      42.928  24.832  26.356  1.00  0.00     0.135 A 
ATOM     76  F   UNL A   1      43.383  24.376  29.939  1.00  0.00    -0.206 F 
ATOM     77  C   UNL A   1      42.098  23.143  28.412  1.00  0.00     0.059 A 
ATOM     78  C   UNL A   1      42.049  23.791  26.071  1.00  0.00     0.059 A 
ATOM     79  F   UNL A   1      43.323  25.619  25.344  1.00  0.00    -0.206 F 
ATOM     80  C   UNL A   1      41.646  22.948  27.105  1.00  0.00     0.060 A 
BRANCH  80  81
ATOM     81  S   UNL A   1      40.512  21.581  26.784  1.00  0.00     0.124 S 
ATOM     82  O   UNL A   1      39.247  22.286  26.605  1.00  0.00    -0.237 OA
ATOM     83  O   UNL A   1      41.081  20.983  25.581  1.00  0.00    -0.237 OA
ATOM     84  O   UNL A   1      40.610  20.766  27.992  1.00  0.00    -0.744 OA
ENDBRANCH  80  81
ENDBRANCH  59  73
BRANCH  60  85
ATOM     85  C   UNL A   1      48.968  33.132  29.723  1.00  0.00     0.058 A 
ATOM     86  C   UNL A   1      49.298  34.088  28.751  1.00  0.00     0.135 A 
ATOM     87  C   UNL A   1      49.499  33.304  31.011  1.00  0.00     0.135 A 
ATOM     88  F   UNL A   1      48.826  33.965  27.502  1.00  0.00    -0.206 F 
ATOM     89  C   UNL A   1      50.150  35.152  29.033  1.00  0.00     0.059 A 
ATOM     90  C   UNL A   1      50.326  34.377  31.327  1.00  0.00     0.059 A 
ATOM     91  F   UNL A   1      49.206  32.425  31.983  1.00  0.00    -0.206 F 
ATOM     92  C   UNL A   1      50.660  35.287  30.326  1.00  0.00     0.060 A 
BRANCH  92  93
ATOM     93  S   UNL A   1      51.750  36.681  30.684  1.00  0.00     0.124 S 
ATOM     94  O   UNL A   1      52.027  37.190  29.346  1.00  0.00    -0.237 OA
ATOM     95  O   UNL A   1      50.903  37.521  31.526  1.00  0.00    -0.237 OA
ATOM     96  O   UNL A   1      52.879  36.056  31.368  1.00  0.00    -0.744 OA
ENDBRANCH  92  93
ENDBRANCH  60  85
BRANCH  72  97
ATOM     97  C   UNL A   1      50.368  26.802  27.130  1.00  0.00     0.058 A 
ATOM     98  C   UNL A   1      51.321  26.269  28.011  1.00  0.00     0.135 A 
ATOM     99  C   UNL A   1      50.605  26.665  25.751  1.00  0.00     0.135 A 
ATOM    100  F   UNL A   1      51.147  26.374  29.339  1.00  0.00    -0.206 F 
ATOM    101  C   UNL A   1      52.476  25.650  27.545  1.00  0.00     0.059 A 
ATOM    102  C   UNL A   1      51.735  26.020  25.262  1.00  0.00     0.059 A 
ATOM    103  F   UNL A   1      49.720  27.145  24.862  1.00  0.00    -0.206 F 
ATOM    104  C   UNL A   1      52.674  25.527  26.167  1.00  0.00     0.060 A 
BRANCH 104 105
ATOM    105  S   UNL A   1      54.161  24.693  25.578  1.00  0.00     0.124 S 
ATOM    106  O   UNL A   1      54.951  24.600  26.801  1.00  0.00    -0.237 OA
ATOM    107  O   UNL A   1      53.631  23.433  25.068  1.00  0.00    -0.237 OA
ATOM    108  O   UNL A   1      54.683  25.604  24.562  1.00  0.00    -0.744 OA
ENDBRANCH 104 105
ENDBRANCH  72  97
ENDBRANCH  46  47
ENDBRANCH  39  41
ENDBRANCH  38  39
ENDBRANCH  37  38
ENDBRANCH  36  37
ENDBRANCH  35  36
ENDBRANCH  34  35
ENDBRANCH  33  34
ENDBRANCH  32  33
ENDBRANCH   1  32
TORSDOF 28
ENDMDL
MODEL 2
REMARK VINA RESULT:      -8.4      5.737     12.188
REMARK SMILES C[N@H+]1Cc2ccccc2C[C@@H]1C(=O)NCCC(=O)NCC(=O)OCCOCCOCCOCCOC(=O)c1ccc(-c2c3nc(c(-c4c(F)cc(S(=O)(=O)[O-])cc4F)c4ccc([nH]4)c(-c4c(F)cc(S(=O)(=O)[O-])cc4F)c4nc(c(-c5c(F)cc(S(=O)(=O)[O-])cc5F)c5ccc2[nH]5)C=C4)C=C3)cc1
REMARK SMILES IDX 28 1 27 2 26 3 25 4 24 5 23 6 21 7 22 8 20 9 19 10 17 11
REMARK SMILES IDX 18 12 16 14 15 15 14 16 12 17 13 18 11 20 1 21 2 22 3 23
REMARK SMILES IDX 4 25 10 26 5 27 9 28 6 29 8 30 7 31 29 32 30 33 31 34 32 35
REMARK SMILES IDX 33 36 34 37 35 38 36 39 37 40 38 41 39 42 103 43 40 44
REMARK SMILES IDX 102 45 41 46 42 47 43 48 96 49 44 50 101 51 95 52 97 53
REMARK SMILES IDX 45 54 100 55 94 56 93 57 46 59 80 60 59 61 79 62 60 63 63 64
REMARK SMILES IDX 78 65 98 66 61 67 62 68 77 70 99 71 64 72 47 73 48 74 57 75
REMARK SMILES IDX 49 76 50 77 56 78 58 79 51 80 52 81 53 82 54 83 55 84 81 85
REMARK SMILES IDX 82 86 91 87 83 88 84 89 90 90 92 91 85 92 86 93 87 94 88 95
REMARK SMILES IDX 89 96 65 97 66 98 75 99 67 100 68 101 74 102 76 103 69 104
REMARK SMILES IDX 70 105 71 106 72 107 73 108
REMARK H PARENT 19 13 14 19 2 24 97 58 63 69
REMARK Flexibility Score: inf
ROOT
ATOM      1  C   UNL A   1      39.600  24.148  27.182  1.00  0.00     0.188 C 
ENDROOT
BRANCH   1   2
ATOM      2  C   UNL A   1      38.166  24.107  26.625  1.00  0.00     0.188 C 
BRANCH   2   3
ATOM      3  O   UNL A   1      37.700  23.007  25.857  1.00  0.00    -0.376 OA
BRANCH   3   4
ATOM      4  C   UNL A   1      37.143  23.199  24.566  1.00  0.00     0.202 C 
BRANCH   4   5
ATOM      5  C   UNL A   1      35.624  23.213  24.358  1.00  0.00     0.261 C 
BRANCH   5   6
ATOM      6  O   UNL A   1      34.871  22.143  24.954  1.00  0.00    -0.462 OA
BRANCH   6   7
ATOM      7  C   UNL A   1      34.497  22.291  26.254  1.00  0.00     0.325 C 
ATOM      8  O   UNL A   1      34.720  21.456  27.127  1.00  0.00    -0.250 OA
BRANCH   7   9
ATOM      9  C   UNL A   1      33.886  23.680  26.564  1.00  0.00     0.238 C 
BRANCH   9  10
ATOM     10  N   UNL A   1      32.435  23.878  26.642  1.00  0.00    -0.345 N 
ATOM     11  C   UNL A   1      31.507  24.081  25.682  1.00  0.00     0.222 C 
ATOM     12  O   UNL A   1      30.321  24.133  26.017  1.00  0.00    -0.275 OA
ATOM     13  H   UNL A   1      32.072  23.859  27.558  1.00  0.00     0.164 HD
BRANCH  11  14
ATOM     14  C   UNL A   1      31.908  24.239  24.248  1.00  0.00     0.121 C 
BRANCH  14  15
ATOM     15  C   UNL A   1      30.676  24.426  23.379  1.00  0.00     0.126 C 
BRANCH  15  16
ATOM     16  N   UNL A   1      30.435  25.777  22.890  1.00  0.00    -0.350 N 
ATOM     17  C   UNL A   1      29.641  26.659  23.588  1.00  0.00     0.278 C 
ATOM     18  O   UNL A   1      28.441  26.453  23.775  1.00  0.00    -0.268 OA
ATOM     19  H   UNL A   1      30.846  26.064  22.043  1.00  0.00     0.163 HD
BRANCH  17  20
ATOM     20  C   UNL A   1      30.324  27.797  24.322  1.00  0.00     0.278 C 
ATOM     21  C   UNL A   1      29.065  29.560  23.191  1.00  0.00     0.333 C 
ATOM     22  N   UNL A   1      30.384  29.112  23.641  1.00  0.00    -0.323 N 
ATOM     23  C   UNL A   1      30.899  30.104  24.632  1.00  0.00     0.299 C 
ATOM     24  H   UNL A   1      30.985  29.029  22.820  1.00  0.00     0.348 HD
ATOM     25  C   UNL A   1      32.024  29.614  25.534  1.00  0.00     0.010 A 
ATOM     26  C   UNL A   1      31.748  27.315  24.609  1.00  0.00     0.111 C 
ATOM     27  C   UNL A   1      32.631  30.484  26.444  1.00  0.00     0.010 A 
ATOM     28  C   UNL A   1      32.415  28.265  25.545  1.00  0.00    -0.033 A 
ATOM     29  C   UNL A   1      33.614  30.017  27.324  1.00  0.00     0.001 A 
ATOM     30  C   UNL A   1      33.415  27.803  26.405  1.00  0.00     0.004 A 
ATOM     31  C   UNL A   1      34.008  28.680  27.301  1.00  0.00     0.000 A 
ENDBRANCH  17  20
ENDBRANCH  15  16
ENDBRANCH  14  15
ENDBRANCH  11  14
ENDBRANCH   9  10
ENDBRANCH   7   9
ENDBRANCH   6   7
ENDBRANCH   5   6
ENDBRANCH   4   5
ENDBRANCH   3   4
ENDBRANCH   2   3
ENDBRANCH   1   2
BRANCH   1  32
ATOM     32  O   UNL A   1      40.587  24.643  26.300  1.00  0.00    -0.377 OA
BRANCH  32  33
ATOM     33  C   UNL A   1      40.768  26.054  26.285  1.00  0.00     0.188 C 
BRANCH  33  34
ATOM     34  C   UNL A   1      41.769  26.618  25.255  1.00  0.00     0.188 C 
BRANCH  34  35
ATOM     35  O   UNL A   1      43.104  26.161  25.423  1.00  0.00    -0.376 OA
BRANCH  35  36
ATOM     36  C   UNL A   1      43.498  24.895  24.919  1.00  0.00     0.202 C 
BRANCH  36  37
ATOM     37  C   UNL A   1      44.084  23.841  25.876  1.00  0.00     0.261 C 
BRANCH  37  38
ATOM     38  O   UNL A   1      44.032  24.136  27.277  1.00  0.00    -0.460 OA
BRANCH  38  39
ATOM     39  C   UNL A   1      44.935  25.005  27.772  1.00  0.00     0.338 C 
ATOM     40  O   UNL A   1      46.129  25.047  27.512  1.00  0.00    -0.246 OA
BRANCH  39  41
ATOM     41  C   UNL A   1      44.200  26.046  28.517  1.00  0.00     0.060 A 
ATOM     42  C   UNL A   1      44.725  27.345  28.558  1.00  0.00     0.016 A 
ATOM     43  C   UNL A   1      43.003  25.745  29.171  1.00  0.00     0.016 A 
ATOM     44  C   UNL A   1      44.084  28.334  29.300  1.00  0.00     0.010 A 
ATOM     45  C   UNL A   1      42.377  26.728  29.941  1.00  0.00     0.010 A 
ATOM     46  C   UNL A   1      42.942  28.013  30.043  1.00  0.00    -0.014 A 
BRANCH  46  47
ATOM     47  C   UNL A   1      42.496  28.934  31.115  1.00  0.00     0.031 A 
ATOM     48  C   UNL A   1      43.255  28.914  32.416  1.00  0.00     0.074 A 
ATOM     49  C   UNL A   1      41.478  29.792  30.928  1.00  0.00     0.049 A 
ATOM     50  N   UNL A   1      43.030  29.575  33.519  1.00  0.00    -0.248 NA
ATOM     51  C   UNL A   1      44.429  28.025  32.477  1.00  0.00     0.031 C 
ATOM     52  C   UNL A   1      40.710  29.941  29.694  1.00  0.00     0.029 A 
ATOM     53  N   UNL A   1      40.912  30.698  31.789  1.00  0.00    -0.354 N 
ATOM     54  C   UNL A   1      44.025  29.178  34.405  1.00  0.00     0.074 A 
ATOM     55  C   UNL A   1      44.837  28.195  33.724  1.00  0.00     0.031 C 
ATOM     56  C   UNL A   1      39.760  30.873  29.883  1.00  0.00     0.029 A 
ATOM     57  C   UNL A   1      39.830  31.359  31.260  1.00  0.00     0.049 A 
ATOM     58  H   UNL A   1      41.250  30.860  32.699  1.00  0.00     0.167 HD
ATOM     59  C   UNL A   1      44.248  29.605  35.670  1.00  0.00     0.037 A 
ATOM     60  C   UNL A   1      38.978  32.232  31.837  1.00  0.00     0.037 A 
ATOM     61  C   UNL A   1      43.434  30.583  36.339  1.00  0.00     0.049 A 
ATOM     62  C   UNL A   1      39.197  32.626  33.278  1.00  0.00     0.074 A 
ATOM     63  C   UNL A   1      43.573  31.085  37.621  1.00  0.00     0.029 A 
ATOM     64  N   UNL A   1      42.328  31.208  35.781  1.00  0.00    -0.354 N 
ATOM     65  N   UNL A   1      40.144  32.250  34.104  1.00  0.00    -0.248 NA
ATOM     66  C   UNL A   1      38.231  33.566  33.865  1.00  0.00     0.031 C 
ATOM     67  C   UNL A   1      42.518  31.970  37.859  1.00  0.00     0.029 A 
ATOM     68  C   UNL A   1      41.761  32.073  36.702  1.00  0.00     0.049 A 
ATOM     69  H   UNL A   1      41.995  31.056  34.867  1.00  0.00     0.167 HD
ATOM     70  C   UNL A   1      39.912  32.939  35.292  1.00  0.00     0.074 A 
ATOM     71  C   UNL A   1      38.740  33.760  35.074  1.00  0.00     0.031 C 
ATOM     72  C   UNL A   1      40.606  32.900  36.458  1.00  0.00     0.037 A 
BRANCH  59  73
ATOM     73  C   UNL A   1      45.401  28.998  36.422  1.00  0.00     0.058 A 
ATOM     74  C   UNL A   1      46.662  29.615  36.469  1.00  0.00     0.135 A 
ATOM     75  C   UNL A   1      45.228  27.808  37.146  1.00  0.00     0.135 A 
ATOM     76  F   UNL A   1      46.890  30.741  35.774  1.00  0.00    -0.206 F 
ATOM     77  C   UNL A   1      47.713  29.067  37.197  1.00  0.00     0.059 A 
ATOM     78  C   UNL A   1      46.256  27.257  37.906  1.00  0.00     0.059 A 
ATOM     79  F   UNL A   1      44.046  27.171  37.129  1.00  0.00    -0.206 F 
ATOM     80  C   UNL A   1      47.497  27.891  37.918  1.00  0.00     0.060 A 
BRANCH  80  81
ATOM     81  S   UNL A   1      48.863  27.213  38.884  1.00  0.00     0.124 S 
ATOM     82  O   UNL A   1      48.361  25.881  39.206  1.00  0.00    -0.237 OA
ATOM     83  O   UNL A   1      49.968  27.263  37.934  1.00  0.00    -0.237 OA
ATOM     84  O   UNL A   1      48.969  28.131  40.015  1.00  0.00    -0.744 OA
ENDBRANCH  80  81
ENDBRANCH  59  73
BRANCH  60  85
ATOM     85  C   UNL A   1      37.826  32.781  31.069  1.00  0.00     0.058 A 
ATOM     86  C   UNL A   1      36.530  32.273  31.239  1.00  0.00     0.135 A 
ATOM     87  C   UNL A   1      38.005  33.801  30.122  1.00  0.00     0.135 A 
ATOM     88  F   UNL A   1      36.305  31.290  32.124  1.00  0.00    -0.206 F 
ATOM     89  C   UNL A   1      35.459  32.731  30.477  1.00  0.00     0.059 A 
ATOM     90  C   UNL A   1      36.946  34.298  29.370  1.00  0.00     0.059 A 
ATOM     91  F   UNL A   1      39.222  34.332  29.925  1.00  0.00    -0.206 F 
ATOM     92  C   UNL A   1      35.679  33.745  29.543  1.00  0.00     0.060 A 
BRANCH  92  93
ATOM     93  S   UNL A   1      34.279  34.343  28.571  1.00  0.00     0.124 S 
ATOM     94  O   UNL A   1      33.188  34.241  29.533  1.00  0.00    -0.237 OA
ATOM     95  O   UNL A   1      34.704  35.696  28.226  1.00  0.00    -0.237 OA
ATOM     96  O   UNL A   1      34.224  33.406  27.452  1.00  0.00    -0.744 OA
ENDBRANCH  92  93
ENDBRANCH  60  85
BRANCH  72  97
ATOM     97  C   UNL A   1      40.159  33.812  37.569  1.00  0.00     0.058 A 
ATOM     98  C   UNL A   1      39.170  33.437  38.491  1.00  0.00     0.135 A 
ATOM     99  C   UNL A   1      40.777  35.063  37.746  1.00  0.00     0.135 A 
ATOM    100  F   UNL A   1      38.545  32.255  38.368  1.00  0.00    -0.206 F 
ATOM    101  C   UNL A   1      38.789  34.279  39.530  1.00  0.00     0.059 A 
ATOM    102  C   UNL A   1      40.436  35.906  38.798  1.00  0.00     0.059 A 
ATOM    103  F   UNL A   1      41.739  35.467  36.901  1.00  0.00    -0.206 F 
ATOM    104  C   UNL A   1      39.430  35.511  39.678  1.00  0.00     0.060 A 
BRANCH 104 105
ATOM    105  S   UNL A   1      38.948  36.578  41.051  1.00  0.00     0.124 S 
ATOM    106  O   UNL A   1      37.895  35.788  41.682  1.00  0.00    -0.237 OA
ATOM    107  O   UNL A   1      40.191  36.698  41.806  1.00  0.00    -0.237 OA
ATOM    108  O   UNL A   1      38.501  37.803  40.390  1.00  0.00    -0.744 OA
ENDBRANCH 104 105
ENDBRANCH  72  97
ENDBRANCH  46  47
ENDBRANCH  39  41
ENDBRANCH  38  39
ENDBRANCH  37  38
ENDBRANCH  36  37
ENDBRANCH  35  36
ENDBRANCH  34  35
ENDBRANCH  33  34
ENDBRANCH  32  33
ENDBRANCH   1  32
TORSDOF 28
ENDMDL
MODEL 3
REMARK VINA RESULT:      -7.9      6.135     13.881
REMARK SMILES C[N@H+]1Cc2ccccc2C[C@@H]1C(=O)NCCC(=O)NCC(=O)OCCOCCOCCOCCOC(=O)c1ccc(-c2c3nc(c(-c4c(F)cc(S(=O)(=O)[O-])cc4F)c4ccc([nH]4)c(-c4c(F)cc(S(=O)(=O)[O-])cc4F)c4nc(c(-c5c(F)cc(S(=O)(=O)[O-])cc5F)c5ccc2[nH]5)C=C4)C=C3)cc1
REMARK SMILES IDX 28 1 27 2 26 3 25 4 24 5 23 6 21 7 22 8 20 9 19 10 17 11
REMARK SMILES IDX 18 12 16 14 15 15 14 16 12 17 13 18 11 20 1 21 2 22 3 23
REMARK SMILES IDX 4 25 10 26 5 27 9 28 6 29 8 30 7 31 29 32 30 33 31 34 32 35
REMARK SMILES IDX 33 36 34 37 35 38 36 39 37 40 38 41 39 42 103 43 40 44
REMARK SMILES IDX 102 45 41 46 42 47 43 48 96 49 44 50 101 51 95 52 97 53
REMARK SMILES IDX 45 54 100 55 94 56 93 57 46 59 80 60 59 61 79 62 60 63 63 64
REMARK SMILES IDX 78 65 98 66 61 67 62 68 77 70 99 71 64 72 47 73 48 74 57 75
REMARK SMILES IDX 49 76 50 77 56 78 58 79 51 80 52 81 53 82 54 83 55 84 81 85
REMARK SMILES IDX 82 86 91 87 83 88 84 89 90 90 92 91 85 92 86 93 87 94 88 95
REMARK SMILES IDX 89 96 65 97 66 98 75 99 67 100 68 101 74 102 76 103 69 104
REMARK SMILES IDX 70 105 71 106 72 107 73 108
REMARK H PARENT 19 13 14 19 2 24 97 58 63 69
REMARK Flexibility Score: inf
ROOT
ATOM      1  C   UNL A   1      39.358  21.747  26.087  1.00  0.00     0.188 C 
ENDROOT
BRANCH   1   2
ATOM      2  C   UNL A   1      40.665  21.205  26.692  1.00  0.00     0.188 C 
BRANCH   2   3
ATOM      3  O   UNL A   1      40.940  19.812  26.740  1.00  0.00    -0.376 OA
BRANCH   3   4
ATOM      4  C   UNL A   1      42.267  19.323  26.632  1.00  0.00     0.202 C 
BRANCH   4   5
ATOM      5  C   UNL A   1      43.042  19.436  25.314  1.00  0.00     0.261 C 
BRANCH   5   6
ATOM      6  O   UNL A   1      44.144  18.532  25.123  1.00  0.00    -0.462 OA
BRANCH   6   7
ATOM      7  C   UNL A   1      45.238  19.011  24.471  1.00  0.00     0.325 C 
ATOM      8  O   UNL A   1      45.619  18.594  23.380  1.00  0.00    -0.250 OA
BRANCH   7   9
ATOM      9  C   UNL A   1      45.883  20.235  25.166  1.00  0.00     0.238 C 
BRANCH   9  10
ATOM     10  N   UNL A   1      46.247  21.440  24.414  1.00  0.00    -0.345 N 
ATOM     11  C   UNL A   1      45.628  22.634  24.282  1.00  0.00     0.222 C 
ATOM     12  O   UNL A   1      46.202  23.522  23.647  1.00  0.00    -0.275 OA
ATOM     13  H   UNL A   1      47.094  21.367  23.918  1.00  0.00     0.164 HD
BRANCH  11  14
ATOM     14  C   UNL A   1      44.279  22.870  24.888  1.00  0.00     0.121 C 
BRANCH  14  15
ATOM     15  C   UNL A   1      44.024  24.361  25.030  1.00  0.00     0.126 C 
BRANCH  15  16
ATOM     16  N   UNL A   1      44.931  25.086  25.909  1.00  0.00    -0.350 N 
ATOM     17  C   UNL A   1      45.354  26.361  25.608  1.00  0.00     0.278 C 
ATOM     18  O   UNL A   1      46.036  26.606  24.612  1.00  0.00    -0.268 OA
ATOM     19  H   UNL A   1      45.250  24.655  26.735  1.00  0.00     0.163 HD
BRANCH  17  20
ATOM     20  C   UNL A   1      44.774  27.508  26.414  1.00  0.00     0.278 C 
ATOM     21  C   UNL A   1      42.762  27.729  25.046  1.00  0.00     0.333 C 
ATOM     22  N   UNL A   1      43.853  28.436  25.718  1.00  0.00    -0.323 N 
ATOM     23  C   UNL A   1      43.257  29.333  26.754  1.00  0.00     0.299 C 
ATOM     24  H   UNL A   1      44.379  28.950  25.010  1.00  0.00     0.348 HD
ATOM     25  C   UNL A   1      44.210  29.811  27.841  1.00  0.00     0.010 A 
ATOM     26  C   UNL A   1      45.974  28.295  26.944  1.00  0.00     0.111 C 
ATOM     27  C   UNL A   1      43.775  30.714  28.816  1.00  0.00     0.010 A 
ATOM     28  C   UNL A   1      45.509  29.291  27.953  1.00  0.00    -0.033 A 
ATOM     29  C   UNL A   1      44.627  31.097  29.858  1.00  0.00     0.001 A 
ATOM     30  C   UNL A   1      46.370  29.693  28.977  1.00  0.00     0.004 A 
ATOM     31  C   UNL A   1      45.923  30.591  29.935  1.00  0.00     0.000 A 
ENDBRANCH  17  20
ENDBRANCH  15  16
ENDBRANCH  14  15
ENDBRANCH  11  14
ENDBRANCH   9  10
ENDBRANCH   7   9
ENDBRANCH   6   7
ENDBRANCH   5   6
ENDBRANCH   4   5
ENDBRANCH   3   4
ENDBRANCH   2   3
ENDBRANCH   1   2
BRANCH   1  32
ATOM     32  O   UNL A   1      38.966  23.032  26.522  1.00  0.00    -0.377 OA
BRANCH  32  33
ATOM     33  C   UNL A   1      39.973  23.823  27.141  1.00  0.00     0.188 C 
BRANCH  33  34
ATOM     34  C   UNL A   1      39.546  25.207  27.671  1.00  0.00     0.188 C 
BRANCH  34  35
ATOM     35  O   UNL A   1      40.240  26.299  27.085  1.00  0.00    -0.376 OA
BRANCH  35  36
ATOM     36  C   UNL A   1      40.295  27.553  27.747  1.00  0.00     0.202 C 
BRANCH  36  37
ATOM     37  C   UNL A   1      38.996  28.335  28.009  1.00  0.00     0.261 C 
BRANCH  37  38
ATOM     38  O   UNL A   1      39.018  29.295  29.072  1.00  0.00    -0.460 OA
BRANCH  38  39
ATOM     39  C   UNL A   1      38.622  28.890  30.295  1.00  0.00     0.338 C 
ATOM     40  O   UNL A   1      38.132  27.809  30.585  1.00  0.00    -0.246 OA
BRANCH  39  41
ATOM     41  C   UNL A   1      39.084  29.893  31.274  1.00  0.00     0.060 A 
ATOM     42  C   UNL A   1      38.522  31.177  31.244  1.00  0.00     0.016 A 
ATOM     43  C   UNL A   1      40.066  29.572  32.215  1.00  0.00     0.016 A 
ATOM     44  C   UNL A   1      38.979  32.160  32.117  1.00  0.00     0.010 A 
ATOM     45  C   UNL A   1      40.546  30.568  33.070  1.00  0.00     0.010 A 
ATOM     46  C   UNL A   1      40.035  31.876  32.991  1.00  0.00    -0.014 A 
BRANCH  46  47
ATOM     47  C   UNL A   1      40.767  32.997  33.627  1.00  0.00     0.031 A 
ATOM     48  C   UNL A   1      41.791  33.724  32.796  1.00  0.00     0.074 A 
ATOM     49  C   UNL A   1      40.504  33.386  34.886  1.00  0.00     0.049 A 
ATOM     50  N   UNL A   1      42.599  34.692  33.133  1.00  0.00    -0.248 NA
ATOM     51  C   UNL A   1      41.917  33.299  31.390  1.00  0.00     0.031 C 
ATOM     52  C   UNL A   1      39.496  32.795  35.763  1.00  0.00     0.029 A 
ATOM     53  N   UNL A   1      41.077  34.373  35.648  1.00  0.00    -0.354 N 
ATOM     54  C   UNL A   1      43.333  34.986  31.990  1.00  0.00     0.074 A 
ATOM     55  C   UNL A   1      42.899  34.074  30.957  1.00  0.00     0.031 C 
ATOM     56  C   UNL A   1      39.532  33.423  36.952  1.00  0.00     0.029 A 
ATOM     57  C   UNL A   1      40.589  34.432  36.931  1.00  0.00     0.049 A 
ATOM     58  H   UNL A   1      41.770  34.983  35.306  1.00  0.00     0.167 HD
ATOM     59  C   UNL A   1      44.277  35.940  31.815  1.00  0.00     0.037 A 
ATOM     60  C   UNL A   1      40.977  35.196  37.973  1.00  0.00     0.037 A 
ATOM     61  C   UNL A   1      44.702  36.844  32.850  1.00  0.00     0.049 A 
ATOM     62  C   UNL A   1      42.094  36.193  37.776  1.00  0.00     0.074 A 
ATOM     63  C   UNL A   1      45.652  37.847  32.777  1.00  0.00     0.029 A 
ATOM     64  N   UNL A   1      44.207  36.853  34.146  1.00  0.00    -0.354 N 
ATOM     65  N   UNL A   1      42.776  36.468  36.690  1.00  0.00    -0.248 NA
ATOM     66  C   UNL A   1      42.491  36.988  38.947  1.00  0.00     0.031 C 
ATOM     67  C   UNL A   1      45.772  38.425  34.044  1.00  0.00     0.029 A 
ATOM     68  C   UNL A   1      44.849  37.829  34.889  1.00  0.00     0.049 A 
ATOM     69  H   UNL A   1      43.505  36.253  34.486  1.00  0.00     0.167 HD
ATOM     70  C   UNL A   1      43.652  37.493  37.037  1.00  0.00     0.074 A 
ATOM     71  C   UNL A   1      43.407  37.795  38.431  1.00  0.00     0.031 C 
ATOM     72  C   UNL A   1      44.575  38.130  36.271  1.00  0.00     0.037 A 
BRANCH  59  73
ATOM     73  C   UNL A   1      44.932  36.040  30.465  1.00  0.00     0.058 A 
ATOM     74  C   UNL A   1      45.996  35.201  30.093  1.00  0.00     0.135 A 
ATOM     75  C   UNL A   1      44.456  36.953  29.511  1.00  0.00     0.135 A 
ATOM     76  F   UNL A   1      46.507  34.327  30.976  1.00  0.00    -0.206 F 
ATOM     77  C   UNL A   1      46.572  35.273  28.830  1.00  0.00     0.059 A 
ATOM     78  C   UNL A   1      44.997  37.022  28.230  1.00  0.00     0.059 A 
ATOM     79  F   UNL A   1      43.448  37.785  29.815  1.00  0.00    -0.206 F 
ATOM     80  C   UNL A   1      46.060  36.182  27.902  1.00  0.00     0.060 A 
BRANCH  80  81
ATOM     81  S   UNL A   1      46.798  36.238  26.256  1.00  0.00     0.124 S 
ATOM     82  O   UNL A   1      46.034  35.210  25.557  1.00  0.00    -0.237 OA
ATOM     83  O   UNL A   1      46.536  37.614  25.846  1.00  0.00    -0.237 OA
ATOM     84  O   UNL A   1      48.201  35.917  26.501  1.00  0.00    -0.744 OA
ENDBRANCH  80  81
ENDBRANCH  59  73
BRANCH  60  85
ATOM     85  C   UNL A   1      40.328  35.040  39.305  1.00  0.00     0.058 A 
ATOM     86  C   UNL A   1      40.725  34.029  40.193  1.00  0.00     0.135 A 
ATOM     87  C   UNL A   1      39.273  35.877  39.701  1.00  0.00     0.135 A 
ATOM     88  F   UNL A   1      41.721  33.195  39.859  1.00  0.00    -0.206 F 
ATOM     89  C   UNL A   1      40.078  33.831  41.410  1.00  0.00     0.059 A 
ATOM     90  C   UNL A   1      38.633  35.720  40.925  1.00  0.00     0.059 A 
ATOM     91  F   UNL A   1      38.860  36.868  38.895  1.00  0.00    -0.206 F 
ATOM     92  C   UNL A   1      39.032  34.683  41.767  1.00  0.00     0.060 A 
BRANCH  92  93
ATOM     93  S   UNL A   1      38.212  34.428  43.355  1.00  0.00     0.124 S 
ATOM     94  O   UNL A   1      37.648  35.748  43.611  1.00  0.00    -0.237 OA
ATOM     95  O   UNL A   1      37.253  33.373  43.037  1.00  0.00    -0.237 OA
ATOM     96  O   UNL A   1      39.305  34.027  44.236  1.00  0.00    -0.744 OA
ENDBRANCH  92  93
ENDBRANCH  60  85
BRANCH  72  97
ATOM     97  C   UNL A   1      45.346  39.260  36.901  1.00  0.00     0.058 A 
ATOM     98  C   UNL A   1      46.507  39.039  37.657  1.00  0.00     0.135 A 
ATOM     99  C   UNL A   1      44.944  40.590  36.693  1.00  0.00     0.135 A 
ATOM    100  F   UNL A   1      46.935  37.788  37.891  1.00  0.00    -0.206 F 
ATOM    101  C   UNL A   1      47.226  40.095  38.208  1.00  0.00     0.059 A 
ATOM    102  C   UNL A   1      45.667  41.663  37.204  1.00  0.00     0.059 A 
ATOM    103  F   UNL A   1      43.848  40.860  35.966  1.00  0.00    -0.206 F 
ATOM    104  C   UNL A   1      46.800  41.405  37.974  1.00  0.00     0.060 A 
BRANCH 104 105
ATOM    105  S   UNL A   1      47.762  42.765  38.668  1.00  0.00     0.124 S 
ATOM    106  O   UNL A   1      48.559  42.076  39.678  1.00  0.00    -0.237 OA
ATOM    107  O   UNL A   1      48.496  43.253  37.505  1.00  0.00    -0.237 OA
ATOM    108  O   UNL A   1      46.742  43.674  39.186  1.00  0.00    -0.744 OA
ENDBRANCH 104 105
ENDBRANCH  72  97
ENDBRANCH  46  47
ENDBRANCH  39  41
ENDBRANCH  38  39
ENDBRANCH  37  38
ENDBRANCH  36  37
ENDBRANCH  35  36
ENDBRANCH  34  35
ENDBRANCH  33  34
ENDBRANCH  32  33
ENDBRANCH   1  32
TORSDOF 28
ENDMDL
