MODEL 1
REMARK VINA RESULT:      -9.7      0.000      0.000
REMARK SMILES O=C(COc1ccc([N+](=O)[O-])cc1)Nc1ccc(C(=O)OCCOCCOCCOCCOC(=O)c2ccc(-c3c4nc(c(-c5c(F)cc(S(=O)(=O)[O-])cc5F)c5ccc([nH]5)c(-c5c(F)cc(S(=O)(=O)[O-])cc5F)c5nc(c(-c6c(F)cc(S(=O)(=O)[O-])cc6F)c6ccc3[nH]6)C=C5)C=C4)cc2)c(O)c1
REMARK SMILES IDX 26 1 25 2 24 3 23 4 22 5 21 6 19 7 20 8 18 9 15 10 16 11
REMARK SMILES IDX 104 12 17 13 102 14 14 15 1 16 2 17 3 19 4 20 5 21 6 22
REMARK SMILES IDX 13 23 7 24 12 25 8 26 9 27 10 28 11 29 103 30 27 32 28 33
REMARK SMILES IDX 29 34 30 35 31 36 32 37 33 38 34 39 35 40 36 41 37 42 101 43
REMARK SMILES IDX 38 44 100 45 39 46 40 47 41 48 94 49 42 50 99 51 93 52 95 53
REMARK SMILES IDX 43 54 98 55 92 56 91 57 44 59 78 60 57 61 77 62 58 63 61 64
REMARK SMILES IDX 76 65 96 66 59 67 60 68 75 70 97 71 62 72 45 73 46 74 55 75
REMARK SMILES IDX 47 76 48 77 54 78 56 79 49 80 50 81 51 82 52 83 53 84 79 85
REMARK SMILES IDX 80 86 89 87 81 88 82 89 88 90 90 91 83 92 84 93 85 94 86 95
REMARK SMILES IDX 87 96 63 97 64 98 73 99 65 100 66 101 72 102 74 103 67 104
REMARK SMILES IDX 68 105 69 106 70 107 71 108
REMARK H PARENT 14 18 103 31 95 58 61 69
REMARK Flexibility Score: inf
ROOT
ATOM      1  C   UNL A   1      32.362  25.590  26.296  1.00  0.00     0.188 C 
ENDROOT
BRANCH   1   2
ATOM      2  C   UNL A   1      32.093  24.064  26.381  1.00  0.00     0.188 C 
BRANCH   2   3
ATOM      3  O   UNL A   1      32.312  23.476  27.647  1.00  0.00    -0.376 OA
BRANCH   3   4
ATOM      4  C   UNL A   1      32.812  22.159  27.754  1.00  0.00     0.202 C 
BRANCH   4   5
ATOM      5  C   UNL A   1      34.198  21.830  27.190  1.00  0.00     0.261 C 
BRANCH   5   6
ATOM      6  O   UNL A   1      34.264  20.645  26.399  1.00  0.00    -0.460 OA
BRANCH   6   7
ATOM      7  C   UNL A   1      35.015  20.695  25.281  1.00  0.00     0.341 C 
ATOM      8  O   UNL A   1      35.940  19.952  24.992  1.00  0.00    -0.246 OA
BRANCH   7   9
ATOM      9  C   UNL A   1      34.400  21.644  24.325  1.00  0.00     0.101 A 
ATOM     10  C   UNL A   1      33.299  23.604  22.660  1.00  0.00     0.045 A 
ATOM     11  C   UNL A   1      34.641  23.692  23.046  1.00  0.00     0.027 A 
ATOM     12  C   UNL A   1      32.560  22.463  22.986  1.00  0.00     0.073 A 
ATOM     13  C   UNL A   1      35.180  22.729  23.902  1.00  0.00     0.022 A 
ATOM     14  C   UNL A   1      33.110  21.485  23.813  1.00  0.00     0.132 A 
BRANCH  10  15
ATOM     15  N   UNL A   1      32.722  24.758  22.092  1.00  0.00    -0.323 N 
ATOM     16  O   UNL A   1      30.677  24.805  23.228  1.00  0.00    -0.271 OA
ATOM     17  C   UNL A   1      31.538  25.338  22.533  1.00  0.00     0.262 C 
ATOM     18  H   UNL A   1      33.187  25.181  21.334  1.00  0.00     0.170 HD
BRANCH  17  19
ATOM     19  C   UNL A   1      31.407  26.808  22.126  1.00  0.00     0.329 C 
BRANCH  19  20
ATOM     20  O   UNL A   1      31.483  27.758  23.188  1.00  0.00    -0.484 OA
BRANCH  20  21
ATOM     21  C   UNL A   1      30.686  28.862  23.029  1.00  0.00     0.120 A 
ATOM     22  C   UNL A   1      30.588  29.735  24.115  1.00  0.00     0.053 A 
ATOM     23  C   UNL A   1      29.861  29.044  21.917  1.00  0.00     0.053 A 
ATOM     24  C   UNL A   1      29.660  30.783  24.097  1.00  0.00     0.089 A 
ATOM     25  C   UNL A   1      28.918  30.076  21.896  1.00  0.00     0.089 A 
ATOM     26  C   UNL A   1      28.811  30.936  22.993  1.00  0.00     0.269 A 
BRANCH  26  27
ATOM     27  N   UNL A   1      27.772  31.973  23.004  1.00  0.00     0.062 N 
ATOM     28  O   UNL A   1      27.845  32.870  22.153  1.00  0.00    -0.258 OA
ATOM     29  O   UNL A   1      26.893  31.901  23.876  1.00  0.00    -0.258 OA
ENDBRANCH  26  27
ENDBRANCH  20  21
ENDBRANCH  19  20
ENDBRANCH  17  19
ENDBRANCH  10  15
BRANCH  14  30
ATOM     30  O   UNL A   1      32.352  20.400  24.151  1.00  0.00    -0.507 OA
ATOM     31  H   UNL A   1      32.110  19.775  23.497  1.00  0.00     0.293 HD
ENDBRANCH  14  30
ENDBRANCH   7   9
ENDBRANCH   6   7
ENDBRANCH   5   6
ENDBRANCH   4   5
ENDBRANCH   3   4
ENDBRANCH   2   3
ENDBRANCH   1   2
BRANCH   1  32
ATOM     32  O   UNL A   1      31.344  26.575  26.424  1.00  0.00    -0.377 OA
BRANCH  32  33
ATOM     33  C   UNL A   1      31.469  27.610  27.390  1.00  0.00     0.188 C 
BRANCH  33  34
ATOM     34  C   UNL A   1      32.515  28.713  27.131  1.00  0.00     0.188 C 
BRANCH  34  35
ATOM     35  O   UNL A   1      32.006  30.027  27.301  1.00  0.00    -0.376 OA
BRANCH  35  36
ATOM     36  C   UNL A   1      32.785  31.103  26.810  1.00  0.00     0.202 C 
BRANCH  36  37
ATOM     37  C   UNL A   1      33.734  31.838  27.768  1.00  0.00     0.261 C 
BRANCH  37  38
ATOM     38  O   UNL A   1      33.166  32.868  28.591  1.00  0.00    -0.460 OA
BRANCH  38  39
ATOM     39  C   UNL A   1      33.865  34.011  28.745  1.00  0.00     0.338 C 
ATOM     40  O   UNL A   1      33.552  35.122  28.345  1.00  0.00    -0.246 OA
BRANCH  39  41
ATOM     41  C   UNL A   1      34.993  33.718  29.653  1.00  0.00     0.060 A 
ATOM     42  C   UNL A   1      36.258  34.257  29.379  1.00  0.00     0.016 A 
ATOM     43  C   UNL A   1      34.792  32.931  30.789  1.00  0.00     0.016 A 
ATOM     44  C   UNL A   1      37.332  33.984  30.228  1.00  0.00     0.010 A 
ATOM     45  C   UNL A   1      35.874  32.638  31.623  1.00  0.00     0.010 A 
ATOM     46  C   UNL A   1      37.155  33.137  31.330  1.00  0.00    -0.014 A 
BRANCH  46  47
ATOM     47  C   UNL A   1      38.335  32.607  32.056  1.00  0.00     0.031 A 
ATOM     48  C   UNL A   1      39.218  31.618  31.342  1.00  0.00     0.074 A 
ATOM     49  C   UNL A   1      38.633  33.005  33.307  1.00  0.00     0.049 A 
ATOM     50  N   UNL A   1      40.253  30.955  31.785  1.00  0.00    -0.248 NA
ATOM     51  C   UNL A   1      38.883  31.338  29.934  1.00  0.00     0.031 C 
ATOM     52  C   UNL A   1      37.887  33.995  34.082  1.00  0.00     0.029 A 
ATOM     53  N   UNL A   1      39.644  32.613  34.149  1.00  0.00    -0.354 N 
ATOM     54  C   UNL A   1      40.696  30.186  30.714  1.00  0.00     0.074 A 
ATOM     55  C   UNL A   1      39.792  30.431  29.612  1.00  0.00     0.031 C 
ATOM     56  C   UNL A   1      38.460  34.123  35.293  1.00  0.00     0.029 A 
ATOM     57  C   UNL A   1      39.588  33.199  35.393  1.00  0.00     0.049 A 
ATOM     58  H   UNL A   1      40.344  31.972  33.888  1.00  0.00     0.167 HD
ATOM     59  C   UNL A   1      41.770  29.365  30.650  1.00  0.00     0.037 A 
ATOM     60  C   UNL A   1      40.346  32.989  36.488  1.00  0.00     0.037 A 
ATOM     61  C   UNL A   1      42.662  29.120  31.752  1.00  0.00     0.049 A 
ATOM     62  C   UNL A   1      41.473  31.983  36.422  1.00  0.00     0.074 A 
ATOM     63  C   UNL A   1      43.768  28.290  31.796  1.00  0.00     0.029 A 
ATOM     64  N   UNL A   1      42.552  29.705  33.005  1.00  0.00    -0.354 N 
ATOM     65  N   UNL A   1      41.883  31.264  35.403  1.00  0.00    -0.248 NA
ATOM     66  C   UNL A   1      42.242  31.761  37.656  1.00  0.00     0.031 C 
ATOM     67  C   UNL A   1      44.298  28.336  33.088  1.00  0.00     0.029 A 
ATOM     68  C   UNL A   1      43.560  29.242  33.833  1.00  0.00     0.049 A 
ATOM     69  H   UNL A   1      41.858  30.354  33.267  1.00  0.00     0.167 HD
ATOM     70  C   UNL A   1      42.983  30.543  35.862  1.00  0.00     0.074 A 
ATOM     71  C   UNL A   1      43.179  30.919  37.246  1.00  0.00     0.031 C 
ATOM     72  C   UNL A   1      43.760  29.650  35.201  1.00  0.00     0.037 A 
BRANCH  59  73
ATOM     73  C   UNL A   1      42.040  28.665  29.347  1.00  0.00     0.058 A 
ATOM     74  C   UNL A   1      41.345  27.499  28.984  1.00  0.00     0.135 A 
ATOM     75  C   UNL A   1      42.958  29.193  28.426  1.00  0.00     0.135 A 
ATOM     76  F   UNL A   1      40.473  26.938  29.836  1.00  0.00    -0.206 F 
ATOM     77  C   UNL A   1      41.557  26.880  27.757  1.00  0.00     0.059 A 
ATOM     78  C   UNL A   1      43.166  28.605  27.182  1.00  0.00     0.059 A 
ATOM     79  F   UNL A   1      43.655  30.301  28.726  1.00  0.00    -0.206 F 
ATOM     80  C   UNL A   1      42.464  27.445  26.859  1.00  0.00     0.060 A 
BRANCH  80  81
ATOM     81  S   UNL A   1      42.697  26.647  25.257  1.00  0.00     0.124 S 
ATOM     82  O   UNL A   1      43.992  25.998  25.439  1.00  0.00    -0.237 OA
ATOM     83  O   UNL A   1      41.545  25.754  25.186  1.00  0.00    -0.237 OA
ATOM     84  O   UNL A   1      42.683  27.762  24.315  1.00  0.00    -0.744 OA
ENDBRANCH  80  81
ENDBRANCH  59  73
BRANCH  60  85
ATOM     85  C   UNL A   1      40.067  33.714  37.760  1.00  0.00     0.058 A 
ATOM     86  C   UNL A   1      38.985  33.354  38.579  1.00  0.00     0.135 A 
ATOM     87  C   UNL A   1      40.834  34.824  38.150  1.00  0.00     0.135 A 
ATOM     88  F   UNL A   1      38.213  32.309  38.246  1.00  0.00    -0.206 F 
ATOM     89  C   UNL A   1      38.646  34.091  39.710  1.00  0.00     0.059 A 
ATOM     90  C   UNL A   1      40.537  35.556  39.297  1.00  0.00     0.059 A 
ATOM     91  F   UNL A   1      41.886  35.210  37.412  1.00  0.00    -0.206 F 
ATOM     92  C   UNL A   1      39.426  35.194  40.058  1.00  0.00     0.060 A 
BRANCH  92  93
ATOM     93  S   UNL A   1      38.974  36.148  41.523  1.00  0.00     0.124 S 
ATOM     94  O   UNL A   1      37.719  35.513  41.910  1.00  0.00    -0.237 OA
ATOM     95  O   UNL A   1      40.111  35.908  42.406  1.00  0.00    -0.237 OA
ATOM     96  O   UNL A   1      38.860  37.511  41.014  1.00  0.00    -0.744 OA
ENDBRANCH  92  93
ENDBRANCH  60  85
BRANCH  72  97
ATOM     97  C   UNL A   1      44.936  29.064  35.937  1.00  0.00     0.058 A 
ATOM     98  C   UNL A   1      46.193  29.689  35.950  1.00  0.00     0.135 A 
ATOM     99  C   UNL A   1      44.783  27.888  36.691  1.00  0.00     0.135 A 
ATOM    100  F   UNL A   1      46.396  30.812  35.245  1.00  0.00    -0.206 F 
ATOM    101  C   UNL A   1      47.263  29.152  36.660  1.00  0.00     0.059 A 
ATOM    102  C   UNL A   1      45.830  27.353  37.435  1.00  0.00     0.059 A 
ATOM    103  F   UNL A   1      43.599  27.255  36.726  1.00  0.00    -0.206 F 
ATOM    104  C   UNL A   1      47.071  27.986  37.403  1.00  0.00     0.060 A 
BRANCH 104 105
ATOM    105  S   UNL A   1      48.459  27.324  38.348  1.00  0.00     0.124 S 
ATOM    106  O   UNL A   1      49.483  27.195  37.316  1.00  0.00    -0.237 OA
ATOM    107  O   UNL A   1      48.687  28.370  39.341  1.00  0.00    -0.237 OA
ATOM    108  O   UNL A   1      47.941  26.067  38.879  1.00  0.00    -0.744 OA
ENDBRANCH 104 105
ENDBRANCH  72  97
ENDBRANCH  46  47
ENDBRANCH  39  41
ENDBRANCH  38  39
ENDBRANCH  37  38
ENDBRANCH  36  37
ENDBRANCH  35  36
ENDBRANCH  34  35
ENDBRANCH  33  34
ENDBRANCH  32  33
ENDBRANCH   1  32
TORSDOF 29
ENDMDL
MODEL 2
REMARK VINA RESULT:      -8.8      2.974      3.701
REMARK SMILES O=C(COc1ccc([N+](=O)[O-])cc1)Nc1ccc(C(=O)OCCOCCOCCOCCOC(=O)c2ccc(-c3c4nc(c(-c5c(F)cc(S(=O)(=O)[O-])cc5F)c5ccc([nH]5)c(-c5c(F)cc(S(=O)(=O)[O-])cc5F)c5nc(c(-c6c(F)cc(S(=O)(=O)[O-])cc6F)c6ccc3[nH]6)C=C5)C=C4)cc2)c(O)c1
REMARK SMILES IDX 26 1 25 2 24 3 23 4 22 5 21 6 19 7 20 8 18 9 15 10 16 11
REMARK SMILES IDX 104 12 17 13 102 14 14 15 1 16 2 17 3 19 4 20 5 21 6 22
REMARK SMILES IDX 13 23 7 24 12 25 8 26 9 27 10 28 11 29 103 30 27 32 28 33
REMARK SMILES IDX 29 34 30 35 31 36 32 37 33 38 34 39 35 40 36 41 37 42 101 43
REMARK SMILES IDX 38 44 100 45 39 46 40 47 41 48 94 49 42 50 99 51 93 52 95 53
REMARK SMILES IDX 43 54 98 55 92 56 91 57 44 59 78 60 57 61 77 62 58 63 61 64
REMARK SMILES IDX 76 65 96 66 59 67 60 68 75 70 97 71 62 72 45 73 46 74 55 75
REMARK SMILES IDX 47 76 48 77 54 78 56 79 49 80 50 81 51 82 52 83 53 84 79 85
REMARK SMILES IDX 80 86 89 87 81 88 82 89 88 90 90 91 83 92 84 93 85 94 86 95
REMARK SMILES IDX 87 96 63 97 64 98 73 99 65 100 66 101 72 102 74 103 67 104
REMARK SMILES IDX 68 105 69 106 70 107 71 108
REMARK H PARENT 14 18 103 31 95 58 61 69
REMARK Flexibility Score: inf
ROOT
ATOM      1  C   UNL A   1      31.571  24.923  26.838  1.00  0.00     0.188 C 
ENDROOT
BRANCH   1   2
ATOM      2  C   UNL A   1      31.014  23.475  26.877  1.00  0.00     0.188 C 
BRANCH   2   3
ATOM      3  O   UNL A   1      31.884  22.501  27.419  1.00  0.00    -0.376 OA
BRANCH   3   4
ATOM      4  C   UNL A   1      32.947  21.975  26.651  1.00  0.00     0.202 C 
BRANCH   4   5
ATOM      5  C   UNL A   1      34.392  22.275  27.061  1.00  0.00     0.261 C 
BRANCH   5   6
ATOM      6  O   UNL A   1      35.349  22.195  26.007  1.00  0.00    -0.460 OA
BRANCH   6   7
ATOM      7  C   UNL A   1      35.979  23.336  25.662  1.00  0.00     0.341 C 
ATOM      8  O   UNL A   1      37.170  23.575  25.785  1.00  0.00    -0.246 OA
BRANCH   7   9
ATOM      9  C   UNL A   1      35.051  24.186  24.882  1.00  0.00     0.101 A 
ATOM     10  C   UNL A   1      33.181  25.826  23.600  1.00  0.00     0.045 A 
ATOM     11  C   UNL A   1      33.867  26.299  24.725  1.00  0.00     0.027 A 
ATOM     12  C   UNL A   1      33.542  24.598  23.038  1.00  0.00     0.073 A 
ATOM     13  C   UNL A   1      34.777  25.468  25.381  1.00  0.00     0.022 A 
ATOM     14  C   UNL A   1      34.476  23.782  23.675  1.00  0.00     0.132 A 
BRANCH  10  15
ATOM     15  N   UNL A   1      32.048  26.556  23.191  1.00  0.00    -0.323 N 
ATOM     16  O   UNL A   1      30.375  24.956  23.526  1.00  0.00    -0.271 OA
ATOM     17  C   UNL A   1      30.738  26.113  23.334  1.00  0.00     0.262 C 
ATOM     18  H   UNL A   1      32.192  27.438  22.776  1.00  0.00     0.170 HD
BRANCH  17  19
ATOM     19  C   UNL A   1      29.717  27.252  23.305  1.00  0.00     0.329 C 
BRANCH  19  20
ATOM     20  O   UNL A   1      30.171  28.509  23.805  1.00  0.00    -0.484 OA
BRANCH  20  21
ATOM     21  C   UNL A   1      29.744  29.600  23.093  1.00  0.00     0.120 A 
ATOM     22  C   UNL A   1      28.980  30.546  23.779  1.00  0.00     0.053 A 
ATOM     23  C   UNL A   1      29.896  29.704  21.708  1.00  0.00     0.053 A 
ATOM     24  C   UNL A   1      28.358  31.590  23.085  1.00  0.00     0.089 A 
ATOM     25  C   UNL A   1      29.264  30.732  21.002  1.00  0.00     0.089 A 
ATOM     26  C   UNL A   1      28.485  31.666  21.692  1.00  0.00     0.269 A 
BRANCH  26  27
ATOM     27  N   UNL A   1      27.760  32.702  20.944  1.00  0.00     0.062 N 
ATOM     28  O   UNL A   1      27.653  33.820  21.467  1.00  0.00    -0.258 OA
ATOM     29  O   UNL A   1      27.282  32.392  19.844  1.00  0.00    -0.258 OA
ENDBRANCH  26  27
ENDBRANCH  20  21
ENDBRANCH  19  20
ENDBRANCH  17  19
ENDBRANCH  10  15
BRANCH  14  30
ATOM     30  O   UNL A   1      34.779  22.569  23.128  1.00  0.00    -0.507 OA
ATOM     31  H   UNL A   1      35.516  22.083  23.442  1.00  0.00     0.293 HD
ENDBRANCH  14  30
ENDBRANCH   7   9
ENDBRANCH   6   7
ENDBRANCH   5   6
ENDBRANCH   4   5
ENDBRANCH   3   4
ENDBRANCH   2   3
ENDBRANCH   1   2
BRANCH   1  32
ATOM     32  O   UNL A   1      30.748  26.076  26.706  1.00  0.00    -0.377 OA
BRANCH  32  33
ATOM     33  C   UNL A   1      31.146  27.308  27.290  1.00  0.00     0.188 C 
BRANCH  33  34
ATOM     34  C   UNL A   1      31.701  28.402  26.355  1.00  0.00     0.188 C 
BRANCH  34  35
ATOM     35  O   UNL A   1      31.405  29.721  26.788  1.00  0.00    -0.376 OA
BRANCH  35  36
ATOM     36  C   UNL A   1      32.146  30.782  26.215  1.00  0.00     0.202 C 
BRANCH  36  37
ATOM     37  C   UNL A   1      33.439  31.250  26.901  1.00  0.00     0.261 C 
BRANCH  37  38
ATOM     38  O   UNL A   1      33.331  31.720  28.252  1.00  0.00    -0.460 OA
BRANCH  38  39
ATOM     39  C   UNL A   1      33.613  33.017  28.494  1.00  0.00     0.338 C 
ATOM     40  O   UNL A   1      33.034  33.992  28.037  1.00  0.00    -0.246 OA
BRANCH  39  41
ATOM     41  C   UNL A   1      34.631  33.054  29.564  1.00  0.00     0.060 A 
ATOM     42  C   UNL A   1      35.075  34.291  30.052  1.00  0.00     0.016 A 
ATOM     43  C   UNL A   1      35.126  31.864  30.101  1.00  0.00     0.016 A 
ATOM     44  C   UNL A   1      36.040  34.338  31.060  1.00  0.00     0.010 A 
ATOM     45  C   UNL A   1      36.109  31.913  31.092  1.00  0.00     0.010 A 
ATOM     46  C   UNL A   1      36.593  33.150  31.555  1.00  0.00    -0.014 A 
BRANCH  46  47
ATOM     47  C   UNL A   1      37.814  33.194  32.397  1.00  0.00     0.031 A 
ATOM     48  C   UNL A   1      39.149  33.245  31.705  1.00  0.00     0.074 A 
ATOM     49  C   UNL A   1      37.743  33.212  33.741  1.00  0.00     0.049 A 
ATOM     50  N   UNL A   1      40.352  33.209  32.214  1.00  0.00    -0.248 NA
ATOM     51  C   UNL A   1      39.122  33.348  30.234  1.00  0.00     0.031 C 
ATOM     52  C   UNL A   1      36.510  33.219  34.527  1.00  0.00     0.029 A 
ATOM     53  N   UNL A   1      38.741  33.216  34.685  1.00  0.00    -0.354 N 
ATOM     54  C   UNL A   1      41.223  33.291  31.132  1.00  0.00     0.074 A 
ATOM     55  C   UNL A   1      40.411  33.334  29.935  1.00  0.00     0.031 C 
ATOM     56  C   UNL A   1      36.825  33.214  35.835  1.00  0.00     0.029 A 
ATOM     57  C   UNL A   1      38.278  33.165  35.980  1.00  0.00     0.049 A 
ATOM     58  H   UNL A   1      39.698  33.252  34.457  1.00  0.00     0.167 HD
ATOM     59  C   UNL A   1      42.574  33.343  31.136  1.00  0.00     0.037 A 
ATOM     60  C   UNL A   1      38.956  33.064  37.142  1.00  0.00     0.037 A 
ATOM     61  C   UNL A   1      43.377  33.293  32.330  1.00  0.00     0.049 A 
ATOM     62  C   UNL A   1      40.466  33.014  37.112  1.00  0.00     0.074 A 
ATOM     63  C   UNL A   1      44.756  33.319  32.441  1.00  0.00     0.029 A 
ATOM     64  N   UNL A   1      42.874  33.206  33.619  1.00  0.00    -0.354 N 
ATOM     65  N   UNL A   1      41.278  33.094  36.083  1.00  0.00    -0.248 NA
ATOM     66  C   UNL A   1      41.155  32.861  38.403  1.00  0.00     0.031 C 
ATOM     67  C   UNL A   1      45.088  33.200  33.794  1.00  0.00     0.029 A 
ATOM     68  C   UNL A   1      43.914  33.163  34.531  1.00  0.00     0.049 A 
ATOM     69  H   UNL A   1      41.917  33.180  33.852  1.00  0.00     0.167 HD
ATOM     70  C   UNL A   1      42.567  33.048  36.608  1.00  0.00     0.074 A 
ATOM     71  C   UNL A   1      42.428  32.942  38.044  1.00  0.00     0.031 C 
ATOM     72  C   UNL A   1      43.759  33.088  35.961  1.00  0.00     0.037 A 
BRANCH  59  73
ATOM     73  C   UNL A   1      43.276  33.457  29.812  1.00  0.00     0.058 A 
ATOM     74  C   UNL A   1      43.697  34.699  29.309  1.00  0.00     0.135 A 
ATOM     75  C   UNL A   1      43.585  32.309  29.063  1.00  0.00     0.135 A 
ATOM     76  F   UNL A   1      43.408  35.830  29.972  1.00  0.00    -0.206 F 
ATOM     77  C   UNL A   1      44.392  34.799  28.108  1.00  0.00     0.059 A 
ATOM     78  C   UNL A   1      44.303  32.384  27.873  1.00  0.00     0.059 A 
ATOM     79  F   UNL A   1      43.199  31.098  29.493  1.00  0.00    -0.206 F 
ATOM     80  C   UNL A   1      44.697  33.635  27.402  1.00  0.00     0.060 A 
BRANCH  80  81
ATOM     81  S   UNL A   1      45.633  33.783  25.865  1.00  0.00     0.124 S 
ATOM     82  O   UNL A   1      44.715  33.177  24.904  1.00  0.00    -0.237 OA
ATOM     83  O   UNL A   1      45.809  35.227  25.749  1.00  0.00    -0.237 OA
ATOM     84  O   UNL A   1      46.850  33.023  26.132  1.00  0.00    -0.744 OA
ENDBRANCH  80  81
ENDBRANCH  59  73
BRANCH  60  85
ATOM     85  C   UNL A   1      38.232  32.975  38.442  1.00  0.00     0.058 A 
ATOM     86  C   UNL A   1      37.463  31.847  38.768  1.00  0.00     0.135 A 
ATOM     87  C   UNL A   1      38.240  34.041  39.356  1.00  0.00     0.135 A 
ATOM     88  F   UNL A   1      37.411  30.805  37.925  1.00  0.00    -0.206 F 
ATOM     89  C   UNL A   1      36.694  31.796  39.927  1.00  0.00     0.059 A 
ATOM     90  C   UNL A   1      37.507  33.999  40.539  1.00  0.00     0.059 A 
ATOM     91  F   UNL A   1      38.965  35.141  39.102  1.00  0.00    -0.206 F 
ATOM     92  C   UNL A   1      36.718  32.880  40.804  1.00  0.00     0.060 A 
BRANCH  92  93
ATOM     93  S   UNL A   1      35.711  32.808  42.301  1.00  0.00     0.124 S 
ATOM     94  O   UNL A   1      36.479  31.883  43.126  1.00  0.00    -0.237 OA
ATOM     95  O   UNL A   1      35.710  34.202  42.736  1.00  0.00    -0.237 OA
ATOM     96  O   UNL A   1      34.427  32.309  41.819  1.00  0.00    -0.744 OA
ENDBRANCH  92  93
ENDBRANCH  60  85
BRANCH  72  97
ATOM     97  C   UNL A   1      45.010  33.085  36.799  1.00  0.00     0.058 A 
ATOM     98  C   UNL A   1      45.478  34.242  37.442  1.00  0.00     0.135 A 
ATOM     99  C   UNL A   1      45.718  31.890  37.009  1.00  0.00     0.135 A 
ATOM    100  F   UNL A   1      44.844  35.412  37.274  1.00  0.00    -0.206 F 
ATOM    101  C   UNL A   1      46.620  34.219  38.238  1.00  0.00     0.059 A 
ATOM    102  C   UNL A   1      46.842  31.837  37.827  1.00  0.00     0.059 A 
ATOM    103  F   UNL A   1      45.308  30.749  36.430  1.00  0.00    -0.206 F 
ATOM    104  C   UNL A   1      47.293  33.011  38.429  1.00  0.00     0.060 A 
BRANCH 104 105
ATOM    105  S   UNL A   1      48.750  32.990  39.494  1.00  0.00     0.124 S 
ATOM    106  O   UNL A   1      49.787  33.465  38.584  1.00  0.00    -0.237 OA
ATOM    107  O   UNL A   1      48.369  33.914  40.559  1.00  0.00    -0.237 OA
ATOM    108  O   UNL A   1      48.859  31.592  39.896  1.00  0.00    -0.744 OA
ENDBRANCH 104 105
ENDBRANCH  72  97
ENDBRANCH  46  47
ENDBRANCH  39  41
ENDBRANCH  38  39
ENDBRANCH  37  38
ENDBRANCH  36  37
ENDBRANCH  35  36
ENDBRANCH  34  35
ENDBRANCH  33  34
ENDBRANCH  32  33
ENDBRANCH   1  32
TORSDOF 29
ENDMDL
MODEL 3
REMARK VINA RESULT:      -8.5      1.447      2.160
REMARK SMILES O=C(COc1ccc([N+](=O)[O-])cc1)Nc1ccc(C(=O)OCCOCCOCCOCCOC(=O)c2ccc(-c3c4nc(c(-c5c(F)cc(S(=O)(=O)[O-])cc5F)c5ccc([nH]5)c(-c5c(F)cc(S(=O)(=O)[O-])cc5F)c5nc(c(-c6c(F)cc(S(=O)(=O)[O-])cc6F)c6ccc3[nH]6)C=C5)C=C4)cc2)c(O)c1
REMARK SMILES IDX 26 1 25 2 24 3 23 4 22 5 21 6 19 7 20 8 18 9 15 10 16 11
REMARK SMILES IDX 104 12 17 13 102 14 14 15 1 16 2 17 3 19 4 20 5 21 6 22
REMARK SMILES IDX 13 23 7 24 12 25 8 26 9 27 10 28 11 29 103 30 27 32 28 33
REMARK SMILES IDX 29 34 30 35 31 36 32 37 33 38 34 39 35 40 36 41 37 42 101 43
REMARK SMILES IDX 38 44 100 45 39 46 40 47 41 48 94 49 42 50 99 51 93 52 95 53
REMARK SMILES IDX 43 54 98 55 92 56 91 57 44 59 78 60 57 61 77 62 58 63 61 64
REMARK SMILES IDX 76 65 96 66 59 67 60 68 75 70 97 71 62 72 45 73 46 74 55 75
REMARK SMILES IDX 47 76 48 77 54 78 56 79 49 80 50 81 51 82 52 83 53 84 79 85
REMARK SMILES IDX 80 86 89 87 81 88 82 89 88 90 90 91 83 92 84 93 85 94 86 95
REMARK SMILES IDX 87 96 63 97 64 98 73 99 65 100 66 101 72 102 74 103 67 104
REMARK SMILES IDX 68 105 69 106 70 107 71 108
REMARK H PARENT 14 18 103 31 95 58 61 69
REMARK Flexibility Score: inf
ROOT
ATOM      1  C   UNL A   1      31.995  24.569  27.084  1.00  0.00     0.188 C 
ENDROOT
BRANCH   1   2
ATOM      2  C   UNL A   1      31.538  23.090  26.965  1.00  0.00     0.188 C 
BRANCH   2   3
ATOM      3  O   UNL A   1      32.497  22.123  27.343  1.00  0.00    -0.376 OA
BRANCH   3   4
ATOM      4  C   UNL A   1      33.625  21.870  26.531  1.00  0.00     0.202 C 
BRANCH   4   5
ATOM      5  C   UNL A   1      35.018  21.828  27.167  1.00  0.00     0.261 C 
BRANCH   5   6
ATOM      6  O   UNL A   1      36.105  21.970  26.255  1.00  0.00    -0.460 OA
BRANCH   6   7
ATOM      7  C   UNL A   1      36.527  23.224  25.994  1.00  0.00     0.341 C 
ATOM      8  O   UNL A   1      37.582  23.726  26.348  1.00  0.00    -0.246 OA
BRANCH   7   9
ATOM      9  C   UNL A   1      35.621  23.843  25.000  1.00  0.00     0.101 A 
ATOM     10  C   UNL A   1      33.748  25.012  23.281  1.00  0.00     0.045 A 
ATOM     11  C   UNL A   1      34.024  25.606  24.517  1.00  0.00     0.027 A 
ATOM     12  C   UNL A   1      34.515  23.925  22.851  1.00  0.00     0.073 A 
ATOM     13  C   UNL A   1      34.937  25.005  25.386  1.00  0.00     0.022 A 
ATOM     14  C   UNL A   1      35.450  23.344  23.707  1.00  0.00     0.132 A 
BRANCH  10  15
ATOM     15  N   UNL A   1      32.594  25.454  22.604  1.00  0.00    -0.323 N 
ATOM     16  O   UNL A   1      30.970  24.117  23.628  1.00  0.00    -0.271 OA
ATOM     17  C   UNL A   1      31.298  25.081  22.942  1.00  0.00     0.262 C 
ATOM     18  H   UNL A   1      32.712  26.067  21.843  1.00  0.00     0.170 HD
BRANCH  17  19
ATOM     19  C   UNL A   1      30.242  26.062  22.426  1.00  0.00     0.329 C 
BRANCH  19  20
ATOM     20  O   UNL A   1      30.730  27.331  21.992  1.00  0.00    -0.484 OA
BRANCH  20  21
ATOM     21  C   UNL A   1      30.041  28.410  22.483  1.00  0.00     0.120 A 
ATOM     22  C   UNL A   1      28.650  28.304  22.535  1.00  0.00     0.053 A 
ATOM     23  C   UNL A   1      30.654  29.634  22.759  1.00  0.00     0.053 A 
ATOM     24  C   UNL A   1      27.868  29.421  22.852  1.00  0.00     0.089 A 
ATOM     25  C   UNL A   1      29.882  30.761  23.058  1.00  0.00     0.089 A 
ATOM     26  C   UNL A   1      28.489  30.654  23.091  1.00  0.00     0.269 A 
BRANCH  26  27
ATOM     27  N   UNL A   1      27.673  31.851  23.332  1.00  0.00     0.062 N 
ATOM     28  O   UNL A   1      26.699  31.741  24.090  1.00  0.00    -0.258 OA
ATOM     29  O   UNL A   1      27.995  32.896  22.748  1.00  0.00    -0.258 OA
ENDBRANCH  26  27
ENDBRANCH  20  21
ENDBRANCH  19  20
ENDBRANCH  17  19
ENDBRANCH  10  15
BRANCH  14  30
ATOM     30  O   UNL A   1      36.156  22.257  23.278  1.00  0.00    -0.507 OA
ATOM     31  H   UNL A   1      35.718  21.561  22.829  1.00  0.00     0.293 HD
ENDBRANCH  14  30
ENDBRANCH   7   9
ENDBRANCH   6   7
ENDBRANCH   5   6
ENDBRANCH   4   5
ENDBRANCH   3   4
ENDBRANCH   2   3
ENDBRANCH   1   2
BRANCH   1  32
ATOM     32  O   UNL A   1      31.244  25.665  26.576  1.00  0.00    -0.377 OA
BRANCH  32  33
ATOM     33  C   UNL A   1      31.494  26.981  27.048  1.00  0.00     0.188 C 
BRANCH  33  34
ATOM     34  C   UNL A   1      31.986  28.029  26.029  1.00  0.00     0.188 C 
BRANCH  34  35
ATOM     35  O   UNL A   1      31.518  29.342  26.297  1.00  0.00    -0.376 OA
BRANCH  35  36
ATOM     36  C   UNL A   1      32.378  30.423  25.985  1.00  0.00     0.202 C 
BRANCH  36  37
ATOM     37  C   UNL A   1      33.552  30.741  26.925  1.00  0.00     0.261 C 
BRANCH  37  38
ATOM     38  O   UNL A   1      33.265  31.531  28.088  1.00  0.00    -0.460 OA
BRANCH  38  39
ATOM     39  C   UNL A   1      33.747  32.791  28.131  1.00  0.00     0.338 C 
ATOM     40  O   UNL A   1      33.244  33.787  27.635  1.00  0.00    -0.246 OA
BRANCH  39  41
ATOM     41  C   UNL A   1      34.903  32.787  29.051  1.00  0.00     0.060 A 
ATOM     42  C   UNL A   1      35.959  33.683  28.836  1.00  0.00     0.016 A 
ATOM     43  C   UNL A   1      34.929  31.914  30.141  1.00  0.00     0.016 A 
ATOM     44  C   UNL A   1      37.058  33.687  29.697  1.00  0.00     0.010 A 
ATOM     45  C   UNL A   1      36.040  31.902  30.987  1.00  0.00     0.010 A 
ATOM     46  C   UNL A   1      37.124  32.766  30.751  1.00  0.00    -0.014 A 
BRANCH  46  47
ATOM     47  C   UNL A   1      38.401  32.560  31.479  1.00  0.00     0.031 A 
ATOM     48  C   UNL A   1      39.434  31.662  30.854  1.00  0.00     0.074 A 
ATOM     49  C   UNL A   1      38.651  33.171  32.652  1.00  0.00     0.049 A 
ATOM     50  N   UNL A   1      40.585  31.263  31.325  1.00  0.00    -0.248 NA
ATOM     51  C   UNL A   1      39.122  31.139  29.511  1.00  0.00     0.031 C 
ATOM     52  C   UNL A   1      37.752  34.103  33.332  1.00  0.00     0.029 A 
ATOM     53  N   UNL A   1      39.738  33.085  33.486  1.00  0.00    -0.354 N 
ATOM     54  C   UNL A   1      41.137  30.451  30.340  1.00  0.00     0.074 A 
ATOM     55  C   UNL A   1      40.176  30.378  29.262  1.00  0.00     0.031 C 
ATOM     56  C   UNL A   1      38.322  34.494  34.487  1.00  0.00     0.029 A 
ATOM     57  C   UNL A   1      39.605  33.812  34.647  1.00  0.00     0.049 A 
ATOM     58  H   UNL A   1      40.538  32.553  33.274  1.00  0.00     0.167 HD
ATOM     59  C   UNL A   1      42.343  29.838  30.327  1.00  0.00     0.037 A 
ATOM     60  C   UNL A   1      40.416  33.892  35.721  1.00  0.00     0.037 A 
ATOM     61  C   UNL A   1      43.293  29.910  31.406  1.00  0.00     0.049 A 
ATOM     62  C   UNL A   1      41.709  33.108  35.727  1.00  0.00     0.074 A 
ATOM     63  C   UNL A   1      44.535  29.307  31.500  1.00  0.00     0.029 A 
ATOM     64  N   UNL A   1      43.107  30.626  32.578  1.00  0.00    -0.354 N 
ATOM     65  N   UNL A   1      42.220  32.346  34.789  1.00  0.00    -0.248 NA
ATOM     66  C   UNL A   1      42.537  33.197  36.940  1.00  0.00     0.031 C 
ATOM     67  C   UNL A   1      45.080  29.621  32.748  1.00  0.00     0.029 A 
ATOM     68  C   UNL A   1      44.204  30.470  33.407  1.00  0.00     0.049 A 
ATOM     69  H   UNL A   1      42.311  31.168  32.790  1.00  0.00     0.167 HD
ATOM     70  C   UNL A   1      43.446  31.905  35.281  1.00  0.00     0.074 A 
ATOM     71  C   UNL A   1      43.604  32.492  36.594  1.00  0.00     0.031 C 
ATOM     72  C   UNL A   1      44.360  31.087  34.700  1.00  0.00     0.037 A 
BRANCH  59  73
ATOM     73  C   UNL A   1      42.706  29.030  29.112  1.00  0.00     0.058 A 
ATOM     74  C   UNL A   1      43.364  29.611  28.016  1.00  0.00     0.135 A 
ATOM     75  C   UNL A   1      42.446  27.651  29.065  1.00  0.00     0.135 A 
ATOM     76  F   UNL A   1      43.616  30.929  27.998  1.00  0.00    -0.206 F 
ATOM     77  C   UNL A   1      43.746  28.854  26.914  1.00  0.00     0.059 A 
ATOM     78  C   UNL A   1      42.844  26.870  27.984  1.00  0.00     0.059 A 
ATOM     79  F   UNL A   1      41.812  27.047  30.082  1.00  0.00    -0.206 F 
ATOM     80  C   UNL A   1      43.489  27.482  26.911  1.00  0.00     0.060 A 
BRANCH  80  81
ATOM     81  S   UNL A   1      44.027  26.510  25.487  1.00  0.00     0.124 S 
ATOM     82  O   UNL A   1      44.947  27.436  24.833  1.00  0.00    -0.237 OA
ATOM     83  O   UNL A   1      44.641  25.348  26.120  1.00  0.00    -0.237 OA
ATOM     84  O   UNL A   1      42.786  26.247  24.766  1.00  0.00    -0.744 OA
ENDBRANCH  80  81
ENDBRANCH  59  73
BRANCH  60  85
ATOM     85  C   UNL A   1      40.039  34.719  36.903  1.00  0.00     0.058 A 
ATOM     86  C   UNL A   1      40.452  36.056  37.015  1.00  0.00     0.135 A 
ATOM     87  C   UNL A   1      39.315  34.171  37.974  1.00  0.00     0.135 A 
ATOM     88  F   UNL A   1      41.156  36.624  36.025  1.00  0.00    -0.206 F 
ATOM     89  C   UNL A   1      40.202  36.805  38.161  1.00  0.00     0.059 A 
ATOM     90  C   UNL A   1      39.021  34.912  39.116  1.00  0.00     0.059 A 
ATOM     91  F   UNL A   1      38.885  32.901  37.919  1.00  0.00    -0.206 F 
ATOM     92  C   UNL A   1      39.489  36.222  39.209  1.00  0.00     0.060 A 
BRANCH  92  93
ATOM     93  S   UNL A   1      39.176  37.200  40.694  1.00  0.00     0.124 S 
ATOM     94  O   UNL A   1      40.511  37.699  41.003  1.00  0.00    -0.237 OA
ATOM     95  O   UNL A   1      38.219  38.191  40.212  1.00  0.00    -0.237 OA
ATOM     96  O   UNL A   1      38.635  36.222  41.633  1.00  0.00    -0.744 OA
ENDBRANCH  92  93
ENDBRANCH  60  85
BRANCH  72  97
ATOM     97  C   UNL A   1      45.642  30.828  35.446  1.00  0.00     0.058 A 
ATOM     98  C   UNL A   1      46.767  31.657  35.303  1.00  0.00     0.135 A 
ATOM     99  C   UNL A   1      45.725  29.767  36.364  1.00  0.00     0.135 A 
ATOM    100  F   UNL A   1      46.745  32.682  34.438  1.00  0.00    -0.206 F 
ATOM    101  C   UNL A   1      47.936  31.424  36.021  1.00  0.00     0.059 A 
ATOM    102  C   UNL A   1      46.872  29.537  37.116  1.00  0.00     0.059 A 
ATOM    103  F   UNL A   1      44.675  28.951  36.551  1.00  0.00    -0.206 F 
ATOM    104  C   UNL A   1      47.978  30.364  36.929  1.00  0.00     0.060 A 
BRANCH 104 105
ATOM    105  S   UNL A   1      49.489  30.099  37.880  1.00  0.00     0.124 S 
ATOM    106  O   UNL A   1      49.018  29.216  38.942  1.00  0.00    -0.237 OA
ATOM    107  O   UNL A   1      50.374  29.487  36.892  1.00  0.00    -0.237 OA
ATOM    108  O   UNL A   1      49.867  31.444  38.302  1.00  0.00    -0.744 OA
ENDBRANCH 104 105
ENDBRANCH  72  97
ENDBRANCH  46  47
ENDBRANCH  39  41
ENDBRANCH  38  39
ENDBRANCH  37  38
ENDBRANCH  36  37
ENDBRANCH  35  36
ENDBRANCH  34  35
ENDBRANCH  33  34
ENDBRANCH  32  33
ENDBRANCH   1  32
TORSDOF 29
ENDMDL
