MODEL 1
REMARK VINA RESULT:      -6.9      0.000      0.000
REMARK SMILES CC(C)C[N@@H+](C)CCC(=O)OCCOCCOCCOCCOC(=O)c1ccc(-c2c3nc(c(-c4c(F)cc(S(=O)(=O)[O-])cc4F)c4ccc([nH]4)c(-c4c(F)cc(S(=O)(=O)[O-])cc4F)c4nc(c(-c5c(F)cc(S(=O)(=O)[O-])cc5F)c5ccc2[nH]5)C=C4)C=C3)cc1
REMARK SMILES IDX 16 1 15 2 14 3 13 4 12 5 11 6 9 7 10 8 8 9 7 10 5 11 6 12
REMARK SMILES IDX 4 14 2 15 1 16 3 17 17 18 18 19 19 20 20 21 21 22 22 23
REMARK SMILES IDX 23 24 24 25 25 26 26 27 27 28 91 29 28 30 90 31 29 32 30 33
REMARK SMILES IDX 31 34 84 35 32 36 89 37 83 38 85 39 33 40 88 41 82 42 81 43
REMARK SMILES IDX 34 45 68 46 47 47 67 48 48 49 51 50 66 51 86 52 49 53 50 54
REMARK SMILES IDX 65 56 87 57 52 58 35 59 36 60 45 61 37 62 38 63 44 64 46 65
REMARK SMILES IDX 39 66 40 67 41 68 42 69 43 70 69 71 70 72 79 73 71 74 72 75
REMARK SMILES IDX 78 76 80 77 73 78 74 79 75 80 76 81 77 82 53 83 54 84 63 85
REMARK SMILES IDX 55 86 56 87 62 88 64 89 57 90 58 91 59 92 60 93 61 94
REMARK H PARENT 5 13 85 44 51 55
REMARK Flexibility Score: inf
ROOT
ATOM      1  C   UNL A   1      37.410  23.419  25.809  1.00  0.00     0.188 C 
ENDROOT
BRANCH   1   2
ATOM      2  C   UNL A   1      37.475  21.957  25.371  1.00  0.00     0.188 C 
BRANCH   2   3
ATOM      3  O   UNL A   1      36.368  21.578  24.551  1.00  0.00    -0.376 OA
BRANCH   3   4
ATOM      4  C   UNL A   1      35.290  20.954  25.261  1.00  0.00     0.202 C 
BRANCH   4   5
ATOM      5  C   UNL A   1      33.923  21.216  24.621  1.00  0.00     0.261 C 
BRANCH   5   6
ATOM      6  O   UNL A   1      33.885  22.502  23.967  1.00  0.00    -0.463 OA
BRANCH   6   7
ATOM      7  C   UNL A   1      33.330  23.541  24.626  1.00  0.00     0.311 C 
ATOM      8  O   UNL A   1      33.525  23.808  25.805  1.00  0.00    -0.252 OA
BRANCH   7   9
ATOM      9  C   UNL A   1      32.371  24.333  23.767  1.00  0.00     0.184 C 
BRANCH   9  10
ATOM     10  C   UNL A   1      31.772  25.614  24.372  1.00  0.00     0.273 C 
BRANCH  10  11
ATOM     11  N   UNL A   1      32.170  26.959  23.904  1.00  0.00    -0.337 N 
ATOM     12  C   UNL A   1      33.440  26.955  23.180  1.00  0.00     0.332 C 
ATOM     13  H   UNL A   1      31.432  27.216  23.248  1.00  0.00     0.347 HD
BRANCH  11  14
ATOM     14  C   UNL A   1      32.168  27.993  24.949  1.00  0.00     0.264 C 
BRANCH  14  15
ATOM     15  C   UNL A   1      32.786  27.609  26.315  1.00  0.00     0.038 C 
ATOM     16  C   UNL A   1      34.149  28.214  26.634  1.00  0.00     0.013 C 
ATOM     17  C   UNL A   1      31.790  27.990  27.417  1.00  0.00     0.013 C 
ENDBRANCH  14  15
ENDBRANCH  11  14
ENDBRANCH  10  11
ENDBRANCH   9  10
ENDBRANCH   7   9
ENDBRANCH   6   7
ENDBRANCH   5   6
ENDBRANCH   4   5
ENDBRANCH   3   4
ENDBRANCH   2   3
ENDBRANCH   1   2
BRANCH   1  18
ATOM     18  O   UNL A   1      38.407  23.671  26.798  1.00  0.00    -0.377 OA
BRANCH  18  19
ATOM     19  C   UNL A   1      39.720  23.784  26.255  1.00  0.00     0.188 C 
BRANCH  19  20
ATOM     20  C   UNL A   1      40.253  25.208  26.398  1.00  0.00     0.188 C 
BRANCH  20  21
ATOM     21  O   UNL A   1      41.669  25.299  26.554  1.00  0.00    -0.376 OA
BRANCH  21  22
ATOM     22  C   UNL A   1      42.357  24.041  26.532  1.00  0.00     0.202 C 
BRANCH  22  23
ATOM     23  C   UNL A   1      43.852  24.126  26.186  1.00  0.00     0.261 C 
BRANCH  23  24
ATOM     24  O   UNL A   1      44.392  25.444  26.420  1.00  0.00    -0.460 OA
BRANCH  24  25
ATOM     25  C   UNL A   1      44.985  25.631  27.624  1.00  0.00     0.338 C 
ATOM     26  O   UNL A   1      46.086  25.237  27.969  1.00  0.00    -0.246 OA
BRANCH  25  27
ATOM     27  C   UNL A   1      44.181  26.555  28.447  1.00  0.00     0.060 A 
ATOM     28  C   UNL A   1      44.364  27.932  28.260  1.00  0.00     0.016 A 
ATOM     29  C   UNL A   1      43.345  26.082  29.461  1.00  0.00     0.016 A 
ATOM     30  C   UNL A   1      43.770  28.841  29.134  1.00  0.00     0.010 A 
ATOM     31  C   UNL A   1      42.759  26.997  30.344  1.00  0.00     0.010 A 
ATOM     32  C   UNL A   1      43.013  28.376  30.216  1.00  0.00    -0.014 A 
BRANCH  32  33
ATOM     33  C   UNL A   1      42.690  29.301  31.331  1.00  0.00     0.031 A 
ATOM     34  C   UNL A   1      41.433  30.129  31.231  1.00  0.00     0.074 A 
ATOM     35  C   UNL A   1      43.468  29.387  32.425  1.00  0.00     0.049 A 
ATOM     36  N   UNL A   1      40.964  31.032  32.052  1.00  0.00    -0.248 NA
ATOM     37  C   UNL A   1      40.595  29.906  30.041  1.00  0.00     0.031 C 
ATOM     38  C   UNL A   1      44.682  28.609  32.662  1.00  0.00     0.029 A 
ATOM     39  N   UNL A   1      43.351  30.179  33.539  1.00  0.00    -0.354 N 
ATOM     40  C   UNL A   1      39.784  31.490  31.476  1.00  0.00     0.074 A 
ATOM     41  C   UNL A   1      39.624  30.787  30.222  1.00  0.00     0.031 C 
ATOM     42  C   UNL A   1      45.207  28.973  33.846  1.00  0.00     0.029 A 
ATOM     43  C   UNL A   1      44.383  30.028  34.435  1.00  0.00     0.049 A 
ATOM     44  H   UNL A   1      42.598  30.796  33.685  1.00  0.00     0.167 HD
ATOM     45  C   UNL A   1      38.907  32.407  31.950  1.00  0.00     0.037 A 
ATOM     46  C   UNL A   1      44.641  30.683  35.585  1.00  0.00     0.037 A 
ATOM     47  C   UNL A   1      39.067  33.105  33.198  1.00  0.00     0.049 A 
ATOM     48  C   UNL A   1      43.684  31.745  36.065  1.00  0.00     0.074 A 
ATOM     49  C   UNL A   1      38.230  34.046  33.773  1.00  0.00     0.029 A 
ATOM     50  N   UNL A   1      40.138  32.942  34.064  1.00  0.00    -0.354 N 
ATOM     51  N   UNL A   1      42.567  32.160  35.516  1.00  0.00    -0.248 NA
ATOM     52  C   UNL A   1      44.022  32.424  37.324  1.00  0.00     0.031 C 
ATOM     53  C   UNL A   1      38.817  34.484  34.965  1.00  0.00     0.029 A 
ATOM     54  C   UNL A   1      39.995  33.779  35.158  1.00  0.00     0.049 A 
ATOM     55  H   UNL A   1      40.890  32.323  33.921  1.00  0.00     0.167 HD
ATOM     56  C   UNL A   1      42.056  33.129  36.375  1.00  0.00     0.074 A 
ATOM     57  C   UNL A   1      42.981  33.230  37.485  1.00  0.00     0.031 C 
ATOM     58  C   UNL A   1      40.922  33.864  36.258  1.00  0.00     0.037 A 
BRANCH  45  59
ATOM     59  C   UNL A   1      37.709  32.725  31.098  1.00  0.00     0.058 A 
ATOM     60  C   UNL A   1      36.468  32.103  31.306  1.00  0.00     0.135 A 
ATOM     61  C   UNL A   1      37.800  33.678  30.071  1.00  0.00     0.135 A 
ATOM     62  F   UNL A   1      36.331  31.170  32.261  1.00  0.00    -0.206 F 
ATOM     63  C   UNL A   1      35.366  32.393  30.507  1.00  0.00     0.059 A 
ATOM     64  C   UNL A   1      36.704  34.004  29.278  1.00  0.00     0.059 A 
ATOM     65  F   UNL A   1      38.964  34.300  29.827  1.00  0.00    -0.206 F 
ATOM     66  C   UNL A   1      35.495  33.345  29.494  1.00  0.00     0.060 A 
BRANCH  66  67
ATOM     67  S   UNL A   1      34.057  33.711  28.464  1.00  0.00     0.124 S 
ATOM     68  O   UNL A   1      33.675  32.377  28.013  1.00  0.00    -0.237 OA
ATOM     69  O   UNL A   1      33.147  34.345  29.413  1.00  0.00    -0.237 OA
ATOM     70  O   UNL A   1      34.594  34.592  27.432  1.00  0.00    -0.744 OA
ENDBRANCH  66  67
ENDBRANCH  45  59
BRANCH  46  71
ATOM     71  C   UNL A   1      45.866  30.360  36.363  1.00  0.00     0.058 A 
ATOM     72  C   UNL A   1      47.064  31.060  36.155  1.00  0.00     0.135 A 
ATOM     73  C   UNL A   1      45.864  29.343  37.330  1.00  0.00     0.135 A 
ATOM     74  F   UNL A   1      47.121  32.031  35.231  1.00  0.00    -0.206 F 
ATOM     75  C   UNL A   1      48.218  30.758  36.871  1.00  0.00     0.059 A 
ATOM     76  C   UNL A   1      46.998  29.039  38.076  1.00  0.00     0.059 A 
ATOM     77  F   UNL A   1      44.741  28.649  37.573  1.00  0.00    -0.206 F 
ATOM     78  C   UNL A   1      48.174  29.747  37.834  1.00  0.00     0.060 A 
BRANCH  78  79
ATOM     79  S   UNL A   1      49.660  29.404  38.801  1.00  0.00     0.124 S 
ATOM     80  O   UNL A   1      49.466  30.272  39.956  1.00  0.00    -0.237 OA
ATOM     81  O   UNL A   1      49.538  27.971  39.049  1.00  0.00    -0.237 OA
ATOM     82  O   UNL A   1      50.741  29.784  37.897  1.00  0.00    -0.744 OA
ENDBRANCH  78  79
ENDBRANCH  46  71
BRANCH  58  83
ATOM     83  C   UNL A   1      40.595  34.818  37.376  1.00  0.00     0.058 A 
ATOM     84  C   UNL A   1      41.111  36.123  37.410  1.00  0.00     0.135 A 
ATOM     85  C   UNL A   1      39.718  34.433  38.403  1.00  0.00     0.135 A 
ATOM     86  F   UNL A   1      41.957  36.540  36.455  1.00  0.00    -0.206 F 
ATOM     87  C   UNL A   1      40.793  37.003  38.439  1.00  0.00     0.059 A 
ATOM     88  C   UNL A   1      39.364  35.306  39.428  1.00  0.00     0.059 A 
ATOM     89  F   UNL A   1      39.185  33.201  38.411  1.00  0.00    -0.206 F 
ATOM     90  C   UNL A   1      39.919  36.585  39.445  1.00  0.00     0.060 A 
BRANCH  90  91
ATOM     91  S   UNL A   1      39.497  37.742  40.767  1.00  0.00     0.124 S 
ATOM     92  O   UNL A   1      40.732  38.508  40.891  1.00  0.00    -0.237 OA
ATOM     93  O   UNL A   1      38.359  38.462  40.201  1.00  0.00    -0.237 OA
ATOM     94  O   UNL A   1      39.182  36.869  41.893  1.00  0.00    -0.744 OA
ENDBRANCH  90  91
ENDBRANCH  58  83
ENDBRANCH  32  33
ENDBRANCH  25  27
ENDBRANCH  24  25
ENDBRANCH  23  24
ENDBRANCH  22  23
ENDBRANCH  21  22
ENDBRANCH  20  21
ENDBRANCH  19  20
ENDBRANCH  18  19
ENDBRANCH   1  18
TORSDOF 27
ENDMDL
MODEL 2
REMARK VINA RESULT:      -6.7      5.397     11.857
REMARK SMILES CC(C)C[N@@H+](C)CCC(=O)OCCOCCOCCOCCOC(=O)c1ccc(-c2c3nc(c(-c4c(F)cc(S(=O)(=O)[O-])cc4F)c4ccc([nH]4)c(-c4c(F)cc(S(=O)(=O)[O-])cc4F)c4nc(c(-c5c(F)cc(S(=O)(=O)[O-])cc5F)c5ccc2[nH]5)C=C4)C=C3)cc1
REMARK SMILES IDX 16 1 15 2 14 3 13 4 12 5 11 6 9 7 10 8 8 9 7 10 5 11 6 12
REMARK SMILES IDX 4 14 2 15 1 16 3 17 17 18 18 19 19 20 20 21 21 22 22 23
REMARK SMILES IDX 23 24 24 25 25 26 26 27 27 28 91 29 28 30 90 31 29 32 30 33
REMARK SMILES IDX 31 34 84 35 32 36 89 37 83 38 85 39 33 40 88 41 82 42 81 43
REMARK SMILES IDX 34 45 68 46 47 47 67 48 48 49 51 50 66 51 86 52 49 53 50 54
REMARK SMILES IDX 65 56 87 57 52 58 35 59 36 60 45 61 37 62 38 63 44 64 46 65
REMARK SMILES IDX 39 66 40 67 41 68 42 69 43 70 69 71 70 72 79 73 71 74 72 75
REMARK SMILES IDX 78 76 80 77 73 78 74 79 75 80 76 81 77 82 53 83 54 84 63 85
REMARK SMILES IDX 55 86 56 87 62 88 64 89 57 90 58 91 59 92 60 93 61 94
REMARK H PARENT 5 13 85 44 51 55
REMARK Flexibility Score: inf
ROOT
ATOM      1  C   UNL A   1      44.622  24.517  31.354  1.00  0.00     0.188 C 
ENDROOT
BRANCH   1   2
ATOM      2  C   UNL A   1      44.673  23.557  32.541  1.00  0.00     0.188 C 
BRANCH   2   3
ATOM      3  O   UNL A   1      43.468  23.567  33.309  1.00  0.00    -0.376 OA
BRANCH   3   4
ATOM      4  C   UNL A   1      43.579  22.947  34.596  1.00  0.00     0.202 C 
BRANCH   4   5
ATOM      5  C   UNL A   1      44.339  23.809  35.610  1.00  0.00     0.261 C 
BRANCH   5   6
ATOM      6  O   UNL A   1      45.262  23.020  36.388  1.00  0.00    -0.463 OA
BRANCH   6   7
ATOM      7  C   UNL A   1      45.539  23.413  37.649  1.00  0.00     0.311 C 
ATOM      8  O   UNL A   1      44.993  24.344  38.229  1.00  0.00    -0.252 OA
BRANCH   7   9
ATOM      9  C   UNL A   1      46.659  22.616  38.278  1.00  0.00     0.184 C 
BRANCH   9  10
ATOM     10  C   UNL A   1      47.755  22.077  37.342  1.00  0.00     0.273 C 
BRANCH  10  11
ATOM     11  N   UNL A   1      47.538  20.889  36.489  1.00  0.00    -0.337 N 
ATOM     12  C   UNL A   1      46.769  19.841  37.160  1.00  0.00     0.332 C 
ATOM     13  H   UNL A   1      46.979  21.245  35.714  1.00  0.00     0.347 HD
BRANCH  11  14
ATOM     14  C   UNL A   1      48.762  20.336  35.892  1.00  0.00     0.264 C 
BRANCH  14  15
ATOM     15  C   UNL A   1      49.435  21.172  34.776  1.00  0.00     0.038 C 
ATOM     16  C   UNL A   1      50.691  21.941  35.171  1.00  0.00     0.013 C 
ATOM     17  C   UNL A   1      49.759  20.235  33.605  1.00  0.00     0.013 C 
ENDBRANCH  14  15
ENDBRANCH  11  14
ENDBRANCH  10  11
ENDBRANCH   9  10
ENDBRANCH   7   9
ENDBRANCH   6   7
ENDBRANCH   5   6
ENDBRANCH   4   5
ENDBRANCH   3   4
ENDBRANCH   2   3
ENDBRANCH   1   2
BRANCH   1  18
ATOM     18  O   UNL A   1      43.924  23.906  30.270  1.00  0.00    -0.377 OA
BRANCH  18  19
ATOM     19  C   UNL A   1      44.744  23.687  29.126  1.00  0.00     0.188 C 
BRANCH  19  20
ATOM     20  C   UNL A   1      43.903  23.286  27.916  1.00  0.00     0.188 C 
BRANCH  20  21
ATOM     21  O   UNL A   1      44.599  22.512  26.938  1.00  0.00    -0.376 OA
BRANCH  21  22
ATOM     22  C   UNL A   1      43.754  21.800  26.025  1.00  0.00     0.202 C 
BRANCH  22  23
ATOM     23  C   UNL A   1      42.412  22.482  25.715  1.00  0.00     0.261 C 
BRANCH  23  24
ATOM     24  O   UNL A   1      41.325  21.920  26.479  1.00  0.00    -0.460 OA
BRANCH  24  25
ATOM     25  C   UNL A   1      40.122  22.524  26.323  1.00  0.00     0.338 C 
ATOM     26  O   UNL A   1      39.096  22.018  25.904  1.00  0.00    -0.246 OA
BRANCH  25  27
ATOM     27  C   UNL A   1      40.155  23.879  26.908  1.00  0.00     0.060 A 
ATOM     28  C   UNL A   1      40.072  24.973  26.037  1.00  0.00     0.016 A 
ATOM     29  C   UNL A   1      40.376  24.074  28.273  1.00  0.00     0.016 A 
ATOM     30  C   UNL A   1      40.283  26.265  26.515  1.00  0.00     0.010 A 
ATOM     31  C   UNL A   1      40.599  25.372  28.750  1.00  0.00     0.010 A 
ATOM     32  C   UNL A   1      40.607  26.466  27.864  1.00  0.00    -0.014 A 
BRANCH  32  33
ATOM     33  C   UNL A   1      41.177  27.768  28.290  1.00  0.00     0.031 A 
ATOM     34  C   UNL A   1      42.665  27.975  28.157  1.00  0.00     0.074 A 
ATOM     35  C   UNL A   1      40.397  28.762  28.752  1.00  0.00     0.049 A 
ATOM     36  N   UNL A   1      43.397  29.004  28.497  1.00  0.00    -0.248 NA
ATOM     37  C   UNL A   1      43.429  26.867  27.558  1.00  0.00     0.031 C 
ATOM     38  C   UNL A   1      38.943  28.703  28.885  1.00  0.00     0.029 A 
ATOM     39  N   UNL A   1      40.728  30.015  29.202  1.00  0.00    -0.354 N 
ATOM     40  C   UNL A   1      44.704  28.666  28.165  1.00  0.00     0.074 A 
ATOM     41  C   UNL A   1      44.670  27.326  27.622  1.00  0.00     0.031 C 
ATOM     42  C   UNL A   1      38.507  29.868  29.398  1.00  0.00     0.029 A 
ATOM     43  C   UNL A   1      39.652  30.741  29.655  1.00  0.00     0.049 A 
ATOM     44  H   UNL A   1      41.649  30.363  29.200  1.00  0.00     0.167 HD
ATOM     45  C   UNL A   1      45.830  29.406  28.290  1.00  0.00     0.037 A 
ATOM     46  C   UNL A   1      39.603  31.960  30.230  1.00  0.00     0.037 A 
ATOM     47  C   UNL A   1      45.863  30.740  28.830  1.00  0.00     0.049 A 
ATOM     48  C   UNL A   1      40.878  32.743  30.418  1.00  0.00     0.074 A 
ATOM     49  C   UNL A   1      46.953  31.579  28.991  1.00  0.00     0.029 A 
ATOM     50  N   UNL A   1      44.756  31.430  29.300  1.00  0.00    -0.354 N 
ATOM     51  N   UNL A   1      42.105  32.416  30.089  1.00  0.00    -0.248 NA
ATOM     52  C   UNL A   1      40.759  34.064  31.053  1.00  0.00     0.031 C 
ATOM     53  C   UNL A   1      46.510  32.758  29.599  1.00  0.00     0.029 A 
ATOM     54  C   UNL A   1      45.138  32.675  29.771  1.00  0.00     0.049 A 
ATOM     55  H   UNL A   1      43.834  31.085  29.300  1.00  0.00     0.167 HD
ATOM     56  C   UNL A   1      42.900  33.499  30.452  1.00  0.00     0.074 A 
ATOM     57  C   UNL A   1      42.013  34.496  31.016  1.00  0.00     0.031 C 
ATOM     58  C   UNL A   1      44.241  33.658  30.325  1.00  0.00     0.037 A 
BRANCH  45  59
ATOM     59  C   UNL A   1      47.126  28.775  27.860  1.00  0.00     0.058 A 
ATOM     60  C   UNL A   1      47.970  28.123  28.772  1.00  0.00     0.135 A 
ATOM     61  C   UNL A   1      47.521  28.810  26.512  1.00  0.00     0.135 A 
ATOM     62  F   UNL A   1      47.650  28.077  30.075  1.00  0.00    -0.206 F 
ATOM     63  C   UNL A   1      49.173  27.551  28.370  1.00  0.00     0.059 A 
ATOM     64  C   UNL A   1      48.706  28.221  26.083  1.00  0.00     0.059 A 
ATOM     65  F   UNL A   1      46.752  29.425  25.599  1.00  0.00    -0.206 F 
ATOM     66  C   UNL A   1      49.533  27.607  27.022  1.00  0.00     0.060 A 
BRANCH  66  67
ATOM     67  S   UNL A   1      51.098  26.862  26.514  1.00  0.00     0.124 S 
ATOM     68  O   UNL A   1      50.739  25.449  26.447  1.00  0.00    -0.237 OA
ATOM     69  O   UNL A   1      51.352  27.514  25.232  1.00  0.00    -0.237 OA
ATOM     70  O   UNL A   1      52.013  27.227  27.590  1.00  0.00    -0.744 OA
ENDBRANCH  66  67
ENDBRANCH  45  59
BRANCH  46  71
ATOM     71  C   UNL A   1      38.299  32.516  30.680  1.00  0.00     0.058 A 
ATOM     72  C   UNL A   1      37.852  32.343  31.998  1.00  0.00     0.135 A 
ATOM     73  C   UNL A   1      37.473  33.230  29.798  1.00  0.00     0.135 A 
ATOM     74  F   UNL A   1      38.600  31.655  32.875  1.00  0.00    -0.206 F 
ATOM     75  C   UNL A   1      36.629  32.851  32.425  1.00  0.00     0.059 A 
ATOM     76  C   UNL A   1      36.257  33.768  30.208  1.00  0.00     0.059 A 
ATOM     77  F   UNL A   1      37.858  33.429  28.528  1.00  0.00    -0.206 F 
ATOM     78  C   UNL A   1      35.840  33.567  31.523  1.00  0.00     0.060 A 
BRANCH  78  79
ATOM     79  S   UNL A   1      34.283  34.274  32.103  1.00  0.00     0.124 S 
ATOM     80  O   UNL A   1      33.703  33.153  32.831  1.00  0.00    -0.237 OA
ATOM     81  O   UNL A   1      34.741  35.397  32.915  1.00  0.00    -0.237 OA
ATOM     82  O   UNL A   1      33.604  34.645  30.865  1.00  0.00    -0.744 OA
ENDBRANCH  78  79
ENDBRANCH  46  71
BRANCH  58  83
ATOM     83  C   UNL A   1      44.830  34.971  30.770  1.00  0.00     0.058 A 
ATOM     84  C   UNL A   1      45.326  35.156  32.070  1.00  0.00     0.135 A 
ATOM     85  C   UNL A   1      44.938  36.042  29.868  1.00  0.00     0.135 A 
ATOM     86  F   UNL A   1      45.244  34.165  32.973  1.00  0.00    -0.206 F 
ATOM     87  C   UNL A   1      45.882  36.367  32.470  1.00  0.00     0.059 A 
ATOM     88  C   UNL A   1      45.516  37.253  30.238  1.00  0.00     0.059 A 
ATOM     89  F   UNL A   1      44.492  35.913  28.608  1.00  0.00    -0.206 F 
ATOM     90  C   UNL A   1      45.971  37.411  31.546  1.00  0.00     0.060 A 
BRANCH  90  91
ATOM     91  S   UNL A   1      46.712  38.973  32.069  1.00  0.00     0.124 S 
ATOM     92  O   UNL A   1      47.724  39.177  31.038  1.00  0.00    -0.237 OA
ATOM     93  O   UNL A   1      45.575  39.888  32.030  1.00  0.00    -0.237 OA
ATOM     94  O   UNL A   1      47.224  38.676  33.403  1.00  0.00    -0.744 OA
ENDBRANCH  90  91
ENDBRANCH  58  83
ENDBRANCH  32  33
ENDBRANCH  25  27
ENDBRANCH  24  25
ENDBRANCH  23  24
ENDBRANCH  22  23
ENDBRANCH  21  22
ENDBRANCH  20  21
ENDBRANCH  19  20
ENDBRANCH  18  19
ENDBRANCH   1  18
TORSDOF 27
ENDMDL
MODEL 3
REMARK VINA RESULT:      -6.6      1.614      2.136
REMARK SMILES CC(C)C[N@@H+](C)CCC(=O)OCCOCCOCCOCCOC(=O)c1ccc(-c2c3nc(c(-c4c(F)cc(S(=O)(=O)[O-])cc4F)c4ccc([nH]4)c(-c4c(F)cc(S(=O)(=O)[O-])cc4F)c4nc(c(-c5c(F)cc(S(=O)(=O)[O-])cc5F)c5ccc2[nH]5)C=C4)C=C3)cc1
REMARK SMILES IDX 16 1 15 2 14 3 13 4 12 5 11 6 9 7 10 8 8 9 7 10 5 11 6 12
REMARK SMILES IDX 4 14 2 15 1 16 3 17 17 18 18 19 19 20 20 21 21 22 22 23
REMARK SMILES IDX 23 24 24 25 25 26 26 27 27 28 91 29 28 30 90 31 29 32 30 33
REMARK SMILES IDX 31 34 84 35 32 36 89 37 83 38 85 39 33 40 88 41 82 42 81 43
REMARK SMILES IDX 34 45 68 46 47 47 67 48 48 49 51 50 66 51 86 52 49 53 50 54
REMARK SMILES IDX 65 56 87 57 52 58 35 59 36 60 45 61 37 62 38 63 44 64 46 65
REMARK SMILES IDX 39 66 40 67 41 68 42 69 43 70 69 71 70 72 79 73 71 74 72 75
REMARK SMILES IDX 78 76 80 77 73 78 74 79 75 80 76 81 77 82 53 83 54 84 63 85
REMARK SMILES IDX 55 86 56 87 62 88 64 89 57 90 58 91 59 92 60 93 61 94
REMARK H PARENT 5 13 85 44 51 55
REMARK Flexibility Score: inf
ROOT
ATOM      1  C   UNL A   1      37.361  23.452  26.009  1.00  0.00     0.188 C 
ENDROOT
BRANCH   1   2
ATOM      2  C   UNL A   1      35.896  23.110  25.747  1.00  0.00     0.188 C 
BRANCH   2   3
ATOM      3  O   UNL A   1      35.584  21.751  26.060  1.00  0.00    -0.376 OA
BRANCH   3   4
ATOM      4  C   UNL A   1      34.677  21.124  25.143  1.00  0.00     0.202 C 
BRANCH   4   5
ATOM      5  C   UNL A   1      33.789  22.129  24.403  1.00  0.00     0.261 C 
BRANCH   5   6
ATOM      6  O   UNL A   1      32.389  21.873  24.642  1.00  0.00    -0.463 OA
BRANCH   6   7
ATOM      7  C   UNL A   1      31.567  22.926  24.837  1.00  0.00     0.311 C 
ATOM      8  O   UNL A   1      30.803  23.383  23.996  1.00  0.00    -0.252 OA
BRANCH   7   9
ATOM      9  C   UNL A   1      31.725  23.545  26.206  1.00  0.00     0.184 C 
BRANCH   9  10
ATOM     10  C   UNL A   1      32.345  24.951  26.280  1.00  0.00     0.273 C 
BRANCH  10  11
ATOM     11  N   UNL A   1      31.524  26.155  26.527  1.00  0.00    -0.337 N 
ATOM     12  C   UNL A   1      30.631  26.472  25.413  1.00  0.00     0.332 C 
ATOM     13  H   UNL A   1      30.950  25.896  27.330  1.00  0.00     0.347 HD
BRANCH  11  14
ATOM     14  C   UNL A   1      32.290  27.341  26.936  1.00  0.00     0.264 C 
BRANCH  14  15
ATOM     15  C   UNL A   1      32.152  28.603  26.050  1.00  0.00     0.038 C 
ATOM     16  C   UNL A   1      31.881  29.915  26.779  1.00  0.00     0.013 C 
ATOM     17  C   UNL A   1      33.429  28.742  25.210  1.00  0.00     0.013 C 
ENDBRANCH  14  15
ENDBRANCH  11  14
ENDBRANCH  10  11
ENDBRANCH   9  10
ENDBRANCH   7   9
ENDBRANCH   6   7
ENDBRANCH   5   6
ENDBRANCH   4   5
ENDBRANCH   3   4
ENDBRANCH   2   3
ENDBRANCH   1   2
BRANCH   1  18
ATOM     18  O   UNL A   1      38.162  22.280  25.875  1.00  0.00    -0.377 OA
BRANCH  18  19
ATOM     19  C   UNL A   1      39.438  22.396  26.499  1.00  0.00     0.188 C 
BRANCH  19  20
ATOM     20  C   UNL A   1      39.718  23.840  26.910  1.00  0.00     0.188 C 
BRANCH  20  21
ATOM     21  O   UNL A   1      40.977  24.351  26.469  1.00  0.00    -0.376 OA
BRANCH  21  22
ATOM     22  C   UNL A   1      42.117  23.784  27.128  1.00  0.00     0.202 C 
BRANCH  22  23
ATOM     23  C   UNL A   1      42.162  24.001  28.649  1.00  0.00     0.261 C 
BRANCH  23  24
ATOM     24  O   UNL A   1      43.235  23.264  29.274  1.00  0.00    -0.460 OA
BRANCH  24  25
ATOM     25  C   UNL A   1      44.456  23.848  29.222  1.00  0.00     0.338 C 
ATOM     26  O   UNL A   1      45.334  23.644  28.402  1.00  0.00    -0.246 OA
BRANCH  25  27
ATOM     27  C   UNL A   1      44.541  24.935  30.218  1.00  0.00     0.060 A 
ATOM     28  C   UNL A   1      44.176  24.646  31.540  1.00  0.00     0.016 A 
ATOM     29  C   UNL A   1      44.865  26.240  29.840  1.00  0.00     0.016 A 
ATOM     30  C   UNL A   1      44.061  25.675  32.473  1.00  0.00     0.010 A 
ATOM     31  C   UNL A   1      44.738  27.273  30.777  1.00  0.00     0.010 A 
ATOM     32  C   UNL A   1      44.284  27.001  32.082  1.00  0.00    -0.014 A 
BRANCH  32  33
ATOM     33  C   UNL A   1      43.820  28.107  32.957  1.00  0.00     0.031 A 
ATOM     34  C   UNL A   1      42.581  28.867  32.552  1.00  0.00     0.074 A 
ATOM     35  C   UNL A   1      44.455  28.414  34.102  1.00  0.00     0.049 A 
ATOM     36  N   UNL A   1      42.008  29.891  33.128  1.00  0.00    -0.248 NA
ATOM     37  C   UNL A   1      41.899  28.405  31.331  1.00  0.00     0.031 C 
ATOM     38  C   UNL A   1      45.633  27.726  34.626  1.00  0.00     0.029 A 
ATOM     39  N   UNL A   1      44.195  29.393  35.028  1.00  0.00    -0.354 N 
ATOM     40  C   UNL A   1      40.907  30.203  32.337  1.00  0.00     0.074 A 
ATOM     41  C   UNL A   1      40.909  29.277  31.226  1.00  0.00     0.031 C 
ATOM     42  C   UNL A   1      46.004  28.316  35.777  1.00  0.00     0.029 A 
ATOM     43  C   UNL A   1      45.107  29.439  36.054  1.00  0.00     0.049 A 
ATOM     44  H   UNL A   1      43.427  30.006  34.963  1.00  0.00     0.167 HD
ATOM     45  C   UNL A   1      39.974  31.166  32.522  1.00  0.00     0.037 A 
ATOM     46  C   UNL A   1      45.216  30.300  37.086  1.00  0.00     0.037 A 
ATOM     47  C   UNL A   1      39.973  32.086  33.629  1.00  0.00     0.049 A 
ATOM     48  C   UNL A   1      44.202  31.405  37.240  1.00  0.00     0.074 A 
ATOM     49  C   UNL A   1      39.066  33.092  33.913  1.00  0.00     0.029 A 
ATOM     50  N   UNL A   1      40.928  32.115  34.635  1.00  0.00    -0.354 N 
ATOM     51  N   UNL A   1      43.160  31.681  36.491  1.00  0.00    -0.248 NA
ATOM     52  C   UNL A   1      44.377  32.313  38.383  1.00  0.00     0.031 C 
ATOM     53  C   UNL A   1      39.497  33.758  35.066  1.00  0.00     0.029 A 
ATOM     54  C   UNL A   1      40.645  33.134  35.528  1.00  0.00     0.049 A 
ATOM     55  H   UNL A   1      41.695  31.501  34.702  1.00  0.00     0.167 HD
ATOM     56  C   UNL A   1      42.541  32.776  37.086  1.00  0.00     0.074 A 
ATOM     57  C   UNL A   1      43.319  33.106  38.263  1.00  0.00     0.031 C 
ATOM     58  C   UNL A   1      41.427  33.445  36.698  1.00  0.00     0.037 A 
BRANCH  45  59
ATOM     59  C   UNL A   1      38.889  31.288  31.487  1.00  0.00     0.058 A 
ATOM     60  C   UNL A   1      37.639  30.672  31.649  1.00  0.00     0.135 A 
ATOM     61  C   UNL A   1      39.100  32.047  30.324  1.00  0.00     0.135 A 
ATOM     62  F   UNL A   1      37.392  29.919  32.732  1.00  0.00    -0.206 F 
ATOM     63  C   UNL A   1      36.644  30.780  30.682  1.00  0.00     0.059 A 
ATOM     64  C   UNL A   1      38.110  32.191  29.357  1.00  0.00     0.059 A 
ATOM     65  F   UNL A   1      40.279  32.654  30.118  1.00  0.00    -0.206 F 
ATOM     66  C   UNL A   1      36.890  31.541  29.537  1.00  0.00     0.060 A 
BRANCH  66  67
ATOM     67  S   UNL A   1      35.591  31.672  28.290  1.00  0.00     0.124 S 
ATOM     68  O   UNL A   1      35.832  30.474  27.493  1.00  0.00    -0.237 OA
ATOM     69  O   UNL A   1      34.377  31.660  29.101  1.00  0.00    -0.237 OA
ATOM     70  O   UNL A   1      35.885  32.937  27.625  1.00  0.00    -0.744 OA
ENDBRANCH  66  67
ENDBRANCH  45  59
BRANCH  46  71
ATOM     71  C   UNL A   1      46.337  30.160  38.054  1.00  0.00     0.058 A 
ATOM     72  C   UNL A   1      47.603  30.698  37.782  1.00  0.00     0.135 A 
ATOM     73  C   UNL A   1      46.162  29.483  39.271  1.00  0.00     0.135 A 
ATOM     74  F   UNL A   1      47.824  31.342  36.626  1.00  0.00    -0.206 F 
ATOM     75  C   UNL A   1      48.660  30.564  38.677  1.00  0.00     0.059 A 
ATOM     76  C   UNL A   1      47.197  29.356  40.192  1.00  0.00     0.059 A 
ATOM     77  F   UNL A   1      44.968  28.956  39.582  1.00  0.00    -0.206 F 
ATOM     78  C   UNL A   1      48.445  29.894  39.883  1.00  0.00     0.060 A 
BRANCH  78  79
ATOM     79  S   UNL A   1      49.805  29.777  41.065  1.00  0.00     0.124 S 
ATOM     80  O   UNL A   1      50.490  28.574  40.609  1.00  0.00    -0.237 OA
ATOM     81  O   UNL A   1      50.510  31.037  40.846  1.00  0.00    -0.237 OA
ATOM     82  O   UNL A   1      49.122  29.668  42.351  1.00  0.00    -0.744 OA
ENDBRANCH  78  79
ENDBRANCH  46  71
BRANCH  58  83
ATOM     83  C   UNL A   1      40.958  34.579  37.571  1.00  0.00     0.058 A 
ATOM     84  C   UNL A   1      41.529  35.858  37.492  1.00  0.00     0.135 A 
ATOM     85  C   UNL A   1      39.893  34.390  38.468  1.00  0.00     0.135 A 
ATOM     86  F   UNL A   1      42.552  36.092  36.655  1.00  0.00    -0.206 F 
ATOM     87  C   UNL A   1      41.081  36.905  38.292  1.00  0.00     0.059 A 
ATOM     88  C   UNL A   1      39.410  35.430  39.257  1.00  0.00     0.059 A 
ATOM     89  F   UNL A   1      39.302  33.189  38.573  1.00  0.00    -0.206 F 
ATOM     90  C   UNL A   1      40.021  36.680  39.174  1.00  0.00     0.060 A 
BRANCH  90  91
ATOM     91  S   UNL A   1      39.433  38.049  40.194  1.00  0.00     0.124 S 
ATOM     92  O   UNL A   1      38.153  38.355  39.566  1.00  0.00    -0.237 OA
ATOM     93  O   UNL A   1      39.360  37.442  41.521  1.00  0.00    -0.237 OA
ATOM     94  O   UNL A   1      40.472  39.062  40.033  1.00  0.00    -0.744 OA
ENDBRANCH  90  91
ENDBRANCH  58  83
ENDBRANCH  32  33
ENDBRANCH  25  27
ENDBRANCH  24  25
ENDBRANCH  23  24
ENDBRANCH  22  23
ENDBRANCH  21  22
ENDBRANCH  20  21
ENDBRANCH  19  20
ENDBRANCH  18  19
ENDBRANCH   1  18
TORSDOF 27
ENDMDL
