MODEL 1
REMARK VINA RESULT:      -7.1      0.000      0.000
REMARK SMILES CC[C@@](C)([NH2+]C[C@@H]1C[N@@H+](C(C)C)CCO1)C(=O)OCCOCCOCCOCCOC(=O)c1ccc(-c2c3nc(c(-c4c(F)cc(S(=O)(=O)[O-])cc4F)c4ccc([nH]4)c(-c4c(F)cc(S(=O)(=O)[O-])cc4F)c4nc(c(-c5c(F)cc(S(=O)(=O)[O-])cc5F)c5ccc2[nH]5)C=C4)C=C3)cc1
REMARK SMILES IDX 23 1 22 2 21 3 20 4 19 5 18 6 16 7 17 8 3 9 4 10 2 11 1 12
REMARK SMILES IDX 5 13 6 16 7 17 8 18 15 19 9 20 14 21 13 22 10 24 11 25 12 26
REMARK SMILES IDX 24 27 25 28 26 29 27 30 28 31 29 32 30 33 31 34 32 35 33 36
REMARK SMILES IDX 34 37 98 38 35 39 97 40 36 41 37 42 38 43 91 44 39 45 96 46
REMARK SMILES IDX 90 47 92 48 40 49 95 50 89 51 88 52 41 54 75 55 54 56 74 57
REMARK SMILES IDX 55 58 58 59 73 60 93 61 56 62 57 63 72 65 94 66 59 67 42 68
REMARK SMILES IDX 43 69 52 70 44 71 45 72 51 73 53 74 46 75 47 76 48 77 49 78
REMARK SMILES IDX 50 79 76 80 77 81 86 82 78 83 79 84 85 85 87 86 80 87 81 88
REMARK SMILES IDX 82 89 83 90 84 91 60 92 61 93 70 94 62 95 63 96 69 97 71 98
REMARK SMILES IDX 64 99 65 100 66 101 67 102 68 103
REMARK H PARENT 5 14 5 15 9 23 92 53 58 64
REMARK Flexibility Score: inf
ROOT
ATOM      1  C   UNL A   1      36.985  29.745  29.196  1.00  0.00     0.188 C 
ENDROOT
BRANCH   1   2
ATOM      2  C   UNL A   1      36.470  29.611  30.640  1.00  0.00     0.188 C 
BRANCH   2   3
ATOM      3  O   UNL A   1      37.311  30.193  31.628  1.00  0.00    -0.376 OA
BRANCH   3   4
ATOM      4  C   UNL A   1      37.567  29.419  32.791  1.00  0.00     0.202 C 
BRANCH   4   5
ATOM      5  C   UNL A   1      38.295  30.134  33.937  1.00  0.00     0.261 C 
BRANCH   5   6
ATOM      6  O   UNL A   1      38.404  31.557  33.780  1.00  0.00    -0.459 OA
BRANCH   6   7
ATOM      7  C   UNL A   1      37.493  32.314  34.429  1.00  0.00     0.367 C 
ATOM      8  O   UNL A   1      37.243  32.167  35.624  1.00  0.00    -0.245 OA
BRANCH   7   9
ATOM      9  C   UNL A   1      36.767  33.355  33.543  1.00  0.00     0.191 C 
ATOM     10  C   UNL A   1      35.631  33.889  34.422  1.00  0.00     0.092 C 
BRANCH   9  11
ATOM     11  C   UNL A   1      37.743  34.514  33.154  1.00  0.00     0.077 C 
ATOM     12  C   UNL A   1      38.925  34.803  34.065  1.00  0.00     0.011 C 
ENDBRANCH   9  11
BRANCH   9  13
ATOM     13  N   UNL A   1      36.335  32.934  32.172  1.00  0.00    -0.330 N 
ATOM     14  H   UNL A   1      35.319  33.028  32.162  1.00  0.00     0.347 HD
ATOM     15  H   UNL A   1      36.778  32.019  32.103  1.00  0.00     0.347 HD
BRANCH  13  16
ATOM     16  C   UNL A   1      36.803  33.563  30.930  1.00  0.00     0.299 C 
BRANCH  16  17
ATOM     17  C   UNL A   1      35.698  34.121  30.029  1.00  0.00     0.227 C 
ATOM     18  C   UNL A   1      34.295  34.069  30.680  1.00  0.00     0.300 C 
ATOM     19  O   UNL A   1      35.655  33.362  28.801  1.00  0.00    -0.361 OA
ATOM     20  N   UNL A   1      33.231  34.589  29.789  1.00  0.00    -0.329 N 
ATOM     21  C   UNL A   1      34.785  34.032  27.883  1.00  0.00     0.222 C 
ATOM     22  C   UNL A   1      33.361  34.025  28.436  1.00  0.00     0.291 C 
ATOM     23  H   UNL A   1      32.331  34.235  30.114  1.00  0.00     0.348 HD
BRANCH  20  24
ATOM     24  C   UNL A   1      32.945  36.032  29.934  1.00  0.00     0.177 C 
ATOM     25  C   UNL A   1      33.248  36.668  31.296  1.00  0.00     0.075 C 
ATOM     26  C   UNL A   1      33.569  36.905  28.839  1.00  0.00     0.075 C 
ENDBRANCH  20  24
ENDBRANCH  16  17
ENDBRANCH  13  16
ENDBRANCH   9  13
ENDBRANCH   7   9
ENDBRANCH   6   7
ENDBRANCH   5   6
ENDBRANCH   4   5
ENDBRANCH   3   4
ENDBRANCH   2   3
ENDBRANCH   1   2
BRANCH   1  27
ATOM     27  O   UNL A   1      37.606  28.623  28.595  1.00  0.00    -0.377 OA
BRANCH  27  28
ATOM     28  C   UNL A   1      39.012  28.451  28.720  1.00  0.00     0.188 C 
BRANCH  28  29
ATOM     29  C   UNL A   1      39.626  27.255  29.485  1.00  0.00     0.188 C 
BRANCH  29  30
ATOM     30  O   UNL A   1      39.638  26.019  28.788  1.00  0.00    -0.376 OA
BRANCH  30  31
ATOM     31  C   UNL A   1      39.441  26.069  27.384  1.00  0.00     0.202 C 
BRANCH  31  32
ATOM     32  C   UNL A   1      40.641  25.647  26.527  1.00  0.00     0.261 C 
BRANCH  32  33
ATOM     33  O   UNL A   1      41.100  26.617  25.574  1.00  0.00    -0.460 OA
BRANCH  33  34
ATOM     34  C   UNL A   1      42.435  26.763  25.420  1.00  0.00     0.338 C 
ATOM     35  O   UNL A   1      43.168  26.138  24.676  1.00  0.00    -0.246 OA
BRANCH  34  36
ATOM     36  C   UNL A   1      42.829  27.955  26.191  1.00  0.00     0.060 A 
ATOM     37  C   UNL A   1      44.190  28.231  26.391  1.00  0.00     0.016 A 
ATOM     38  C   UNL A   1      41.845  28.810  26.685  1.00  0.00     0.016 A 
ATOM     39  C   UNL A   1      44.570  29.359  27.118  1.00  0.00     0.010 A 
ATOM     40  C   UNL A   1      42.224  29.920  27.436  1.00  0.00     0.010 A 
ATOM     41  C   UNL A   1      43.585  30.177  27.684  1.00  0.00    -0.014 A 
BRANCH  41  42
ATOM     42  C   UNL A   1      43.930  31.148  28.745  1.00  0.00     0.031 A 
ATOM     43  C   UNL A   1      43.992  30.635  30.155  1.00  0.00     0.074 A 
ATOM     44  C   UNL A   1      44.105  32.453  28.479  1.00  0.00     0.049 A 
ATOM     45  N   UNL A   1      44.081  31.295  31.278  1.00  0.00    -0.248 NA
ATOM     46  C   UNL A   1      43.924  29.173  30.314  1.00  0.00     0.031 C 
ATOM     47  C   UNL A   1      44.102  33.054  27.148  1.00  0.00     0.029 A 
ATOM     48  N   UNL A   1      44.281  33.512  29.334  1.00  0.00    -0.354 N 
ATOM     49  C   UNL A   1      44.050  30.332  32.278  1.00  0.00     0.074 A 
ATOM     50  C   UNL A   1      43.917  29.046  31.631  1.00  0.00     0.031 C 
ATOM     51  C   UNL A   1      44.226  34.386  27.277  1.00  0.00     0.029 A 
ATOM     52  C   UNL A   1      44.271  34.730  28.699  1.00  0.00     0.049 A 
ATOM     53  H   UNL A   1      44.402  33.410  30.305  1.00  0.00     0.167 HD
ATOM     54  C   UNL A   1      44.117  30.507  33.619  1.00  0.00     0.037 A 
ATOM     55  C   UNL A   1      44.250  35.977  29.211  1.00  0.00     0.037 A 
ATOM     56  C   UNL A   1      44.230  31.795  34.247  1.00  0.00     0.049 A 
ATOM     57  C   UNL A   1      44.272  36.162  30.706  1.00  0.00     0.074 A 
ATOM     58  C   UNL A   1      44.330  32.088  35.595  1.00  0.00     0.029 A 
ATOM     59  N   UNL A   1      44.238  33.007  33.571  1.00  0.00    -0.354 N 
ATOM     60  N   UNL A   1      44.269  35.248  31.650  1.00  0.00    -0.248 NA
ATOM     61  C   UNL A   1      44.296  37.542  31.211  1.00  0.00     0.031 C 
ATOM     62  C   UNL A   1      44.339  33.480  35.735  1.00  0.00     0.029 A 
ATOM     63  C   UNL A   1      44.313  34.053  34.473  1.00  0.00     0.049 A 
ATOM     64  H   UNL A   1      44.195  33.107  32.591  1.00  0.00     0.167 HD
ATOM     65  C   UNL A   1      44.322  35.941  32.856  1.00  0.00     0.074 A 
ATOM     66  C   UNL A   1      44.352  37.351  32.523  1.00  0.00     0.031 C 
ATOM     67  C   UNL A   1      44.353  35.453  34.122  1.00  0.00     0.037 A 
BRANCH  54  68
ATOM     68  C   UNL A   1      44.006  29.277  34.476  1.00  0.00     0.058 A 
ATOM     69  C   UNL A   1      45.125  28.496  34.809  1.00  0.00     0.135 A 
ATOM     70  C   UNL A   1      42.751  28.856  34.946  1.00  0.00     0.135 A 
ATOM     71  F   UNL A   1      46.346  28.841  34.369  1.00  0.00    -0.206 F 
ATOM     72  C   UNL A   1      44.997  27.313  35.531  1.00  0.00     0.059 A 
ATOM     73  C   UNL A   1      42.605  27.694  35.697  1.00  0.00     0.059 A 
ATOM     74  F   UNL A   1      41.648  29.563  34.656  1.00  0.00    -0.206 F 
ATOM     75  C   UNL A   1      43.731  26.916  35.962  1.00  0.00     0.060 A 
BRANCH  75  76
ATOM     76  S   UNL A   1      43.573  25.358  36.859  1.00  0.00     0.124 S 
ATOM     77  O   UNL A   1      42.277  24.881  36.383  1.00  0.00    -0.237 OA
ATOM     78  O   UNL A   1      44.733  24.609  36.392  1.00  0.00    -0.237 OA
ATOM     79  O   UNL A   1      43.615  25.766  38.259  1.00  0.00    -0.744 OA
ENDBRANCH  75  76
ENDBRANCH  54  68
BRANCH  55  80
ATOM     80  C   UNL A   1      44.184  37.140  28.286  1.00  0.00     0.058 A 
ATOM     81  C   UNL A   1      42.966  37.772  28.000  1.00  0.00     0.135 A 
ATOM     82  C   UNL A   1      45.352  37.685  27.728  1.00  0.00     0.135 A 
ATOM     83  F   UNL A   1      41.821  37.280  28.496  1.00  0.00    -0.206 F 
ATOM     84  C   UNL A   1      42.908  38.915  27.207  1.00  0.00     0.059 A 
ATOM     85  C   UNL A   1      45.322  38.838  26.952  1.00  0.00     0.059 A 
ATOM     86  F   UNL A   1      46.543  37.121  27.978  1.00  0.00    -0.206 F 
ATOM     87  C   UNL A   1      44.095  39.450  26.700  1.00  0.00     0.060 A 
BRANCH  87  88
ATOM     88  S   UNL A   1      44.022  41.002  25.779  1.00  0.00     0.124 S 
ATOM     89  O   UNL A   1      45.178  40.878  24.899  1.00  0.00    -0.237 OA
ATOM     90  O   UNL A   1      42.715  40.912  25.134  1.00  0.00    -0.237 OA
ATOM     91  O   UNL A   1      44.124  42.017  26.823  1.00  0.00    -0.744 OA
ENDBRANCH  87  88
ENDBRANCH  55  80
BRANCH  67  92
ATOM     92  C   UNL A   1      44.476  36.436  35.255  1.00  0.00     0.058 A 
ATOM     93  C   UNL A   1      43.355  36.930  35.937  1.00  0.00     0.135 A 
ATOM     94  C   UNL A   1      45.748  36.805  35.729  1.00  0.00     0.135 A 
ATOM     95  F   UNL A   1      42.118  36.615  35.523  1.00  0.00    -0.206 F 
ATOM     96  C   UNL A   1      43.489  37.759  37.048  1.00  0.00     0.059 A 
ATOM     97  C   UNL A   1      45.905  37.610  36.852  1.00  0.00     0.059 A 
ATOM     98  F   UNL A   1      46.854  36.351  35.118  1.00  0.00    -0.206 F 
ATOM     99  C   UNL A   1      44.768  38.087  37.503  1.00  0.00     0.060 A 
BRANCH  99 100
ATOM    100  S   UNL A   1      44.928  39.107  38.984  1.00  0.00     0.124 S 
ATOM    101  O   UNL A   1      45.227  38.104  40.001  1.00  0.00    -0.237 OA
ATOM    102  O   UNL A   1      46.027  40.000  38.631  1.00  0.00    -0.237 OA
ATOM    103  O   UNL A   1      43.622  39.748  39.100  1.00  0.00    -0.744 OA
ENDBRANCH  99 100
ENDBRANCH  67  92
ENDBRANCH  41  42
ENDBRANCH  34  36
ENDBRANCH  33  34
ENDBRANCH  32  33
ENDBRANCH  31  32
ENDBRANCH  30  31
ENDBRANCH  29  30
ENDBRANCH  28  29
ENDBRANCH  27  28
ENDBRANCH   1  27
TORSDOF 28
ENDMDL
MODEL 2
REMARK VINA RESULT:      -7.0      2.740      8.807
REMARK SMILES CC[C@@](C)([NH2+]C[C@@H]1C[N@@H+](C(C)C)CCO1)C(=O)OCCOCCOCCOCCOC(=O)c1ccc(-c2c3nc(c(-c4c(F)cc(S(=O)(=O)[O-])cc4F)c4ccc([nH]4)c(-c4c(F)cc(S(=O)(=O)[O-])cc4F)c4nc(c(-c5c(F)cc(S(=O)(=O)[O-])cc5F)c5ccc2[nH]5)C=C4)C=C3)cc1
REMARK SMILES IDX 23 1 22 2 21 3 20 4 19 5 18 6 16 7 17 8 3 9 4 10 2 11 1 12
REMARK SMILES IDX 5 13 6 16 7 17 8 18 15 19 9 20 14 21 13 22 10 24 11 25 12 26
REMARK SMILES IDX 24 27 25 28 26 29 27 30 28 31 29 32 30 33 31 34 32 35 33 36
REMARK SMILES IDX 34 37 98 38 35 39 97 40 36 41 37 42 38 43 91 44 39 45 96 46
REMARK SMILES IDX 90 47 92 48 40 49 95 50 89 51 88 52 41 54 75 55 54 56 74 57
REMARK SMILES IDX 55 58 58 59 73 60 93 61 56 62 57 63 72 65 94 66 59 67 42 68
REMARK SMILES IDX 43 69 52 70 44 71 45 72 51 73 53 74 46 75 47 76 48 77 49 78
REMARK SMILES IDX 50 79 76 80 77 81 86 82 78 83 79 84 85 85 87 86 80 87 81 88
REMARK SMILES IDX 82 89 83 90 84 91 60 92 61 93 70 94 62 95 63 96 69 97 71 98
REMARK SMILES IDX 64 99 65 100 66 101 67 102 68 103
REMARK H PARENT 5 14 5 15 9 23 92 53 58 64
REMARK Flexibility Score: inf
ROOT
ATOM      1  C   UNL A   1      41.234  24.932  27.351  1.00  0.00     0.188 C 
ENDROOT
BRANCH   1   2
ATOM      2  C   UNL A   1      40.118  25.571  28.197  1.00  0.00     0.188 C 
BRANCH   2   3
ATOM      3  O   UNL A   1      40.237  26.977  28.373  1.00  0.00    -0.376 OA
BRANCH   3   4
ATOM      4  C   UNL A   1      39.438  27.567  29.389  1.00  0.00     0.202 C 
BRANCH   4   5
ATOM      5  C   UNL A   1      39.661  29.064  29.646  1.00  0.00     0.261 C 
BRANCH   5   6
ATOM      6  O   UNL A   1      38.731  29.656  30.566  1.00  0.00    -0.459 OA
BRANCH   6   7
ATOM      7  C   UNL A   1      39.049  30.873  31.056  1.00  0.00     0.367 C 
ATOM      8  O   UNL A   1      39.556  31.753  30.362  1.00  0.00    -0.245 OA
BRANCH   7   9
ATOM      9  C   UNL A   1      38.757  31.060  32.564  1.00  0.00     0.191 C 
ATOM     10  C   UNL A   1      39.254  29.767  33.221  1.00  0.00     0.092 C 
BRANCH   9  11
ATOM     11  C   UNL A   1      39.546  32.289  33.124  1.00  0.00     0.077 C 
ATOM     12  C   UNL A   1      38.852  33.642  33.157  1.00  0.00     0.011 C 
ENDBRANCH   9  11
BRANCH   9  13
ATOM     13  N   UNL A   1      37.371  31.459  32.970  1.00  0.00    -0.330 N 
ATOM     14  H   UNL A   1      37.414  32.461  33.151  1.00  0.00     0.347 HD
ATOM     15  H   UNL A   1      37.193  30.795  33.723  1.00  0.00     0.347 HD
BRANCH  13  16
ATOM     16  C   UNL A   1      36.179  31.257  32.136  1.00  0.00     0.299 C 
BRANCH  16  17
ATOM     17  C   UNL A   1      35.260  32.477  32.013  1.00  0.00     0.227 C 
ATOM     18  C   UNL A   1      35.769  33.523  30.992  1.00  0.00     0.300 C 
ATOM     19  O   UNL A   1      35.147  33.121  33.300  1.00  0.00    -0.361 OA
ATOM     20  N   UNL A   1      34.885  34.709  30.899  1.00  0.00    -0.329 N 
ATOM     21  C   UNL A   1      34.114  34.110  33.224  1.00  0.00     0.222 C 
ATOM     22  C   UNL A   1      34.531  35.202  32.240  1.00  0.00     0.291 C 
ATOM     23  H   UNL A   1      35.415  35.479  30.490  1.00  0.00     0.348 HD
BRANCH  20  24
ATOM     24  C   UNL A   1      33.828  34.621  29.870  1.00  0.00     0.177 C 
ATOM     25  C   UNL A   1      33.320  35.943  29.280  1.00  0.00     0.075 C 
ATOM     26  C   UNL A   1      34.158  33.667  28.715  1.00  0.00     0.075 C 
ENDBRANCH  20  24
ENDBRANCH  16  17
ENDBRANCH  13  16
ENDBRANCH   9  13
ENDBRANCH   7   9
ENDBRANCH   6   7
ENDBRANCH   5   6
ENDBRANCH   4   5
ENDBRANCH   3   4
ENDBRANCH   2   3
ENDBRANCH   1   2
BRANCH   1  27
ATOM     27  O   UNL A   1      42.076  23.971  27.963  1.00  0.00    -0.377 OA
BRANCH  27  28
ATOM     28  C   UNL A   1      43.401  24.333  28.328  1.00  0.00     0.188 C 
BRANCH  28  29
ATOM     29  C   UNL A   1      44.587  23.352  28.179  1.00  0.00     0.188 C 
BRANCH  29  30
ATOM     30  O   UNL A   1      45.631  23.774  27.314  1.00  0.00    -0.376 OA
BRANCH  30  31
ATOM     31  C   UNL A   1      45.758  23.091  26.077  1.00  0.00     0.202 C 
BRANCH  31  32
ATOM     32  C   UNL A   1      46.543  23.829  24.986  1.00  0.00     0.261 C 
BRANCH  32  33
ATOM     33  O   UNL A   1      45.992  25.084  24.561  1.00  0.00    -0.460 OA
BRANCH  33  34
ATOM     34  C   UNL A   1      46.773  26.182  24.671  1.00  0.00     0.338 C 
ATOM     35  O   UNL A   1      47.664  26.536  23.920  1.00  0.00    -0.246 OA
BRANCH  34  36
ATOM     36  C   UNL A   1      46.229  26.988  25.778  1.00  0.00     0.060 A 
ATOM     37  C   UNL A   1      47.105  27.706  26.606  1.00  0.00     0.016 A 
ATOM     38  C   UNL A   1      44.849  27.050  25.969  1.00  0.00     0.016 A 
ATOM     39  C   UNL A   1      46.596  28.473  27.654  1.00  0.00     0.010 A 
ATOM     40  C   UNL A   1      44.345  27.791  27.034  1.00  0.00     0.010 A 
ATOM     41  C   UNL A   1      45.217  28.474  27.900  1.00  0.00    -0.014 A 
BRANCH  41  42
ATOM     42  C   UNL A   1      44.683  28.961  29.191  1.00  0.00     0.031 A 
ATOM     43  C   UNL A   1      44.239  30.393  29.257  1.00  0.00     0.074 A 
ATOM     44  C   UNL A   1      44.665  28.183  30.285  1.00  0.00     0.049 A 
ATOM     45  N   UNL A   1      43.916  31.118  30.293  1.00  0.00    -0.248 NA
ATOM     46  C   UNL A   1      44.170  31.109  27.972  1.00  0.00     0.031 C 
ATOM     47  C   UNL A   1      45.038  26.772  30.329  1.00  0.00     0.029 A 
ATOM     48  N   UNL A   1      44.352  28.495  31.585  1.00  0.00    -0.354 N 
ATOM     49  C   UNL A   1      43.635  32.381  29.791  1.00  0.00     0.074 A 
ATOM     50  C   UNL A   1      43.841  32.329  28.361  1.00  0.00     0.031 C 
ATOM     51  C   UNL A   1      44.973  26.348  31.603  1.00  0.00     0.029 A 
ATOM     52  C   UNL A   1      44.598  27.470  32.465  1.00  0.00     0.049 A 
ATOM     53  H   UNL A   1      43.986  29.367  31.859  1.00  0.00     0.167 HD
ATOM     54  C   UNL A   1      43.248  33.490  30.465  1.00  0.00     0.037 A 
ATOM     55  C   UNL A   1      44.573  27.456  33.813  1.00  0.00     0.037 A 
ATOM     56  C   UNL A   1      43.066  33.530  31.890  1.00  0.00     0.049 A 
ATOM     57  C   UNL A   1      44.191  28.710  34.557  1.00  0.00     0.074 A 
ATOM     58  C   UNL A   1      42.654  34.591  32.675  1.00  0.00     0.029 A 
ATOM     59  N   UNL A   1      43.306  32.465  32.748  1.00  0.00    -0.354 N 
ATOM     60  N   UNL A   1      43.899  29.897  34.077  1.00  0.00    -0.248 NA
ATOM     61  C   UNL A   1      44.133  28.627  36.023  1.00  0.00     0.031 C 
ATOM     62  C   UNL A   1      42.700  34.184  34.013  1.00  0.00     0.029 A 
ATOM     63  C   UNL A   1      43.077  32.850  34.057  1.00  0.00     0.049 A 
ATOM     64  H   UNL A   1      43.598  31.568  32.465  1.00  0.00     0.167 HD
ATOM     65  C   UNL A   1      43.593  30.692  35.178  1.00  0.00     0.074 A 
ATOM     66  C   UNL A   1      43.739  29.852  36.349  1.00  0.00     0.031 C 
ATOM     67  C   UNL A   1      43.217  31.996  35.213  1.00  0.00     0.037 A 
BRANCH  54  68
ATOM     68  C   UNL A   1      43.062  34.749  29.664  1.00  0.00     0.058 A 
ATOM     69  C   UNL A   1      44.128  35.621  29.387  1.00  0.00     0.135 A 
ATOM     70  C   UNL A   1      41.787  35.103  29.195  1.00  0.00     0.135 A 
ATOM     71  F   UNL A   1      45.364  35.341  29.830  1.00  0.00    -0.206 F 
ATOM     72  C   UNL A   1      43.926  36.825  28.719  1.00  0.00     0.059 A 
ATOM     73  C   UNL A   1      41.569  36.286  28.495  1.00  0.00     0.059 A 
ATOM     74  F   UNL A   1      40.733  34.308  29.432  1.00  0.00    -0.206 F 
ATOM     75  C   UNL A   1      42.641  37.153  28.285  1.00  0.00     0.060 A 
BRANCH  75  76
ATOM     76  S   UNL A   1      42.385  38.737  27.460  1.00  0.00     0.124 S 
ATOM     77  O   UNL A   1      41.851  39.549  28.550  1.00  0.00    -0.237 OA
ATOM     78  O   UNL A   1      43.732  39.080  27.017  1.00  0.00    -0.237 OA
ATOM     79  O   UNL A   1      41.440  38.417  26.395  1.00  0.00    -0.744 OA
ENDBRANCH  75  76
ENDBRANCH  54  68
BRANCH  55  80
ATOM     80  C   UNL A   1      44.942  26.208  34.533  1.00  0.00     0.058 A 
ATOM     81  C   UNL A   1      46.276  25.923  34.854  1.00  0.00     0.135 A 
ATOM     82  C   UNL A   1      43.955  25.312  34.976  1.00  0.00     0.135 A 
ATOM     83  F   UNL A   1      47.256  26.740  34.438  1.00  0.00    -0.206 F 
ATOM     84  C   UNL A   1      46.620  24.802  35.604  1.00  0.00     0.059 A 
ATOM     85  C   UNL A   1      44.272  24.199  35.746  1.00  0.00     0.059 A 
ATOM     86  F   UNL A   1      42.663  25.545  34.701  1.00  0.00    -0.206 F 
ATOM     87  C   UNL A   1      45.608  23.955  36.060  1.00  0.00     0.060 A 
BRANCH  87  88
ATOM     88  S   UNL A   1      46.053  22.575  37.139  1.00  0.00     0.124 S 
ATOM     89  O   UNL A   1      45.486  21.441  36.418  1.00  0.00    -0.237 OA
ATOM     90  O   UNL A   1      47.511  22.659  37.155  1.00  0.00    -0.237 OA
ATOM     91  O   UNL A   1      45.403  22.913  38.402  1.00  0.00    -0.744 OA
ENDBRANCH  87  88
ENDBRANCH  55  80
BRANCH  67  92
ATOM     92  C   UNL A   1      42.880  32.598  36.551  1.00  0.00     0.058 A 
ATOM     93  C   UNL A   1      41.586  32.541  37.088  1.00  0.00     0.135 A 
ATOM     94  C   UNL A   1      43.898  33.148  37.348  1.00  0.00     0.135 A 
ATOM     95  F   UNL A   1      40.576  32.031  36.366  1.00  0.00    -0.206 F 
ATOM     96  C   UNL A   1      41.312  33.012  38.369  1.00  0.00     0.059 A 
ATOM     97  C   UNL A   1      43.652  33.600  38.640  1.00  0.00     0.059 A 
ATOM     98  F   UNL A   1      45.157  33.217  36.884  1.00  0.00    -0.206 F 
ATOM     99  C   UNL A   1      42.353  33.532  39.141  1.00  0.00     0.060 A 
BRANCH  99 100
ATOM    100  S   UNL A   1      41.998  34.077  40.825  1.00  0.00     0.124 S 
ATOM    101  O   UNL A   1      42.982  33.320  41.593  1.00  0.00    -0.237 OA
ATOM    102  O   UNL A   1      42.227  35.516  40.742  1.00  0.00    -0.237 OA
ATOM    103  O   UNL A   1      40.607  33.681  41.026  1.00  0.00    -0.744 OA
ENDBRANCH  99 100
ENDBRANCH  67  92
ENDBRANCH  41  42
ENDBRANCH  34  36
ENDBRANCH  33  34
ENDBRANCH  32  33
ENDBRANCH  31  32
ENDBRANCH  30  31
ENDBRANCH  29  30
ENDBRANCH  28  29
ENDBRANCH  27  28
ENDBRANCH   1  27
TORSDOF 28
ENDMDL
MODEL 3
REMARK VINA RESULT:      -6.5      5.098     10.848
REMARK SMILES CC[C@@](C)([NH2+]C[C@@H]1C[N@@H+](C(C)C)CCO1)C(=O)OCCOCCOCCOCCOC(=O)c1ccc(-c2c3nc(c(-c4c(F)cc(S(=O)(=O)[O-])cc4F)c4ccc([nH]4)c(-c4c(F)cc(S(=O)(=O)[O-])cc4F)c4nc(c(-c5c(F)cc(S(=O)(=O)[O-])cc5F)c5ccc2[nH]5)C=C4)C=C3)cc1
REMARK SMILES IDX 23 1 22 2 21 3 20 4 19 5 18 6 16 7 17 8 3 9 4 10 2 11 1 12
REMARK SMILES IDX 5 13 6 16 7 17 8 18 15 19 9 20 14 21 13 22 10 24 11 25 12 26
REMARK SMILES IDX 24 27 25 28 26 29 27 30 28 31 29 32 30 33 31 34 32 35 33 36
REMARK SMILES IDX 34 37 98 38 35 39 97 40 36 41 37 42 38 43 91 44 39 45 96 46
REMARK SMILES IDX 90 47 92 48 40 49 95 50 89 51 88 52 41 54 75 55 54 56 74 57
REMARK SMILES IDX 55 58 58 59 73 60 93 61 56 62 57 63 72 65 94 66 59 67 42 68
REMARK SMILES IDX 43 69 52 70 44 71 45 72 51 73 53 74 46 75 47 76 48 77 49 78
REMARK SMILES IDX 50 79 76 80 77 81 86 82 78 83 79 84 85 85 87 86 80 87 81 88
REMARK SMILES IDX 82 89 83 90 84 91 60 92 61 93 70 94 62 95 63 96 69 97 71 98
REMARK SMILES IDX 64 99 65 100 66 101 67 102 68 103
REMARK H PARENT 5 14 5 15 9 23 92 53 58 64
REMARK Flexibility Score: inf
ROOT
ATOM      1  C   UNL A   1      35.926  31.548  28.059  1.00  0.00     0.188 C 
ENDROOT
BRANCH   1   2
ATOM      2  C   UNL A   1      34.654  30.810  27.607  1.00  0.00     0.188 C 
BRANCH   2   3
ATOM      3  O   UNL A   1      34.821  29.415  27.391  1.00  0.00    -0.376 OA
BRANCH   3   4
ATOM      4  C   UNL A   1      33.695  28.586  27.645  1.00  0.00     0.202 C 
BRANCH   4   5
ATOM      5  C   UNL A   1      33.315  27.596  26.535  1.00  0.00     0.261 C 
BRANCH   5   6
ATOM      6  O   UNL A   1      33.814  27.939  25.233  1.00  0.00    -0.459 OA
BRANCH   6   7
ATOM      7  C   UNL A   1      32.984  28.632  24.425  1.00  0.00     0.367 C 
ATOM      8  O   UNL A   1      32.324  29.591  24.821  1.00  0.00    -0.245 OA
BRANCH   7   9
ATOM      9  C   UNL A   1      32.905  28.105  22.972  1.00  0.00     0.191 C 
ATOM     10  C   UNL A   1      34.260  28.466  22.353  1.00  0.00     0.092 C 
BRANCH   9  11
ATOM     11  C   UNL A   1      32.702  26.554  22.966  1.00  0.00     0.077 C 
ATOM     12  C   UNL A   1      33.933  25.661  22.976  1.00  0.00     0.011 C 
ENDBRANCH   9  11
BRANCH   9  13
ATOM     13  N   UNL A   1      31.726  28.505  22.140  1.00  0.00    -0.330 N 
ATOM     14  H   UNL A   1      32.028  28.414  21.171  1.00  0.00     0.347 HD
ATOM     15  H   UNL A   1      31.511  29.419  22.539  1.00  0.00     0.347 HD
BRANCH  13  16
ATOM     16  C   UNL A   1      30.410  27.856  22.209  1.00  0.00     0.299 C 
BRANCH  16  17
ATOM     17  C   UNL A   1      29.229  28.806  22.427  1.00  0.00     0.227 C 
ATOM     18  C   UNL A   1      29.606  30.075  23.229  1.00  0.00     0.300 C 
ATOM     19  O   UNL A   1      28.185  28.113  23.144  1.00  0.00    -0.361 OA
ATOM     20  N   UNL A   1      28.451  30.975  23.455  1.00  0.00    -0.329 N 
ATOM     21  C   UNL A   1      27.009  28.930  23.137  1.00  0.00     0.222 C 
ATOM     22  C   UNL A   1      27.280  30.214  23.920  1.00  0.00     0.291 C 
ATOM     23  H   UNL A   1      28.665  31.592  24.238  1.00  0.00     0.348 HD
BRANCH  20  24
ATOM     24  C   UNL A   1      28.259  32.015  22.424  1.00  0.00     0.177 C 
ATOM     25  C   UNL A   1      28.553  33.464  22.834  1.00  0.00     0.075 C 
ATOM     26  C   UNL A   1      28.983  31.727  21.103  1.00  0.00     0.075 C 
ENDBRANCH  20  24
ENDBRANCH  16  17
ENDBRANCH  13  16
ENDBRANCH   9  13
ENDBRANCH   7   9
ENDBRANCH   6   7
ENDBRANCH   5   6
ENDBRANCH   4   5
ENDBRANCH   3   4
ENDBRANCH   2   3
ENDBRANCH   1   2
BRANCH   1  27
ATOM     27  O   UNL A   1      35.792  32.627  28.967  1.00  0.00    -0.377 OA
BRANCH  27  28
ATOM     28  C   UNL A   1      35.099  32.428  30.193  1.00  0.00     0.188 C 
BRANCH  28  29
ATOM     29  C   UNL A   1      34.480  33.605  30.983  1.00  0.00     0.188 C 
BRANCH  29  30
ATOM     30  O   UNL A   1      34.064  33.306  32.307  1.00  0.00    -0.376 OA
BRANCH  30  31
ATOM     31  C   UNL A   1      34.288  34.301  33.293  1.00  0.00     0.202 C 
BRANCH  31  32
ATOM     32  C   UNL A   1      35.465  34.046  34.243  1.00  0.00     0.261 C 
BRANCH  32  33
ATOM     33  O   UNL A   1      36.353  32.985  33.864  1.00  0.00    -0.460 OA
BRANCH  33  34
ATOM     34  C   UNL A   1      37.335  32.650  34.730  1.00  0.00     0.338 C 
ATOM     35  O   UNL A   1      37.224  32.038  35.777  1.00  0.00    -0.246 OA
BRANCH  34  36
ATOM     36  C   UNL A   1      38.614  33.000  34.088  1.00  0.00     0.060 A 
ATOM     37  C   UNL A   1      38.613  33.542  32.794  1.00  0.00     0.016 A 
ATOM     38  C   UNL A   1      39.807  32.816  34.786  1.00  0.00     0.016 A 
ATOM     39  C   UNL A   1      39.820  33.878  32.181  1.00  0.00     0.010 A 
ATOM     40  C   UNL A   1      41.013  33.123  34.162  1.00  0.00     0.010 A 
ATOM     41  C   UNL A   1      41.025  33.621  32.846  1.00  0.00    -0.014 A 
BRANCH  41  42
ATOM     42  C   UNL A   1      42.307  33.615  32.108  1.00  0.00     0.031 A 
ATOM     43  C   UNL A   1      43.148  34.857  32.179  1.00  0.00     0.074 A 
ATOM     44  C   UNL A   1      42.675  32.577  31.340  1.00  0.00     0.049 A 
ATOM     45  N   UNL A   1      44.204  35.187  31.486  1.00  0.00    -0.248 NA
ATOM     46  C   UNL A   1      42.721  35.872  33.156  1.00  0.00     0.031 C 
ATOM     47  C   UNL A   1      41.955  31.311  31.225  1.00  0.00     0.029 A 
ATOM     48  N   UNL A   1      43.735  32.448  30.478  1.00  0.00    -0.354 N 
ATOM     49  C   UNL A   1      44.551  36.459  31.921  1.00  0.00     0.074 A 
ATOM     50  C   UNL A   1      43.585  36.847  32.924  1.00  0.00     0.031 C 
ATOM     51  C   UNL A   1      42.572  30.547  30.308  1.00  0.00     0.029 A 
ATOM     52  C   UNL A   1      43.700  31.289  29.743  1.00  0.00     0.049 A 
ATOM     53  H   UNL A   1      44.449  33.120  30.395  1.00  0.00     0.167 HD
ATOM     54  C   UNL A   1      45.580  37.238  31.512  1.00  0.00     0.037 A 
ATOM     55  C   UNL A   1      44.462  30.897  28.701  1.00  0.00     0.037 A 
ATOM     56  C   UNL A   1      46.521  36.845  30.500  1.00  0.00     0.049 A 
ATOM     57  C   UNL A   1      45.572  31.794  28.219  1.00  0.00     0.074 A 
ATOM     58  C   UNL A   1      47.615  37.545  30.025  1.00  0.00     0.029 A 
ATOM     59  N   UNL A   1      46.467  35.653  29.790  1.00  0.00    -0.354 N 
ATOM     60  N   UNL A   1      45.915  32.987  28.651  1.00  0.00    -0.248 NA
ATOM     61  C   UNL A   1      46.401  31.299  27.112  1.00  0.00     0.031 C 
ATOM     62  C   UNL A   1      48.188  36.800  28.988  1.00  0.00     0.029 A 
ATOM     63  C   UNL A   1      47.492  35.607  28.862  1.00  0.00     0.049 A 
ATOM     64  H   UNL A   1      45.796  34.945  29.927  1.00  0.00     0.167 HD
ATOM     65  C   UNL A   1      47.016  33.369  27.890  1.00  0.00     0.074 A 
ATOM     66  C   UNL A   1      47.281  32.283  26.968  1.00  0.00     0.031 C 
ATOM     67  C   UNL A   1      47.747  34.511  27.958  1.00  0.00     0.037 A 
BRANCH  54  68
ATOM     68  C   UNL A   1      45.687  38.608  32.125  1.00  0.00     0.058 A 
ATOM     69  C   UNL A   1      45.016  39.719  31.588  1.00  0.00     0.135 A 
ATOM     70  C   UNL A   1      46.502  38.815  33.249  1.00  0.00     0.135 A 
ATOM     71  F   UNL A   1      44.241  39.582  30.501  1.00  0.00    -0.206 F 
ATOM     72  C   UNL A   1      45.192  40.996  32.112  1.00  0.00     0.059 A 
ATOM     73  C   UNL A   1      46.666  40.078  33.810  1.00  0.00     0.059 A 
ATOM     74  F   UNL A   1      47.167  37.789  33.801  1.00  0.00    -0.206 F 
ATOM     75  C   UNL A   1      46.027  41.167  33.217  1.00  0.00     0.060 A 
BRANCH  75  76
ATOM     76  S   UNL A   1      46.281  42.833  33.860  1.00  0.00     0.124 S 
ATOM     77  O   UNL A   1      45.388  42.838  35.015  1.00  0.00    -0.237 OA
ATOM     78  O   UNL A   1      47.708  42.838  34.164  1.00  0.00    -0.237 OA
ATOM     79  O   UNL A   1      45.876  43.691  32.751  1.00  0.00    -0.744 OA
ENDBRANCH  75  76
ENDBRANCH  54  68
BRANCH  55  80
ATOM     80  C   UNL A   1      44.173  29.597  28.039  1.00  0.00     0.058 A 
ATOM     81  C   UNL A   1      44.603  28.386  28.599  1.00  0.00     0.135 A 
ATOM     82  C   UNL A   1      43.397  29.539  26.870  1.00  0.00     0.135 A 
ATOM     83  F   UNL A   1      45.361  28.390  29.706  1.00  0.00    -0.206 F 
ATOM     84  C   UNL A   1      44.261  27.161  28.033  1.00  0.00     0.059 A 
ATOM     85  C   UNL A   1      43.024  28.327  26.300  1.00  0.00     0.059 A 
ATOM     86  F   UNL A   1      42.954  30.670  26.300  1.00  0.00    -0.206 F 
ATOM     87  C   UNL A   1      43.456  27.142  26.892  1.00  0.00     0.060 A 
BRANCH  87  88
ATOM     88  S   UNL A   1      42.914  25.547  26.240  1.00  0.00     0.124 S 
ATOM     89  O   UNL A   1      42.018  25.086  27.294  1.00  0.00    -0.237 OA
ATOM     90  O   UNL A   1      42.279  25.931  24.982  1.00  0.00    -0.237 OA
ATOM     91  O   UNL A   1      44.161  24.801  26.096  1.00  0.00    -0.744 OA
ENDBRANCH  87  88
ENDBRANCH  55  80
BRANCH  67  92
ATOM     92  C   UNL A   1      48.941  34.640  27.050  1.00  0.00     0.058 A 
ATOM     93  C   UNL A   1      50.224  34.238  27.446  1.00  0.00     0.135 A 
ATOM     94  C   UNL A   1      48.770  35.077  25.725  1.00  0.00     0.135 A 
ATOM     95  F   UNL A   1      50.444  33.818  28.702  1.00  0.00    -0.206 F 
ATOM     96  C   UNL A   1      51.299  34.269  26.562  1.00  0.00     0.059 A 
ATOM     97  C   UNL A   1      49.823  35.092  24.818  1.00  0.00     0.059 A 
ATOM     98  F   UNL A   1      47.558  35.464  25.292  1.00  0.00    -0.206 F 
ATOM     99  C   UNL A   1      51.087  34.689  25.247  1.00  0.00     0.060 A 
BRANCH  99 100
ATOM    100  S   UNL A   1      52.474  34.661  24.091  1.00  0.00     0.124 S 
ATOM    101  O   UNL A   1      52.355  35.970  23.457  1.00  0.00    -0.237 OA
ATOM    102  O   UNL A   1      53.618  34.489  24.981  1.00  0.00    -0.237 OA
ATOM    103  O   UNL A   1      52.180  33.518  23.232  1.00  0.00    -0.744 OA
ENDBRANCH  99 100
ENDBRANCH  67  92
ENDBRANCH  41  42
ENDBRANCH  34  36
ENDBRANCH  33  34
ENDBRANCH  32  33
ENDBRANCH  31  32
ENDBRANCH  30  31
ENDBRANCH  29  30
ENDBRANCH  28  29
ENDBRANCH  27  28
ENDBRANCH   1  27
TORSDOF 28
ENDMDL
