MODEL 1
REMARK VINA RESULT:      -9.6      0.000      0.000
REMARK SMILES C[C@H]1Cc2ccccc2N1/C=C\C(=O)OCCOCCOCCOCCOC(=O)c1ccc(-c2c3nc(c(-c4c(F)cc(S(=O)(=O)[O-])cc4F)c4ccc([nH]4)c(-c4c(F)cc(S(=O)(=O)[O-])cc4F)c4nc(c(-c5c(F)cc(S(=O)(=O)[O-])cc5F)c5ccc2[nH]5)C=C4)C=C3)cc1
REMARK SMILES IDX 22 1 21 2 20 3 19 4 18 5 17 6 16 7 15 8 13 9 14 10 12 11
REMARK SMILES IDX 11 12 10 13 1 14 2 15 3 16 4 17 9 18 5 19 8 20 6 21 7 22
REMARK SMILES IDX 23 23 24 24 25 25 26 26 27 27 28 28 29 29 30 30 31 31 95 32
REMARK SMILES IDX 32 33 94 34 33 35 34 36 35 37 88 38 36 39 93 40 87 41 89 42
REMARK SMILES IDX 37 43 92 44 86 45 85 46 38 48 72 49 51 50 71 51 52 52 55 53
REMARK SMILES IDX 70 54 90 55 53 56 54 57 69 59 91 60 56 61 39 62 40 63 49 64
REMARK SMILES IDX 41 65 42 66 48 67 50 68 43 69 44 70 45 71 46 72 47 73 73 74
REMARK SMILES IDX 74 75 83 76 75 77 76 78 82 79 84 80 77 81 78 82 79 83 80 84
REMARK SMILES IDX 81 85 57 86 58 87 67 88 59 89 60 90 66 91 68 92 61 93 62 94
REMARK SMILES IDX 63 95 64 96 65 97
REMARK H PARENT 89 47 55 58
REMARK Flexibility Score: inf
ROOT
ATOM      1  C   UNL A   1      39.868  20.132  26.268  1.00  0.00     0.188 C 
ENDROOT
BRANCH   1   2
ATOM      2  O   UNL A   1      39.321  21.017  25.309  1.00  0.00    -0.377 OA
BRANCH   2   3
ATOM      3  C   UNL A   1      38.449  21.997  25.846  1.00  0.00     0.188 C 
BRANCH   3   4
ATOM      4  C   UNL A   1      36.940  21.825  25.580  1.00  0.00     0.188 C 
BRANCH   4   5
ATOM      5  O   UNL A   1      36.429  21.989  24.269  1.00  0.00    -0.376 OA
BRANCH   5   6
ATOM      6  C   UNL A   1      36.025  23.223  23.704  1.00  0.00     0.202 C 
BRANCH   6   7
ATOM      7  C   UNL A   1      34.606  23.542  23.230  1.00  0.00     0.261 C 
BRANCH   7   8
ATOM      8  O   UNL A   1      33.949  24.561  23.972  1.00  0.00    -0.460 OA
BRANCH   8   9
ATOM      9  C   UNL A   1      33.370  24.192  25.133  1.00  0.00     0.332 C 
ATOM     10  O   UNL A   1      33.934  24.049  26.208  1.00  0.00    -0.247 OA
BRANCH   9  11
ATOM     11  C   UNL A   1      31.901  24.146  25.020  1.00  0.00     0.111 C 
ATOM     12  C   UNL A   1      30.985  25.100  24.805  1.00  0.00     0.094 C 
BRANCH  12  13
ATOM     13  N   UNL A   1      30.985  26.461  24.576  1.00  0.00    -0.344 N 
ATOM     14  C   UNL A   1      28.832  27.159  23.549  1.00  0.00     0.032 C 
ATOM     15  C   UNL A   1      30.360  27.234  23.472  1.00  0.00     0.088 C 
ATOM     16  C   UNL A   1      30.823  28.706  23.589  1.00  0.00     0.062 C 
ATOM     17  C   UNL A   1      31.311  28.750  24.991  1.00  0.00    -0.022 A 
ATOM     18  C   UNL A   1      31.447  27.452  25.492  1.00  0.00     0.044 A 
ATOM     19  C   UNL A   1      31.637  29.875  25.732  1.00  0.00     0.006 A 
ATOM     20  C   UNL A   1      31.960  27.276  26.770  1.00  0.00     0.026 A 
ATOM     21  C   UNL A   1      32.124  29.692  27.024  1.00  0.00     0.000 A 
ATOM     22  C   UNL A   1      32.295  28.400  27.537  1.00  0.00     0.002 A 
ENDBRANCH  12  13
ENDBRANCH   9  11
ENDBRANCH   8   9
ENDBRANCH   7   8
ENDBRANCH   6   7
ENDBRANCH   5   6
ENDBRANCH   4   5
ENDBRANCH   3   4
ENDBRANCH   2   3
ENDBRANCH   1   2
BRANCH   1  23
ATOM     23  C   UNL A   1      41.291  19.666  25.922  1.00  0.00     0.188 C 
BRANCH  23  24
ATOM     24  O   UNL A   1      42.447  20.347  26.395  1.00  0.00    -0.376 OA
BRANCH  24  25
ATOM     25  C   UNL A   1      42.749  21.669  25.983  1.00  0.00     0.202 C 
BRANCH  25  26
ATOM     26  C   UNL A   1      42.192  22.894  26.732  1.00  0.00     0.261 C 
BRANCH  26  27
ATOM     27  O   UNL A   1      43.067  24.006  26.910  1.00  0.00    -0.460 OA
BRANCH  27  28
ATOM     28  C   UNL A   1      42.690  25.159  26.313  1.00  0.00     0.338 C 
ATOM     29  O   UNL A   1      42.602  25.384  25.118  1.00  0.00    -0.246 OA
BRANCH  28  30
ATOM     30  C   UNL A   1      42.251  26.082  27.380  1.00  0.00     0.060 A 
ATOM     31  C   UNL A   1      41.079  25.826  28.095  1.00  0.00     0.016 A 
ATOM     32  C   UNL A   1      43.014  27.225  27.647  1.00  0.00     0.016 A 
ATOM     33  C   UNL A   1      40.683  26.710  29.100  1.00  0.00     0.010 A 
ATOM     34  C   UNL A   1      42.608  28.117  28.640  1.00  0.00     0.010 A 
ATOM     35  C   UNL A   1      41.455  27.849  29.389  1.00  0.00    -0.014 A 
BRANCH  35  36
ATOM     36  C   UNL A   1      41.155  28.645  30.601  1.00  0.00     0.031 A 
ATOM     37  C   UNL A   1      41.965  28.525  31.852  1.00  0.00     0.074 A 
ATOM     38  C   UNL A   1      40.113  29.494  30.542  1.00  0.00     0.049 A 
ATOM     39  N   UNL A   1      41.898  29.247  32.941  1.00  0.00    -0.248 NA
ATOM     40  C   UNL A   1      42.972  27.457  31.893  1.00  0.00     0.031 C 
ATOM     41  C   UNL A   1      39.236  29.655  29.381  1.00  0.00     0.029 A 
ATOM     42  N   UNL A   1      39.627  30.388  31.458  1.00  0.00    -0.354 N 
ATOM     43  C   UNL A   1      42.874  28.746  33.790  1.00  0.00     0.074 A 
ATOM     44  C   UNL A   1      43.476  27.614  33.111  1.00  0.00     0.031 C 
ATOM     45  C   UNL A   1      38.347  30.626  29.637  1.00  0.00     0.029 A 
ATOM     46  C   UNL A   1      38.577  31.137  30.985  1.00  0.00     0.049 A 
ATOM     47  H   UNL A   1      39.995  30.486  32.366  1.00  0.00     0.167 HD
ATOM     48  C   UNL A   1      43.244  29.207  35.011  1.00  0.00     0.037 A 
ATOM     49  C   UNL A   1      37.888  32.138  31.563  1.00  0.00     0.037 A 
ATOM     50  C   UNL A   1      42.602  30.307  35.687  1.00  0.00     0.049 A 
ATOM     51  C   UNL A   1      38.275  32.592  32.939  1.00  0.00     0.074 A 
ATOM     52  C   UNL A   1      42.917  30.868  36.914  1.00  0.00     0.029 A 
ATOM     53  N   UNL A   1      41.497  31.001  35.209  1.00  0.00    -0.354 N 
ATOM     54  N   UNL A   1      39.258  32.168  33.698  1.00  0.00    -0.248 NA
ATOM     55  C   UNL A   1      37.465  33.660  33.538  1.00  0.00     0.031 C 
ATOM     56  C   UNL A   1      41.973  31.861  37.200  1.00  0.00     0.029 A 
ATOM     57  C   UNL A   1      41.097  31.959  36.130  1.00  0.00     0.049 A 
ATOM     58  H   UNL A   1      41.061  30.838  34.341  1.00  0.00     0.167 HD
ATOM     59  C   UNL A   1      39.190  32.922  34.863  1.00  0.00     0.074 A 
ATOM     60  C   UNL A   1      38.081  33.843  34.699  1.00  0.00     0.031 C 
ATOM     61  C   UNL A   1      39.975  32.855  35.968  1.00  0.00     0.037 A 
BRANCH  48  62
ATOM     62  C   UNL A   1      44.396  28.516  35.689  1.00  0.00     0.058 A 
ATOM     63  C   UNL A   1      45.718  28.961  35.519  1.00  0.00     0.135 A 
ATOM     64  C   UNL A   1      44.183  27.414  36.534  1.00  0.00     0.135 A 
ATOM     65  F   UNL A   1      45.984  30.004  34.715  1.00  0.00    -0.206 F 
ATOM     66  C   UNL A   1      46.790  28.313  36.122  1.00  0.00     0.059 A 
ATOM     67  C   UNL A   1      45.239  26.766  37.170  1.00  0.00     0.059 A 
ATOM     68  F   UNL A   1      42.942  26.948  36.738  1.00  0.00    -0.206 F 
ATOM     69  C   UNL A   1      46.540  27.210  36.941  1.00  0.00     0.060 A 
BRANCH  69  70
ATOM     70  S   UNL A   1      47.949  26.348  37.668  1.00  0.00     0.124 S 
ATOM     71  O   UNL A   1      47.695  24.974  37.242  1.00  0.00    -0.237 OA
ATOM     72  O   UNL A   1      49.081  27.011  37.029  1.00  0.00    -0.237 OA
ATOM     73  O   UNL A   1      47.802  26.598  39.098  1.00  0.00    -0.744 OA
ENDBRANCH  69  70
ENDBRANCH  48  62
BRANCH  49  74
ATOM     74  C   UNL A   1      36.807  32.805  30.794  1.00  0.00     0.058 A 
ATOM     75  C   UNL A   1      35.476  32.391  30.931  1.00  0.00     0.135 A 
ATOM     76  C   UNL A   1      37.069  33.924  29.987  1.00  0.00     0.135 A 
ATOM     77  F   UNL A   1      35.179  31.325  31.689  1.00  0.00    -0.206 F 
ATOM     78  C   UNL A   1      34.436  33.069  30.305  1.00  0.00     0.059 A 
ATOM     79  C   UNL A   1      36.044  34.632  29.370  1.00  0.00     0.059 A 
ATOM     80  F   UNL A   1      38.327  34.368  29.841  1.00  0.00    -0.206 F 
ATOM     81  C   UNL A   1      34.730  34.199  29.538  1.00  0.00     0.060 A 
BRANCH  81  82
ATOM     82  S   UNL A   1      33.360  35.123  28.812  1.00  0.00     0.124 S 
ATOM     83  O   UNL A   1      34.064  36.119  28.014  1.00  0.00    -0.237 OA
ATOM     84  O   UNL A   1      32.656  34.085  28.065  1.00  0.00    -0.237 OA
ATOM     85  O   UNL A   1      32.647  35.640  29.977  1.00  0.00    -0.744 OA
ENDBRANCH  81  82
ENDBRANCH  49  74
BRANCH  61  86
ATOM     86  C   UNL A   1      39.655  33.789  37.103  1.00  0.00     0.058 A 
ATOM     87  C   UNL A   1      38.863  33.378  38.186  1.00  0.00     0.135 A 
ATOM     88  C   UNL A   1      40.204  35.081  37.147  1.00  0.00     0.135 A 
ATOM     89  F   UNL A   1      38.303  32.157  38.189  1.00  0.00    -0.206 F 
ATOM     90  C   UNL A   1      38.619  34.216  39.270  1.00  0.00     0.059 A 
ATOM     91  C   UNL A   1      39.995  35.927  38.233  1.00  0.00     0.059 A 
ATOM     92  F   UNL A   1      40.974  35.524  36.140  1.00  0.00    -0.206 F 
ATOM     93  C   UNL A   1      39.198  35.486  39.288  1.00  0.00     0.060 A 
BRANCH  93  94
ATOM     94  S   UNL A   1      38.920  36.536  40.730  1.00  0.00     0.124 S 
ATOM     95  O   UNL A   1      38.434  37.766  40.113  1.00  0.00    -0.237 OA
ATOM     96  O   UNL A   1      37.931  35.771  41.484  1.00  0.00    -0.237 OA
ATOM     97  O   UNL A   1      40.240  36.624  41.348  1.00  0.00    -0.744 OA
ENDBRANCH  93  94
ENDBRANCH  61  86
ENDBRANCH  35  36
ENDBRANCH  28  30
ENDBRANCH  27  28
ENDBRANCH  26  27
ENDBRANCH  25  26
ENDBRANCH  24  25
ENDBRANCH  23  24
ENDBRANCH   1  23
TORSDOF 24
ENDMDL
MODEL 2
REMARK VINA RESULT:      -9.5      5.974     12.108
REMARK SMILES C[C@H]1Cc2ccccc2N1/C=C\C(=O)OCCOCCOCCOCCOC(=O)c1ccc(-c2c3nc(c(-c4c(F)cc(S(=O)(=O)[O-])cc4F)c4ccc([nH]4)c(-c4c(F)cc(S(=O)(=O)[O-])cc4F)c4nc(c(-c5c(F)cc(S(=O)(=O)[O-])cc5F)c5ccc2[nH]5)C=C4)C=C3)cc1
REMARK SMILES IDX 22 1 21 2 20 3 19 4 18 5 17 6 16 7 15 8 13 9 14 10 12 11
REMARK SMILES IDX 11 12 10 13 1 14 2 15 3 16 4 17 9 18 5 19 8 20 6 21 7 22
REMARK SMILES IDX 23 23 24 24 25 25 26 26 27 27 28 28 29 29 30 30 31 31 95 32
REMARK SMILES IDX 32 33 94 34 33 35 34 36 35 37 88 38 36 39 93 40 87 41 89 42
REMARK SMILES IDX 37 43 92 44 86 45 85 46 38 48 72 49 51 50 71 51 52 52 55 53
REMARK SMILES IDX 70 54 90 55 53 56 54 57 69 59 91 60 56 61 39 62 40 63 49 64
REMARK SMILES IDX 41 65 42 66 48 67 50 68 43 69 44 70 45 71 46 72 47 73 73 74
REMARK SMILES IDX 74 75 83 76 75 77 76 78 82 79 84 80 77 81 78 82 79 83 80 84
REMARK SMILES IDX 81 85 57 86 58 87 67 88 59 89 60 90 66 91 68 92 61 93 62 94
REMARK SMILES IDX 63 95 64 96 65 97
REMARK H PARENT 89 47 55 58
REMARK Flexibility Score: inf
ROOT
ATOM      1  C   UNL A   1      33.663  33.530  28.311  1.00  0.00     0.188 C 
ENDROOT
BRANCH   1   2
ATOM      2  O   UNL A   1      34.582  32.960  27.399  1.00  0.00    -0.377 OA
BRANCH   2   3
ATOM      3  C   UNL A   1      35.533  32.092  27.991  1.00  0.00     0.188 C 
BRANCH   3   4
ATOM      4  C   UNL A   1      35.197  30.587  28.023  1.00  0.00     0.188 C 
BRANCH   4   5
ATOM      5  O   UNL A   1      34.065  30.100  27.325  1.00  0.00    -0.376 OA
BRANCH   5   6
ATOM      6  C   UNL A   1      34.035  28.910  26.558  1.00  0.00     0.202 C 
BRANCH   6   7
ATOM      7  C   UNL A   1      33.267  28.736  25.246  1.00  0.00     0.261 C 
BRANCH   7   8
ATOM      8  O   UNL A   1      33.981  28.043  24.230  1.00  0.00    -0.460 OA
BRANCH   8   9
ATOM      9  C   UNL A   1      33.524  28.174  22.968  1.00  0.00     0.332 C 
ATOM     10  O   UNL A   1      33.182  29.216  22.429  1.00  0.00    -0.247 OA
BRANCH   9  11
ATOM     11  C   UNL A   1      33.648  26.917  22.209  1.00  0.00     0.111 C 
ATOM     12  C   UNL A   1      33.456  25.636  22.552  1.00  0.00     0.094 C 
BRANCH  12  13
ATOM     13  N   UNL A   1      33.052  24.946  23.677  1.00  0.00    -0.344 N 
ATOM     14  C   UNL A   1      34.928  24.773  25.298  1.00  0.00     0.032 C 
ATOM     15  C   UNL A   1      33.823  24.023  24.548  1.00  0.00     0.088 C 
ATOM     16  C   UNL A   1      32.843  23.379  25.558  1.00  0.00     0.062 C 
ATOM     17  C   UNL A   1      31.687  24.306  25.478  1.00  0.00    -0.022 A 
ATOM     18  C   UNL A   1      31.816  25.138  24.362  1.00  0.00     0.044 A 
ATOM     19  C   UNL A   1      30.595  24.363  26.331  1.00  0.00     0.006 A 
ATOM     20  C   UNL A   1      30.795  26.034  24.072  1.00  0.00     0.026 A 
ATOM     21  C   UNL A   1      29.590  25.284  26.049  1.00  0.00     0.000 A 
ATOM     22  C   UNL A   1      29.684  26.108  24.920  1.00  0.00     0.002 A 
ENDBRANCH  12  13
ENDBRANCH   9  11
ENDBRANCH   8   9
ENDBRANCH   7   8
ENDBRANCH   6   7
ENDBRANCH   5   6
ENDBRANCH   4   5
ENDBRANCH   3   4
ENDBRANCH   2   3
ENDBRANCH   1   2
BRANCH   1  23
ATOM     23  C   UNL A   1      34.342  34.277  29.471  1.00  0.00     0.188 C 
BRANCH  23  24
ATOM     24  O   UNL A   1      33.980  34.055  30.829  1.00  0.00    -0.376 OA
BRANCH  24  25
ATOM     25  C   UNL A   1      34.888  33.481  31.754  1.00  0.00     0.202 C 
BRANCH  25  26
ATOM     26  C   UNL A   1      35.180  31.969  31.764  1.00  0.00     0.261 C 
BRANCH  26  27
ATOM     27  O   UNL A   1      36.439  31.542  31.245  1.00  0.00    -0.460 OA
BRANCH  27  28
ATOM     28  C   UNL A   1      37.409  31.309  32.159  1.00  0.00     0.338 C 
ATOM     29  O   UNL A   1      37.330  31.413  33.370  1.00  0.00    -0.246 OA
BRANCH  28  30
ATOM     30  C   UNL A   1      38.569  30.750  31.434  1.00  0.00     0.060 A 
ATOM     31  C   UNL A   1      38.742  31.011  30.072  1.00  0.00     0.016 A 
ATOM     32  C   UNL A   1      39.478  29.941  32.126  1.00  0.00     0.016 A 
ATOM     33  C   UNL A   1      39.845  30.475  29.408  1.00  0.00     0.010 A 
ATOM     34  C   UNL A   1      40.571  29.392  31.456  1.00  0.00     0.010 A 
ATOM     35  C   UNL A   1      40.775  29.678  30.100  1.00  0.00    -0.014 A 
BRANCH  35  36
ATOM     36  C   UNL A   1      42.052  29.314  29.447  1.00  0.00     0.031 A 
ATOM     37  C   UNL A   1      43.204  30.263  29.368  1.00  0.00     0.074 A 
ATOM     38  C   UNL A   1      42.147  28.081  28.917  1.00  0.00     0.049 A 
ATOM     39  N   UNL A   1      44.421  30.038  28.942  1.00  0.00    -0.248 NA
ATOM     40  C   UNL A   1      42.963  31.641  29.814  1.00  0.00     0.031 C 
ATOM     41  C   UNL A   1      41.066  27.094  28.906  1.00  0.00     0.029 A 
ATOM     42  N   UNL A   1      43.193  27.440  28.308  1.00  0.00    -0.354 N 
ATOM     43  C   UNL A   1      45.105  31.235  29.097  1.00  0.00     0.074 A 
ATOM     44  C   UNL A   1      44.147  32.202  29.597  1.00  0.00     0.031 C 
ATOM     45  C   UNL A   1      41.519  25.956  28.363  1.00  0.00     0.029 A 
ATOM     46  C   UNL A   1      42.911  26.140  27.966  1.00  0.00     0.049 A 
ATOM     47  H   UNL A   1      44.062  27.869  28.134  1.00  0.00     0.167 HD
ATOM     48  C   UNL A   1      46.417  31.489  28.863  1.00  0.00     0.037 A 
ATOM     49  C   UNL A   1      43.692  25.193  27.413  1.00  0.00     0.037 A 
ATOM     50  C   UNL A   1      47.344  30.525  28.324  1.00  0.00     0.049 A 
ATOM     51  C   UNL A   1      45.125  25.516  27.108  1.00  0.00     0.074 A 
ATOM     52  C   UNL A   1      48.698  30.675  28.075  1.00  0.00     0.029 A 
ATOM     53  N   UNL A   1      47.010  29.236  27.926  1.00  0.00    -0.354 N 
ATOM     54  N   UNL A   1      45.785  26.626  27.339  1.00  0.00    -0.248 NA
ATOM     55  C   UNL A   1      45.921  24.460  26.469  1.00  0.00     0.031 C 
ATOM     56  C   UNL A   1      49.169  29.500  27.478  1.00  0.00     0.029 A 
ATOM     57  C   UNL A   1      48.122  28.594  27.400  1.00  0.00     0.049 A 
ATOM     58  H   UNL A   1      46.114  28.836  28.005  1.00  0.00     0.167 HD
ATOM     59  C   UNL A   1      47.078  26.401  26.881  1.00  0.00     0.074 A 
ATOM     60  C   UNL A   1      47.110  25.041  26.378  1.00  0.00     0.031 C 
ATOM     61  C   UNL A   1      48.138  27.247  26.878  1.00  0.00     0.037 A 
BRANCH  48  62
ATOM     62  C   UNL A   1      46.921  32.869  29.192  1.00  0.00     0.058 A 
ATOM     63  C   UNL A   1      46.867  33.911  28.251  1.00  0.00     0.135 A 
ATOM     64  C   UNL A   1      47.443  33.164  30.463  1.00  0.00     0.135 A 
ATOM     65  F   UNL A   1      46.388  33.686  27.017  1.00  0.00    -0.206 F 
ATOM     66  C   UNL A   1      47.354  35.181  28.540  1.00  0.00     0.059 A 
ATOM     67  C   UNL A   1      47.911  34.436  30.783  1.00  0.00     0.059 A 
ATOM     68  F   UNL A   1      47.515  32.211  31.403  1.00  0.00    -0.206 F 
ATOM     69  C   UNL A   1      47.882  35.432  29.808  1.00  0.00     0.060 A 
BRANCH  69  70
ATOM     70  S   UNL A   1      48.561  37.070  30.142  1.00  0.00     0.124 S 
ATOM     71  O   UNL A   1      49.259  37.352  28.890  1.00  0.00    -0.237 OA
ATOM     72  O   UNL A   1      47.359  37.859  30.390  1.00  0.00    -0.237 OA
ATOM     73  O   UNL A   1      49.419  36.854  31.302  1.00  0.00    -0.744 OA
ENDBRANCH  69  70
ENDBRANCH  48  62
BRANCH  49  74
ATOM     74  C   UNL A   1      43.128  23.840  27.183  1.00  0.00     0.058 A 
ATOM     75  C   UNL A   1      42.706  23.452  25.904  1.00  0.00     0.135 A 
ATOM     76  C   UNL A   1      43.089  22.881  28.208  1.00  0.00     0.135 A 
ATOM     77  F   UNL A   1      42.722  24.336  24.895  1.00  0.00    -0.206 F 
ATOM     78  C   UNL A   1      42.276  22.156  25.644  1.00  0.00     0.059 A 
ATOM     79  C   UNL A   1      42.685  21.573  27.967  1.00  0.00     0.059 A 
ATOM     80  F   UNL A   1      43.501  23.202  29.444  1.00  0.00    -0.206 F 
ATOM     81  C   UNL A   1      42.284  21.219  26.679  1.00  0.00     0.060 A 
BRANCH  81  82
ATOM     82  S   UNL A   1      41.815  19.517  26.301  1.00  0.00     0.124 S 
ATOM     83  O   UNL A   1      42.584  19.261  25.089  1.00  0.00    -0.237 OA
ATOM     84  O   UNL A   1      42.254  18.809  27.499  1.00  0.00    -0.237 OA
ATOM     85  O   UNL A   1      40.368  19.597  26.124  1.00  0.00    -0.744 OA
ENDBRANCH  81  82
ENDBRANCH  49  74
BRANCH  61  86
ATOM     86  C   UNL A   1      49.428  26.738  26.293  1.00  0.00     0.058 A 
ATOM     87  C   UNL A   1      49.793  27.027  24.968  1.00  0.00     0.135 A 
ATOM     88  C   UNL A   1      50.341  26.019  27.081  1.00  0.00     0.135 A 
ATOM     89  F   UNL A   1      48.952  27.701  24.168  1.00  0.00    -0.206 F 
ATOM     90  C   UNL A   1      51.014  26.616  24.443  1.00  0.00     0.059 A 
ATOM     91  C   UNL A   1      51.579  25.620  26.584  1.00  0.00     0.059 A 
ATOM     92  F   UNL A   1      50.045  25.719  28.356  1.00  0.00    -0.206 F 
ATOM     93  C   UNL A   1      51.905  25.920  25.263  1.00  0.00     0.060 A 
BRANCH  93  94
ATOM     94  S   UNL A   1      53.509  25.448  24.582  1.00  0.00     0.124 S 
ATOM     95  O   UNL A   1      53.391  25.906  23.201  1.00  0.00    -0.237 OA
ATOM     96  O   UNL A   1      54.436  26.198  25.423  1.00  0.00    -0.237 OA
ATOM     97  O   UNL A   1      53.541  23.998  24.760  1.00  0.00    -0.744 OA
ENDBRANCH  93  94
ENDBRANCH  61  86
ENDBRANCH  35  36
ENDBRANCH  28  30
ENDBRANCH  27  28
ENDBRANCH  26  27
ENDBRANCH  25  26
ENDBRANCH  24  25
ENDBRANCH  23  24
ENDBRANCH   1  23
TORSDOF 24
ENDMDL
MODEL 3
REMARK VINA RESULT:      -9.2      5.936     12.097
REMARK SMILES C[C@H]1Cc2ccccc2N1/C=C\C(=O)OCCOCCOCCOCCOC(=O)c1ccc(-c2c3nc(c(-c4c(F)cc(S(=O)(=O)[O-])cc4F)c4ccc([nH]4)c(-c4c(F)cc(S(=O)(=O)[O-])cc4F)c4nc(c(-c5c(F)cc(S(=O)(=O)[O-])cc5F)c5ccc2[nH]5)C=C4)C=C3)cc1
REMARK SMILES IDX 22 1 21 2 20 3 19 4 18 5 17 6 16 7 15 8 13 9 14 10 12 11
REMARK SMILES IDX 11 12 10 13 1 14 2 15 3 16 4 17 9 18 5 19 8 20 6 21 7 22
REMARK SMILES IDX 23 23 24 24 25 25 26 26 27 27 28 28 29 29 30 30 31 31 95 32
REMARK SMILES IDX 32 33 94 34 33 35 34 36 35 37 88 38 36 39 93 40 87 41 89 42
REMARK SMILES IDX 37 43 92 44 86 45 85 46 38 48 72 49 51 50 71 51 52 52 55 53
REMARK SMILES IDX 70 54 90 55 53 56 54 57 69 59 91 60 56 61 39 62 40 63 49 64
REMARK SMILES IDX 41 65 42 66 48 67 50 68 43 69 44 70 45 71 46 72 47 73 73 74
REMARK SMILES IDX 74 75 83 76 75 77 76 78 82 79 84 80 77 81 78 82 79 83 80 84
REMARK SMILES IDX 81 85 57 86 58 87 67 88 59 89 60 90 66 91 68 92 61 93 62 94
REMARK SMILES IDX 63 95 64 96 65 97
REMARK H PARENT 89 47 55 58
REMARK Flexibility Score: inf
ROOT
ATOM      1  C   UNL A   1      33.844  33.868  28.388  1.00  0.00     0.188 C 
ENDROOT
BRANCH   1   2
ATOM      2  O   UNL A   1      34.903  33.507  27.522  1.00  0.00    -0.377 OA
BRANCH   2   3
ATOM      3  C   UNL A   1      35.828  32.589  28.078  1.00  0.00     0.188 C 
BRANCH   3   4
ATOM      4  C   UNL A   1      35.703  31.112  27.654  1.00  0.00     0.188 C 
BRANCH   4   5
ATOM      5  O   UNL A   1      34.558  30.365  28.022  1.00  0.00    -0.376 OA
BRANCH   5   6
ATOM      6  C   UNL A   1      33.603  29.842  27.115  1.00  0.00     0.202 C 
BRANCH   6   7
ATOM      7  C   UNL A   1      33.483  28.367  26.731  1.00  0.00     0.261 C 
BRANCH   7   8
ATOM      8  O   UNL A   1      32.259  28.018  26.096  1.00  0.00    -0.460 OA
BRANCH   8   9
ATOM      9  C   UNL A   1      31.966  26.704  26.018  1.00  0.00     0.332 C 
ATOM     10  O   UNL A   1      31.599  25.990  26.940  1.00  0.00    -0.247 OA
BRANCH   9  11
ATOM     11  C   UNL A   1      31.959  26.229  24.623  1.00  0.00     0.111 C 
ATOM     12  C   UNL A   1      32.305  25.059  24.068  1.00  0.00     0.094 C 
BRANCH  12  13
ATOM     13  N   UNL A   1      32.764  23.835  24.509  1.00  0.00    -0.344 N 
ATOM     14  C   UNL A   1      32.051  22.039  22.946  1.00  0.00     0.032 C 
ATOM     15  C   UNL A   1      32.130  22.495  24.406  1.00  0.00     0.088 C 
ATOM     16  C   UNL A   1      32.979  21.494  25.227  1.00  0.00     0.062 C 
ATOM     17  C   UNL A   1      34.257  22.237  25.365  1.00  0.00    -0.022 A 
ATOM     18  C   UNL A   1      34.075  23.575  25.005  1.00  0.00     0.044 A 
ATOM     19  C   UNL A   1      35.472  21.742  25.814  1.00  0.00     0.006 A 
ATOM     20  C   UNL A   1      35.142  24.455  25.133  1.00  0.00     0.026 A 
ATOM     21  C   UNL A   1      36.545  22.624  25.912  1.00  0.00     0.000 A 
ATOM     22  C   UNL A   1      36.379  23.976  25.583  1.00  0.00     0.002 A 
ENDBRANCH  12  13
ENDBRANCH   9  11
ENDBRANCH   8   9
ENDBRANCH   7   8
ENDBRANCH   6   7
ENDBRANCH   5   6
ENDBRANCH   4   5
ENDBRANCH   3   4
ENDBRANCH   2   3
ENDBRANCH   1   2
BRANCH   1  23
ATOM     23  C   UNL A   1      34.324  34.354  29.765  1.00  0.00     0.188 C 
BRANCH  23  24
ATOM     24  O   UNL A   1      33.879  33.756  30.977  1.00  0.00    -0.376 OA
BRANCH  24  25
ATOM     25  C   UNL A   1      34.793  33.321  31.969  1.00  0.00     0.202 C 
BRANCH  25  26
ATOM     26  C   UNL A   1      35.371  31.894  31.963  1.00  0.00     0.261 C 
BRANCH  26  27
ATOM     27  O   UNL A   1      36.618  31.695  31.299  1.00  0.00    -0.460 OA
BRANCH  27  28
ATOM     28  C   UNL A   1      37.724  32.039  31.999  1.00  0.00     0.338 C 
ATOM     29  O   UNL A   1      37.779  32.674  33.037  1.00  0.00    -0.246 OA
BRANCH  28  30
ATOM     30  C   UNL A   1      38.875  31.376  31.353  1.00  0.00     0.060 A 
ATOM     31  C   UNL A   1      39.086  31.508  29.978  1.00  0.00     0.016 A 
ATOM     32  C   UNL A   1      39.737  30.597  32.135  1.00  0.00     0.016 A 
ATOM     33  C   UNL A   1      40.180  30.874  29.389  1.00  0.00     0.010 A 
ATOM     34  C   UNL A   1      40.821  29.950  31.541  1.00  0.00     0.010 A 
ATOM     35  C   UNL A   1      41.063  30.107  30.170  1.00  0.00    -0.014 A 
BRANCH  35  36
ATOM     36  C   UNL A   1      42.338  29.638  29.582  1.00  0.00     0.031 A 
ATOM     37  C   UNL A   1      43.562  30.496  29.549  1.00  0.00     0.074 A 
ATOM     38  C   UNL A   1      42.363  28.395  29.069  1.00  0.00     0.049 A 
ATOM     39  N   UNL A   1      44.776  30.174  29.184  1.00  0.00    -0.248 NA
ATOM     40  C   UNL A   1      43.406  31.894  29.971  1.00  0.00     0.031 C 
ATOM     41  C   UNL A   1      41.211  27.493  29.015  1.00  0.00     0.029 A 
ATOM     42  N   UNL A   1      43.384  27.669  28.516  1.00  0.00    -0.354 N 
ATOM     43  C   UNL A   1      45.542  31.317  29.360  1.00  0.00     0.074 A 
ATOM     44  C   UNL A   1      44.638  32.360  29.805  1.00  0.00     0.031 C 
ATOM     45  C   UNL A   1      41.600  26.317  28.505  1.00  0.00     0.029 A 
ATOM     46  C   UNL A   1      43.019  26.390  28.172  1.00  0.00     0.049 A 
ATOM     47  H   UNL A   1      44.290  28.028  28.379  1.00  0.00     0.167 HD
ATOM     48  C   UNL A   1      46.879  31.468  29.187  1.00  0.00     0.037 A 
ATOM     49  C   UNL A   1      43.751  25.379  27.666  1.00  0.00     0.037 A 
ATOM     50  C   UNL A   1      47.754  30.429  28.701  1.00  0.00     0.049 A 
ATOM     51  C   UNL A   1      45.217  25.588  27.426  1.00  0.00     0.074 A 
ATOM     52  C   UNL A   1      49.125  30.472  28.516  1.00  0.00     0.029 A 
ATOM     53  N   UNL A   1      47.341  29.164  28.299  1.00  0.00    -0.354 N 
ATOM     54  N   UNL A   1      45.948  26.648  27.678  1.00  0.00    -0.248 NA
ATOM     55  C   UNL A   1      45.958  24.467  26.835  1.00  0.00     0.031 C 
ATOM     56  C   UNL A   1      49.532  29.257  27.951  1.00  0.00     0.029 A 
ATOM     57  C   UNL A   1      48.424  28.433  27.833  1.00  0.00     0.049 A 
ATOM     58  H   UNL A   1      46.414  28.834  28.339  1.00  0.00     0.167 HD
ATOM     59  C   UNL A   1      47.240  26.319  27.284  1.00  0.00     0.074 A 
ATOM     60  C   UNL A   1      47.192  24.955  26.795  1.00  0.00     0.031 C 
ATOM     61  C   UNL A   1      48.361  27.082  27.324  1.00  0.00     0.037 A 
BRANCH  48  62
ATOM     62  C   UNL A   1      47.472  32.809  29.527  1.00  0.00     0.058 A 
ATOM     63  C   UNL A   1      47.931  33.098  30.823  1.00  0.00     0.135 A 
ATOM     64  C   UNL A   1      47.604  33.810  28.549  1.00  0.00     0.135 A 
ATOM     65  F   UNL A   1      47.822  32.185  31.800  1.00  0.00    -0.206 F 
ATOM     66  C   UNL A   1      48.456  34.344  31.149  1.00  0.00     0.059 A 
ATOM     67  C   UNL A   1      48.152  35.055  28.847  1.00  0.00     0.059 A 
ATOM     68  F   UNL A   1      47.187  33.589  27.294  1.00  0.00    -0.206 F 
ATOM     69  C   UNL A   1      48.556  35.319  30.155  1.00  0.00     0.060 A 
BRANCH  69  70
ATOM     70  S   UNL A   1      49.186  36.946  30.614  1.00  0.00     0.124 S 
ATOM     71  O   UNL A   1      49.349  36.794  32.058  1.00  0.00    -0.237 OA
ATOM     72  O   UNL A   1      50.422  37.029  29.842  1.00  0.00    -0.237 OA
ATOM     73  O   UNL A   1      48.124  37.855  30.196  1.00  0.00    -0.744 OA
ENDBRANCH  69  70
ENDBRANCH  48  62
BRANCH  49  74
ATOM     74  C   UNL A   1      43.096  24.070  27.421  1.00  0.00     0.058 A 
ATOM     75  C   UNL A   1      42.575  23.759  26.158  1.00  0.00     0.135 A 
ATOM     76  C   UNL A   1      43.064  23.074  28.410  1.00  0.00     0.135 A 
ATOM     77  F   UNL A   1      42.581  24.681  25.184  1.00  0.00    -0.206 F 
ATOM     78  C   UNL A   1      42.055  22.501  25.877  1.00  0.00     0.059 A 
ATOM     79  C   UNL A   1      42.571  21.801  28.146  1.00  0.00     0.059 A 
ATOM     80  F   UNL A   1      43.569  23.320  29.629  1.00  0.00    -0.206 F 
ATOM     81  C   UNL A   1      42.072  21.523  26.874  1.00  0.00     0.060 A 
BRANCH  81  82
ATOM     82  S   UNL A   1      41.483  19.867  26.463  1.00  0.00     0.124 S 
ATOM     83  O   UNL A   1      42.363  19.506  25.359  1.00  0.00    -0.237 OA
ATOM     84  O   UNL A   1      41.700  19.149  27.715  1.00  0.00    -0.237 OA
ATOM     85  O   UNL A   1      40.083  20.085  26.108  1.00  0.00    -0.744 OA
ENDBRANCH  81  82
ENDBRANCH  49  74
BRANCH  61  86
ATOM     86  C   UNL A   1      49.634  26.469  26.805  1.00  0.00     0.058 A 
ATOM     87  C   UNL A   1      49.939  26.469  25.434  1.00  0.00     0.135 A 
ATOM     88  C   UNL A   1      50.591  25.943  27.689  1.00  0.00     0.135 A 
ATOM     89  F   UNL A   1      49.054  26.948  24.546  1.00  0.00    -0.206 F 
ATOM     90  C   UNL A   1      51.144  25.964  24.957  1.00  0.00     0.059 A 
ATOM     91  C   UNL A   1      51.814  25.457  27.235  1.00  0.00     0.059 A 
ATOM     92  F   UNL A   1      50.353  25.923  29.010  1.00  0.00    -0.206 F 
ATOM     93  C   UNL A   1      52.079  25.468  25.867  1.00  0.00     0.060 A 
BRANCH  93  94
ATOM     94  S   UNL A   1      53.662  24.872  25.233  1.00  0.00     0.124 S 
ATOM     95  O   UNL A   1      53.794  25.639  23.998  1.00  0.00    -0.237 OA
ATOM     96  O   UNL A   1      54.582  25.234  26.306  1.00  0.00    -0.237 OA
ATOM     97  O   UNL A   1      53.442  23.439  25.059  1.00  0.00    -0.744 OA
ENDBRANCH  93  94
ENDBRANCH  61  86
ENDBRANCH  35  36
ENDBRANCH  28  30
ENDBRANCH  27  28
ENDBRANCH  26  27
ENDBRANCH  25  26
ENDBRANCH  24  25
ENDBRANCH  23  24
ENDBRANCH   1  23
TORSDOF 24
ENDMDL
