MODEL 1
REMARK VINA RESULT:      -9.7      0.000      0.000
REMARK SMILES Cc1cscc1C(=O)Nc1cc(Br)ccc1C(=O)OCCOCCOCCOCCOC(=O)c1ccc(-c2c3nc(c(-c4c(F)cc(S(=O)(=O)[O-])cc4F)c4ccc([nH]4)c(-c4c(F)cc(S(=O)(=O)[O-])cc4F)c4nc(c(-c5c(F)cc(S(=O)(=O)[O-])cc5F)c5ccc2[nH]5)C=C4)C=C3)cc1
REMARK SMILES IDX 26 1 25 2 24 3 23 4 22 5 21 6 20 7 19 8 17 9 18 10 16 11
REMARK SMILES IDX 10 12 11 13 12 14 15 15 13 16 14 17 9 18 7 19 8 20 6 22 1 23
REMARK SMILES IDX 2 24 3 25 4 26 5 27 27 28 28 29 29 30 30 31 31 32 32 33
REMARK SMILES IDX 33 34 34 35 35 36 99 37 36 38 98 39 37 40 38 41 39 42 92 43
REMARK SMILES IDX 40 44 97 45 91 46 93 47 41 48 96 49 90 50 89 51 42 53 76 54
REMARK SMILES IDX 55 55 75 56 56 57 59 58 74 59 94 60 57 61 58 62 73 64 95 65
REMARK SMILES IDX 60 66 43 67 44 68 53 69 45 70 46 71 52 72 54 73 47 74 48 75
REMARK SMILES IDX 49 76 50 77 51 78 77 79 78 80 87 81 79 82 80 83 86 84 88 85
REMARK SMILES IDX 81 86 82 87 83 88 84 89 85 90 61 91 62 92 71 93 63 94 64 95
REMARK SMILES IDX 70 96 72 97 65 98 66 99 67 100 68 101 69 102
REMARK H PARENT 9 21 93 52 59 63
REMARK Flexibility Score: inf
ROOT
ATOM      1  C   UNL A   1      34.468  22.915  23.812  1.00  0.00     0.188 C 
ENDROOT
BRANCH   1   2
ATOM      2  O   UNL A   1      34.060  21.652  24.339  1.00  0.00    -0.377 OA
BRANCH   2   3
ATOM      3  C   UNL A   1      32.737  21.200  24.123  1.00  0.00     0.188 C 
BRANCH   3   4
ATOM      4  C   UNL A   1      31.728  21.511  25.242  1.00  0.00     0.188 C 
BRANCH   4   5
ATOM      5  O   UNL A   1      32.333  21.875  26.466  1.00  0.00    -0.376 OA
BRANCH   5   6
ATOM      6  C   UNL A   1      32.392  23.229  26.876  1.00  0.00     0.202 C 
BRANCH   6   7
ATOM      7  C   UNL A   1      31.809  24.394  26.053  1.00  0.00     0.261 C 
BRANCH   7   8
ATOM      8  O   UNL A   1      32.355  25.701  26.266  1.00  0.00    -0.460 OA
BRANCH   8   9
ATOM      9  C   UNL A   1      31.538  26.746  26.044  1.00  0.00     0.340 C 
ATOM     10  O   UNL A   1      30.341  26.673  25.813  1.00  0.00    -0.246 OA
BRANCH   9  11
ATOM     11  C   UNL A   1      32.250  28.044  26.252  1.00  0.00     0.083 A 
ATOM     12  C   UNL A   1      31.850  29.310  25.763  1.00  0.00     0.057 A 
ATOM     13  C   UNL A   1      32.449  30.452  26.303  1.00  0.00     0.042 A 
ATOM     14  C   UNL A   1      33.583  30.332  27.111  1.00  0.00     0.020 A 
ATOM     15  C   UNL A   1      33.444  27.942  26.988  1.00  0.00     0.019 A 
ATOM     16  Br  UNL A   1      34.426  31.883  27.786  1.00  0.00    -0.051 Br
ATOM     17  C   UNL A   1      34.133  29.084  27.383  1.00  0.00     0.017 A 
BRANCH  12  18
ATOM     18  N   UNL A   1      30.905  29.404  24.732  1.00  0.00    -0.321 N 
ATOM     19  C   UNL A   1      30.841  29.004  23.417  1.00  0.00     0.256 C 
ATOM     20  O   UNL A   1      29.921  29.511  22.764  1.00  0.00    -0.269 OA
ATOM     21  H   UNL A   1      30.087  29.872  25.019  1.00  0.00     0.170 HD
BRANCH  19  22
ATOM     22  C   UNL A   1      31.730  28.016  22.760  1.00  0.00     0.053 A 
ATOM     23  C   UNL A   1      34.268  28.810  23.036  1.00  0.00     0.046 C 
ATOM     24  C   UNL A   1      33.178  27.901  22.579  1.00  0.00    -0.028 A 
ATOM     25  C   UNL A   1      33.515  26.734  21.907  1.00  0.00     0.069 A 
ATOM     26  S   UNL A   1      32.191  25.721  21.598  1.00  0.00    -0.151 S 
ATOM     27  C   UNL A   1      31.130  26.838  22.315  1.00  0.00     0.079 A 
ENDBRANCH  19  22
ENDBRANCH  12  18
ENDBRANCH   9  11
ENDBRANCH   8   9
ENDBRANCH   7   8
ENDBRANCH   6   7
ENDBRANCH   5   6
ENDBRANCH   4   5
ENDBRANCH   3   4
ENDBRANCH   2   3
ENDBRANCH   1   2
BRANCH   1  28
ATOM     28  C   UNL A   1      35.558  23.789  24.480  1.00  0.00     0.188 C 
BRANCH  28  29
ATOM     29  O   UNL A   1      36.890  23.434  24.145  1.00  0.00    -0.376 OA
BRANCH  29  30
ATOM     30  C   UNL A   1      37.188  22.064  23.953  1.00  0.00     0.202 C 
BRANCH  30  31
ATOM     31  C   UNL A   1      37.827  21.329  25.138  1.00  0.00     0.261 C 
BRANCH  31  32
ATOM     32  O   UNL A   1      38.306  22.158  26.206  1.00  0.00    -0.460 OA
BRANCH  32  33
ATOM     33  C   UNL A   1      39.639  22.180  26.422  1.00  0.00     0.338 C 
ATOM     34  O   UNL A   1      40.446  21.317  26.112  1.00  0.00    -0.246 OA
BRANCH  33  35
ATOM     35  C   UNL A   1      39.987  23.521  26.932  1.00  0.00     0.060 A 
ATOM     36  C   UNL A   1      39.650  24.651  26.175  1.00  0.00     0.016 A 
ATOM     37  C   UNL A   1      40.627  23.659  28.166  1.00  0.00     0.016 A 
ATOM     38  C   UNL A   1      39.983  25.925  26.639  1.00  0.00     0.010 A 
ATOM     39  C   UNL A   1      40.976  24.933  28.619  1.00  0.00     0.010 A 
ATOM     40  C   UNL A   1      40.685  26.069  27.843  1.00  0.00    -0.014 A 
BRANCH  40  41
ATOM     41  C   UNL A   1      41.276  27.381  28.204  1.00  0.00     0.031 A 
ATOM     42  C   UNL A   1      42.762  27.559  28.055  1.00  0.00     0.074 A 
ATOM     43  C   UNL A   1      40.512  28.394  28.651  1.00  0.00     0.049 A 
ATOM     44  N   UNL A   1      43.512  28.584  28.365  1.00  0.00    -0.248 NA
ATOM     45  C   UNL A   1      43.501  26.422  27.482  1.00  0.00     0.031 C 
ATOM     46  C   UNL A   1      39.060  28.354  28.806  1.00  0.00     0.029 A 
ATOM     47  N   UNL A   1      40.861  29.655  29.070  1.00  0.00    -0.354 N 
ATOM     48  C   UNL A   1      44.811  28.213  28.035  1.00  0.00     0.074 A 
ATOM     49  C   UNL A   1      44.751  26.859  27.531  1.00  0.00     0.031 C 
ATOM     50  C   UNL A   1      38.642  29.533  29.301  1.00  0.00     0.029 A 
ATOM     51  C   UNL A   1      39.799  30.396  29.532  1.00  0.00     0.049 A 
ATOM     52  H   UNL A   1      41.784  29.996  29.042  1.00  0.00     0.167 HD
ATOM     53  C   UNL A   1      45.950  28.939  28.138  1.00  0.00     0.037 A 
ATOM     54  C   UNL A   1      39.771  31.618  30.102  1.00  0.00     0.037 A 
ATOM     55  C   UNL A   1      46.001  30.284  28.648  1.00  0.00     0.049 A 
ATOM     56  C   UNL A   1      41.061  32.382  30.274  1.00  0.00     0.074 A 
ATOM     57  C   UNL A   1      47.101  31.114  28.775  1.00  0.00     0.029 A 
ATOM     58  N   UNL A   1      44.909  30.993  29.129  1.00  0.00    -0.354 N 
ATOM     59  N   UNL A   1      42.280  32.034  29.932  1.00  0.00    -0.248 NA
ATOM     60  C   UNL A   1      40.973  33.705  30.907  1.00  0.00     0.031 C 
ATOM     61  C   UNL A   1      46.685  32.300  29.390  1.00  0.00     0.029 A 
ATOM     62  C   UNL A   1      45.313  32.238  29.582  1.00  0.00     0.049 A 
ATOM     63  H   UNL A   1      43.982  30.660  29.146  1.00  0.00     0.167 HD
ATOM     64  C   UNL A   1      43.097  33.106  30.282  1.00  0.00     0.074 A 
ATOM     65  C   UNL A   1      42.231  34.118  30.851  1.00  0.00     0.031 C 
ATOM     66  C   UNL A   1      44.440  33.241  30.142  1.00  0.00     0.037 A 
BRANCH  53  67
ATOM     67  C   UNL A   1      47.237  28.279  27.722  1.00  0.00     0.058 A 
ATOM     68  C   UNL A   1      48.045  27.581  28.635  1.00  0.00     0.135 A 
ATOM     69  C   UNL A   1      47.656  28.325  26.382  1.00  0.00     0.135 A 
ATOM     70  F   UNL A   1      47.704  27.522  29.932  1.00  0.00    -0.206 F 
ATOM     71  C   UNL A   1      49.235  26.979  28.240  1.00  0.00     0.059 A 
ATOM     72  C   UNL A   1      48.826  27.703  25.959  1.00  0.00     0.059 A 
ATOM     73  F   UNL A   1      46.926  28.980  25.467  1.00  0.00    -0.206 F 
ATOM     74  C   UNL A   1      49.617  27.043  26.899  1.00  0.00     0.060 A 
BRANCH  74  75
ATOM     75  S   UNL A   1      51.163  26.254  26.404  1.00  0.00     0.124 S 
ATOM     76  O   UNL A   1      52.151  27.147  27.000  1.00  0.00    -0.237 OA
ATOM     77  O   UNL A   1      51.049  24.935  27.020  1.00  0.00    -0.237 OA
ATOM     78  O   UNL A   1      51.103  26.270  24.946  1.00  0.00    -0.744 OA
ENDBRANCH  74  75
ENDBRANCH  53  67
BRANCH  54  79
ATOM     79  C   UNL A   1      38.478  32.195  30.564  1.00  0.00     0.058 A 
ATOM     80  C   UNL A   1      37.782  33.132  29.787  1.00  0.00     0.135 A 
ATOM     81  C   UNL A   1      37.911  31.816  31.792  1.00  0.00     0.135 A 
ATOM     82  F   UNL A   1      38.288  33.540  28.614  1.00  0.00    -0.206 F 
ATOM     83  C   UNL A   1      36.576  33.682  30.214  1.00  0.00     0.059 A 
ATOM     84  C   UNL A   1      36.692  32.327  32.226  1.00  0.00     0.059 A 
ATOM     85  F   UNL A   1      38.535  30.920  32.573  1.00  0.00    -0.206 F 
ATOM     86  C   UNL A   1      36.035  33.267  31.432  1.00  0.00     0.060 A 
BRANCH  86  87
ATOM     87  S   UNL A   1      34.440  33.942  31.943  1.00  0.00     0.124 S 
ATOM     88  O   UNL A   1      33.808  34.213  30.658  1.00  0.00    -0.237 OA
ATOM     89  O   UNL A   1      33.875  32.839  32.713  1.00  0.00    -0.237 OA
ATOM     90  O   UNL A   1      34.807  35.119  32.726  1.00  0.00    -0.744 OA
ENDBRANCH  86  87
ENDBRANCH  54  79
BRANCH  66  91
ATOM     91  C   UNL A   1      45.061  34.545  30.572  1.00  0.00     0.058 A 
ATOM     92  C   UNL A   1      45.194  35.632  29.694  1.00  0.00     0.135 A 
ATOM     93  C   UNL A   1      45.474  34.727  31.903  1.00  0.00     0.135 A 
ATOM     94  F   UNL A   1      44.819  35.513  28.410  1.00  0.00    -0.206 F 
ATOM     95  C   UNL A   1      45.739  36.842  30.112  1.00  0.00     0.059 A 
ATOM     96  C   UNL A   1      45.991  35.938  32.351  1.00  0.00     0.059 A 
ATOM     97  F   UNL A   1      45.359  33.726  32.791  1.00  0.00    -0.206 F 
ATOM     98  C   UNL A   1      46.132  36.987  31.445  1.00  0.00     0.060 A 
BRANCH  98  99
ATOM     99  S   UNL A   1      46.805  38.574  31.980  1.00  0.00     0.124 S 
ATOM    100  O   UNL A   1      47.630  38.176  33.116  1.00  0.00    -0.237 OA
ATOM    101  O   UNL A   1      47.531  39.022  30.795  1.00  0.00    -0.237 OA
ATOM    102  O   UNL A   1      45.617  39.354  32.312  1.00  0.00    -0.744 OA
ENDBRANCH  98  99
ENDBRANCH  66  91
ENDBRANCH  40  41
ENDBRANCH  33  35
ENDBRANCH  32  33
ENDBRANCH  31  32
ENDBRANCH  30  31
ENDBRANCH  29  30
ENDBRANCH  28  29
ENDBRANCH   1  28
TORSDOF 25
ENDMDL
MODEL 2
REMARK VINA RESULT:      -9.5      3.187      9.010
REMARK SMILES Cc1cscc1C(=O)Nc1cc(Br)ccc1C(=O)OCCOCCOCCOCCOC(=O)c1ccc(-c2c3nc(c(-c4c(F)cc(S(=O)(=O)[O-])cc4F)c4ccc([nH]4)c(-c4c(F)cc(S(=O)(=O)[O-])cc4F)c4nc(c(-c5c(F)cc(S(=O)(=O)[O-])cc5F)c5ccc2[nH]5)C=C4)C=C3)cc1
REMARK SMILES IDX 26 1 25 2 24 3 23 4 22 5 21 6 20 7 19 8 17 9 18 10 16 11
REMARK SMILES IDX 10 12 11 13 12 14 15 15 13 16 14 17 9 18 7 19 8 20 6 22 1 23
REMARK SMILES IDX 2 24 3 25 4 26 5 27 27 28 28 29 29 30 30 31 31 32 32 33
REMARK SMILES IDX 33 34 34 35 35 36 99 37 36 38 98 39 37 40 38 41 39 42 92 43
REMARK SMILES IDX 40 44 97 45 91 46 93 47 41 48 96 49 90 50 89 51 42 53 76 54
REMARK SMILES IDX 55 55 75 56 56 57 59 58 74 59 94 60 57 61 58 62 73 64 95 65
REMARK SMILES IDX 60 66 43 67 44 68 53 69 45 70 46 71 52 72 54 73 47 74 48 75
REMARK SMILES IDX 49 76 50 77 51 78 77 79 78 80 87 81 79 82 80 83 86 84 88 85
REMARK SMILES IDX 81 86 82 87 83 88 84 89 85 90 61 91 62 92 71 93 63 94 64 95
REMARK SMILES IDX 70 96 72 97 65 98 66 99 67 100 68 101 69 102
REMARK H PARENT 9 21 93 52 59 63
REMARK Flexibility Score: inf
ROOT
ATOM      1  C   UNL A   1      34.928  31.507  28.572  1.00  0.00     0.188 C 
ENDROOT
BRANCH   1   2
ATOM      2  O   UNL A   1      35.073  30.848  27.313  1.00  0.00    -0.377 OA
BRANCH   2   3
ATOM      3  C   UNL A   1      33.988  30.110  26.784  1.00  0.00     0.188 C 
BRANCH   3   4
ATOM      4  C   UNL A   1      32.587  30.556  27.236  1.00  0.00     0.188 C 
BRANCH   4   5
ATOM      5  O   UNL A   1      31.586  29.581  27.025  1.00  0.00    -0.376 OA
BRANCH   5   6
ATOM      6  C   UNL A   1      31.768  28.244  27.456  1.00  0.00     0.202 C 
BRANCH   6   7
ATOM      7  C   UNL A   1      31.847  27.043  26.493  1.00  0.00     0.261 C 
BRANCH   7   8
ATOM      8  O   UNL A   1      32.959  26.151  26.630  1.00  0.00    -0.460 OA
BRANCH   8   9
ATOM      9  C   UNL A   1      33.719  25.953  25.537  1.00  0.00     0.340 C 
ATOM     10  O   UNL A   1      34.399  26.802  24.985  1.00  0.00    -0.246 OA
BRANCH   9  11
ATOM     11  C   UNL A   1      33.743  24.509  25.149  1.00  0.00     0.083 A 
ATOM     12  C   UNL A   1      34.016  23.990  23.861  1.00  0.00     0.057 A 
ATOM     13  C   UNL A   1      34.302  22.627  23.740  1.00  0.00     0.042 A 
ATOM     14  C   UNL A   1      34.074  21.765  24.816  1.00  0.00     0.020 A 
ATOM     15  C   UNL A   1      33.430  23.620  26.192  1.00  0.00     0.019 A 
ATOM     16  Br  UNL A   1      34.404  19.914  24.626  1.00  0.00    -0.051 Br
ATOM     17  C   UNL A   1      33.556  22.246  26.013  1.00  0.00     0.017 A 
BRANCH  12  18
ATOM     18  N   UNL A   1      33.957  24.822  22.735  1.00  0.00    -0.321 N 
ATOM     19  C   UNL A   1      32.974  25.543  22.095  1.00  0.00     0.256 C 
ATOM     20  O   UNL A   1      33.278  25.950  20.968  1.00  0.00    -0.269 OA
ATOM     21  H   UNL A   1      34.832  24.914  22.293  1.00  0.00     0.170 HD
BRANCH  19  22
ATOM     22  C   UNL A   1      31.645  25.893  22.652  1.00  0.00     0.053 A 
ATOM     23  C   UNL A   1      30.532  23.698  23.696  1.00  0.00     0.046 C 
ATOM     24  C   UNL A   1      30.589  25.142  23.332  1.00  0.00    -0.028 A 
ATOM     25  C   UNL A   1      29.532  25.967  23.695  1.00  0.00     0.069 A 
ATOM     26  S   UNL A   1      29.807  27.607  23.368  1.00  0.00    -0.151 S 
ATOM     27  C   UNL A   1      31.325  27.250  22.693  1.00  0.00     0.079 A 
ENDBRANCH  19  22
ENDBRANCH  12  18
ENDBRANCH   9  11
ENDBRANCH   8   9
ENDBRANCH   7   8
ENDBRANCH   6   7
ENDBRANCH   5   6
ENDBRANCH   4   5
ENDBRANCH   3   4
ENDBRANCH   2   3
ENDBRANCH   1   2
BRANCH   1  28
ATOM     28  C   UNL A   1      34.665  33.029  28.695  1.00  0.00     0.188 C 
BRANCH  28  29
ATOM     29  O   UNL A   1      34.254  33.457  29.984  1.00  0.00    -0.376 OA
BRANCH  29  30
ATOM     30  C   UNL A   1      35.242  33.950  30.871  1.00  0.00     0.202 C 
BRANCH  30  31
ATOM     31  C   UNL A   1      35.869  32.931  31.831  1.00  0.00     0.261 C 
BRANCH  31  32
ATOM     32  O   UNL A   1      37.030  32.243  31.345  1.00  0.00    -0.460 OA
BRANCH  32  33
ATOM     33  C   UNL A   1      37.114  30.919  31.594  1.00  0.00     0.338 C 
ATOM     34  O   UNL A   1      36.276  30.223  32.147  1.00  0.00    -0.246 OA
BRANCH  33  35
ATOM     35  C   UNL A   1      38.320  30.411  30.911  1.00  0.00     0.060 A 
ATOM     36  C   UNL A   1      39.350  29.842  31.671  1.00  0.00     0.016 A 
ATOM     37  C   UNL A   1      38.422  30.481  29.520  1.00  0.00     0.016 A 
ATOM     38  C   UNL A   1      40.502  29.369  31.040  1.00  0.00     0.010 A 
ATOM     39  C   UNL A   1      39.583  30.024  28.892  1.00  0.00     0.010 A 
ATOM     40  C   UNL A   1      40.641  29.496  29.652  1.00  0.00    -0.014 A 
BRANCH  40  41
ATOM     41  C   UNL A   1      41.957  29.249  29.013  1.00  0.00     0.031 A 
ATOM     42  C   UNL A   1      42.258  27.863  28.511  1.00  0.00     0.074 A 
ATOM     43  C   UNL A   1      42.864  30.233  28.874  1.00  0.00     0.049 A 
ATOM     44  N   UNL A   1      43.354  27.391  27.979  1.00  0.00    -0.248 NA
ATOM     45  C   UNL A   1      41.173  26.875  28.634  1.00  0.00     0.031 C 
ATOM     46  C   UNL A   1      42.676  31.621  29.288  1.00  0.00     0.029 A 
ATOM     47  N   UNL A   1      44.135  30.205  28.354  1.00  0.00    -0.354 N 
ATOM     48  C   UNL A   1      43.096  26.051  27.713  1.00  0.00     0.074 A 
ATOM     49  C   UNL A   1      41.752  25.777  28.170  1.00  0.00     0.031 C 
ATOM     50  C   UNL A   1      43.798  32.312  29.020  1.00  0.00     0.029 A 
ATOM     51  C   UNL A   1      44.796  31.407  28.450  1.00  0.00     0.049 A 
ATOM     52  H   UNL A   1      44.535  29.401  27.951  1.00  0.00     0.167 HD
ATOM     53  C   UNL A   1      43.906  25.133  27.133  1.00  0.00     0.037 A 
ATOM     54  C   UNL A   1      46.068  31.730  28.141  1.00  0.00     0.037 A 
ATOM     55  C   UNL A   1      45.246  25.412  26.687  1.00  0.00     0.049 A 
ATOM     56  C   UNL A   1      46.977  30.673  27.563  1.00  0.00     0.074 A 
ATOM     57  C   UNL A   1      46.142  24.557  26.068  1.00  0.00     0.029 A 
ATOM     58  N   UNL A   1      45.890  26.634  26.823  1.00  0.00    -0.354 N 
ATOM     59  N   UNL A   1      46.715  29.417  27.288  1.00  0.00    -0.248 NA
ATOM     60  C   UNL A   1      48.355  31.077  27.251  1.00  0.00     0.031 C 
ATOM     61  C   UNL A   1      47.347  25.244  25.888  1.00  0.00     0.029 A 
ATOM     62  C   UNL A   1      47.181  26.548  26.329  1.00  0.00     0.049 A 
ATOM     63  H   UNL A   1      45.488  27.444  27.213  1.00  0.00     0.167 HD
ATOM     64  C   UNL A   1      47.884  28.891  26.744  1.00  0.00     0.074 A 
ATOM     65  C   UNL A   1      48.851  29.969  26.719  1.00  0.00     0.031 C 
ATOM     66  C   UNL A   1      48.134  27.631  26.304  1.00  0.00     0.037 A 
BRANCH  53  67
ATOM     67  C   UNL A   1      43.376  23.733  26.980  1.00  0.00     0.058 A 
ATOM     68  C   UNL A   1      43.230  22.868  28.077  1.00  0.00     0.135 A 
ATOM     69  C   UNL A   1      42.982  23.257  25.717  1.00  0.00     0.135 A 
ATOM     70  F   UNL A   1      43.609  23.261  29.303  1.00  0.00    -0.206 F 
ATOM     71  C   UNL A   1      42.743  21.573  27.923  1.00  0.00     0.059 A 
ATOM     72  C   UNL A   1      42.462  21.978  25.546  1.00  0.00     0.059 A 
ATOM     73  F   UNL A   1      43.102  24.039  24.634  1.00  0.00    -0.206 F 
ATOM     74  C   UNL A   1      42.360  21.138  26.654  1.00  0.00     0.060 A 
BRANCH  74  75
ATOM     75  S   UNL A   1      41.726  19.457  26.473  1.00  0.00     0.124 S 
ATOM     76  O   UNL A   1      40.285  19.684  26.503  1.00  0.00    -0.237 OA
ATOM     77  O   UNL A   1      42.277  19.056  25.182  1.00  0.00    -0.237 OA
ATOM     78  O   UNL A   1      42.275  18.759  27.631  1.00  0.00    -0.744 OA
ENDBRANCH  74  75
ENDBRANCH  53  67
BRANCH  54  79
ATOM     79  C   UNL A   1      46.565  33.113  28.381  1.00  0.00     0.058 A 
ATOM     80  C   UNL A   1      47.124  33.480  29.613  1.00  0.00     0.135 A 
ATOM     81  C   UNL A   1      46.493  34.095  27.380  1.00  0.00     0.135 A 
ATOM     82  F   UNL A   1      47.202  32.584  30.609  1.00  0.00    -0.206 F 
ATOM     83  C   UNL A   1      47.584  34.772  29.850  1.00  0.00     0.059 A 
ATOM     84  C   UNL A   1      46.974  35.385  27.581  1.00  0.00     0.059 A 
ATOM     85  F   UNL A   1      45.969  33.796  26.181  1.00  0.00    -0.206 F 
ATOM     86  C   UNL A   1      47.512  35.716  28.824  1.00  0.00     0.060 A 
BRANCH  86  87
ATOM     87  S   UNL A   1      48.170  37.372  29.125  1.00  0.00     0.124 S 
ATOM     88  O   UNL A   1      47.357  38.180  28.224  1.00  0.00    -0.237 OA
ATOM     89  O   UNL A   1      47.910  37.547  30.550  1.00  0.00    -0.237 OA
ATOM     90  O   UNL A   1      49.579  37.246  28.763  1.00  0.00    -0.744 OA
ENDBRANCH  86  87
ENDBRANCH  54  79
BRANCH  66  91
ATOM     91  C   UNL A   1      49.493  27.352  25.716  1.00  0.00     0.058 A 
ATOM     92  C   UNL A   1      50.587  26.985  26.515  1.00  0.00     0.135 A 
ATOM     93  C   UNL A   1      49.685  27.396  24.324  1.00  0.00     0.135 A 
ATOM     94  F   UNL A   1      50.463  26.931  27.850  1.00  0.00    -0.206 F 
ATOM     95  C   UNL A   1      51.830  26.697  25.957  1.00  0.00     0.059 A 
ATOM     96  C   UNL A   1      50.909  27.080  23.743  1.00  0.00     0.059 A 
ATOM     97  F   UNL A   1      48.670  27.729  23.511  1.00  0.00    -0.206 F 
ATOM     98  C   UNL A   1      51.980  26.744  24.569  1.00  0.00     0.060 A 
BRANCH  98  99
ATOM     99  S   UNL A   1      53.589  26.336  23.859  1.00  0.00     0.124 S 
ATOM    100  O   UNL A   1      53.228  25.997  22.486  1.00  0.00    -0.237 OA
ATOM    101  O   UNL A   1      54.332  27.580  24.031  1.00  0.00    -0.237 OA
ATOM    102  O   UNL A   1      54.049  25.219  24.679  1.00  0.00    -0.744 OA
ENDBRANCH  98  99
ENDBRANCH  66  91
ENDBRANCH  40  41
ENDBRANCH  33  35
ENDBRANCH  32  33
ENDBRANCH  31  32
ENDBRANCH  30  31
ENDBRANCH  29  30
ENDBRANCH  28  29
ENDBRANCH   1  28
TORSDOF 25
ENDMDL
MODEL 3
REMARK VINA RESULT:      -9.3      5.542     10.736
REMARK SMILES Cc1cscc1C(=O)Nc1cc(Br)ccc1C(=O)OCCOCCOCCOCCOC(=O)c1ccc(-c2c3nc(c(-c4c(F)cc(S(=O)(=O)[O-])cc4F)c4ccc([nH]4)c(-c4c(F)cc(S(=O)(=O)[O-])cc4F)c4nc(c(-c5c(F)cc(S(=O)(=O)[O-])cc5F)c5ccc2[nH]5)C=C4)C=C3)cc1
REMARK SMILES IDX 26 1 25 2 24 3 23 4 22 5 21 6 20 7 19 8 17 9 18 10 16 11
REMARK SMILES IDX 10 12 11 13 12 14 15 15 13 16 14 17 9 18 7 19 8 20 6 22 1 23
REMARK SMILES IDX 2 24 3 25 4 26 5 27 27 28 28 29 29 30 30 31 31 32 32 33
REMARK SMILES IDX 33 34 34 35 35 36 99 37 36 38 98 39 37 40 38 41 39 42 92 43
REMARK SMILES IDX 40 44 97 45 91 46 93 47 41 48 96 49 90 50 89 51 42 53 76 54
REMARK SMILES IDX 55 55 75 56 56 57 59 58 74 59 94 60 57 61 58 62 73 64 95 65
REMARK SMILES IDX 60 66 43 67 44 68 53 69 45 70 46 71 52 72 54 73 47 74 48 75
REMARK SMILES IDX 49 76 50 77 51 78 77 79 78 80 87 81 79 82 80 83 86 84 88 85
REMARK SMILES IDX 81 86 82 87 83 88 84 89 85 90 61 91 62 92 71 93 63 94 64 95
REMARK SMILES IDX 70 96 72 97 65 98 66 99 67 100 68 101 69 102
REMARK H PARENT 9 21 93 52 59 63
REMARK Flexibility Score: inf
ROOT
ATOM      1  C   UNL A   1      34.736  32.978  29.141  1.00  0.00     0.188 C 
ENDROOT
BRANCH   1   2
ATOM      2  O   UNL A   1      35.285  31.777  28.599  1.00  0.00    -0.377 OA
BRANCH   2   3
ATOM      3  C   UNL A   1      34.493  30.969  27.749  1.00  0.00     0.188 C 
BRANCH   3   4
ATOM      4  C   UNL A   1      33.156  31.580  27.295  1.00  0.00     0.188 C 
BRANCH   4   5
ATOM      5  O   UNL A   1      32.247  30.633  26.773  1.00  0.00    -0.376 OA
BRANCH   5   6
ATOM      6  C   UNL A   1      32.126  29.344  27.349  1.00  0.00     0.202 C 
BRANCH   6   7
ATOM      7  C   UNL A   1      31.854  28.068  26.529  1.00  0.00     0.261 C 
BRANCH   7   8
ATOM      8  O   UNL A   1      32.763  26.971  26.682  1.00  0.00    -0.460 OA
BRANCH   8   9
ATOM      9  C   UNL A   1      33.626  26.751  25.674  1.00  0.00     0.340 C 
ATOM     10  O   UNL A   1      34.341  27.594  25.157  1.00  0.00    -0.246 OA
BRANCH   9  11
ATOM     11  C   UNL A   1      33.711  25.295  25.342  1.00  0.00     0.083 A 
ATOM     12  C   UNL A   1      34.097  24.737  24.101  1.00  0.00     0.057 A 
ATOM     13  C   UNL A   1      34.420  23.378  24.053  1.00  0.00     0.042 A 
ATOM     14  C   UNL A   1      34.125  22.549  25.138  1.00  0.00     0.020 A 
ATOM     15  C   UNL A   1      33.333  24.436  26.389  1.00  0.00     0.019 A 
ATOM     16  Br  UNL A   1      34.507  20.701  25.045  1.00  0.00    -0.051 Br
ATOM     17  C   UNL A   1      33.502  23.060  26.273  1.00  0.00     0.017 A 
BRANCH  12  18
ATOM     18  N   UNL A   1      34.111  25.528  22.943  1.00  0.00    -0.321 N 
ATOM     19  C   UNL A   1      33.166  26.193  22.195  1.00  0.00     0.256 C 
ATOM     20  O   UNL A   1      33.555  26.571  21.083  1.00  0.00    -0.269 OA
ATOM     21  H   UNL A   1      35.018  25.632  22.574  1.00  0.00     0.170 HD
BRANCH  19  22
ATOM     22  C   UNL A   1      31.784  26.518  22.622  1.00  0.00     0.053 A 
ATOM     23  C   UNL A   1      30.599  24.291  23.507  1.00  0.00     0.046 C 
ATOM     24  C   UNL A   1      30.675  25.743  23.179  1.00  0.00    -0.028 A 
ATOM     25  C   UNL A   1      29.577  26.549  23.449  1.00  0.00     0.069 A 
ATOM     26  S   UNL A   1      29.863  28.199  23.182  1.00  0.00    -0.151 S 
ATOM     27  C   UNL A   1      31.445  27.871  22.657  1.00  0.00     0.079 A 
ENDBRANCH  19  22
ENDBRANCH  12  18
ENDBRANCH   9  11
ENDBRANCH   8   9
ENDBRANCH   7   8
ENDBRANCH   6   7
ENDBRANCH   5   6
ENDBRANCH   4   5
ENDBRANCH   3   4
ENDBRANCH   2   3
ENDBRANCH   1   2
BRANCH   1  28
ATOM     28  C   UNL A   1      35.054  34.380  28.563  1.00  0.00     0.188 C 
BRANCH  28  29
ATOM     29  O   UNL A   1      33.917  35.123  28.152  1.00  0.00    -0.376 OA
BRANCH  29  30
ATOM     30  C   UNL A   1      33.633  36.337  28.823  1.00  0.00     0.202 C 
BRANCH  30  31
ATOM     31  C   UNL A   1      32.648  36.257  29.996  1.00  0.00     0.261 C 
BRANCH  31  32
ATOM     32  O   UNL A   1      33.209  36.454  31.301  1.00  0.00    -0.460 OA
BRANCH  32  33
ATOM     33  C   UNL A   1      32.941  35.518  32.237  1.00  0.00     0.338 C 
ATOM     34  O   UNL A   1      31.859  35.288  32.755  1.00  0.00    -0.246 OA
BRANCH  33  35
ATOM     35  C   UNL A   1      34.150  34.684  32.394  1.00  0.00     0.060 A 
ATOM     36  C   UNL A   1      34.016  33.352  32.806  1.00  0.00     0.016 A 
ATOM     37  C   UNL A   1      35.411  35.216  32.114  1.00  0.00     0.016 A 
ATOM     38  C   UNL A   1      35.150  32.556  32.970  1.00  0.00     0.010 A 
ATOM     39  C   UNL A   1      36.546  34.424  32.297  1.00  0.00     0.010 A 
ATOM     40  C   UNL A   1      36.423  33.100  32.757  1.00  0.00    -0.014 A 
BRANCH  40  41
ATOM     41  C   UNL A   1      37.631  32.354  33.186  1.00  0.00     0.031 A 
ATOM     42  C   UNL A   1      38.286  32.742  34.484  1.00  0.00     0.074 A 
ATOM     43  C   UNL A   1      38.135  31.350  32.446  1.00  0.00     0.049 A 
ATOM     44  N   UNL A   1      39.379  32.284  35.034  1.00  0.00    -0.248 NA
ATOM     45  C   UNL A   1      37.615  33.797  35.263  1.00  0.00     0.031 C 
ATOM     46  C   UNL A   1      37.571  30.860  31.190  1.00  0.00     0.029 A 
ATOM     47  N   UNL A   1      39.249  30.570  32.642  1.00  0.00    -0.354 N 
ATOM     48  C   UNL A   1      39.534  32.999  36.217  1.00  0.00     0.074 A 
ATOM     49  C   UNL A   1      38.440  33.942  36.289  1.00  0.00     0.031 C 
ATOM     50  C   UNL A   1      38.351  29.871  30.719  1.00  0.00     0.029 A 
ATOM     51  C   UNL A   1      39.488  29.684  31.620  1.00  0.00     0.049 A 
ATOM     52  H   UNL A   1      39.821  30.640  33.440  1.00  0.00     0.167 HD
ATOM     53  C   UNL A   1      40.498  32.875  37.160  1.00  0.00     0.037 A 
ATOM     54  C   UNL A   1      40.521  28.840  31.421  1.00  0.00     0.037 A 
ATOM     55  C   UNL A   1      41.588  31.937  37.076  1.00  0.00     0.049 A 
ATOM     56  C   UNL A   1      41.623  28.769  32.449  1.00  0.00     0.074 A 
ATOM     57  C   UNL A   1      42.605  31.718  37.988  1.00  0.00     0.029 A 
ATOM     58  N   UNL A   1      41.811  31.072  36.013  1.00  0.00    -0.354 N 
ATOM     59  N   UNL A   1      41.745  29.428  33.578  1.00  0.00    -0.248 NA
ATOM     60  C   UNL A   1      42.728  27.839  32.178  1.00  0.00     0.031 C 
ATOM     61  C   UNL A   1      43.477  30.766  37.448  1.00  0.00     0.029 A 
ATOM     62  C   UNL A   1      42.966  30.340  36.232  1.00  0.00     0.049 A 
ATOM     63  H   UNL A   1      41.232  30.991  35.221  1.00  0.00     0.167 HD
ATOM     64  C   UNL A   1      42.922  28.970  34.164  1.00  0.00     0.074 A 
ATOM     65  C   UNL A   1      43.469  27.970  33.270  1.00  0.00     0.031 C 
ATOM     66  C   UNL A   1      43.497  29.342  35.336  1.00  0.00     0.037 A 
BRANCH  53  67
ATOM     67  C   UNL A   1      40.436  33.799  38.346  1.00  0.00     0.058 A 
ATOM     68  C   UNL A   1      39.648  33.512  39.473  1.00  0.00     0.135 A 
ATOM     69  C   UNL A   1      41.197  34.980  38.365  1.00  0.00     0.135 A 
ATOM     70  F   UNL A   1      38.885  32.408  39.502  1.00  0.00    -0.206 F 
ATOM     71  C   UNL A   1      39.595  34.376  40.562  1.00  0.00     0.059 A 
ATOM     72  C   UNL A   1      41.184  35.842  39.457  1.00  0.00     0.059 A 
ATOM     73  F   UNL A   1      41.965  35.306  37.315  1.00  0.00    -0.206 F 
ATOM     74  C   UNL A   1      40.368  35.538  40.546  1.00  0.00     0.060 A 
BRANCH  74  75
ATOM     75  S   UNL A   1      40.289  36.646  41.969  1.00  0.00     0.124 S 
ATOM     76  O   UNL A   1      41.656  37.153  42.019  1.00  0.00    -0.237 OA
ATOM     77  O   UNL A   1      39.272  37.608  41.557  1.00  0.00    -0.237 OA
ATOM     78  O   UNL A   1      39.907  35.764  43.068  1.00  0.00    -0.744 OA
ENDBRANCH  74  75
ENDBRANCH  53  67
BRANCH  54  79
ATOM     79  C   UNL A   1      40.571  28.000  30.192  1.00  0.00     0.058 A 
ATOM     80  C   UNL A   1      39.678  26.937  30.002  1.00  0.00     0.135 A 
ATOM     81  C   UNL A   1      41.514  28.248  29.181  1.00  0.00     0.135 A 
ATOM     82  F   UNL A   1      38.769  26.648  30.946  1.00  0.00    -0.206 F 
ATOM     83  C   UNL A   1      39.721  26.142  28.861  1.00  0.00     0.059 A 
ATOM     84  C   UNL A   1      41.557  27.488  28.016  1.00  0.00     0.059 A 
ATOM     85  F   UNL A   1      42.391  29.256  29.311  1.00  0.00    -0.206 F 
ATOM     86  C   UNL A   1      40.661  26.431  27.869  1.00  0.00     0.060 A 
BRANCH  86  87
ATOM     87  S   UNL A   1      40.665  25.429  26.365  1.00  0.00     0.124 S 
ATOM     88  O   UNL A   1      41.677  24.428  26.680  1.00  0.00    -0.237 OA
ATOM     89  O   UNL A   1      39.287  24.952  26.314  1.00  0.00    -0.237 OA
ATOM     90  O   UNL A   1      41.027  26.387  25.324  1.00  0.00    -0.744 OA
ENDBRANCH  86  87
ENDBRANCH  54  79
BRANCH  66  91
ATOM     91  C   UNL A   1      44.764  28.638  35.748  1.00  0.00     0.058 A 
ATOM     92  C   UNL A   1      46.034  29.133  35.411  1.00  0.00     0.135 A 
ATOM     93  C   UNL A   1      44.705  27.482  36.545  1.00  0.00     0.135 A 
ATOM     94  F   UNL A   1      46.151  30.232  34.649  1.00  0.00    -0.206 F 
ATOM     95  C   UNL A   1      47.198  28.492  35.825  1.00  0.00     0.059 A 
ATOM     96  C   UNL A   1      45.856  26.844  36.997  1.00  0.00     0.059 A 
ATOM     97  F   UNL A   1      43.518  26.970  36.908  1.00  0.00    -0.206 F 
ATOM     98  C   UNL A   1      47.098  27.349  36.622  1.00  0.00     0.060 A 
BRANCH  98  99
ATOM     99  S   UNL A   1      48.618  26.549  37.179  1.00  0.00     0.124 S 
ATOM    100  O   UNL A   1      48.486  25.221  36.587  1.00  0.00    -0.237 OA
ATOM    101  O   UNL A   1      49.651  27.402  36.601  1.00  0.00    -0.237 OA
ATOM    102  O   UNL A   1      48.514  26.598  38.634  1.00  0.00    -0.744 OA
ENDBRANCH  98  99
ENDBRANCH  66  91
ENDBRANCH  40  41
ENDBRANCH  33  35
ENDBRANCH  32  33
ENDBRANCH  31  32
ENDBRANCH  30  31
ENDBRANCH  29  30
ENDBRANCH  28  29
ENDBRANCH   1  28
TORSDOF 25
ENDMDL
