MODEL 1
REMARK VINA RESULT:     -10.1      0.000      0.000
REMARK SMILES CC(=O)c1cc2c(cc1NC(=O)/C=C/C(=O)OCCOCCOCCOCCOC(=O)c1ccc(-c3c4nc(c(-c5c(F)cc(S(=O)(=O)[O-])cc5F)c5ccc([nH]5)c(-c5c(F)cc(S(=O)(=O)[O-])cc5F)c5nc(c(-c6c(F)cc(S(=O)(=O)[O-])cc6F)c6ccc3[nH]6)C=C5)C=C4)cc1)OCO2
REMARK SMILES IDX 23 1 22 2 21 3 20 4 19 5 18 6 17 7 15 8 16 9 14 10 13 11
REMARK SMILES IDX 11 12 10 13 12 15 9 16 4 17 5 18 6 19 8 20 7 21 100 22 98 23
REMARK SMILES IDX 99 24 2 25 1 26 3 27 24 28 25 29 26 30 27 31 28 32 29 33
REMARK SMILES IDX 30 34 31 35 32 36 33 37 97 38 34 39 96 40 35 41 36 42 37 43
REMARK SMILES IDX 90 44 38 45 95 46 89 47 91 48 39 49 94 50 88 51 87 52 40 54
REMARK SMILES IDX 74 55 53 56 73 57 54 58 57 59 72 60 92 61 55 62 56 63 71 65
REMARK SMILES IDX 93 66 58 67 41 68 42 69 51 70 43 71 44 72 50 73 52 74 45 75
REMARK SMILES IDX 46 76 47 77 48 78 49 79 75 80 76 81 85 82 77 83 78 84 84 85
REMARK SMILES IDX 86 86 79 87 80 88 81 89 82 90 83 91 59 92 60 93 69 94 61 95
REMARK SMILES IDX 62 96 68 97 70 98 63 99 64 100 65 101 66 102 67 103
REMARK H PARENT 10 14 91 53 57 64
REMARK Flexibility Score: inf
ROOT
ATOM      1  O   UNL A   1      39.693  21.190  26.073  1.00  0.00    -0.377 OA
ENDROOT
BRANCH   1   2
ATOM      2  C   UNL A   1      38.821  20.342  25.342  1.00  0.00     0.188 C 
BRANCH   2   3
ATOM      3  C   UNL A   1      37.320  20.653  25.118  1.00  0.00     0.188 C 
BRANCH   3   4
ATOM      4  O   UNL A   1      36.857  21.867  25.678  1.00  0.00    -0.376 OA
BRANCH   4   5
ATOM      5  C   UNL A   1      36.928  23.027  24.870  1.00  0.00     0.202 C 
BRANCH   5   6
ATOM      6  C   UNL A   1      35.741  23.270  23.927  1.00  0.00     0.261 C 
BRANCH   6   7
ATOM      7  O   UNL A   1      34.530  22.574  24.278  1.00  0.00    -0.460 OA
BRANCH   7   8
ATOM      8  C   UNL A   1      33.441  22.805  23.510  1.00  0.00     0.331 C 
ATOM      9  O   UNL A   1      32.396  22.173  23.543  1.00  0.00    -0.247 OA
BRANCH   8  10
ATOM     10  C   UNL A   1      33.586  24.040  22.702  1.00  0.00     0.099 C 
ATOM     11  C   UNL A   1      32.582  24.874  22.386  1.00  0.00     0.079 C 
BRANCH  11  12
ATOM     12  C   UNL A   1      32.738  26.014  21.449  1.00  0.00     0.248 C 
ATOM     13  N   UNL A   1      32.635  27.322  21.843  1.00  0.00    -0.322 N 
ATOM     14  H   UNL A   1      32.633  27.952  21.087  1.00  0.00     0.170 HD
ATOM     15  O   UNL A   1      32.985  25.759  20.270  1.00  0.00    -0.270 OA
BRANCH  13  16
ATOM     16  C   UNL A   1      32.533  27.970  23.099  1.00  0.00     0.056 A 
ATOM     17  C   UNL A   1      31.270  28.392  23.595  1.00  0.00     0.045 A 
ATOM     18  C   UNL A   1      31.117  28.844  24.922  1.00  0.00     0.064 A 
ATOM     19  C   UNL A   1      32.245  28.940  25.701  1.00  0.00     0.166 A 
ATOM     20  C   UNL A   1      33.646  28.231  23.889  1.00  0.00     0.077 A 
ATOM     21  C   UNL A   1      33.480  28.676  25.182  1.00  0.00     0.167 A 
ATOM     22  O   UNL A   1      32.304  29.322  27.003  1.00  0.00    -0.454 OA
ATOM     23  O   UNL A   1      34.480  28.884  26.076  1.00  0.00    -0.454 OA
ATOM     24  C   UNL A   1      33.724  29.205  27.257  1.00  0.00     0.468 C 
BRANCH  17  25
ATOM     25  C   UNL A   1      30.090  28.440  22.697  1.00  0.00     0.162 C 
ATOM     26  C   UNL A   1      28.803  27.853  23.221  1.00  0.00     0.093 C 
ATOM     27  O   UNL A   1      30.158  29.030  21.623  1.00  0.00    -0.294 OA
ENDBRANCH  17  25
ENDBRANCH  13  16
ENDBRANCH  11  12
ENDBRANCH   8  10
ENDBRANCH   7   8
ENDBRANCH   6   7
ENDBRANCH   5   6
ENDBRANCH   4   5
ENDBRANCH   3   4
ENDBRANCH   2   3
ENDBRANCH   1   2
BRANCH   1  28
ATOM     28  C   UNL A   1      40.662  20.611  26.929  1.00  0.00     0.188 C 
BRANCH  28  29
ATOM     29  C   UNL A   1      41.839  19.875  26.259  1.00  0.00     0.188 C 
BRANCH  29  30
ATOM     30  O   UNL A   1      42.710  20.743  25.540  1.00  0.00    -0.376 OA
BRANCH  30  31
ATOM     31  C   UNL A   1      43.025  21.985  26.145  1.00  0.00     0.202 C 
BRANCH  31  32
ATOM     32  C   UNL A   1      42.635  23.279  25.410  1.00  0.00     0.261 C 
BRANCH  32  33
ATOM     33  O   UNL A   1      41.969  24.289  26.179  1.00  0.00    -0.460 OA
BRANCH  33  34
ATOM     34  C   UNL A   1      42.194  25.580  25.858  1.00  0.00     0.338 C 
ATOM     35  O   UNL A   1      42.298  26.048  24.735  1.00  0.00    -0.246 OA
BRANCH  34  36
ATOM     36  C   UNL A   1      42.082  26.370  27.104  1.00  0.00     0.060 A 
ATOM     37  C   UNL A   1      41.201  25.942  28.108  1.00  0.00     0.016 A 
ATOM     38  C   UNL A   1      42.883  27.497  27.303  1.00  0.00     0.016 A 
ATOM     39  C   UNL A   1      41.105  26.654  29.304  1.00  0.00     0.010 A 
ATOM     40  C   UNL A   1      42.764  28.226  28.488  1.00  0.00     0.010 A 
ATOM     41  C   UNL A   1      41.854  27.824  29.482  1.00  0.00    -0.014 A 
BRANCH  41  42
ATOM     42  C   UNL A   1      41.528  28.738  30.604  1.00  0.00     0.031 A 
ATOM     43  C   UNL A   1      42.331  28.619  31.870  1.00  0.00     0.074 A 
ATOM     44  C   UNL A   1      40.559  29.666  30.501  1.00  0.00     0.049 A 
ATOM     45  N   UNL A   1      42.213  29.270  32.996  1.00  0.00    -0.248 NA
ATOM     46  C   UNL A   1      43.415  27.621  31.859  1.00  0.00     0.031 C 
ATOM     47  C   UNL A   1      39.732  29.897  29.319  1.00  0.00     0.029 A 
ATOM     48  N   UNL A   1      40.099  30.577  31.418  1.00  0.00    -0.354 N 
ATOM     49  C   UNL A   1      43.204  28.763  33.828  1.00  0.00     0.074 A 
ATOM     50  C   UNL A   1      43.885  27.720  33.091  1.00  0.00     0.031 C 
ATOM     51  C   UNL A   1      38.848  30.872  29.591  1.00  0.00     0.029 A 
ATOM     52  C   UNL A   1      39.026  31.312  30.975  1.00  0.00     0.049 A 
ATOM     53  H   UNL A   1      40.500  30.693  32.310  1.00  0.00     0.167 HD
ATOM     54  C   UNL A   1      43.528  29.141  35.088  1.00  0.00     0.037 A 
ATOM     55  C   UNL A   1      38.260  32.214  31.622  1.00  0.00     0.037 A 
ATOM     56  C   UNL A   1      42.830  30.164  35.822  1.00  0.00     0.049 A 
ATOM     57  C   UNL A   1      38.587  32.572  33.050  1.00  0.00     0.074 A 
ATOM     58  C   UNL A   1      43.078  30.624  37.102  1.00  0.00     0.029 A 
ATOM     59  N   UNL A   1      41.738  30.876  35.346  1.00  0.00    -0.354 N 
ATOM     60  N   UNL A   1      39.544  32.108  33.820  1.00  0.00    -0.248 NA
ATOM     61  C   UNL A   1      37.738  33.583  33.695  1.00  0.00     0.031 C 
ATOM     62  C   UNL A   1      42.100  31.573  37.421  1.00  0.00     0.029 A 
ATOM     63  C   UNL A   1      41.283  31.754  36.316  1.00  0.00     0.049 A 
ATOM     64  H   UNL A   1      41.344  30.772  34.449  1.00  0.00     0.167 HD
ATOM     65  C   UNL A   1      39.426  32.784  35.030  1.00  0.00     0.074 A 
ATOM     66  C   UNL A   1      38.314  33.702  34.884  1.00  0.00     0.031 C 
ATOM     67  C   UNL A   1      40.170  32.660  36.159  1.00  0.00     0.037 A 
BRANCH  54  68
ATOM     68  C   UNL A   1      44.666  28.413  35.752  1.00  0.00     0.058 A 
ATOM     69  C   UNL A   1      44.468  27.211  36.451  1.00  0.00     0.135 A 
ATOM     70  C   UNL A   1      45.971  28.928  35.698  1.00  0.00     0.135 A 
ATOM     71  F   UNL A   1      43.237  26.680  36.553  1.00  0.00    -0.206 F 
ATOM     72  C   UNL A   1      45.513  26.569  37.108  1.00  0.00     0.059 A 
ATOM     73  C   UNL A   1      47.038  28.286  36.319  1.00  0.00     0.059 A 
ATOM     74  F   UNL A   1      46.219  30.075  35.046  1.00  0.00    -0.206 F 
ATOM     75  C   UNL A   1      46.794  27.118  37.040  1.00  0.00     0.060 A 
BRANCH  75  76
ATOM     76  S   UNL A   1      48.135  26.286  37.917  1.00  0.00     0.124 S 
ATOM     77  O   UNL A   1      49.173  26.247  36.891  1.00  0.00    -0.237 OA
ATOM     78  O   UNL A   1      48.384  27.190  39.035  1.00  0.00    -0.237 OA
ATOM     79  O   UNL A   1      47.559  24.994  38.275  1.00  0.00    -0.744 OA
ENDBRANCH  75  76
ENDBRANCH  54  68
BRANCH  55  80
ATOM     80  C   UNL A   1      37.095  32.823  30.925  1.00  0.00     0.058 A 
ATOM     81  C   UNL A   1      37.263  33.803  29.936  1.00  0.00     0.135 A 
ATOM     82  C   UNL A   1      35.784  32.415  31.222  1.00  0.00     0.135 A 
ATOM     83  F   UNL A   1      38.493  34.241  29.628  1.00  0.00    -0.206 F 
ATOM     84  C   UNL A   1      36.176  34.356  29.265  1.00  0.00     0.059 A 
ATOM     85  C   UNL A   1      34.684  32.932  30.546  1.00  0.00     0.059 A 
ATOM     86  F   UNL A   1      35.568  31.476  32.158  1.00  0.00    -0.206 F 
ATOM     87  C   UNL A   1      34.890  33.905  29.570  1.00  0.00     0.060 A 
BRANCH  87  88
ATOM     88  S   UNL A   1      33.496  34.567  28.632  1.00  0.00     0.124 S 
ATOM     89  O   UNL A   1      33.194  33.461  27.730  1.00  0.00    -0.237 OA
ATOM     90  O   UNL A   1      32.515  34.819  29.684  1.00  0.00    -0.237 OA
ATOM     91  O   UNL A   1      34.050  35.763  28.004  1.00  0.00    -0.744 OA
ENDBRANCH  87  88
ENDBRANCH  55  80
BRANCH  67  92
ATOM     92  C   UNL A   1      39.832  33.558  37.321  1.00  0.00     0.058 A 
ATOM     93  C   UNL A   1      38.884  33.195  38.290  1.00  0.00     0.135 A 
ATOM     94  C   UNL A   1      40.504  34.780  37.493  1.00  0.00     0.135 A 
ATOM     95  F   UNL A   1      38.207  32.040  38.174  1.00  0.00    -0.206 F 
ATOM     96  C   UNL A   1      38.593  34.022  39.371  1.00  0.00     0.059 A 
ATOM     97  C   UNL A   1      40.254  35.607  38.583  1.00  0.00     0.059 A 
ATOM     98  F   UNL A   1      41.431  35.173  36.604  1.00  0.00    -0.206 F 
ATOM     99  C   UNL A   1      39.285  35.226  39.510  1.00  0.00     0.060 A 
BRANCH  99 100
ATOM    100  S   UNL A   1      38.916  36.278  40.930  1.00  0.00     0.124 S 
ATOM    101  O   UNL A   1      38.544  37.530  40.279  1.00  0.00    -0.237 OA
ATOM    102  O   UNL A   1      37.829  35.553  41.581  1.00  0.00    -0.237 OA
ATOM    103  O   UNL A   1      40.175  36.306  41.670  1.00  0.00    -0.744 OA
ENDBRANCH  99 100
ENDBRANCH  67  92
ENDBRANCH  41  42
ENDBRANCH  34  36
ENDBRANCH  33  34
ENDBRANCH  32  33
ENDBRANCH  31  32
ENDBRANCH  30  31
ENDBRANCH  29  30
ENDBRANCH  28  29
ENDBRANCH   1  28
TORSDOF 26
ENDMDL
MODEL 2
REMARK VINA RESULT:      -9.9      0.459      7.992
REMARK SMILES CC(=O)c1cc2c(cc1NC(=O)/C=C/C(=O)OCCOCCOCCOCCOC(=O)c1ccc(-c3c4nc(c(-c5c(F)cc(S(=O)(=O)[O-])cc5F)c5ccc([nH]5)c(-c5c(F)cc(S(=O)(=O)[O-])cc5F)c5nc(c(-c6c(F)cc(S(=O)(=O)[O-])cc6F)c6ccc3[nH]6)C=C5)C=C4)cc1)OCO2
REMARK SMILES IDX 23 1 22 2 21 3 20 4 19 5 18 6 17 7 15 8 16 9 14 10 13 11
REMARK SMILES IDX 11 12 10 13 12 15 9 16 4 17 5 18 6 19 8 20 7 21 100 22 98 23
REMARK SMILES IDX 99 24 2 25 1 26 3 27 24 28 25 29 26 30 27 31 28 32 29 33
REMARK SMILES IDX 30 34 31 35 32 36 33 37 97 38 34 39 96 40 35 41 36 42 37 43
REMARK SMILES IDX 90 44 38 45 95 46 89 47 91 48 39 49 94 50 88 51 87 52 40 54
REMARK SMILES IDX 74 55 53 56 73 57 54 58 57 59 72 60 92 61 55 62 56 63 71 65
REMARK SMILES IDX 93 66 58 67 41 68 42 69 51 70 43 71 44 72 50 73 52 74 45 75
REMARK SMILES IDX 46 76 47 77 48 78 49 79 75 80 76 81 85 82 77 83 78 84 84 85
REMARK SMILES IDX 86 86 79 87 80 88 81 89 82 90 83 91 59 92 60 93 69 94 61 95
REMARK SMILES IDX 62 96 68 97 70 98 63 99 64 100 65 101 66 102 67 103
REMARK H PARENT 10 14 91 53 57 64
REMARK Flexibility Score: inf
ROOT
ATOM      1  O   UNL A   1      39.712  20.676  25.943  1.00  0.00    -0.377 OA
ENDROOT
BRANCH   1   2
ATOM      2  C   UNL A   1      38.890  19.688  25.341  1.00  0.00     0.188 C 
BRANCH   2   3
ATOM      3  C   UNL A   1      37.510  19.998  24.710  1.00  0.00     0.188 C 
BRANCH   3   4
ATOM      4  O   UNL A   1      36.858  21.154  25.199  1.00  0.00    -0.376 OA
BRANCH   4   5
ATOM      5  C   UNL A   1      36.982  22.343  24.441  1.00  0.00     0.202 C 
BRANCH   5   6
ATOM      6  C   UNL A   1      35.728  22.797  23.682  1.00  0.00     0.261 C 
BRANCH   6   7
ATOM      7  O   UNL A   1      34.477  22.437  24.299  1.00  0.00    -0.460 OA
BRANCH   7   8
ATOM      8  C   UNL A   1      33.345  22.834  23.675  1.00  0.00     0.331 C 
ATOM      9  O   UNL A   1      32.236  22.343  23.826  1.00  0.00    -0.247 OA
BRANCH   8  10
ATOM     10  C   UNL A   1      33.556  24.065  22.876  1.00  0.00     0.099 C 
ATOM     11  C   UNL A   1      32.578  24.877  22.442  1.00  0.00     0.079 C 
BRANCH  11  12
ATOM     12  C   UNL A   1      32.817  26.012  21.517  1.00  0.00     0.248 C 
ATOM     13  N   UNL A   1      32.770  27.322  21.918  1.00  0.00    -0.322 N 
ATOM     14  H   UNL A   1      32.820  27.956  21.165  1.00  0.00     0.170 HD
ATOM     15  O   UNL A   1      33.081  25.752  20.344  1.00  0.00    -0.270 OA
BRANCH  13  16
ATOM     16  C   UNL A   1      32.667  27.968  23.174  1.00  0.00     0.056 A 
ATOM     17  C   UNL A   1      31.407  28.408  23.662  1.00  0.00     0.045 A 
ATOM     18  C   UNL A   1      31.250  28.858  24.988  1.00  0.00     0.064 A 
ATOM     19  C   UNL A   1      32.373  28.934  25.777  1.00  0.00     0.166 A 
ATOM     20  C   UNL A   1      33.778  28.209  23.975  1.00  0.00     0.077 A 
ATOM     21  C   UNL A   1      33.609  28.652  25.267  1.00  0.00     0.167 A 
ATOM     22  O   UNL A   1      32.428  29.311  27.081  1.00  0.00    -0.454 OA
ATOM     23  O   UNL A   1      34.604  28.842  26.170  1.00  0.00    -0.454 OA
ATOM     24  C   UNL A   1      33.843  29.171  27.346  1.00  0.00     0.468 C 
BRANCH  17  25
ATOM     25  C   UNL A   1      30.236  28.478  22.753  1.00  0.00     0.162 C 
ATOM     26  C   UNL A   1      28.999  27.720  23.168  1.00  0.00     0.093 C 
ATOM     27  O   UNL A   1      30.262  29.209  21.769  1.00  0.00    -0.294 OA
ENDBRANCH  17  25
ENDBRANCH  13  16
ENDBRANCH  11  12
ENDBRANCH   8  10
ENDBRANCH   7   8
ENDBRANCH   6   7
ENDBRANCH   5   6
ENDBRANCH   4   5
ENDBRANCH   3   4
ENDBRANCH   2   3
ENDBRANCH   1   2
BRANCH   1  28
ATOM     28  C   UNL A   1      40.824  20.269  26.719  1.00  0.00     0.188 C 
BRANCH  28  29
ATOM     29  C   UNL A   1      42.012  19.639  25.965  1.00  0.00     0.188 C 
BRANCH  29  30
ATOM     30  O   UNL A   1      43.020  20.582  25.613  1.00  0.00    -0.376 OA
BRANCH  30  31
ATOM     31  C   UNL A   1      42.987  21.836  26.273  1.00  0.00     0.202 C 
BRANCH  31  32
ATOM     32  C   UNL A   1      42.821  23.107  25.424  1.00  0.00     0.261 C 
BRANCH  32  33
ATOM     33  O   UNL A   1      42.238  24.249  26.068  1.00  0.00    -0.460 OA
BRANCH  33  34
ATOM     34  C   UNL A   1      42.866  25.436  25.939  1.00  0.00     0.338 C 
ATOM     35  O   UNL A   1      43.524  25.817  24.983  1.00  0.00    -0.246 OA
BRANCH  34  36
ATOM     36  C   UNL A   1      42.441  26.284  27.074  1.00  0.00     0.060 A 
ATOM     37  C   UNL A   1      42.983  27.571  27.206  1.00  0.00     0.016 A 
ATOM     38  C   UNL A   1      41.473  25.831  27.974  1.00  0.00     0.016 A 
ATOM     39  C   UNL A   1      42.570  28.399  28.252  1.00  0.00     0.010 A 
ATOM     40  C   UNL A   1      41.084  26.649  29.037  1.00  0.00     0.010 A 
ATOM     41  C   UNL A   1      41.652  27.926  29.197  1.00  0.00    -0.014 A 
BRANCH  41  42
ATOM     42  C   UNL A   1      41.452  28.675  30.462  1.00  0.00     0.031 A 
ATOM     43  C   UNL A   1      40.329  29.673  30.522  1.00  0.00     0.074 A 
ATOM     44  C   UNL A   1      42.230  28.464  31.538  1.00  0.00     0.049 A 
ATOM     45  N   UNL A   1      39.978  30.475  31.492  1.00  0.00    -0.248 NA
ATOM     46  C   UNL A   1      39.491  29.781  29.315  1.00  0.00     0.031 C 
ATOM     47  C   UNL A   1      43.329  27.505  31.612  1.00  0.00     0.029 A 
ATOM     48  N   UNL A   1      42.218  29.061  32.775  1.00  0.00    -0.354 N 
ATOM     49  C   UNL A   1      38.881  31.182  31.016  1.00  0.00     0.074 A 
ATOM     50  C   UNL A   1      38.652  30.746  29.655  1.00  0.00     0.031 C 
ATOM     51  C   UNL A   1      43.904  27.595  32.824  1.00  0.00     0.029 A 
ATOM     52  C   UNL A   1      43.232  28.638  33.599  1.00  0.00     0.049 A 
ATOM     53  H   UNL A   1      41.547  29.729  33.044  1.00  0.00     0.167 HD
ATOM     54  C   UNL A   1      38.122  32.103  31.657  1.00  0.00     0.037 A 
ATOM     55  C   UNL A   1      43.593  29.066  34.827  1.00  0.00     0.037 A 
ATOM     56  C   UNL A   1      38.371  32.549  33.004  1.00  0.00     0.049 A 
ATOM     57  C   UNL A   1      42.783  30.145  35.501  1.00  0.00     0.074 A 
ATOM     58  C   UNL A   1      37.663  33.475  33.747  1.00  0.00     0.029 A 
ATOM     59  N   UNL A   1      39.417  32.109  33.803  1.00  0.00    -0.354 N 
ATOM     60  N   UNL A   1      41.729  30.788  35.054  1.00  0.00    -0.248 NA
ATOM     61  C   UNL A   1      43.203  30.549  36.850  1.00  0.00     0.031 C 
ATOM     62  C   UNL A   1      38.315  33.638  34.975  1.00  0.00     0.029 A 
ATOM     63  C   UNL A   1      39.391  32.765  35.023  1.00  0.00     0.049 A 
ATOM     64  H   UNL A   1      40.082  31.431  33.540  1.00  0.00     0.167 HD
ATOM     65  C   UNL A   1      41.348  31.656  36.073  1.00  0.00     0.074 A 
ATOM     66  C   UNL A   1      42.275  31.443  37.165  1.00  0.00     0.031 C 
ATOM     67  C   UNL A   1      40.324  32.546  36.103  1.00  0.00     0.037 A 
BRANCH  54  68
ATOM     68  C   UNL A   1      36.978  32.707  30.888  1.00  0.00     0.058 A 
ATOM     69  C   UNL A   1      37.166  33.778  30.000  1.00  0.00     0.135 A 
ATOM     70  C   UNL A   1      35.672  32.214  31.048  1.00  0.00     0.135 A 
ATOM     71  F   UNL A   1      38.390  34.304  29.822  1.00  0.00    -0.206 F 
ATOM     72  C   UNL A   1      36.098  34.368  29.331  1.00  0.00     0.059 A 
ATOM     73  C   UNL A   1      34.593  32.766  30.364  1.00  0.00     0.059 A 
ATOM     74  F   UNL A   1      35.432  31.193  31.885  1.00  0.00    -0.206 F 
ATOM     75  C   UNL A   1      34.814  33.857  29.524  1.00  0.00     0.060 A 
BRANCH  75  76
ATOM     76  S   UNL A   1      33.435  34.647  28.668  1.00  0.00     0.124 S 
ATOM     77  O   UNL A   1      32.998  33.579  27.773  1.00  0.00    -0.237 OA
ATOM     78  O   UNL A   1      32.527  34.965  29.765  1.00  0.00    -0.237 OA
ATOM     79  O   UNL A   1      34.053  35.798  28.015  1.00  0.00    -0.744 OA
ENDBRANCH  75  76
ENDBRANCH  54  68
BRANCH  55  80
ATOM     80  C   UNL A   1      44.793  28.483  35.485  1.00  0.00     0.058 A 
ATOM     81  C   UNL A   1      44.699  27.361  36.321  1.00  0.00     0.135 A 
ATOM     82  C   UNL A   1      46.070  29.027  35.267  1.00  0.00     0.135 A 
ATOM     83  F   UNL A   1      43.500  26.814  36.576  1.00  0.00    -0.206 F 
ATOM     84  C   UNL A   1      45.824  26.799  36.917  1.00  0.00     0.059 A 
ATOM     85  C   UNL A   1      47.213  28.466  35.829  1.00  0.00     0.059 A 
ATOM     86  F   UNL A   1      46.217  30.098  34.471  1.00  0.00    -0.206 F 
ATOM     87  C   UNL A   1      47.079  27.352  36.656  1.00  0.00     0.060 A 
BRANCH  87  88
ATOM     88  S   UNL A   1      48.539  26.561  37.366  1.00  0.00     0.124 S 
ATOM     89  O   UNL A   1      49.145  25.949  36.188  1.00  0.00    -0.237 OA
ATOM     90  O   UNL A   1      49.254  27.700  37.934  1.00  0.00    -0.237 OA
ATOM     91  O   UNL A   1      47.978  25.633  38.343  1.00  0.00    -0.744 OA
ENDBRANCH  87  88
ENDBRANCH  55  80
BRANCH  67  92
ATOM     92  C   UNL A   1      40.126  33.340  37.368  1.00  0.00     0.058 A 
ATOM     93  C   UNL A   1      40.857  34.508  37.636  1.00  0.00     0.135 A 
ATOM     94  C   UNL A   1      39.152  32.952  38.304  1.00  0.00     0.135 A 
ATOM     95  F   UNL A   1      41.803  34.924  36.778  1.00  0.00    -0.206 F 
ATOM     96  C   UNL A   1      40.651  35.246  38.798  1.00  0.00     0.059 A 
ATOM     97  C   UNL A   1      38.907  33.692  39.457  1.00  0.00     0.059 A 
ATOM     98  F   UNL A   1      38.413  31.850  38.094  1.00  0.00    -0.206 F 
ATOM     99  C   UNL A   1      39.672  34.830  39.702  1.00  0.00     0.060 A 
BRANCH  99 100
ATOM    100  S   UNL A   1      39.399  35.810  41.193  1.00  0.00     0.124 S 
ATOM    101  O   UNL A   1      37.942  35.848  41.257  1.00  0.00    -0.237 OA
ATOM    102  O   UNL A   1      40.059  35.008  42.219  1.00  0.00    -0.237 OA
ATOM    103  O   UNL A   1      40.047  37.083  40.889  1.00  0.00    -0.744 OA
ENDBRANCH  99 100
ENDBRANCH  67  92
ENDBRANCH  41  42
ENDBRANCH  34  36
ENDBRANCH  33  34
ENDBRANCH  32  33
ENDBRANCH  31  32
ENDBRANCH  30  31
ENDBRANCH  29  30
ENDBRANCH  28  29
ENDBRANCH   1  28
TORSDOF 26
ENDMDL
MODEL 3
REMARK VINA RESULT:      -9.3      1.208      2.256
REMARK SMILES CC(=O)c1cc2c(cc1NC(=O)/C=C/C(=O)OCCOCCOCCOCCOC(=O)c1ccc(-c3c4nc(c(-c5c(F)cc(S(=O)(=O)[O-])cc5F)c5ccc([nH]5)c(-c5c(F)cc(S(=O)(=O)[O-])cc5F)c5nc(c(-c6c(F)cc(S(=O)(=O)[O-])cc6F)c6ccc3[nH]6)C=C5)C=C4)cc1)OCO2
REMARK SMILES IDX 23 1 22 2 21 3 20 4 19 5 18 6 17 7 15 8 16 9 14 10 13 11
REMARK SMILES IDX 11 12 10 13 12 15 9 16 4 17 5 18 6 19 8 20 7 21 100 22 98 23
REMARK SMILES IDX 99 24 2 25 1 26 3 27 24 28 25 29 26 30 27 31 28 32 29 33
REMARK SMILES IDX 30 34 31 35 32 36 33 37 97 38 34 39 96 40 35 41 36 42 37 43
REMARK SMILES IDX 90 44 38 45 95 46 89 47 91 48 39 49 94 50 88 51 87 52 40 54
REMARK SMILES IDX 74 55 53 56 73 57 54 58 57 59 72 60 92 61 55 62 56 63 71 65
REMARK SMILES IDX 93 66 58 67 41 68 42 69 51 70 43 71 44 72 50 73 52 74 45 75
REMARK SMILES IDX 46 76 47 77 48 78 49 79 75 80 76 81 85 82 77 83 78 84 84 85
REMARK SMILES IDX 86 86 79 87 80 88 81 89 82 90 83 91 59 92 60 93 69 94 61 95
REMARK SMILES IDX 62 96 68 97 70 98 63 99 64 100 65 101 66 102 67 103
REMARK H PARENT 10 14 91 53 57 64
REMARK Flexibility Score: inf
ROOT
ATOM      1  O   UNL A   1      35.642  21.821  26.360  1.00  0.00    -0.377 OA
ENDROOT
BRANCH   1   2
ATOM      2  C   UNL A   1      34.411  22.389  26.782  1.00  0.00     0.188 C 
BRANCH   2   3
ATOM      3  C   UNL A   1      33.029  21.858  26.328  1.00  0.00     0.188 C 
BRANCH   3   4
ATOM      4  O   UNL A   1      33.010  20.525  25.855  1.00  0.00    -0.376 OA
BRANCH   4   5
ATOM      5  C   UNL A   1      32.230  20.251  24.705  1.00  0.00     0.202 C 
BRANCH   5   6
ATOM      6  C   UNL A   1      32.746  20.831  23.382  1.00  0.00     0.261 C 
BRANCH   6   7
ATOM      7  O   UNL A   1      31.873  21.789  22.753  1.00  0.00    -0.460 OA
BRANCH   7   8
ATOM      8  C   UNL A   1      32.158  23.098  22.938  1.00  0.00     0.331 C 
ATOM      9  O   UNL A   1      33.227  23.637  22.694  1.00  0.00    -0.247 OA
BRANCH   8  10
ATOM     10  C   UNL A   1      30.959  23.875  23.334  1.00  0.00     0.099 C 
ATOM     11  C   UNL A   1      30.863  25.214  23.298  1.00  0.00     0.079 C 
BRANCH  11  12
ATOM     12  C   UNL A   1      29.705  25.960  23.846  1.00  0.00     0.248 C 
ATOM     13  N   UNL A   1      29.840  27.073  24.634  1.00  0.00    -0.322 N 
ATOM     14  H   UNL A   1      28.988  27.374  25.024  1.00  0.00     0.170 HD
ATOM     15  O   UNL A   1      28.576  25.559  23.563  1.00  0.00    -0.270 OA
BRANCH  13  16
ATOM     16  C   UNL A   1      30.936  27.888  25.011  1.00  0.00     0.056 A 
ATOM     17  C   UNL A   1      31.081  29.199  24.482  1.00  0.00     0.045 A 
ATOM     18  C   UNL A   1      32.036  30.097  24.998  1.00  0.00     0.064 A 
ATOM     19  C   UNL A   1      32.882  29.640  25.980  1.00  0.00     0.166 A 
ATOM     20  C   UNL A   1      31.915  27.448  25.894  1.00  0.00     0.077 A 
ATOM     21  C   UNL A   1      32.844  28.337  26.387  1.00  0.00     0.167 A 
ATOM     22  O   UNL A   1      33.844  30.352  26.622  1.00  0.00    -0.454 OA
ATOM     23  O   UNL A   1      33.792  28.050  27.316  1.00  0.00    -0.454 OA
ATOM     24  C   UNL A   1      34.364  29.353  27.530  1.00  0.00     0.468 C 
BRANCH  17  25
ATOM     25  C   UNL A   1      30.274  29.627  23.312  1.00  0.00     0.162 C 
ATOM     26  C   UNL A   1      29.170  30.624  23.567  1.00  0.00     0.093 C 
ATOM     27  O   UNL A   1      30.579  29.253  22.184  1.00  0.00    -0.294 OA
ENDBRANCH  17  25
ENDBRANCH  13  16
ENDBRANCH  11  12
ENDBRANCH   8  10
ENDBRANCH   7   8
ENDBRANCH   6   7
ENDBRANCH   5   6
ENDBRANCH   4   5
ENDBRANCH   3   4
ENDBRANCH   2   3
ENDBRANCH   1   2
BRANCH   1  28
ATOM     28  C   UNL A   1      36.610  22.652  25.746  1.00  0.00     0.188 C 
BRANCH  28  29
ATOM     29  C   UNL A   1      38.066  22.144  25.738  1.00  0.00     0.188 C 
BRANCH  29  30
ATOM     30  O   UNL A   1      38.987  23.061  26.318  1.00  0.00    -0.376 OA
BRANCH  30  31
ATOM     31  C   UNL A   1      40.183  22.521  26.855  1.00  0.00     0.202 C 
BRANCH  31  32
ATOM     32  C   UNL A   1      41.510  22.824  26.140  1.00  0.00     0.261 C 
BRANCH  32  33
ATOM     33  O   UNL A   1      42.277  23.931  26.633  1.00  0.00    -0.460 OA
BRANCH  33  34
ATOM     34  C   UNL A   1      41.943  25.169  26.214  1.00  0.00     0.338 C 
ATOM     35  O   UNL A   1      41.606  25.495  25.086  1.00  0.00    -0.246 OA
BRANCH  34  36
ATOM     36  C   UNL A   1      41.850  26.030  27.414  1.00  0.00     0.060 A 
ATOM     37  C   UNL A   1      40.875  25.749  28.383  1.00  0.00     0.016 A 
ATOM     38  C   UNL A   1      42.755  27.077  27.607  1.00  0.00     0.016 A 
ATOM     39  C   UNL A   1      40.793  26.529  29.538  1.00  0.00     0.010 A 
ATOM     40  C   UNL A   1      42.652  27.874  28.748  1.00  0.00     0.010 A 
ATOM     41  C   UNL A   1      41.652  27.622  29.705  1.00  0.00    -0.014 A 
BRANCH  41  42
ATOM     42  C   UNL A   1      41.367  28.622  30.762  1.00  0.00     0.031 A 
ATOM     43  C   UNL A   1      42.189  28.576  32.020  1.00  0.00     0.074 A 
ATOM     44  C   UNL A   1      40.417  29.562  30.608  1.00  0.00     0.049 A 
ATOM     45  N   UNL A   1      42.106  29.310  33.098  1.00  0.00    -0.248 NA
ATOM     46  C   UNL A   1      43.250  27.554  32.065  1.00  0.00     0.031 C 
ATOM     47  C   UNL A   1      39.575  29.727  29.426  1.00  0.00     0.029 A 
ATOM     48  N   UNL A   1      39.994  30.548  31.464  1.00  0.00    -0.354 N 
ATOM     49  C   UNL A   1      43.100  28.841  33.949  1.00  0.00     0.074 A 
ATOM     50  C   UNL A   1      43.744  27.731  33.279  1.00  0.00     0.031 C 
ATOM     51  C   UNL A   1      38.717  30.739  29.640  1.00  0.00     0.029 A 
ATOM     52  C   UNL A   1      38.930  31.274  30.986  1.00  0.00     0.049 A 
ATOM     53  H   UNL A   1      40.414  30.718  32.339  1.00  0.00     0.167 HD
ATOM     54  C   UNL A   1      43.455  29.301  35.172  1.00  0.00     0.037 A 
ATOM     55  C   UNL A   1      38.196  32.238  31.578  1.00  0.00     0.037 A 
ATOM     56  C   UNL A   1      42.793  30.391  35.842  1.00  0.00     0.049 A 
ATOM     57  C   UNL A   1      38.556  32.691  32.971  1.00  0.00     0.074 A 
ATOM     58  C   UNL A   1      43.073  30.936  37.081  1.00  0.00     0.029 A 
ATOM     59  N   UNL A   1      41.709  31.091  35.332  1.00  0.00    -0.354 N 
ATOM     60  N   UNL A   1      39.516  32.261  33.757  1.00  0.00    -0.248 NA
ATOM     61  C   UNL A   1      37.741  33.766  33.554  1.00  0.00     0.031 C 
ATOM     62  C   UNL A   1      42.123  31.929  37.346  1.00  0.00     0.029 A 
ATOM     63  C   UNL A   1      41.291  32.048  36.244  1.00  0.00     0.049 A 
ATOM     64  H   UNL A   1      41.297  30.932  34.452  1.00  0.00     0.167 HD
ATOM     65  C   UNL A   1      39.434  33.026  34.916  1.00  0.00     0.074 A 
ATOM     66  C   UNL A   1      38.341  33.956  34.722  1.00  0.00     0.031 C 
ATOM     67  C   UNL A   1      40.196  32.967  36.039  1.00  0.00     0.037 A 
BRANCH  54  68
ATOM     68  C   UNL A   1      44.587  28.596  35.870  1.00  0.00     0.058 A 
ATOM     69  C   UNL A   1      45.927  28.961  35.661  1.00  0.00     0.135 A 
ATOM     70  C   UNL A   1      44.331  27.535  36.753  1.00  0.00     0.135 A 
ATOM     71  F   UNL A   1      46.234  29.956  34.811  1.00  0.00    -0.206 F 
ATOM     72  C   UNL A   1      46.974  28.272  36.266  1.00  0.00     0.059 A 
ATOM     73  C   UNL A   1      45.359  26.854  37.397  1.00  0.00     0.059 A 
ATOM     74  F   UNL A   1      43.070  27.142  36.990  1.00  0.00    -0.206 F 
ATOM     75  C   UNL A   1      46.679  27.216  37.130  1.00  0.00     0.060 A 
BRANCH  75  76
ATOM     76  S   UNL A   1      48.047  26.318  37.890  1.00  0.00     0.124 S 
ATOM     77  O   UNL A   1      48.134  26.969  39.194  1.00  0.00    -0.237 OA
ATOM     78  O   UNL A   1      47.552  24.945  37.900  1.00  0.00    -0.237 OA
ATOM     79  O   UNL A   1      49.166  26.572  36.988  1.00  0.00    -0.744 OA
ENDBRANCH  75  76
ENDBRANCH  54  68
BRANCH  55  80
ATOM     80  C   UNL A   1      37.033  32.823  30.857  1.00  0.00     0.058 A 
ATOM     81  C   UNL A   1      35.722  32.397  31.115  1.00  0.00     0.135 A 
ATOM     82  C   UNL A   1      37.212  33.844  29.909  1.00  0.00     0.135 A 
ATOM     83  F   UNL A   1      35.498  31.412  31.998  1.00  0.00    -0.206 F 
ATOM     84  C   UNL A   1      34.630  32.961  30.460  1.00  0.00     0.059 A 
ATOM     85  C   UNL A   1      36.135  34.442  29.263  1.00  0.00     0.059 A 
ATOM     86  F   UNL A   1      38.446  34.292  29.629  1.00  0.00    -0.206 F 
ATOM     87  C   UNL A   1      34.846  33.991  29.544  1.00  0.00     0.060 A 
BRANCH  87  88
ATOM     88  S   UNL A   1      33.416  34.773  28.766  1.00  0.00     0.124 S 
ATOM     89  O   UNL A   1      32.478  34.848  29.881  1.00  0.00    -0.237 OA
ATOM     90  O   UNL A   1      33.973  36.044  28.314  1.00  0.00    -0.237 OA
ATOM     91  O   UNL A   1      33.059  33.839  27.701  1.00  0.00    -0.744 OA
ENDBRANCH  87  88
ENDBRANCH  55  80
BRANCH  67  92
ATOM     92  C   UNL A   1      39.898  33.954  37.138  1.00  0.00     0.058 A 
ATOM     93  C   UNL A   1      39.134  33.606  38.263  1.00  0.00     0.135 A 
ATOM     94  C   UNL A   1      40.429  35.254  37.087  1.00  0.00     0.135 A 
ATOM     95  F   UNL A   1      38.598  32.378  38.363  1.00  0.00    -0.206 F 
ATOM     96  C   UNL A   1      38.882  34.519  39.283  1.00  0.00     0.059 A 
ATOM     97  C   UNL A   1      40.217  36.173  38.110  1.00  0.00     0.059 A 
ATOM     98  F   UNL A   1      41.179  35.638  36.040  1.00  0.00    -0.206 F 
ATOM     99  C   UNL A   1      39.430  35.800  39.197  1.00  0.00     0.060 A 
BRANCH  99 100
ATOM    100  S   UNL A   1      39.116  36.967  40.539  1.00  0.00     0.124 S 
ATOM    101  O   UNL A   1      38.856  38.199  39.802  1.00  0.00    -0.237 OA
ATOM    102  O   UNL A   1      37.962  36.372  41.206  1.00  0.00    -0.237 OA
ATOM    103  O   UNL A   1      40.357  36.945  41.307  1.00  0.00    -0.744 OA
ENDBRANCH  99 100
ENDBRANCH  67  92
ENDBRANCH  41  42
ENDBRANCH  34  36
ENDBRANCH  33  34
ENDBRANCH  32  33
ENDBRANCH  31  32
ENDBRANCH  30  31
ENDBRANCH  29  30
ENDBRANCH  28  29
ENDBRANCH   1  28
TORSDOF 26
ENDMDL
