MODEL 1
REMARK VINA RESULT:      -6.4      0.000      0.000
REMARK SMILES CC(=O)NCCNC(=O)C[N@H+]1CC[C@@H](C(=O)OCCOCCOCCOCCOC(=O)c2ccc(-c3c4nc(c(-c5c(F)cc(S(=O)(=O)[O-])cc5F)c5ccc([nH]5)c(-c5c(F)cc(S(=O)(=O)[O-])cc5F)c5nc(c(-c6c(F)cc(S(=O)(=O)[O-])cc6F)c6ccc3[nH]6)C=C5)C=C4)cc2)[C@H]1C
REMARK SMILES IDX 22 1 21 2 20 3 19 4 18 5 17 6 15 7 16 8 14 9 11 10 12 11
REMARK SMILES IDX 98 12 13 14 99 15 10 16 8 17 7 18 9 20 6 21 5 22 4 23 1 24
REMARK SMILES IDX 2 25 3 26 23 28 24 29 25 30 26 31 27 32 28 33 29 34 30 35
REMARK SMILES IDX 31 36 32 37 33 38 97 39 34 40 96 41 35 42 36 43 37 44 90 45
REMARK SMILES IDX 38 46 95 47 89 48 91 49 39 50 94 51 88 52 87 53 40 55 74 56
REMARK SMILES IDX 53 57 73 58 54 59 57 60 72 61 92 62 55 63 56 64 71 66 93 67
REMARK SMILES IDX 58 68 41 69 42 70 51 71 43 72 44 73 50 74 52 75 45 76 46 77
REMARK SMILES IDX 47 78 48 79 49 80 75 81 76 82 85 83 77 84 78 85 84 86 86 87
REMARK SMILES IDX 79 88 80 89 81 90 82 91 83 92 59 93 60 94 69 95 61 96 62 97
REMARK SMILES IDX 68 98 70 99 63 100 64 101 65 102 66 103 67 104
REMARK H PARENT 11 13 7 19 4 27 91 54 57 65
REMARK Flexibility Score: inf
ROOT
ATOM      1  C   UNL A   1      38.712  32.957  35.342  1.00  0.00     0.188 C 
ENDROOT
BRANCH   1   2
ATOM      2  C   UNL A   1      38.214  31.499  35.392  1.00  0.00     0.188 C 
BRANCH   2   3
ATOM      3  O   UNL A   1      37.928  30.924  34.140  1.00  0.00    -0.376 OA
BRANCH   3   4
ATOM      4  C   UNL A   1      38.794  29.969  33.554  1.00  0.00     0.202 C 
BRANCH   4   5
ATOM      5  C   UNL A   1      40.038  30.328  32.722  1.00  0.00     0.261 C 
BRANCH   5   6
ATOM      6  O   UNL A   1      41.173  29.465  32.840  1.00  0.00    -0.463 OA
BRANCH   6   7
ATOM      7  C   UNL A   1      42.036  29.754  33.832  1.00  0.00     0.315 C 
ATOM      8  O   UNL A   1      41.897  30.704  34.602  1.00  0.00    -0.252 OA
BRANCH   7   9
ATOM      9  C   UNL A   1      43.192  28.789  33.990  1.00  0.00     0.162 C 
ATOM     10  N   UNL A   1      44.317  26.727  34.212  1.00  0.00    -0.324 N 
ATOM     11  C   UNL A   1      44.559  27.207  32.853  1.00  0.00     0.264 C 
ATOM     12  C   UNL A   1      43.193  27.493  34.824  1.00  0.00     0.195 C 
ATOM     13  H   UNL A   1      45.120  26.937  34.805  1.00  0.00     0.348 HD
ATOM     14  C   UNL A   1      43.554  28.299  32.600  1.00  0.00     0.083 C 
ATOM     15  C   UNL A   1      41.869  26.737  34.934  1.00  0.00     0.076 C 
BRANCH  10  16
ATOM     16  C   UNL A   1      44.307  25.263  34.331  1.00  0.00     0.363 C 
BRANCH  16  17
ATOM     17  C   UNL A   1      44.750  24.828  35.728  1.00  0.00     0.275 C 
ATOM     18  N   UNL A   1      46.091  24.804  36.016  1.00  0.00    -0.349 N 
ATOM     19  H   UNL A   1      46.348  24.337  36.844  1.00  0.00     0.163 HD
ATOM     20  O   UNL A   1      43.954  24.460  36.593  1.00  0.00    -0.269 OA
BRANCH  18  21
ATOM     21  C   UNL A   1      47.178  25.385  35.243  1.00  0.00     0.137 C 
BRANCH  21  22
ATOM     22  C   UNL A   1      47.834  26.539  36.007  1.00  0.00     0.137 C 
BRANCH  22  23
ATOM     23  N   UNL A   1      47.464  27.820  35.417  1.00  0.00    -0.355 N 
ATOM     24  C   UNL A   1      49.555  28.104  34.152  1.00  0.00     0.114 C 
ATOM     25  C   UNL A   1      48.232  28.632  34.635  1.00  0.00     0.216 C 
ATOM     26  O   UNL A   1      47.829  29.753  34.335  1.00  0.00    -0.275 OA
ATOM     27  H   UNL A   1      46.551  28.136  35.606  1.00  0.00     0.163 HD
ENDBRANCH  22  23
ENDBRANCH  21  22
ENDBRANCH  18  21
ENDBRANCH  16  17
ENDBRANCH  10  16
ENDBRANCH   7   9
ENDBRANCH   6   7
ENDBRANCH   5   6
ENDBRANCH   4   5
ENDBRANCH   3   4
ENDBRANCH   2   3
ENDBRANCH   1   2
BRANCH   1  28
ATOM     28  O   UNL A   1      37.869  33.994  34.868  1.00  0.00    -0.377 OA
BRANCH  28  29
ATOM     29  C   UNL A   1      38.056  34.539  33.565  1.00  0.00     0.188 C 
BRANCH  29  30
ATOM     30  C   UNL A   1      36.857  34.697  32.608  1.00  0.00     0.188 C 
BRANCH  30  31
ATOM     31  O   UNL A   1      36.146  33.498  32.349  1.00  0.00    -0.376 OA
BRANCH  31  32
ATOM     32  C   UNL A   1      36.540  32.759  31.201  1.00  0.00     0.202 C 
BRANCH  32  33
ATOM     33  C   UNL A   1      35.604  31.632  30.733  1.00  0.00     0.261 C 
BRANCH  33  34
ATOM     34  O   UNL A   1      35.225  31.648  29.345  1.00  0.00    -0.460 OA
BRANCH  34  35
ATOM     35  C   UNL A   1      35.217  30.478  28.674  1.00  0.00     0.338 C 
ATOM     36  O   UNL A   1      34.292  29.993  28.043  1.00  0.00    -0.246 OA
BRANCH  35  37
ATOM     37  C   UNL A   1      36.597  29.955  28.672  1.00  0.00     0.060 A 
ATOM     38  C   UNL A   1      37.086  29.307  29.815  1.00  0.00     0.016 A 
ATOM     39  C   UNL A   1      37.405  30.109  27.544  1.00  0.00     0.016 A 
ATOM     40  C   UNL A   1      38.402  28.844  29.844  1.00  0.00     0.010 A 
ATOM     41  C   UNL A   1      38.729  29.663  27.583  1.00  0.00     0.010 A 
ATOM     42  C   UNL A   1      39.244  29.061  28.745  1.00  0.00    -0.014 A 
BRANCH  42  43
ATOM     43  C   UNL A   1      40.706  28.849  28.885  1.00  0.00     0.031 A 
ATOM     44  C   UNL A   1      41.266  27.501  28.515  1.00  0.00     0.074 A 
ATOM     45  C   UNL A   1      41.524  29.830  29.307  1.00  0.00     0.049 A 
ATOM     46  N   UNL A   1      42.494  27.059  28.598  1.00  0.00    -0.248 NA
ATOM     47  C   UNL A   1      40.307  26.518  27.981  1.00  0.00     0.031 C 
ATOM     48  C   UNL A   1      41.108  31.188  29.653  1.00  0.00     0.029 A 
ATOM     49  N   UNL A   1      42.880  29.826  29.527  1.00  0.00    -0.354 N 
ATOM     50  C   UNL A   1      42.454  25.749  28.137  1.00  0.00     0.074 A 
ATOM     51  C   UNL A   1      41.077  25.456  27.806  1.00  0.00     0.031 C 
ATOM     52  C   UNL A   1      42.187  31.884  30.056  1.00  0.00     0.029 A 
ATOM     53  C   UNL A   1      43.361  31.012  30.030  1.00  0.00     0.049 A 
ATOM     54  H   UNL A   1      43.453  29.048  29.341  1.00  0.00     0.167 HD
ATOM     55  C   UNL A   1      43.475  24.871  27.994  1.00  0.00     0.037 A 
ATOM     56  C   UNL A   1      44.601  31.343  30.445  1.00  0.00     0.037 A 
ATOM     57  C   UNL A   1      44.843  25.167  28.330  1.00  0.00     0.049 A 
ATOM     58  C   UNL A   1      45.709  30.323  30.349  1.00  0.00     0.074 A 
ATOM     59  C   UNL A   1      45.953  24.351  28.209  1.00  0.00     0.029 A 
ATOM     60  N   UNL A   1      45.286  26.368  28.864  1.00  0.00    -0.354 N 
ATOM     61  N   UNL A   1      45.666  29.095  29.889  1.00  0.00    -0.248 NA
ATOM     62  C   UNL A   1      47.038  30.735  30.826  1.00  0.00     0.031 C 
ATOM     63  C   UNL A   1      47.057  25.036  28.726  1.00  0.00     0.029 A 
ATOM     64  C   UNL A   1      46.648  26.305  29.105  1.00  0.00     0.049 A 
ATOM     65  H   UNL A   1      44.716  27.150  29.045  1.00  0.00     0.167 HD
ATOM     66  C   UNL A   1      46.964  28.601  29.990  1.00  0.00     0.074 A 
ATOM     67  C   UNL A   1      47.771  29.666  30.545  1.00  0.00     0.031 C 
ATOM     68  C   UNL A   1      47.444  27.378  29.650  1.00  0.00     0.037 A 
BRANCH  55  69
ATOM     69  C   UNL A   1      43.146  23.495  27.482  1.00  0.00     0.058 A 
ATOM     70  C   UNL A   1      43.366  23.127  26.143  1.00  0.00     0.135 A 
ATOM     71  C   UNL A   1      42.632  22.518  28.350  1.00  0.00     0.135 A 
ATOM     72  F   UNL A   1      43.837  24.025  25.264  1.00  0.00    -0.206 F 
ATOM     73  C   UNL A   1      43.067  21.850  25.682  1.00  0.00     0.059 A 
ATOM     74  C   UNL A   1      42.355  21.225  27.917  1.00  0.00     0.059 A 
ATOM     75  F   UNL A   1      42.397  22.815  29.638  1.00  0.00    -0.206 F 
ATOM     76  C   UNL A   1      42.563  20.904  26.577  1.00  0.00     0.060 A 
BRANCH  76  77
ATOM     77  S   UNL A   1      42.193  19.248  25.963  1.00  0.00     0.124 S 
ATOM     78  O   UNL A   1      42.984  19.208  24.736  1.00  0.00    -0.237 OA
ATOM     79  O   UNL A   1      42.668  18.400  27.051  1.00  0.00    -0.237 OA
ATOM     80  O   UNL A   1      40.745  19.269  25.774  1.00  0.00    -0.744 OA
ENDBRANCH  76  77
ENDBRANCH  55  69
BRANCH  56  81
ATOM     81  C   UNL A   1      44.863  32.698  31.007  1.00  0.00     0.058 A 
ATOM     82  C   UNL A   1      45.230  33.770  30.181  1.00  0.00     0.135 A 
ATOM     83  C   UNL A   1      44.761  32.943  32.386  1.00  0.00     0.135 A 
ATOM     84  F   UNL A   1      45.357  33.585  28.859  1.00  0.00    -0.206 F 
ATOM     85  C   UNL A   1      45.499  35.034  30.700  1.00  0.00     0.059 A 
ATOM     86  C   UNL A   1      44.996  34.204  32.926  1.00  0.00     0.059 A 
ATOM     87  F   UNL A   1      44.408  31.954  33.222  1.00  0.00    -0.206 F 
ATOM     88  C   UNL A   1      45.374  35.241  32.075  1.00  0.00     0.060 A 
BRANCH  88  89
ATOM     89  S   UNL A   1      45.671  36.898  32.732  1.00  0.00     0.124 S 
ATOM     90  O   UNL A   1      45.197  36.761  34.104  1.00  0.00    -0.237 OA
ATOM     91  O   UNL A   1      47.115  37.036  32.564  1.00  0.00    -0.237 OA
ATOM     92  O   UNL A   1      44.864  37.753  31.866  1.00  0.00    -0.744 OA
ENDBRANCH  88  89
ENDBRANCH  56  81
BRANCH  68  93
ATOM     93  C   UNL A   1      48.920  27.131  29.823  1.00  0.00     0.058 A 
ATOM     94  C   UNL A   1      49.872  27.662  28.940  1.00  0.00     0.135 A 
ATOM     95  C   UNL A   1      49.391  26.401  30.928  1.00  0.00     0.135 A 
ATOM     96  F   UNL A   1      49.480  28.363  27.864  1.00  0.00    -0.206 F 
ATOM     97  C   UNL A   1      51.236  27.457  29.131  1.00  0.00     0.059 A 
ATOM     98  C   UNL A   1      50.750  26.212  31.157  1.00  0.00     0.059 A 
ATOM     99  F   UNL A   1      48.526  25.880  31.813  1.00  0.00    -0.206 F 
ATOM    100  C   UNL A   1      51.665  26.734  30.245  1.00  0.00     0.060 A 
BRANCH 100 101
ATOM    101  S   UNL A   1      53.438  26.505  30.498  1.00  0.00     0.124 S 
ATOM    102  O   UNL A   1      53.824  27.795  31.062  1.00  0.00    -0.237 OA
ATOM    103  O   UNL A   1      53.477  25.372  31.419  1.00  0.00    -0.237 OA
ATOM    104  O   UNL A   1      53.942  26.231  29.156  1.00  0.00    -0.744 OA
ENDBRANCH 100 101
ENDBRANCH  68  93
ENDBRANCH  42  43
ENDBRANCH  35  37
ENDBRANCH  34  35
ENDBRANCH  33  34
ENDBRANCH  32  33
ENDBRANCH  31  32
ENDBRANCH  30  31
ENDBRANCH  29  30
ENDBRANCH  28  29
ENDBRANCH   1  28
TORSDOF 28
ENDMDL
MODEL 2
REMARK VINA RESULT:      -6.3      5.751      9.473
REMARK SMILES CC(=O)NCCNC(=O)C[N@H+]1CC[C@@H](C(=O)OCCOCCOCCOCCOC(=O)c2ccc(-c3c4nc(c(-c5c(F)cc(S(=O)(=O)[O-])cc5F)c5ccc([nH]5)c(-c5c(F)cc(S(=O)(=O)[O-])cc5F)c5nc(c(-c6c(F)cc(S(=O)(=O)[O-])cc6F)c6ccc3[nH]6)C=C5)C=C4)cc2)[C@H]1C
REMARK SMILES IDX 22 1 21 2 20 3 19 4 18 5 17 6 15 7 16 8 14 9 11 10 12 11
REMARK SMILES IDX 98 12 13 14 99 15 10 16 8 17 7 18 9 20 6 21 5 22 4 23 1 24
REMARK SMILES IDX 2 25 3 26 23 28 24 29 25 30 26 31 27 32 28 33 29 34 30 35
REMARK SMILES IDX 31 36 32 37 33 38 97 39 34 40 96 41 35 42 36 43 37 44 90 45
REMARK SMILES IDX 38 46 95 47 89 48 91 49 39 50 94 51 88 52 87 53 40 55 74 56
REMARK SMILES IDX 53 57 73 58 54 59 57 60 72 61 92 62 55 63 56 64 71 66 93 67
REMARK SMILES IDX 58 68 41 69 42 70 51 71 43 72 44 73 50 74 52 75 45 76 46 77
REMARK SMILES IDX 47 78 48 79 49 80 75 81 76 82 85 83 77 84 78 85 84 86 86 87
REMARK SMILES IDX 79 88 80 89 81 90 82 91 83 92 59 93 60 94 69 95 61 96 62 97
REMARK SMILES IDX 68 98 70 99 63 100 64 101 65 102 66 103 67 104
REMARK H PARENT 11 13 7 19 4 27 91 54 57 65
REMARK Flexibility Score: inf
ROOT
ATOM      1  C   UNL A   1      35.122  33.065  30.276  1.00  0.00     0.188 C 
ENDROOT
BRANCH   1   2
ATOM      2  C   UNL A   1      34.382  33.110  28.925  1.00  0.00     0.188 C 
BRANCH   2   3
ATOM      3  O   UNL A   1      34.614  32.008  28.081  1.00  0.00    -0.376 OA
BRANCH   3   4
ATOM      4  C   UNL A   1      33.576  31.454  27.294  1.00  0.00     0.202 C 
BRANCH   4   5
ATOM      5  C   UNL A   1      33.195  29.963  27.294  1.00  0.00     0.261 C 
BRANCH   5   6
ATOM      6  O   UNL A   1      32.381  29.497  26.213  1.00  0.00    -0.463 OA
BRANCH   6   7
ATOM      7  C   UNL A   1      32.987  28.691  25.321  1.00  0.00     0.315 C 
ATOM      8  O   UNL A   1      33.930  29.043  24.614  1.00  0.00    -0.252 OA
BRANCH   7   9
ATOM      9  C   UNL A   1      32.469  27.269  25.273  1.00  0.00     0.162 C 
ATOM     10  N   UNL A   1      31.866  25.181  24.355  1.00  0.00    -0.324 N 
ATOM     11  C   UNL A   1      33.110  24.983  25.098  1.00  0.00     0.264 C 
ATOM     12  C   UNL A   1      31.632  26.639  24.142  1.00  0.00     0.195 C 
ATOM     13  H   UNL A   1      31.071  24.875  24.917  1.00  0.00     0.348 HD
ATOM     14  C   UNL A   1      33.678  26.353  25.352  1.00  0.00     0.083 C 
ATOM     15  C   UNL A   1      31.891  27.143  22.723  1.00  0.00     0.076 C 
BRANCH  10  16
ATOM     16  C   UNL A   1      31.712  24.277  23.207  1.00  0.00     0.363 C 
BRANCH  16  17
ATOM     17  C   UNL A   1      33.033  23.577  22.886  1.00  0.00     0.275 C 
ATOM     18  N   UNL A   1      33.186  22.262  23.242  1.00  0.00    -0.349 N 
ATOM     19  H   UNL A   1      34.103  21.905  23.202  1.00  0.00     0.163 HD
ATOM     20  O   UNL A   1      33.981  24.159  22.357  1.00  0.00    -0.269 OA
BRANCH  18  21
ATOM     21  C   UNL A   1      32.155  21.331  23.673  1.00  0.00     0.137 C 
BRANCH  21  22
ATOM     22  C   UNL A   1      32.549  20.650  24.987  1.00  0.00     0.137 C 
BRANCH  22  23
ATOM     23  N   UNL A   1      32.183  21.481  26.126  1.00  0.00    -0.355 N 
ATOM     24  C   UNL A   1      34.496  21.929  26.838  1.00  0.00     0.114 C 
ATOM     25  C   UNL A   1      33.012  22.023  27.064  1.00  0.00     0.216 C 
ATOM     26  O   UNL A   1      32.538  22.581  28.051  1.00  0.00    -0.275 OA
ATOM     27  H   UNL A   1      31.224  21.674  26.231  1.00  0.00     0.163 HD
ENDBRANCH  22  23
ENDBRANCH  21  22
ENDBRANCH  18  21
ENDBRANCH  16  17
ENDBRANCH  10  16
ENDBRANCH   7   9
ENDBRANCH   6   7
ENDBRANCH   5   6
ENDBRANCH   4   5
ENDBRANCH   3   4
ENDBRANCH   2   3
ENDBRANCH   1   2
BRANCH   1  28
ATOM     28  O   UNL A   1      36.422  32.505  30.372  1.00  0.00    -0.377 OA
BRANCH  28  29
ATOM     29  C   UNL A   1      37.380  33.053  31.272  1.00  0.00     0.188 C 
BRANCH  29  30
ATOM     30  C   UNL A   1      38.145  34.341  30.903  1.00  0.00     0.188 C 
BRANCH  30  31
ATOM     31  O   UNL A   1      38.712  34.340  29.604  1.00  0.00    -0.376 OA
BRANCH  31  32
ATOM     32  C   UNL A   1      40.126  34.452  29.524  1.00  0.00     0.202 C 
BRANCH  32  33
ATOM     33  C   UNL A   1      40.697  35.739  28.905  1.00  0.00     0.261 C 
BRANCH  33  34
ATOM     34  O   UNL A   1      40.979  35.701  27.495  1.00  0.00    -0.460 OA
BRANCH  34  35
ATOM     35  C   UNL A   1      42.157  36.200  27.068  1.00  0.00     0.338 C 
ATOM     36  O   UNL A   1      42.456  37.374  26.926  1.00  0.00    -0.246 OA
BRANCH  35  37
ATOM     37  C   UNL A   1      43.110  35.076  26.976  1.00  0.00     0.060 A 
ATOM     38  C   UNL A   1      43.675  34.559  28.149  1.00  0.00     0.016 A 
ATOM     39  C   UNL A   1      43.444  34.539  25.730  1.00  0.00     0.016 A 
ATOM     40  C   UNL A   1      44.609  33.525  28.075  1.00  0.00     0.010 A 
ATOM     41  C   UNL A   1      44.394  33.517  25.658  1.00  0.00     0.010 A 
ATOM     42  C   UNL A   1      45.007  33.030  26.826  1.00  0.00    -0.014 A 
BRANCH  42  43
ATOM     43  C   UNL A   1      46.205  32.159  26.727  1.00  0.00     0.031 A 
ATOM     44  C   UNL A   1      46.004  30.668  26.790  1.00  0.00     0.074 A 
ATOM     45  C   UNL A   1      47.438  32.671  26.564  1.00  0.00     0.049 A 
ATOM     46  N   UNL A   1      46.892  29.708  26.777  1.00  0.00    -0.248 NA
ATOM     47  C   UNL A   1      44.611  30.199  26.883  1.00  0.00     0.031 C 
ATOM     48  C   UNL A   1      47.756  34.092  26.446  1.00  0.00     0.029 A 
ATOM     49  N   UNL A   1      48.658  32.045  26.479  1.00  0.00    -0.354 N 
ATOM     50  C   UNL A   1      46.168  28.525  26.868  1.00  0.00     0.074 A 
ATOM     51  C   UNL A   1      44.771  28.888  26.969  1.00  0.00     0.031 C 
ATOM     52  C   UNL A   1      49.087  34.232  26.318  1.00  0.00     0.029 A 
ATOM     53  C   UNL A   1      49.719  32.914  26.382  1.00  0.00     0.049 A 
ATOM     54  H   UNL A   1      48.763  31.066  26.489  1.00  0.00     0.167 HD
ATOM     55  C   UNL A   1      46.625  27.251  26.860  1.00  0.00     0.037 A 
ATOM     56  C   UNL A   1      51.046  32.671  26.370  1.00  0.00     0.037 A 
ATOM     57  C   UNL A   1      48.017  26.896  26.765  1.00  0.00     0.049 A 
ATOM     58  C   UNL A   1      51.537  31.246  26.441  1.00  0.00     0.074 A 
ATOM     59  C   UNL A   1      48.582  25.635  26.733  1.00  0.00     0.029 A 
ATOM     60  N   UNL A   1      49.063  27.805  26.696  1.00  0.00    -0.354 N 
ATOM     61  N   UNL A   1      50.843  30.134  26.502  1.00  0.00    -0.248 NA
ATOM     62  C   UNL A   1      52.993  31.041  26.436  1.00  0.00     0.031 C 
ATOM     63  C   UNL A   1      49.973  25.780  26.709  1.00  0.00     0.029 A 
ATOM     64  C   UNL A   1      50.272  27.131  26.653  1.00  0.00     0.049 A 
ATOM     65  H   UNL A   1      48.961  28.784  26.681  1.00  0.00     0.167 HD
ATOM     66  C   UNL A   1      51.775  29.099  26.510  1.00  0.00     0.074 A 
ATOM     67  C   UNL A   1      53.082  29.718  26.436  1.00  0.00     0.031 C 
ATOM     68  C   UNL A   1      51.568  27.760  26.569  1.00  0.00     0.037 A 
BRANCH  55  69
ATOM     69  C   UNL A   1      45.613  26.145  26.991  1.00  0.00     0.058 A 
ATOM     70  C   UNL A   1      45.223  25.638  28.243  1.00  0.00     0.135 A 
ATOM     71  C   UNL A   1      44.999  25.605  25.849  1.00  0.00     0.135 A 
ATOM     72  F   UNL A   1      45.791  26.102  29.367  1.00  0.00    -0.206 F 
ATOM     73  C   UNL A   1      44.280  24.622  28.354  1.00  0.00     0.059 A 
ATOM     74  C   UNL A   1      44.031  24.610  25.939  1.00  0.00     0.059 A 
ATOM     75  F   UNL A   1      45.337  26.048  24.627  1.00  0.00    -0.206 F 
ATOM     76  C   UNL A   1      43.688  24.115  27.196  1.00  0.00     0.060 A 
BRANCH  76  77
ATOM     77  S   UNL A   1      42.457  22.805  27.360  1.00  0.00     0.124 S 
ATOM     78  O   UNL A   1      42.918  21.845  26.361  1.00  0.00    -0.237 OA
ATOM     79  O   UNL A   1      42.620  22.398  28.752  1.00  0.00    -0.237 OA
ATOM     80  O   UNL A   1      41.199  23.477  27.048  1.00  0.00    -0.744 OA
ENDBRANCH  76  77
ENDBRANCH  55  69
BRANCH  56  81
ATOM     81  C   UNL A   1      52.012  33.804  26.306  1.00  0.00     0.058 A 
ATOM     82  C   UNL A   1      52.452  34.316  25.077  1.00  0.00     0.135 A 
ATOM     83  C   UNL A   1      52.520  34.391  27.477  1.00  0.00     0.135 A 
ATOM     84  F   UNL A   1      52.010  33.781  23.930  1.00  0.00    -0.206 F 
ATOM     85  C   UNL A   1      53.372  35.360  25.008  1.00  0.00     0.059 A 
ATOM     86  C   UNL A   1      53.417  35.454  27.434  1.00  0.00     0.059 A 
ATOM     87  F   UNL A   1      52.127  33.944  28.679  1.00  0.00    -0.206 F 
ATOM     88  C   UNL A   1      53.844  35.925  26.194  1.00  0.00     0.060 A 
BRANCH  88  89
ATOM     89  S   UNL A   1      54.994  37.315  26.093  1.00  0.00     0.124 S 
ATOM     90  O   UNL A   1      55.300  37.342  24.668  1.00  0.00    -0.237 OA
ATOM     91  O   UNL A   1      54.180  38.419  26.594  1.00  0.00    -0.237 OA
ATOM     92  O   UNL A   1      56.090  36.909  26.967  1.00  0.00    -0.744 OA
ENDBRANCH  88  89
ENDBRANCH  56  81
BRANCH  68  93
ATOM     93  C   UNL A   1      52.776  26.860  26.510  1.00  0.00     0.058 A 
ATOM     94  C   UNL A   1      53.512  26.525  27.656  1.00  0.00     0.135 A 
ATOM     95  C   UNL A   1      53.164  26.276  25.292  1.00  0.00     0.135 A 
ATOM     96  F   UNL A   1      53.190  27.058  28.846  1.00  0.00    -0.206 F 
ATOM     97  C   UNL A   1      54.604  25.665  27.594  1.00  0.00     0.059 A 
ATOM     98  C   UNL A   1      54.231  25.387  25.212  1.00  0.00     0.059 A 
ATOM     99  F   UNL A   1      52.488  26.550  24.164  1.00  0.00    -0.206 F 
ATOM    100  C   UNL A   1      54.954  25.097  26.367  1.00  0.00     0.060 A 
BRANCH 100 101
ATOM    101  S   UNL A   1      56.352  23.956  26.308  1.00  0.00     0.124 S 
ATOM    102  O   UNL A   1      57.170  24.435  27.418  1.00  0.00    -0.237 OA
ATOM    103  O   UNL A   1      55.706  22.662  26.507  1.00  0.00    -0.237 OA
ATOM    104  O   UNL A   1      56.912  24.171  24.977  1.00  0.00    -0.744 OA
ENDBRANCH 100 101
ENDBRANCH  68  93
ENDBRANCH  42  43
ENDBRANCH  35  37
ENDBRANCH  34  35
ENDBRANCH  33  34
ENDBRANCH  32  33
ENDBRANCH  31  32
ENDBRANCH  30  31
ENDBRANCH  29  30
ENDBRANCH  28  29
ENDBRANCH   1  28
TORSDOF 28
ENDMDL
MODEL 3
REMARK VINA RESULT:      -6.2      5.519      9.854
REMARK SMILES CC(=O)NCCNC(=O)C[N@H+]1CC[C@@H](C(=O)OCCOCCOCCOCCOC(=O)c2ccc(-c3c4nc(c(-c5c(F)cc(S(=O)(=O)[O-])cc5F)c5ccc([nH]5)c(-c5c(F)cc(S(=O)(=O)[O-])cc5F)c5nc(c(-c6c(F)cc(S(=O)(=O)[O-])cc6F)c6ccc3[nH]6)C=C5)C=C4)cc2)[C@H]1C
REMARK SMILES IDX 22 1 21 2 20 3 19 4 18 5 17 6 15 7 16 8 14 9 11 10 12 11
REMARK SMILES IDX 98 12 13 14 99 15 10 16 8 17 7 18 9 20 6 21 5 22 4 23 1 24
REMARK SMILES IDX 2 25 3 26 23 28 24 29 25 30 26 31 27 32 28 33 29 34 30 35
REMARK SMILES IDX 31 36 32 37 33 38 97 39 34 40 96 41 35 42 36 43 37 44 90 45
REMARK SMILES IDX 38 46 95 47 89 48 91 49 39 50 94 51 88 52 87 53 40 55 74 56
REMARK SMILES IDX 53 57 73 58 54 59 57 60 72 61 92 62 55 63 56 64 71 66 93 67
REMARK SMILES IDX 58 68 41 69 42 70 51 71 43 72 44 73 50 74 52 75 45 76 46 77
REMARK SMILES IDX 47 78 48 79 49 80 75 81 76 82 85 83 77 84 78 85 84 86 86 87
REMARK SMILES IDX 79 88 80 89 81 90 82 91 83 92 59 93 60 94 69 95 61 96 62 97
REMARK SMILES IDX 68 98 70 99 63 100 64 101 65 102 66 103 67 104
REMARK H PARENT 11 13 7 19 4 27 91 54 57 65
REMARK Flexibility Score: inf
ROOT
ATOM      1  C   UNL A   1      34.266  33.777  30.819  1.00  0.00     0.188 C 
ENDROOT
BRANCH   1   2
ATOM      2  C   UNL A   1      34.363  33.344  29.343  1.00  0.00     0.188 C 
BRANCH   2   3
ATOM      3  O   UNL A   1      34.382  31.953  29.129  1.00  0.00    -0.376 OA
BRANCH   3   4
ATOM      4  C   UNL A   1      34.781  31.406  27.886  1.00  0.00     0.202 C 
BRANCH   4   5
ATOM      5  C   UNL A   1      34.315  30.039  27.356  1.00  0.00     0.261 C 
BRANCH   5   6
ATOM      6  O   UNL A   1      32.917  29.747  27.444  1.00  0.00    -0.463 OA
BRANCH   6   7
ATOM      7  C   UNL A   1      32.148  30.221  26.446  1.00  0.00     0.315 C 
ATOM      8  O   UNL A   1      31.596  31.321  26.473  1.00  0.00    -0.252 OA
BRANCH   7   9
ATOM      9  C   UNL A   1      32.042  29.329  25.227  1.00  0.00     0.162 C 
ATOM     10  N   UNL A   1      31.348  27.515  23.887  1.00  0.00    -0.324 N 
ATOM     11  C   UNL A   1      30.640  28.701  23.408  1.00  0.00     0.264 C 
ATOM     12  C   UNL A   1      31.945  27.790  25.227  1.00  0.00     0.195 C 
ATOM     13  H   UNL A   1      32.150  27.320  23.287  1.00  0.00     0.348 HD
ATOM     14  C   UNL A   1      30.789  29.749  24.479  1.00  0.00     0.083 C 
ATOM     15  C   UNL A   1      31.228  27.139  26.409  1.00  0.00     0.076 C 
BRANCH  10  16
ATOM     16  C   UNL A   1      30.600  26.264  23.703  1.00  0.00     0.363 C 
BRANCH  16  17
ATOM     17  C   UNL A   1      31.460  25.216  22.997  1.00  0.00     0.275 C 
ATOM     18  N   UNL A   1      31.735  24.041  23.649  1.00  0.00    -0.349 N 
ATOM     19  H   UNL A   1      32.444  23.482  23.255  1.00  0.00     0.163 HD
ATOM     20  O   UNL A   1      31.951  25.401  21.882  1.00  0.00    -0.269 OA
BRANCH  18  21
ATOM     21  C   UNL A   1      31.105  23.523  24.853  1.00  0.00     0.137 C 
BRANCH  21  22
ATOM     22  C   UNL A   1      32.084  22.658  25.653  1.00  0.00     0.137 C 
BRANCH  22  23
ATOM     23  N   UNL A   1      31.754  21.246  25.513  1.00  0.00    -0.355 N 
ATOM     24  C   UNL A   1      34.069  20.505  25.123  1.00  0.00     0.114 C 
ATOM     25  C   UNL A   1      32.592  20.222  25.183  1.00  0.00     0.216 C 
ATOM     26  O   UNL A   1      32.135  19.104  24.959  1.00  0.00    -0.275 OA
ATOM     27  H   UNL A   1      30.814  21.002  25.676  1.00  0.00     0.163 HD
ENDBRANCH  22  23
ENDBRANCH  21  22
ENDBRANCH  18  21
ENDBRANCH  16  17
ENDBRANCH  10  16
ENDBRANCH   7   9
ENDBRANCH   6   7
ENDBRANCH   5   6
ENDBRANCH   4   5
ENDBRANCH   3   4
ENDBRANCH   2   3
ENDBRANCH   1   2
BRANCH   1  28
ATOM     28  O   UNL A   1      35.227  33.339  31.767  1.00  0.00    -0.377 OA
BRANCH  28  29
ATOM     29  C   UNL A   1      36.229  34.232  32.245  1.00  0.00     0.188 C 
BRANCH  29  30
ATOM     30  C   UNL A   1      36.342  34.538  33.752  1.00  0.00     0.188 C 
BRANCH  30  31
ATOM     31  O   UNL A   1      37.654  34.838  34.197  1.00  0.00    -0.376 OA
BRANCH  31  32
ATOM     32  C   UNL A   1      38.206  33.979  35.185  1.00  0.00     0.202 C 
BRANCH  32  33
ATOM     33  C   UNL A   1      37.607  32.567  35.305  1.00  0.00     0.261 C 
BRANCH  33  34
ATOM     34  O   UNL A   1      38.379  31.494  34.740  1.00  0.00    -0.460 OA
BRANCH  34  35
ATOM     35  C   UNL A   1      38.141  31.144  33.459  1.00  0.00     0.338 C 
ATOM     36  O   UNL A   1      37.074  30.814  32.968  1.00  0.00    -0.246 OA
BRANCH  35  37
ATOM     37  C   UNL A   1      39.371  31.410  32.688  1.00  0.00     0.060 A 
ATOM     38  C   UNL A   1      40.613  31.342  33.334  1.00  0.00     0.016 A 
ATOM     39  C   UNL A   1      39.294  31.729  31.330  1.00  0.00     0.016 A 
ATOM     40  C   UNL A   1      41.782  31.632  32.629  1.00  0.00     0.010 A 
ATOM     41  C   UNL A   1      40.464  32.038  30.632  1.00  0.00     0.010 A 
ATOM     42  C   UNL A   1      41.709  32.026  31.286  1.00  0.00    -0.014 A 
BRANCH  42  43
ATOM     43  C   UNL A   1      42.898  32.623  30.628  1.00  0.00     0.031 A 
ATOM     44  C   UNL A   1      43.865  31.698  29.937  1.00  0.00     0.074 A 
ATOM     45  C   UNL A   1      43.109  33.951  30.622  1.00  0.00     0.049 A 
ATOM     46  N   UNL A   1      44.995  31.972  29.340  1.00  0.00    -0.248 NA
ATOM     47  C   UNL A   1      43.507  30.269  29.923  1.00  0.00     0.031 C 
ATOM     48  C   UNL A   1      42.225  34.951  31.218  1.00  0.00     0.029 A 
ATOM     49  N   UNL A   1      44.145  34.686  30.100  1.00  0.00    -0.354 N 
ATOM     50  C   UNL A   1      45.486  30.753  28.886  1.00  0.00     0.074 A 
ATOM     51  C   UNL A   1      44.548  29.734  29.305  1.00  0.00     0.031 C 
ATOM     52  C   UNL A   1      42.764  36.170  31.040  1.00  0.00     0.029 A 
ATOM     53  C   UNL A   1      44.047  36.034  30.351  1.00  0.00     0.049 A 
ATOM     54  H   UNL A   1      44.889  34.285  29.594  1.00  0.00     0.167 HD
ATOM     55  C   UNL A   1      46.612  30.505  28.177  1.00  0.00     0.037 A 
ATOM     56  C   UNL A   1      44.908  37.036  30.077  1.00  0.00     0.037 A 
ATOM     57  C   UNL A   1      47.544  31.523  27.767  1.00  0.00     0.049 A 
ATOM     58  C   UNL A   1      46.196  36.727  29.353  1.00  0.00     0.074 A 
ATOM     59  C   UNL A   1      48.707  31.378  27.033  1.00  0.00     0.029 A 
ATOM     60  N   UNL A   1      47.425  32.873  28.065  1.00  0.00    -0.354 N 
ATOM     61  N   UNL A   1      46.638  35.575  28.908  1.00  0.00    -0.248 NA
ATOM     62  C   UNL A   1      47.101  37.856  29.091  1.00  0.00     0.031 C 
ATOM     63  C   UNL A   1      49.324  32.629  26.940  1.00  0.00     0.029 A 
ATOM     64  C   UNL A   1      48.510  33.567  27.555  1.00  0.00     0.049 A 
ATOM     65  H   UNL A   1      46.680  33.278  28.565  1.00  0.00     0.167 HD
ATOM     66  C   UNL A   1      47.855  35.845  28.286  1.00  0.00     0.074 A 
ATOM     67  C   UNL A   1      48.072  37.272  28.402  1.00  0.00     0.031 C 
ATOM     68  C   UNL A   1      48.710  34.991  27.669  1.00  0.00     0.037 A 
BRANCH  55  69
ATOM     69  C   UNL A   1      46.917  29.074  27.828  1.00  0.00     0.058 A 
ATOM     70  C   UNL A   1      46.470  28.489  26.630  1.00  0.00     0.135 A 
ATOM     71  C   UNL A   1      47.696  28.283  28.688  1.00  0.00     0.135 A 
ATOM     72  F   UNL A   1      45.705  29.191  25.779  1.00  0.00    -0.206 F 
ATOM     73  C   UNL A   1      46.764  27.168  26.312  1.00  0.00     0.059 A 
ATOM     74  C   UNL A   1      48.029  26.969  28.375  1.00  0.00     0.059 A 
ATOM     75  F   UNL A   1      48.146  28.788  29.848  1.00  0.00    -0.206 F 
ATOM     76  C   UNL A   1      47.547  26.416  27.190  1.00  0.00     0.060 A 
BRANCH  76  77
ATOM     77  S   UNL A   1      47.929  24.707  26.755  1.00  0.00     0.124 S 
ATOM     78  O   UNL A   1      47.916  24.767  25.296  1.00  0.00    -0.237 OA
ATOM     79  O   UNL A   1      49.239  24.516  27.369  1.00  0.00    -0.237 OA
ATOM     80  O   UNL A   1      46.839  23.947  27.360  1.00  0.00    -0.744 OA
ENDBRANCH  76  77
ENDBRANCH  55  69
BRANCH  56  81
ATOM     81  C   UNL A   1      44.593  38.429  30.502  1.00  0.00     0.058 A 
ATOM     82  C   UNL A   1      43.829  39.282  29.692  1.00  0.00     0.135 A 
ATOM     83  C   UNL A   1      45.058  38.937  31.726  1.00  0.00     0.135 A 
ATOM     84  F   UNL A   1      43.373  38.852  28.507  1.00  0.00    -0.206 F 
ATOM     85  C   UNL A   1      43.548  40.593  30.072  1.00  0.00     0.059 A 
ATOM     86  C   UNL A   1      44.766  40.233  32.141  1.00  0.00     0.059 A 
ATOM     87  F   UNL A   1      45.788  38.162  32.543  1.00  0.00    -0.206 F 
ATOM     88  C   UNL A   1      44.018  41.056  31.302  1.00  0.00     0.060 A 
BRANCH  88  89
ATOM     89  S   UNL A   1      43.601  42.739  31.810  1.00  0.00     0.124 S 
ATOM     90  O   UNL A   1      44.478  42.926  32.959  1.00  0.00    -0.237 OA
ATOM     91  O   UNL A   1      43.939  43.508  30.616  1.00  0.00    -0.237 OA
ATOM     92  O   UNL A   1      42.175  42.657  32.109  1.00  0.00    -0.744 OA
ENDBRANCH  88  89
ENDBRANCH  56  81
BRANCH  68  93
ATOM     93  C   UNL A   1      49.944  35.574  27.030  1.00  0.00     0.058 A 
ATOM     94  C   UNL A   1      51.180  35.609  27.692  1.00  0.00     0.135 A 
ATOM     95  C   UNL A   1      49.898  36.050  25.709  1.00  0.00     0.135 A 
ATOM     96  F   UNL A   1      51.282  35.172  28.958  1.00  0.00    -0.206 F 
ATOM     97  C   UNL A   1      52.321  36.118  27.078  1.00  0.00     0.059 A 
ATOM     98  C   UNL A   1      51.032  36.532  25.062  1.00  0.00     0.059 A 
ATOM     99  F   UNL A   1      48.744  36.030  25.022  1.00  0.00    -0.206 F 
ATOM    100  C   UNL A   1      52.237  36.573  25.760  1.00  0.00     0.060 A 
BRANCH 100 101
ATOM    101  S   UNL A   1      53.732  37.199  24.964  1.00  0.00     0.124 S 
ATOM    102  O   UNL A   1      53.901  36.250  23.868  1.00  0.00    -0.237 OA
ATOM    103  O   UNL A   1      53.337  38.551  24.578  1.00  0.00    -0.237 OA
ATOM    104  O   UNL A   1      54.738  37.124  26.020  1.00  0.00    -0.744 OA
ENDBRANCH 100 101
ENDBRANCH  68  93
ENDBRANCH  42  43
ENDBRANCH  35  37
ENDBRANCH  34  35
ENDBRANCH  33  34
ENDBRANCH  32  33
ENDBRANCH  31  32
ENDBRANCH  30  31
ENDBRANCH  29  30
ENDBRANCH  28  29
ENDBRANCH   1  28
TORSDOF 28
ENDMDL
