MODEL 1
REMARK VINA RESULT:      -9.5      0.000      0.000
REMARK SMILES O=C(OCCOCCOCCOCCOC(=O)c1cnc(-c2ccccc2Cl)nc1)c1ccc(-c2c3nc(c(-c4c(F)cc(S(=O)(=O)[O-])cc4F)c4ccc([nH]4)c(-c4c(F)cc(S(=O)(=O)[O-])cc4F)c4nc(c(-c5c(F)cc(S(=O)(=O)[O-])cc5F)c5ccc2[nH]5)C=C4)C=C3)cc1
REMARK SMILES IDX 8 1 7 2 6 3 5 4 4 5 3 6 2 7 1 8 31 9 32 10 96 11 33 12 95 13
REMARK SMILES IDX 34 14 35 15 36 16 89 17 37 18 94 19 88 20 90 21 38 22 93 23
REMARK SMILES IDX 87 24 86 25 39 27 73 28 52 29 72 30 53 31 56 32 71 33 91 34
REMARK SMILES IDX 54 35 55 36 70 38 92 39 57 40 40 41 41 42 50 43 42 44 43 45
REMARK SMILES IDX 49 46 51 47 44 48 45 49 46 50 47 51 48 52 74 53 75 54 84 55
REMARK SMILES IDX 76 56 77 57 83 58 85 59 78 60 79 61 80 62 81 63 82 64 58 65
REMARK SMILES IDX 59 66 68 67 60 68 61 69 67 70 69 71 62 72 63 73 64 74 65 75
REMARK SMILES IDX 66 76 9 77 10 78 11 79 12 80 13 81 14 82 15 83 16 84 17 85
REMARK SMILES IDX 18 86 19 87 30 88 20 89 29 90 21 91 22 92 23 93 27 94 24 95
REMARK SMILES IDX 26 96 28 97 25 98
REMARK H PARENT 90 26 56 37
REMARK Flexibility Score: inf
ROOT
ATOM      1  C   UNL A   1      33.967  26.339  24.622  1.00  0.00     0.188 C 
ENDROOT
BRANCH   1   2
ATOM      2  C   UNL A   1      34.131  25.423  25.836  1.00  0.00     0.188 C 
BRANCH   2   3
ATOM      3  O   UNL A   1      34.491  24.105  25.414  1.00  0.00    -0.376 OA
BRANCH   3   4
ATOM      4  C   UNL A   1      35.322  24.041  24.256  1.00  0.00     0.202 C 
BRANCH   4   5
ATOM      5  C   UNL A   1      36.512  23.089  24.392  1.00  0.00     0.261 C 
BRANCH   5   6
ATOM      6  O   UNL A   1      37.005  23.026  25.738  1.00  0.00    -0.460 OA
BRANCH   6   7
ATOM      7  C   UNL A   1      38.303  22.997  26.138  1.00  0.00     0.338 C 
ATOM      8  O   UNL A   1      38.940  21.957  25.976  1.00  0.00    -0.246 OA
BRANCH   7   9
ATOM      9  C   UNL A   1      39.016  24.168  26.741  1.00  0.00     0.060 A 
ATOM     10  C   UNL A   1      39.073  24.462  28.104  1.00  0.00     0.016 A 
ATOM     11  C   UNL A   1      39.749  24.987  25.865  1.00  0.00     0.016 A 
ATOM     12  C   UNL A   1      39.764  25.563  28.587  1.00  0.00     0.010 A 
ATOM     13  C   UNL A   1      40.482  26.079  26.345  1.00  0.00     0.010 A 
ATOM     14  C   UNL A   1      40.470  26.380  27.711  1.00  0.00    -0.014 A 
BRANCH  14  15
ATOM     15  C   UNL A   1      41.080  27.607  28.254  1.00  0.00     0.031 A 
ATOM     16  C   UNL A   1      42.572  27.733  28.197  1.00  0.00     0.074 A 
ATOM     17  C   UNL A   1      40.295  28.623  28.659  1.00  0.00     0.049 A 
ATOM     18  N   UNL A   1      43.339  28.675  28.671  1.00  0.00    -0.248 NA
ATOM     19  C   UNL A   1      43.299  26.658  27.495  1.00  0.00     0.031 C 
ATOM     20  C   UNL A   1      38.828  28.624  28.619  1.00  0.00     0.029 A 
ATOM     21  N   UNL A   1      40.613  29.856  29.161  1.00  0.00    -0.354 N 
ATOM     22  C   UNL A   1      44.637  28.287  28.364  1.00  0.00     0.074 A 
ATOM     23  C   UNL A   1      44.560  27.035  27.650  1.00  0.00     0.031 C 
ATOM     24  C   UNL A   1      38.377  29.805  29.072  1.00  0.00     0.029 A 
ATOM     25  C   UNL A   1      39.514  30.611  29.500  1.00  0.00     0.049 A 
ATOM     26  H   UNL A   1      41.539  30.172  29.267  1.00  0.00     0.167 HD
ATOM     27  C   UNL A   1      45.787  28.926  28.673  1.00  0.00     0.037 A 
ATOM     28  C   UNL A   1      39.448  31.798  30.134  1.00  0.00     0.037 A 
ATOM     29  C   UNL A   1      45.823  30.180  29.373  1.00  0.00     0.049 A 
ATOM     30  C   UNL A   1      40.747  32.445  30.542  1.00  0.00     0.074 A 
ATOM     31  C   UNL A   1      46.920  30.909  29.788  1.00  0.00     0.029 A 
ATOM     32  N   UNL A   1      44.693  30.891  29.759  1.00  0.00    -0.354 N 
ATOM     33  N   UNL A   1      41.975  32.044  30.306  1.00  0.00    -0.248 NA
ATOM     34  C   UNL A   1      40.657  33.686  31.323  1.00  0.00     0.031 C 
ATOM     35  C   UNL A   1      46.453  32.041  30.464  1.00  0.00     0.029 A 
ATOM     36  C   UNL A   1      45.066  32.040  30.430  1.00  0.00     0.049 A 
ATOM     37  H   UNL A   1      43.765  30.617  29.582  1.00  0.00     0.167 HD
ATOM     38  C   UNL A   1      42.805  32.984  30.904  1.00  0.00     0.074 A 
ATOM     39  C   UNL A   1      41.937  33.989  31.488  1.00  0.00     0.031 C 
ATOM     40  C   UNL A   1      44.159  33.015  30.982  1.00  0.00     0.037 A 
BRANCH  27  41
ATOM     41  C   UNL A   1      47.078  28.244  28.325  1.00  0.00     0.058 A 
ATOM     42  C   UNL A   1      47.690  28.392  27.072  1.00  0.00     0.135 A 
ATOM     43  C   UNL A   1      47.717  27.430  29.275  1.00  0.00     0.135 A 
ATOM     44  F   UNL A   1      47.103  29.129  26.115  1.00  0.00    -0.206 F 
ATOM     45  C   UNL A   1      48.890  27.753  26.770  1.00  0.00     0.059 A 
ATOM     46  C   UNL A   1      48.925  26.797  29.002  1.00  0.00     0.059 A 
ATOM     47  F   UNL A   1      47.162  27.239  30.482  1.00  0.00    -0.206 F 
ATOM     48  C   UNL A   1      49.501  26.959  27.743  1.00  0.00     0.060 A 
BRANCH  48  49
ATOM     49  S   UNL A   1      51.067  26.153  27.345  1.00  0.00     0.124 S 
ATOM     50  O   UNL A   1      50.614  24.833  26.918  1.00  0.00    -0.237 OA
ATOM     51  O   UNL A   1      51.599  27.011  26.291  1.00  0.00    -0.237 OA
ATOM     52  O   UNL A   1      51.798  26.188  28.607  1.00  0.00    -0.744 OA
ENDBRANCH  48  49
ENDBRANCH  27  41
BRANCH  28  53
ATOM     53  C   UNL A   1      38.134  32.398  30.502  1.00  0.00     0.058 A 
ATOM     54  C   UNL A   1      37.416  33.205  29.607  1.00  0.00     0.135 A 
ATOM     55  C   UNL A   1      37.587  32.207  31.783  1.00  0.00     0.135 A 
ATOM     56  F   UNL A   1      37.893  33.428  28.374  1.00  0.00    -0.206 F 
ATOM     57  C   UNL A   1      36.223  33.825  29.977  1.00  0.00     0.059 A 
ATOM     58  C   UNL A   1      36.382  32.789  32.164  1.00  0.00     0.059 A 
ATOM     59  F   UNL A   1      38.224  31.438  32.680  1.00  0.00    -0.206 F 
ATOM     60  C   UNL A   1      35.717  33.615  31.261  1.00  0.00     0.060 A 
BRANCH  60  61
ATOM     61  S   UNL A   1      34.174  34.422  31.738  1.00  0.00     0.124 S 
ATOM     62  O   UNL A   1      34.662  35.664  32.324  1.00  0.00    -0.237 OA
ATOM     63  O   UNL A   1      33.482  34.548  30.459  1.00  0.00    -0.237 OA
ATOM     64  O   UNL A   1      33.576  33.474  32.673  1.00  0.00    -0.744 OA
ENDBRANCH  60  61
ENDBRANCH  28  53
BRANCH  40  65
ATOM     65  C   UNL A   1      44.769  34.178  31.705  1.00  0.00     0.058 A 
ATOM     66  C   UNL A   1      44.915  35.426  31.084  1.00  0.00     0.135 A 
ATOM     67  C   UNL A   1      45.143  34.057  33.053  1.00  0.00     0.135 A 
ATOM     68  F   UNL A   1      44.576  35.584  29.795  1.00  0.00    -0.206 F 
ATOM     69  C   UNL A   1      45.427  36.519  31.773  1.00  0.00     0.059 A 
ATOM     70  C   UNL A   1      45.632  35.142  33.767  1.00  0.00     0.059 A 
ATOM     71  F   UNL A   1      45.008  32.883  33.689  1.00  0.00    -0.206 F 
ATOM     72  C   UNL A   1      45.779  36.367  33.115  1.00  0.00     0.060 A 
BRANCH  72  73
ATOM     73  S   UNL A   1      46.395  37.804  34.014  1.00  0.00     0.124 S 
ATOM     74  O   UNL A   1      45.152  38.450  34.420  1.00  0.00    -0.237 OA
ATOM     75  O   UNL A   1      47.174  37.193  35.087  1.00  0.00    -0.237 OA
ATOM     76  O   UNL A   1      47.177  38.522  33.011  1.00  0.00    -0.744 OA
ENDBRANCH  72  73
ENDBRANCH  40  65
ENDBRANCH  14  15
ENDBRANCH   7   9
ENDBRANCH   6   7
ENDBRANCH   5   6
ENDBRANCH   4   5
ENDBRANCH   3   4
ENDBRANCH   2   3
ENDBRANCH   1   2
BRANCH   1  77
ATOM     77  O   UNL A   1      33.087  27.450  24.822  1.00  0.00    -0.377 OA
BRANCH  77  78
ATOM     78  C   UNL A   1      33.198  28.514  23.881  1.00  0.00     0.188 C 
BRANCH  78  79
ATOM     79  C   UNL A   1      31.987  28.813  22.974  1.00  0.00     0.188 C 
BRANCH  79  80
ATOM     80  O   UNL A   1      30.728  28.627  23.605  1.00  0.00    -0.376 OA
BRANCH  80  81
ATOM     81  C   UNL A   1      29.826  27.751  22.938  1.00  0.00     0.202 C 
BRANCH  81  82
ATOM     82  C   UNL A   1      29.425  26.500  23.737  1.00  0.00     0.261 C 
BRANCH  82  83
ATOM     83  O   UNL A   1      30.446  25.491  23.852  1.00  0.00    -0.460 OA
BRANCH  83  84
ATOM     84  C   UNL A   1      30.602  24.874  25.044  1.00  0.00     0.341 C 
ATOM     85  O   UNL A   1      30.259  25.273  26.133  1.00  0.00    -0.246 OA
BRANCH  84  86
ATOM     86  C   UNL A   1      31.059  23.503  24.769  1.00  0.00     0.096 A 
ATOM     87  C   UNL A   1      31.115  22.508  25.721  1.00  0.00     0.131 A 
ATOM     88  C   UNL A   1      31.638  23.202  23.555  1.00  0.00     0.131 A 
ATOM     89  N   UNL A   1      31.695  21.304  25.507  1.00  0.00    -0.236 NA
ATOM     90  N   UNL A   1      32.252  22.024  23.294  1.00  0.00    -0.236 NA
ATOM     91  C   UNL A   1      32.274  21.127  24.302  1.00  0.00     0.160 A 
BRANCH  91  92
ATOM     92  C   UNL A   1      32.847  19.816  24.016  1.00  0.00     0.038 A 
ATOM     93  C   UNL A   1      32.173  18.968  23.117  1.00  0.00     0.013 A 
ATOM     94  C   UNL A   1      34.043  19.354  24.587  1.00  0.00     0.052 A 
ATOM     95  C   UNL A   1      32.670  17.703  22.799  1.00  0.00     0.001 A 
ATOM     96  C   UNL A   1      34.542  18.082  24.268  1.00  0.00     0.021 A 
ATOM     97  Cl  UNL A   1      34.964  20.315  25.694  1.00  0.00    -0.084 Cl
ATOM     98  C   UNL A   1      33.856  17.258  23.374  1.00  0.00     0.002 A 
ENDBRANCH  91  92
ENDBRANCH  84  86
ENDBRANCH  83  84
ENDBRANCH  82  83
ENDBRANCH  81  82
ENDBRANCH  80  81
ENDBRANCH  79  80
ENDBRANCH  78  79
ENDBRANCH  77  78
ENDBRANCH   1  77
TORSDOF 24
ENDMDL
MODEL 2
REMARK VINA RESULT:      -9.5      3.272      8.578
REMARK SMILES O=C(OCCOCCOCCOCCOC(=O)c1cnc(-c2ccccc2Cl)nc1)c1ccc(-c2c3nc(c(-c4c(F)cc(S(=O)(=O)[O-])cc4F)c4ccc([nH]4)c(-c4c(F)cc(S(=O)(=O)[O-])cc4F)c4nc(c(-c5c(F)cc(S(=O)(=O)[O-])cc5F)c5ccc2[nH]5)C=C4)C=C3)cc1
REMARK SMILES IDX 8 1 7 2 6 3 5 4 4 5 3 6 2 7 1 8 31 9 32 10 96 11 33 12 95 13
REMARK SMILES IDX 34 14 35 15 36 16 89 17 37 18 94 19 88 20 90 21 38 22 93 23
REMARK SMILES IDX 87 24 86 25 39 27 73 28 52 29 72 30 53 31 56 32 71 33 91 34
REMARK SMILES IDX 54 35 55 36 70 38 92 39 57 40 40 41 41 42 50 43 42 44 43 45
REMARK SMILES IDX 49 46 51 47 44 48 45 49 46 50 47 51 48 52 74 53 75 54 84 55
REMARK SMILES IDX 76 56 77 57 83 58 85 59 78 60 79 61 80 62 81 63 82 64 58 65
REMARK SMILES IDX 59 66 68 67 60 68 61 69 67 70 69 71 62 72 63 73 64 74 65 75
REMARK SMILES IDX 66 76 9 77 10 78 11 79 12 80 13 81 14 82 15 83 16 84 17 85
REMARK SMILES IDX 18 86 19 87 30 88 20 89 29 90 21 91 22 92 23 93 27 94 24 95
REMARK SMILES IDX 26 96 28 97 25 98
REMARK H PARENT 90 26 56 37
REMARK Flexibility Score: inf
ROOT
ATOM      1  C   UNL A   1      35.443  32.659  28.011  1.00  0.00     0.188 C 
ENDROOT
BRANCH   1   2
ATOM      2  C   UNL A   1      35.149  33.979  28.727  1.00  0.00     0.188 C 
BRANCH   2   3
ATOM      3  O   UNL A   1      34.268  33.756  29.831  1.00  0.00    -0.376 OA
BRANCH   3   4
ATOM      4  C   UNL A   1      34.868  33.857  31.122  1.00  0.00     0.202 C 
BRANCH   4   5
ATOM      5  C   UNL A   1      35.134  32.508  31.794  1.00  0.00     0.261 C 
BRANCH   5   6
ATOM      6  O   UNL A   1      36.447  32.007  31.505  1.00  0.00    -0.460 OA
BRANCH   6   7
ATOM      7  C   UNL A   1      36.777  30.755  31.098  1.00  0.00     0.338 C 
ATOM      8  O   UNL A   1      35.910  29.882  31.133  1.00  0.00    -0.246 OA
BRANCH   7   9
ATOM      9  C   UNL A   1      38.130  30.375  30.580  1.00  0.00     0.060 A 
ATOM     10  C   UNL A   1      39.259  30.144  31.369  1.00  0.00     0.016 A 
ATOM     11  C   UNL A   1      38.247  30.162  29.196  1.00  0.00     0.016 A 
ATOM     12  C   UNL A   1      40.479  29.786  30.814  1.00  0.00     0.010 A 
ATOM     13  C   UNL A   1      39.462  29.764  28.628  1.00  0.00     0.010 A 
ATOM     14  C   UNL A   1      40.589  29.596  29.441  1.00  0.00    -0.014 A 
BRANCH  14  15
ATOM     15  C   UNL A   1      41.930  29.344  28.886  1.00  0.00     0.031 A 
ATOM     16  C   UNL A   1      42.228  27.970  28.368  1.00  0.00     0.074 A 
ATOM     17  C   UNL A   1      42.797  30.364  28.738  1.00  0.00     0.049 A 
ATOM     18  N   UNL A   1      43.348  27.488  27.905  1.00  0.00    -0.248 NA
ATOM     19  C   UNL A   1      41.107  27.012  28.356  1.00  0.00     0.031 C 
ATOM     20  C   UNL A   1      42.527  31.760  29.098  1.00  0.00     0.029 A 
ATOM     21  N   UNL A   1      44.067  30.394  28.227  1.00  0.00    -0.354 N 
ATOM     22  C   UNL A   1      43.078  26.163  27.586  1.00  0.00     0.074 A 
ATOM     23  C   UNL A   1      41.689  25.916  27.892  1.00  0.00     0.031 C 
ATOM     24  C   UNL A   1      43.599  32.509  28.790  1.00  0.00     0.029 A 
ATOM     25  C   UNL A   1      44.652  31.637  28.281  1.00  0.00     0.049 A 
ATOM     26  H   UNL A   1      44.517  29.601  27.856  1.00  0.00     0.167 HD
ATOM     27  C   UNL A   1      43.933  25.238  27.095  1.00  0.00     0.037 A 
ATOM     28  C   UNL A   1      45.916  32.008  27.997  1.00  0.00     0.037 A 
ATOM     29  C   UNL A   1      45.307  25.527  26.789  1.00  0.00     0.049 A 
ATOM     30  C   UNL A   1      46.869  30.936  27.533  1.00  0.00     0.074 A 
ATOM     31  C   UNL A   1      46.290  24.671  26.331  1.00  0.00     0.029 A 
ATOM     32  N   UNL A   1      45.888  26.783  26.914  1.00  0.00    -0.354 N 
ATOM     33  N   UNL A   1      46.628  29.668  27.293  1.00  0.00    -0.248 NA
ATOM     34  C   UNL A   1      48.268  31.333  27.328  1.00  0.00     0.031 C 
ATOM     35  C   UNL A   1      47.478  25.402  26.220  1.00  0.00     0.029 A 
ATOM     36  C   UNL A   1      47.223  26.721  26.565  1.00  0.00     0.049 A 
ATOM     37  H   UNL A   1      45.418  27.596  27.207  1.00  0.00     0.167 HD
ATOM     38  C   UNL A   1      47.841  29.116  26.904  1.00  0.00     0.074 A 
ATOM     39  C   UNL A   1      48.809  30.196  26.913  1.00  0.00     0.031 C 
ATOM     40  C   UNL A   1      48.141  27.833  26.581  1.00  0.00     0.037 A 
BRANCH  27  41
ATOM     41  C   UNL A   1      43.426  23.835  26.937  1.00  0.00     0.058 A 
ATOM     42  C   UNL A   1      43.386  22.928  28.006  1.00  0.00     0.135 A 
ATOM     43  C   UNL A   1      42.963  23.396  25.686  1.00  0.00     0.135 A 
ATOM     44  F   UNL A   1      43.851  23.284  29.214  1.00  0.00    -0.206 F 
ATOM     45  C   UNL A   1      42.910  21.629  27.839  1.00  0.00     0.059 A 
ATOM     46  C   UNL A   1      42.465  22.110  25.500  1.00  0.00     0.059 A 
ATOM     47  F   UNL A   1      42.998  24.219  24.627  1.00  0.00    -0.206 F 
ATOM     48  C   UNL A   1      42.449  21.231  26.582  1.00  0.00     0.060 A 
BRANCH  48  49
ATOM     49  S   UNL A   1      41.815  19.552  26.385  1.00  0.00     0.124 S 
ATOM     50  O   UNL A   1      40.410  19.805  26.078  1.00  0.00    -0.237 OA
ATOM     51  O   UNL A   1      42.622  19.043  25.281  1.00  0.00    -0.237 OA
ATOM     52  O   UNL A   1      42.073  18.936  27.682  1.00  0.00    -0.744 OA
ENDBRANCH  48  49
ENDBRANCH  27  41
BRANCH  28  53
ATOM     53  C   UNL A   1      46.375  33.407  28.228  1.00  0.00     0.058 A 
ATOM     54  C   UNL A   1      46.284  34.387  27.229  1.00  0.00     0.135 A 
ATOM     55  C   UNL A   1      46.956  33.783  29.452  1.00  0.00     0.135 A 
ATOM     56  F   UNL A   1      45.746  34.083  26.039  1.00  0.00    -0.206 F 
ATOM     57  C   UNL A   1      46.781  35.676  27.420  1.00  0.00     0.059 A 
ATOM     58  C   UNL A   1      47.429  35.072  29.679  1.00  0.00     0.059 A 
ATOM     59  F   UNL A   1      47.062  32.891  30.450  1.00  0.00    -0.206 F 
ATOM     60  C   UNL A   1      47.356  36.006  28.648  1.00  0.00     0.060 A 
BRANCH  60  61
ATOM     61  S   UNL A   1      48.001  37.676  28.893  1.00  0.00     0.124 S 
ATOM     62  O   UNL A   1      47.920  37.811  30.342  1.00  0.00    -0.237 OA
ATOM     63  O   UNL A   1      49.346  37.572  28.336  1.00  0.00    -0.237 OA
ATOM     64  O   UNL A   1      47.078  38.507  28.127  1.00  0.00    -0.744 OA
ENDBRANCH  60  61
ENDBRANCH  28  53
BRANCH  40  65
ATOM     65  C   UNL A   1      49.562  27.546  26.197  1.00  0.00     0.058 A 
ATOM     66  C   UNL A   1      50.533  27.250  27.163  1.00  0.00     0.135 A 
ATOM     67  C   UNL A   1      49.933  27.495  24.844  1.00  0.00     0.135 A 
ATOM     68  F   UNL A   1      50.222  27.293  28.469  1.00  0.00    -0.206 F 
ATOM     69  C   UNL A   1      51.835  26.927  26.803  1.00  0.00     0.059 A 
ATOM     70  C   UNL A   1      51.222  27.150  24.460  1.00  0.00     0.059 A 
ATOM     71  F   UNL A   1      49.032  27.760  23.885  1.00  0.00    -0.206 F 
ATOM     72  C   UNL A   1      52.168  26.876  25.448  1.00  0.00     0.060 A 
BRANCH  72  73
ATOM     73  S   UNL A   1      53.848  26.406  24.989  1.00  0.00     0.124 S 
ATOM     74  O   UNL A   1      53.605  25.534  23.845  1.00  0.00    -0.237 OA
ATOM     75  O   UNL A   1      54.463  27.695  24.686  1.00  0.00    -0.237 OA
ATOM     76  O   UNL A   1      54.354  25.744  26.188  1.00  0.00    -0.744 OA
ENDBRANCH  72  73
ENDBRANCH  40  65
ENDBRANCH  14  15
ENDBRANCH   7   9
ENDBRANCH   6   7
ENDBRANCH   5   6
ENDBRANCH   4   5
ENDBRANCH   3   4
ENDBRANCH   2   3
ENDBRANCH   1   2
BRANCH   1  77
ATOM     77  O   UNL A   1      34.617  31.562  28.413  1.00  0.00    -0.377 OA
BRANCH  77  78
ATOM     78  C   UNL A   1      34.810  30.341  27.704  1.00  0.00     0.188 C 
BRANCH  78  79
ATOM     79  C   UNL A   1      33.573  29.647  27.097  1.00  0.00     0.188 C 
BRANCH  79  80
ATOM     80  O   UNL A   1      32.841  30.458  26.189  1.00  0.00    -0.376 OA
BRANCH  80  81
ATOM     81  C   UNL A   1      31.648  29.880  25.670  1.00  0.00     0.202 C 
BRANCH  81  82
ATOM     82  C   UNL A   1      31.827  29.071  24.376  1.00  0.00     0.261 C 
BRANCH  82  83
ATOM     83  O   UNL A   1      30.997  27.899  24.264  1.00  0.00    -0.460 OA
BRANCH  83  84
ATOM     84  C   UNL A   1      31.031  27.201  23.106  1.00  0.00     0.341 C 
ATOM     85  O   UNL A   1      30.740  27.591  21.999  1.00  0.00    -0.246 OA
BRANCH  84  86
ATOM     86  C   UNL A   1      31.717  25.930  23.384  1.00  0.00     0.096 A 
ATOM     87  C   UNL A   1      32.393  25.199  22.432  1.00  0.00     0.131 A 
ATOM     88  C   UNL A   1      31.550  25.311  24.605  1.00  0.00     0.131 A 
ATOM     89  N   UNL A   1      32.872  23.952  22.651  1.00  0.00    -0.236 NA
ATOM     90  N   UNL A   1      31.987  24.058  24.871  1.00  0.00    -0.236 NA
ATOM     91  C   UNL A   1      32.615  23.419  23.862  1.00  0.00     0.160 A 
BRANCH  91  92
ATOM     92  C   UNL A   1      33.178  22.104  24.153  1.00  0.00     0.038 A 
ATOM     93  C   UNL A   1      32.382  20.966  23.923  1.00  0.00     0.013 A 
ATOM     94  C   UNL A   1      34.478  21.911  24.646  1.00  0.00     0.052 A 
ATOM     95  C   UNL A   1      32.862  19.680  24.178  1.00  0.00     0.001 A 
ATOM     96  C   UNL A   1      34.960  20.619  24.903  1.00  0.00     0.021 A 
ATOM     97  Cl  UNL A   1      35.550  23.236  24.952  1.00  0.00    -0.084 Cl
ATOM     98  C   UNL A   1      34.152  19.505  24.669  1.00  0.00     0.002 A 
ENDBRANCH  91  92
ENDBRANCH  84  86
ENDBRANCH  83  84
ENDBRANCH  82  83
ENDBRANCH  81  82
ENDBRANCH  80  81
ENDBRANCH  79  80
ENDBRANCH  78  79
ENDBRANCH  77  78
ENDBRANCH   1  77
TORSDOF 24
ENDMDL
MODEL 3
REMARK VINA RESULT:      -9.5      5.225     10.223
REMARK SMILES O=C(OCCOCCOCCOCCOC(=O)c1cnc(-c2ccccc2Cl)nc1)c1ccc(-c2c3nc(c(-c4c(F)cc(S(=O)(=O)[O-])cc4F)c4ccc([nH]4)c(-c4c(F)cc(S(=O)(=O)[O-])cc4F)c4nc(c(-c5c(F)cc(S(=O)(=O)[O-])cc5F)c5ccc2[nH]5)C=C4)C=C3)cc1
REMARK SMILES IDX 8 1 7 2 6 3 5 4 4 5 3 6 2 7 1 8 31 9 32 10 96 11 33 12 95 13
REMARK SMILES IDX 34 14 35 15 36 16 89 17 37 18 94 19 88 20 90 21 38 22 93 23
REMARK SMILES IDX 87 24 86 25 39 27 73 28 52 29 72 30 53 31 56 32 71 33 91 34
REMARK SMILES IDX 54 35 55 36 70 38 92 39 57 40 40 41 41 42 50 43 42 44 43 45
REMARK SMILES IDX 49 46 51 47 44 48 45 49 46 50 47 51 48 52 74 53 75 54 84 55
REMARK SMILES IDX 76 56 77 57 83 58 85 59 78 60 79 61 80 62 81 63 82 64 58 65
REMARK SMILES IDX 59 66 68 67 60 68 61 69 67 70 69 71 62 72 63 73 64 74 65 75
REMARK SMILES IDX 66 76 9 77 10 78 11 79 12 80 13 81 14 82 15 83 16 84 17 85
REMARK SMILES IDX 18 86 19 87 30 88 20 89 29 90 21 91 22 92 23 93 27 94 24 95
REMARK SMILES IDX 26 96 28 97 25 98
REMARK H PARENT 90 26 56 37
REMARK Flexibility Score: inf
ROOT
ATOM      1  C   UNL A   1      35.813  32.103  28.406  1.00  0.00     0.188 C 
ENDROOT
BRANCH   1   2
ATOM      2  C   UNL A   1      35.485  33.551  28.036  1.00  0.00     0.188 C 
BRANCH   2   3
ATOM      3  O   UNL A   1      34.559  34.102  28.977  1.00  0.00    -0.376 OA
BRANCH   3   4
ATOM      4  C   UNL A   1      33.482  34.847  28.409  1.00  0.00     0.202 C 
BRANCH   4   5
ATOM      5  C   UNL A   1      32.990  36.000  29.286  1.00  0.00     0.261 C 
BRANCH   5   6
ATOM      6  O   UNL A   1      32.315  35.537  30.464  1.00  0.00    -0.460 OA
BRANCH   6   7
ATOM      7  C   UNL A   1      32.746  35.630  31.748  1.00  0.00     0.338 C 
ATOM      8  O   UNL A   1      32.077  36.290  32.542  1.00  0.00    -0.246 OA
BRANCH   7   9
ATOM      9  C   UNL A   1      33.978  34.952  32.265  1.00  0.00     0.060 A 
ATOM     10  C   UNL A   1      35.266  35.488  32.233  1.00  0.00     0.016 A 
ATOM     11  C   UNL A   1      33.803  33.712  32.903  1.00  0.00     0.016 A 
ATOM     12  C   UNL A   1      36.358  34.800  32.742  1.00  0.00     0.010 A 
ATOM     13  C   UNL A   1      34.890  33.026  33.454  1.00  0.00     0.010 A 
ATOM     14  C   UNL A   1      36.178  33.564  33.353  1.00  0.00    -0.014 A 
BRANCH  14  15
ATOM     15  C   UNL A   1      37.380  32.817  33.762  1.00  0.00     0.031 A 
ATOM     16  C   UNL A   1      37.981  33.131  35.098  1.00  0.00     0.074 A 
ATOM     17  C   UNL A   1      37.825  31.797  33.003  1.00  0.00     0.049 A 
ATOM     18  N   UNL A   1      39.070  32.665  35.643  1.00  0.00    -0.248 NA
ATOM     19  C   UNL A   1      37.247  34.091  35.943  1.00  0.00     0.031 C 
ATOM     20  C   UNL A   1      37.209  31.345  31.751  1.00  0.00     0.029 A 
ATOM     21  N   UNL A   1      38.881  30.943  33.180  1.00  0.00    -0.354 N 
ATOM     22  C   UNL A   1      39.174  33.304  36.872  1.00  0.00     0.074 A 
ATOM     23  C   UNL A   1      38.033  34.179  37.005  1.00  0.00     0.031 C 
ATOM     24  C   UNL A   1      37.896  30.293  31.278  1.00  0.00     0.029 A 
ATOM     25  C   UNL A   1      39.038  30.044  32.151  1.00  0.00     0.049 A 
ATOM     26  H   UNL A   1      39.470  30.971  33.968  1.00  0.00     0.167 HD
ATOM     27  C   UNL A   1      40.153  33.172  37.794  1.00  0.00     0.037 A 
ATOM     28  C   UNL A   1      40.028  29.159  31.924  1.00  0.00     0.037 A 
ATOM     29  C   UNL A   1      41.267  32.278  37.631  1.00  0.00     0.049 A 
ATOM     30  C   UNL A   1      41.151  29.096  32.928  1.00  0.00     0.074 A 
ATOM     31  C   UNL A   1      42.349  32.083  38.467  1.00  0.00     0.029 A 
ATOM     32  N   UNL A   1      41.431  31.424  36.548  1.00  0.00    -0.354 N 
ATOM     33  N   UNL A   1      41.279  29.749  34.061  1.00  0.00    -0.248 NA
ATOM     34  C   UNL A   1      42.274  28.203  32.617  1.00  0.00     0.031 C 
ATOM     35  C   UNL A   1      43.191  31.141  37.866  1.00  0.00     0.029 A 
ATOM     36  C   UNL A   1      42.610  30.717  36.680  1.00  0.00     0.049 A 
ATOM     37  H   UNL A   1      40.801  31.336  35.797  1.00  0.00     0.167 HD
ATOM     38  C   UNL A   1      42.493  29.342  34.599  1.00  0.00     0.074 A 
ATOM     39  C   UNL A   1      43.046  28.365  33.682  1.00  0.00     0.031 C 
ATOM     40  C   UNL A   1      43.109  29.745  35.739  1.00  0.00     0.037 A 
BRANCH  27  41
ATOM     41  C   UNL A   1      40.097  34.060  39.002  1.00  0.00     0.058 A 
ATOM     42  C   UNL A   1      39.466  33.669  40.191  1.00  0.00     0.135 A 
ATOM     43  C   UNL A   1      40.698  35.330  38.965  1.00  0.00     0.135 A 
ATOM     44  F   UNL A   1      38.844  32.481  40.268  1.00  0.00    -0.206 F 
ATOM     45  C   UNL A   1      39.426  34.507  41.303  1.00  0.00     0.059 A 
ATOM     46  C   UNL A   1      40.688  36.176  40.069  1.00  0.00     0.059 A 
ATOM     47  F   UNL A   1      41.297  35.760  37.844  1.00  0.00    -0.206 F 
ATOM     48  C   UNL A   1      40.043  35.758  41.232  1.00  0.00     0.060 A 
BRANCH  48  49
ATOM     49  S   UNL A   1      40.003  36.827  42.687  1.00  0.00     0.124 S 
ATOM     50  O   UNL A   1      38.977  36.178  43.498  1.00  0.00    -0.237 OA
ATOM     51  O   UNL A   1      41.369  36.719  43.189  1.00  0.00    -0.237 OA
ATOM     52  O   UNL A   1      39.640  38.131  42.142  1.00  0.00    -0.744 OA
ENDBRANCH  48  49
ENDBRANCH  27  41
BRANCH  28  53
ATOM     53  C   UNL A   1      40.057  28.344  30.677  1.00  0.00     0.058 A 
ATOM     54  C   UNL A   1      39.280  27.185  30.536  1.00  0.00     0.135 A 
ATOM     55  C   UNL A   1      40.902  28.691  29.608  1.00  0.00     0.135 A 
ATOM     56  F   UNL A   1      38.462  26.801  31.527  1.00  0.00    -0.206 F 
ATOM     57  C   UNL A   1      39.362  26.382  29.398  1.00  0.00     0.059 A 
ATOM     58  C   UNL A   1      40.977  27.924  28.449  1.00  0.00     0.059 A 
ATOM     59  F   UNL A   1      41.662  29.794  29.680  1.00  0.00    -0.206 F 
ATOM     60  C   UNL A   1      40.219  26.759  28.362  1.00  0.00     0.060 A 
BRANCH  60  61
ATOM     61  S   UNL A   1      40.326  25.717  26.891  1.00  0.00     0.124 S 
ATOM     62  O   UNL A   1      38.975  25.174  26.818  1.00  0.00    -0.237 OA
ATOM     63  O   UNL A   1      40.684  26.680  25.855  1.00  0.00    -0.237 OA
ATOM     64  O   UNL A   1      41.374  24.760  27.234  1.00  0.00    -0.744 OA
ENDBRANCH  60  61
ENDBRANCH  28  53
BRANCH  40  65
ATOM     65  C   UNL A   1      44.431  29.112  36.054  1.00  0.00     0.058 A 
ATOM     66  C   UNL A   1      45.637  29.710  35.663  1.00  0.00     0.135 A 
ATOM     67  C   UNL A   1      44.489  27.935  36.817  1.00  0.00     0.135 A 
ATOM     68  F   UNL A   1      45.627  30.832  34.926  1.00  0.00    -0.206 F 
ATOM     69  C   UNL A   1      46.863  29.153  36.005  1.00  0.00     0.059 A 
ATOM     70  C   UNL A   1      45.703  27.376  37.193  1.00  0.00     0.059 A 
ATOM     71  F   UNL A   1      43.359  27.336  37.224  1.00  0.00    -0.206 F 
ATOM     72  C   UNL A   1      46.885  27.988  36.773  1.00  0.00     0.060 A 
BRANCH  72  73
ATOM     73  S   UNL A   1      48.482  27.301  37.256  1.00  0.00     0.124 S 
ATOM     74  O   UNL A   1      49.329  28.488  37.232  1.00  0.00    -0.237 OA
ATOM     75  O   UNL A   1      48.200  26.748  38.577  1.00  0.00    -0.237 OA
ATOM     76  O   UNL A   1      48.754  26.314  36.215  1.00  0.00    -0.744 OA
ENDBRANCH  72  73
ENDBRANCH  40  65
ENDBRANCH  14  15
ENDBRANCH   7   9
ENDBRANCH   6   7
ENDBRANCH   5   6
ENDBRANCH   4   5
ENDBRANCH   3   4
ENDBRANCH   2   3
ENDBRANCH   1   2
BRANCH   1  77
ATOM     77  O   UNL A   1      34.675  31.255  28.583  1.00  0.00    -0.377 OA
BRANCH  77  78
ATOM     78  C   UNL A   1      34.145  30.662  27.401  1.00  0.00     0.188 C 
BRANCH  78  79
ATOM     79  C   UNL A   1      34.472  29.181  27.120  1.00  0.00     0.188 C 
BRANCH  79  80
ATOM     80  O   UNL A   1      33.828  28.653  25.969  1.00  0.00    -0.376 OA
BRANCH  80  81
ATOM     81  C   UNL A   1      32.675  29.362  25.527  1.00  0.00     0.202 C 
BRANCH  81  82
ATOM     82  C   UNL A   1      32.212  29.023  24.101  1.00  0.00     0.261 C 
BRANCH  82  83
ATOM     83  O   UNL A   1      31.343  27.879  23.993  1.00  0.00    -0.460 OA
BRANCH  83  84
ATOM     84  C   UNL A   1      31.480  27.074  22.916  1.00  0.00     0.341 C 
ATOM     85  O   UNL A   1      31.007  27.226  21.813  1.00  0.00    -0.246 OA
BRANCH  84  86
ATOM     86  C   UNL A   1      32.511  26.078  23.245  1.00  0.00     0.096 A 
ATOM     87  C   UNL A   1      33.257  25.406  22.301  1.00  0.00     0.131 A 
ATOM     88  C   UNL A   1      32.649  25.633  24.542  1.00  0.00     0.131 A 
ATOM     89  N   UNL A   1      34.079  24.372  22.598  1.00  0.00    -0.236 NA
ATOM     90  N   UNL A   1      33.437  24.589  24.893  1.00  0.00    -0.236 NA
ATOM     91  C   UNL A   1      34.105  23.984  23.889  1.00  0.00     0.160 A 
BRANCH  91  92
ATOM     92  C   UNL A   1      35.032  22.918  24.254  1.00  0.00     0.038 A 
ATOM     93  C   UNL A   1      36.410  23.204  24.284  1.00  0.00     0.013 A 
ATOM     94  C   UNL A   1      34.623  21.615  24.582  1.00  0.00     0.052 A 
ATOM     95  C   UNL A   1      37.348  22.230  24.627  1.00  0.00     0.001 A 
ATOM     96  C   UNL A   1      35.566  20.635  24.926  1.00  0.00     0.021 A 
ATOM     97  Cl  UNL A   1      32.955  21.153  24.593  1.00  0.00    -0.084 Cl
ATOM     98  C   UNL A   1      36.927  20.943  24.948  1.00  0.00     0.002 A 
ENDBRANCH  91  92
ENDBRANCH  84  86
ENDBRANCH  83  84
ENDBRANCH  82  83
ENDBRANCH  81  82
ENDBRANCH  80  81
ENDBRANCH  79  80
ENDBRANCH  78  79
ENDBRANCH  77  78
ENDBRANCH   1  77
TORSDOF 24
ENDMDL
