MODEL 1
REMARK VINA RESULT:      -7.0      0.000      0.000
REMARK SMILES CCOc1cc(C(=O)OCCOCCOCCOCCOC(=O)c2ccc(-c3c4nc(c(-c5c(F)cc(S(=O)(=O)[O-])cc5F)c5ccc([nH]5)c(-c5c(F)cc(S(=O)(=O)[O-])cc5F)c5nc(c(-c6c(F)cc(S(=O)(=O)[O-])cc6F)c6ccc3[nH]6)C=C5)C=C4)cc2)ccc1OCc1ccc(Cl)c(Cl)c1
REMARK SMILES IDX 15 1 14 2 13 3 12 4 11 5 10 6 9 7 7 8 8 9 6 10 4 11 5 12
REMARK SMILES IDX 92 13 91 14 90 15 3 16 2 17 1 18 93 19 94 20 95 21 96 22
REMARK SMILES IDX 102 23 97 24 100 25 98 26 101 27 99 28 16 29 17 30 18 31
REMARK SMILES IDX 19 32 20 33 21 34 22 35 23 36 24 37 25 38 89 39 26 40 88 41
REMARK SMILES IDX 27 42 28 43 29 44 82 45 30 46 87 47 81 48 83 49 31 50 86 51
REMARK SMILES IDX 80 52 79 53 32 55 66 56 45 57 65 58 46 59 49 60 64 61 84 62
REMARK SMILES IDX 47 63 48 64 63 66 85 67 50 68 33 69 34 70 43 71 35 72 36 73
REMARK SMILES IDX 42 74 44 75 37 76 38 77 39 78 40 79 41 80 67 81 68 82 77 83
REMARK SMILES IDX 69 84 70 85 76 86 78 87 71 88 72 89 73 90 74 91 75 92 51 93
REMARK SMILES IDX 52 94 61 95 53 96 54 97 60 98 62 99 55 100 56 101 57 102
REMARK SMILES IDX 58 103 59 104
REMARK H PARENT 83 54 49 65
REMARK Flexibility Score: inf
ROOT
ATOM      1  O   UNL A   1      42.191  36.963  27.692  1.00  0.00    -0.377 OA
ENDROOT
BRANCH   1   2
ATOM      2  C   UNL A   1      41.676  36.279  28.823  1.00  0.00     0.188 C 
BRANCH   2   3
ATOM      3  C   UNL A   1      41.048  34.923  28.448  1.00  0.00     0.188 C 
BRANCH   3   4
ATOM      4  O   UNL A   1      40.388  34.315  29.552  1.00  0.00    -0.376 OA
BRANCH   4   5
ATOM      5  C   UNL A   1      39.013  34.596  29.761  1.00  0.00     0.202 C 
BRANCH   5   6
ATOM      6  C   UNL A   1      37.917  33.829  29.007  1.00  0.00     0.261 C 
BRANCH   6   7
ATOM      7  O   UNL A   1      36.879  33.222  29.781  1.00  0.00    -0.460 OA
BRANCH   7   8
ATOM      8  C   UNL A   1      35.581  33.398  29.438  1.00  0.00     0.338 C 
ATOM      9  O   UNL A   1      34.912  34.390  29.551  1.00  0.00    -0.246 OA
BRANCH   8  10
ATOM     10  C   UNL A   1      35.180  32.143  28.745  1.00  0.00     0.064 A 
ATOM     11  C   UNL A   1      33.829  30.950  27.125  1.00  0.00     0.162 A 
ATOM     12  C   UNL A   1      34.179  32.152  27.749  1.00  0.00     0.066 A 
ATOM     13  C   UNL A   1      34.408  29.757  27.587  1.00  0.00     0.161 A 
ATOM     14  C   UNL A   1      35.495  29.774  28.460  1.00  0.00     0.051 A 
ATOM     15  C   UNL A   1      35.880  30.967  29.044  1.00  0.00     0.020 A 
BRANCH  11  16
ATOM     16  O   UNL A   1      32.988  30.824  26.057  1.00  0.00    -0.490 OA
BRANCH  16  17
ATOM     17  C   UNL A   1      31.613  30.546  26.294  1.00  0.00     0.226 C 
ATOM     18  C   UNL A   1      31.228  29.460  25.297  1.00  0.00     0.049 C 
ENDBRANCH  16  17
ENDBRANCH  11  16
BRANCH  13  19
ATOM     19  O   UNL A   1      33.910  28.501  27.382  1.00  0.00    -0.485 OA
BRANCH  19  20
ATOM     20  C   UNL A   1      34.407  27.729  26.276  1.00  0.00     0.265 C 
BRANCH  20  21
ATOM     21  C   UNL A   1      33.714  26.491  25.691  1.00  0.00    -0.009 A 
ATOM     22  C   UNL A   1      32.455  26.156  26.220  1.00  0.00     0.009 A 
ATOM     23  C   UNL A   1      34.251  25.629  24.724  1.00  0.00     0.029 A 
ATOM     24  C   UNL A   1      31.822  24.953  25.890  1.00  0.00     0.022 A 
ATOM     25  C   UNL A   1      33.663  24.387  24.444  1.00  0.00     0.060 A 
ATOM     26  C   UNL A   1      32.446  24.045  25.036  1.00  0.00     0.059 A 
ATOM     27  Cl  UNL A   1      34.528  23.297  23.419  1.00  0.00    -0.083 Cl
ATOM     28  Cl  UNL A   1      31.672  22.525  24.768  1.00  0.00    -0.083 Cl
ENDBRANCH  20  21
ENDBRANCH  19  20
ENDBRANCH  13  19
ENDBRANCH   8  10
ENDBRANCH   7   8
ENDBRANCH   6   7
ENDBRANCH   5   6
ENDBRANCH   4   5
ENDBRANCH   3   4
ENDBRANCH   2   3
ENDBRANCH   1   2
BRANCH   1  29
ATOM     29  C   UNL A   1      43.362  37.751  27.887  1.00  0.00     0.188 C 
BRANCH  29  30
ATOM     30  C   UNL A   1      43.294  39.132  28.582  1.00  0.00     0.188 C 
BRANCH  30  31
ATOM     31  O   UNL A   1      43.469  39.098  29.998  1.00  0.00    -0.376 OA
BRANCH  31  32
ATOM     32  C   UNL A   1      44.601  39.764  30.535  1.00  0.00     0.202 C 
BRANCH  32  33
ATOM     33  C   UNL A   1      45.725  38.826  30.989  1.00  0.00     0.261 C 
BRANCH  33  34
ATOM     34  O   UNL A   1      46.152  37.878  30.003  1.00  0.00    -0.460 OA
BRANCH  34  35
ATOM     35  C   UNL A   1      47.309  37.224  30.246  1.00  0.00     0.338 C 
ATOM     36  O   UNL A   1      48.260  37.621  30.892  1.00  0.00    -0.246 OA
BRANCH  35  37
ATOM     37  C   UNL A   1      47.157  35.847  29.742  1.00  0.00     0.060 A 
ATOM     38  C   UNL A   1      46.440  35.637  28.558  1.00  0.00     0.016 A 
ATOM     39  C   UNL A   1      47.720  34.777  30.440  1.00  0.00     0.016 A 
ATOM     40  C   UNL A   1      46.244  34.338  28.092  1.00  0.00     0.010 A 
ATOM     41  C   UNL A   1      47.507  33.478  29.982  1.00  0.00     0.010 A 
ATOM     42  C   UNL A   1      46.738  33.253  28.829  1.00  0.00    -0.014 A 
BRANCH  42  43
ATOM     43  C   UNL A   1      46.274  31.883  28.520  1.00  0.00     0.031 A 
ATOM     44  C   UNL A   1      44.948  31.443  29.077  1.00  0.00     0.074 A 
ATOM     45  C   UNL A   1      47.011  31.050  27.765  1.00  0.00     0.049 A 
ATOM     46  N   UNL A   1      44.353  30.285  28.986  1.00  0.00    -0.248 NA
ATOM     47  C   UNL A   1      44.196  32.450  29.845  1.00  0.00     0.031 C 
ATOM     48  C   UNL A   1      48.297  31.377  27.152  1.00  0.00     0.029 A 
ATOM     49  N   UNL A   1      46.783  29.747  27.400  1.00  0.00    -0.354 N 
ATOM     50  C   UNL A   1      43.160  30.420  29.685  1.00  0.00     0.074 A 
ATOM     51  C   UNL A   1      43.129  31.763  30.220  1.00  0.00     0.031 C 
ATOM     52  C   UNL A   1      48.752  30.294  26.497  1.00  0.00     0.029 A 
ATOM     53  C   UNL A   1      47.804  29.194  26.669  1.00  0.00     0.049 A 
ATOM     54  H   UNL A   1      45.964  29.256  27.642  1.00  0.00     0.167 HD
ATOM     55  C   UNL A   1      42.175  29.509  29.858  1.00  0.00     0.037 A 
ATOM     56  C   UNL A   1      47.961  27.937  26.209  1.00  0.00     0.037 A 
ATOM     57  C   UNL A   1      42.218  28.171  29.334  1.00  0.00     0.049 A 
ATOM     58  C   UNL A   1      46.880  26.918  26.470  1.00  0.00     0.074 A 
ATOM     59  C   UNL A   1      41.267  27.172  29.442  1.00  0.00     0.029 A 
ATOM     60  N   UNL A   1      43.278  27.640  28.612  1.00  0.00    -0.354 N 
ATOM     61  N   UNL A   1      45.741  27.065  27.105  1.00  0.00    -0.248 NA
ATOM     62  C   UNL A   1      47.104  25.562  25.948  1.00  0.00     0.031 C 
ATOM     63  C   UNL A   1      41.770  26.023  28.824  1.00  0.00     0.029 A 
ATOM     64  C   UNL A   1      43.015  26.320  28.288  1.00  0.00     0.049 A 
ATOM     65  H   UNL A   1      44.096  28.129  28.368  1.00  0.00     0.167 HD
ATOM     66  C   UNL A   1      45.102  25.831  27.036  1.00  0.00     0.074 A 
ATOM     67  C   UNL A   1      45.978  24.950  26.289  1.00  0.00     0.031 C 
ATOM     68  C   UNL A   1      43.898  25.461  27.539  1.00  0.00     0.037 A 
BRANCH  55  69
ATOM     69  C   UNL A   1      40.985  29.927  30.674  1.00  0.00     0.058 A 
ATOM     70  C   UNL A   1      41.019  29.939  32.077  1.00  0.00     0.135 A 
ATOM     71  C   UNL A   1      39.795  30.327  30.044  1.00  0.00     0.135 A 
ATOM     72  F   UNL A   1      42.123  29.544  32.730  1.00  0.00    -0.206 F 
ATOM     73  C   UNL A   1      39.906  30.304  32.829  1.00  0.00     0.059 A 
ATOM     74  C   UNL A   1      38.679  30.721  30.775  1.00  0.00     0.059 A 
ATOM     75  F   UNL A   1      39.707  30.328  28.705  1.00  0.00    -0.206 F 
ATOM     76  C   UNL A   1      38.739  30.690  32.168  1.00  0.00     0.060 A 
BRANCH  76  77
ATOM     77  S   UNL A   1      37.301  31.154  33.155  1.00  0.00     0.124 S 
ATOM     78  O   UNL A   1      37.171  32.571  32.831  1.00  0.00    -0.237 OA
ATOM     79  O   UNL A   1      36.260  30.283  32.620  1.00  0.00    -0.237 OA
ATOM     80  O   UNL A   1      37.719  30.860  34.523  1.00  0.00    -0.744 OA
ENDBRANCH  76  77
ENDBRANCH  55  69
BRANCH  56  81
ATOM     81  C   UNL A   1      49.193  27.567  25.463  1.00  0.00     0.058 A 
ATOM     82  C   UNL A   1      49.244  27.645  24.064  1.00  0.00     0.135 A 
ATOM     83  C   UNL A   1      50.345  27.132  26.136  1.00  0.00     0.135 A 
ATOM     84  F   UNL A   1      48.163  28.043  23.375  1.00  0.00    -0.206 F 
ATOM     85  C   UNL A   1      50.390  27.297  23.356  1.00  0.00     0.059 A 
ATOM     86  C   UNL A   1      51.512  26.801  25.453  1.00  0.00     0.059 A 
ATOM     87  F   UNL A   1      50.350  27.046  27.476  1.00  0.00    -0.206 F 
ATOM     88  C   UNL A   1      51.521  26.880  24.060  1.00  0.00     0.060 A 
BRANCH  88  89
ATOM     89  S   UNL A   1      53.022  26.487  23.136  1.00  0.00     0.124 S 
ATOM     90  O   UNL A   1      52.493  25.667  22.052  1.00  0.00    -0.237 OA
ATOM     91  O   UNL A   1      53.505  27.811  22.759  1.00  0.00    -0.237 OA
ATOM     92  O   UNL A   1      53.844  25.783  24.117  1.00  0.00    -0.744 OA
ENDBRANCH  88  89
ENDBRANCH  56  81
BRANCH  68  93
ATOM     93  C   UNL A   1      43.435  24.054  27.274  1.00  0.00     0.058 A 
ATOM     94  C   UNL A   1      42.663  23.729  26.149  1.00  0.00     0.135 A 
ATOM     95  C   UNL A   1      43.824  23.008  28.128  1.00  0.00     0.135 A 
ATOM     96  F   UNL A   1      42.262  24.693  25.303  1.00  0.00    -0.206 F 
ATOM     97  C   UNL A   1      42.276  22.418  25.887  1.00  0.00     0.059 A 
ATOM     98  C   UNL A   1      43.469  21.687  27.871  1.00  0.00     0.059 A 
ATOM     99  F   UNL A   1      44.573  23.262  29.212  1.00  0.00    -0.206 F 
ATOM    100  C   UNL A   1      42.685  21.403  26.754  1.00  0.00     0.060 A 
BRANCH 100 101
ATOM    101  S   UNL A   1      42.208  19.702  26.385  1.00  0.00     0.124 S 
ATOM    102  O   UNL A   1      41.603  19.847  25.066  1.00  0.00    -0.237 OA
ATOM    103  O   UNL A   1      43.488  19.001  26.423  1.00  0.00    -0.237 OA
ATOM    104  O   UNL A   1      41.285  19.366  27.465  1.00  0.00    -0.744 OA
ENDBRANCH 100 101
ENDBRANCH  68  93
ENDBRANCH  42  43
ENDBRANCH  35  37
ENDBRANCH  34  35
ENDBRANCH  33  34
ENDBRANCH  32  33
ENDBRANCH  31  32
ENDBRANCH  30  31
ENDBRANCH  29  30
ENDBRANCH   1  29
TORSDOF 28
ENDMDL
MODEL 2
REMARK VINA RESULT:      -6.8      8.093     11.866
REMARK SMILES CCOc1cc(C(=O)OCCOCCOCCOCCOC(=O)c2ccc(-c3c4nc(c(-c5c(F)cc(S(=O)(=O)[O-])cc5F)c5ccc([nH]5)c(-c5c(F)cc(S(=O)(=O)[O-])cc5F)c5nc(c(-c6c(F)cc(S(=O)(=O)[O-])cc6F)c6ccc3[nH]6)C=C5)C=C4)cc2)ccc1OCc1ccc(Cl)c(Cl)c1
REMARK SMILES IDX 15 1 14 2 13 3 12 4 11 5 10 6 9 7 7 8 8 9 6 10 4 11 5 12
REMARK SMILES IDX 92 13 91 14 90 15 3 16 2 17 1 18 93 19 94 20 95 21 96 22
REMARK SMILES IDX 102 23 97 24 100 25 98 26 101 27 99 28 16 29 17 30 18 31
REMARK SMILES IDX 19 32 20 33 21 34 22 35 23 36 24 37 25 38 89 39 26 40 88 41
REMARK SMILES IDX 27 42 28 43 29 44 82 45 30 46 87 47 81 48 83 49 31 50 86 51
REMARK SMILES IDX 80 52 79 53 32 55 66 56 45 57 65 58 46 59 49 60 64 61 84 62
REMARK SMILES IDX 47 63 48 64 63 66 85 67 50 68 33 69 34 70 43 71 35 72 36 73
REMARK SMILES IDX 42 74 44 75 37 76 38 77 39 78 40 79 41 80 67 81 68 82 77 83
REMARK SMILES IDX 69 84 70 85 76 86 78 87 71 88 72 89 73 90 74 91 75 92 51 93
REMARK SMILES IDX 52 94 61 95 53 96 54 97 60 98 62 99 55 100 56 101 57 102
REMARK SMILES IDX 58 103 59 104
REMARK H PARENT 83 54 49 65
REMARK Flexibility Score: inf
ROOT
ATOM      1  O   UNL A   1      44.367  39.866  26.412  1.00  0.00    -0.377 OA
ENDROOT
BRANCH   1   2
ATOM      2  C   UNL A   1      44.094  41.227  26.706  1.00  0.00     0.188 C 
BRANCH   2   3
ATOM      3  C   UNL A   1      45.315  42.132  26.459  1.00  0.00     0.188 C 
BRANCH   3   4
ATOM      4  O   UNL A   1      44.939  43.476  26.182  1.00  0.00    -0.376 OA
BRANCH   4   5
ATOM      5  C   UNL A   1      44.288  43.760  24.954  1.00  0.00     0.202 C 
BRANCH   5   6
ATOM      6  C   UNL A   1      44.738  43.105  23.640  1.00  0.00     0.261 C 
BRANCH   6   7
ATOM      7  O   UNL A   1      43.751  42.415  22.870  1.00  0.00    -0.460 OA
BRANCH   7   8
ATOM      8  C   UNL A   1      42.692  43.086  22.359  1.00  0.00     0.338 C 
ATOM      9  O   UNL A   1      41.714  43.477  22.936  1.00  0.00    -0.246 OA
BRANCH   8  10
ATOM     10  C   UNL A   1      43.053  43.379  20.944  1.00  0.00     0.064 A 
ATOM     11  C   UNL A   1      44.662  44.033  19.254  1.00  0.00     0.162 A 
ATOM     12  C   UNL A   1      44.366  43.763  20.595  1.00  0.00     0.066 A 
ATOM     13  C   UNL A   1      43.616  44.018  18.317  1.00  0.00     0.161 A 
ATOM     14  C   UNL A   1      42.365  43.497  18.641  1.00  0.00     0.051 A 
ATOM     15  C   UNL A   1      42.079  43.181  19.957  1.00  0.00     0.020 A 
BRANCH  11  16
ATOM     16  O   UNL A   1      45.906  44.276  18.748  1.00  0.00    -0.490 OA
BRANCH  16  17
ATOM     17  C   UNL A   1      46.941  44.686  19.635  1.00  0.00     0.226 C 
ATOM     18  C   UNL A   1      47.367  46.072  19.169  1.00  0.00     0.049 C 
ENDBRANCH  16  17
ENDBRANCH  11  16
BRANCH  13  19
ATOM     19  O   UNL A   1      43.640  44.624  17.092  1.00  0.00    -0.485 OA
BRANCH  19  20
ATOM     20  C   UNL A   1      42.943  45.869  16.920  1.00  0.00     0.265 C 
BRANCH  20  21
ATOM     21  C   UNL A   1      43.576  47.257  17.092  1.00  0.00    -0.009 A 
ATOM     22  C   UNL A   1      44.846  47.454  16.522  1.00  0.00     0.009 A 
ATOM     23  C   UNL A   1      43.030  48.324  17.821  1.00  0.00     0.029 A 
ATOM     24  C   UNL A   1      45.586  48.613  16.773  1.00  0.00     0.022 A 
ATOM     25  C   UNL A   1      43.793  49.456  18.141  1.00  0.00     0.060 A 
ATOM     26  C   UNL A   1      45.079  49.598  17.620  1.00  0.00     0.059 A 
ATOM     27  Cl  UNL A   1      43.112  50.602  19.242  1.00  0.00    -0.083 Cl
ATOM     28  Cl  UNL A   1      46.093  50.945  17.990  1.00  0.00    -0.083 Cl
ENDBRANCH  20  21
ENDBRANCH  19  20
ENDBRANCH  13  19
ENDBRANCH   8  10
ENDBRANCH   7   8
ENDBRANCH   6   7
ENDBRANCH   5   6
ENDBRANCH   4   5
ENDBRANCH   3   4
ENDBRANCH   2   3
ENDBRANCH   1   2
BRANCH   1  29
ATOM     29  C   UNL A   1      44.471  38.971  27.516  1.00  0.00     0.188 C 
BRANCH  29  30
ATOM     30  C   UNL A   1      43.304  38.791  28.517  1.00  0.00     0.188 C 
BRANCH  30  31
ATOM     31  O   UNL A   1      42.105  38.266  27.949  1.00  0.00    -0.376 OA
BRANCH  31  32
ATOM     32  C   UNL A   1      42.236  37.322  26.896  1.00  0.00     0.202 C 
BRANCH  32  33
ATOM     33  C   UNL A   1      42.561  35.899  27.365  1.00  0.00     0.261 C 
BRANCH  33  34
ATOM     34  O   UNL A   1      42.661  34.928  26.315  1.00  0.00    -0.460 OA
BRANCH  34  35
ATOM     35  C   UNL A   1      43.885  34.735  25.777  1.00  0.00     0.338 C 
ATOM     36  O   UNL A   1      44.459  35.446  24.974  1.00  0.00    -0.246 OA
BRANCH  35  37
ATOM     37  C   UNL A   1      44.502  33.593  26.474  1.00  0.00     0.060 A 
ATOM     38  C   UNL A   1      43.998  32.307  26.241  1.00  0.00     0.016 A 
ATOM     39  C   UNL A   1      45.569  33.798  27.351  1.00  0.00     0.016 A 
ATOM     40  C   UNL A   1      44.538  31.221  26.928  1.00  0.00     0.010 A 
ATOM     41  C   UNL A   1      46.094  32.712  28.050  1.00  0.00     0.010 A 
ATOM     42  C   UNL A   1      45.555  31.428  27.868  1.00  0.00    -0.014 A 
BRANCH  42  43
ATOM     43  C   UNL A   1      45.910  30.349  28.816  1.00  0.00     0.031 A 
ATOM     44  C   UNL A   1      45.097  30.217  30.074  1.00  0.00     0.074 A 
ATOM     45  C   UNL A   1      46.930  29.509  28.566  1.00  0.00     0.049 A 
ATOM     46  N   UNL A   1      45.242  29.389  31.073  1.00  0.00    -0.248 NA
ATOM     47  C   UNL A   1      43.970  31.153  30.224  1.00  0.00     0.031 C 
ATOM     48  C   UNL A   1      47.767  29.526  27.369  1.00  0.00     0.029 A 
ATOM     49  N   UNL A   1      47.439  28.483  29.322  1.00  0.00    -0.354 N 
ATOM     50  C   UNL A   1      44.230  29.703  31.971  1.00  0.00     0.074 A 
ATOM     51  C   UNL A   1      43.496  30.817  31.414  1.00  0.00     0.031 C 
ATOM     52  C   UNL A   1      48.699  28.563  27.479  1.00  0.00     0.029 A 
ATOM     53  C   UNL A   1      48.539  27.882  28.763  1.00  0.00     0.049 A 
ATOM     54  H   UNL A   1      47.051  28.206  30.184  1.00  0.00     0.167 HD
ATOM     55  C   UNL A   1      43.934  29.110  33.150  1.00  0.00     0.037 A 
ATOM     56  C   UNL A   1      49.335  26.907  29.246  1.00  0.00     0.037 A 
ATOM     57  C   UNL A   1      44.676  28.010  33.704  1.00  0.00     0.049 A 
ATOM     58  C   UNL A   1      49.026  26.304  30.593  1.00  0.00     0.074 A 
ATOM     59  C   UNL A   1      44.451  27.328  34.887  1.00  0.00     0.029 A 
ATOM     60  N   UNL A   1      45.796  27.439  33.118  1.00  0.00    -0.354 N 
ATOM     61  N   UNL A   1      48.047  26.587  31.420  1.00  0.00    -0.248 NA
ATOM     62  C   UNL A   1      49.927  25.246  31.072  1.00  0.00     0.031 C 
ATOM     63  C   UNL A   1      45.463  26.374  35.037  1.00  0.00     0.029 A 
ATOM     64  C   UNL A   1      46.289  26.428  33.925  1.00  0.00     0.049 A 
ATOM     65  H   UNL A   1      46.185  27.712  32.255  1.00  0.00     0.167 HD
ATOM     66  C   UNL A   1      48.199  25.725  32.502  1.00  0.00     0.074 A 
ATOM     67  C   UNL A   1      49.360  24.905  32.221  1.00  0.00     0.031 C 
ATOM     68  C   UNL A   1      47.444  25.618  33.624  1.00  0.00     0.037 A 
BRANCH  55  69
ATOM     69  C   UNL A   1      42.774  29.665  33.928  1.00  0.00     0.058 A 
ATOM     70  C   UNL A   1      41.466  29.191  33.742  1.00  0.00     0.135 A 
ATOM     71  C   UNL A   1      42.975  30.682  34.876  1.00  0.00     0.135 A 
ATOM     72  F   UNL A   1      41.216  28.236  32.832  1.00  0.00    -0.206 F 
ATOM     73  C   UNL A   1      40.392  29.725  34.447  1.00  0.00     0.059 A 
ATOM     74  C   UNL A   1      41.920  31.211  35.611  1.00  0.00     0.059 A 
ATOM     75  F   UNL A   1      44.205  31.175  35.087  1.00  0.00    -0.206 F 
ATOM     76  C   UNL A   1      40.629  30.738  35.378  1.00  0.00     0.060 A 
BRANCH  76  77
ATOM     77  S   UNL A   1      39.226  31.426  36.280  1.00  0.00     0.124 S 
ATOM     78  O   UNL A   1      38.671  32.348  35.293  1.00  0.00    -0.237 OA
ATOM     79  O   UNL A   1      38.423  30.241  36.563  1.00  0.00    -0.237 OA
ATOM     80  O   UNL A   1      39.845  32.054  37.445  1.00  0.00    -0.744 OA
ENDBRANCH  76  77
ENDBRANCH  55  69
BRANCH  56  81
ATOM     81  C   UNL A   1      50.507  26.446  28.455  1.00  0.00     0.058 A 
ATOM     82  C   UNL A   1      51.786  26.971  28.681  1.00  0.00     0.135 A 
ATOM     83  C   UNL A   1      50.368  25.466  27.459  1.00  0.00     0.135 A 
ATOM     84  F   UNL A   1      51.967  27.919  29.614  1.00  0.00    -0.206 F 
ATOM     85  C   UNL A   1      52.889  26.549  27.944  1.00  0.00     0.059 A 
ATOM     86  C   UNL A   1      51.459  25.010  26.725  1.00  0.00     0.059 A 
ATOM     87  F   UNL A   1      49.165  24.926  27.208  1.00  0.00    -0.206 F 
ATOM     88  C   UNL A   1      52.715  25.565  26.970  1.00  0.00     0.060 A 
BRANCH  88  89
ATOM     89  S   UNL A   1      54.161  24.982  26.058  1.00  0.00     0.124 S 
ATOM     90  O   UNL A   1      54.440  26.121  25.191  1.00  0.00    -0.237 OA
ATOM     91  O   UNL A   1      55.123  24.744  27.130  1.00  0.00    -0.237 OA
ATOM     92  O   UNL A   1      53.672  23.781  25.387  1.00  0.00    -0.744 OA
ENDBRANCH  88  89
ENDBRANCH  56  81
BRANCH  68  93
ATOM     93  C   UNL A   1      47.824  24.557  34.621  1.00  0.00     0.058 A 
ATOM     94  C   UNL A   1      47.193  23.305  34.643  1.00  0.00     0.135 A 
ATOM     95  C   UNL A   1      48.877  24.778  35.524  1.00  0.00     0.135 A 
ATOM     96  F   UNL A   1      46.178  23.044  33.803  1.00  0.00    -0.206 F 
ATOM     97  C   UNL A   1      47.580  22.312  35.539  1.00  0.00     0.059 A 
ATOM     98  C   UNL A   1      49.297  23.791  36.410  1.00  0.00     0.059 A 
ATOM     99  F   UNL A   1      49.523  25.954  35.536  1.00  0.00    -0.206 F 
ATOM    100  C   UNL A   1      48.635  22.565  36.418  1.00  0.00     0.060 A 
BRANCH 100 101
ATOM    101  S   UNL A   1      49.152  21.258  37.550  1.00  0.00     0.124 S 
ATOM    102  O   UNL A   1      47.868  20.703  37.964  1.00  0.00    -0.237 OA
ATOM    103  O   UNL A   1      49.966  20.403  36.692  1.00  0.00    -0.237 OA
ATOM    104  O   UNL A   1      49.888  21.977  38.586  1.00  0.00    -0.744 OA
ENDBRANCH 100 101
ENDBRANCH  68  93
ENDBRANCH  42  43
ENDBRANCH  35  37
ENDBRANCH  34  35
ENDBRANCH  33  34
ENDBRANCH  32  33
ENDBRANCH  31  32
ENDBRANCH  30  31
ENDBRANCH  29  30
ENDBRANCH   1  29
TORSDOF 28
ENDMDL
MODEL 3
REMARK VINA RESULT:      -6.6      6.098     13.651
REMARK SMILES CCOc1cc(C(=O)OCCOCCOCCOCCOC(=O)c2ccc(-c3c4nc(c(-c5c(F)cc(S(=O)(=O)[O-])cc5F)c5ccc([nH]5)c(-c5c(F)cc(S(=O)(=O)[O-])cc5F)c5nc(c(-c6c(F)cc(S(=O)(=O)[O-])cc6F)c6ccc3[nH]6)C=C5)C=C4)cc2)ccc1OCc1ccc(Cl)c(Cl)c1
REMARK SMILES IDX 15 1 14 2 13 3 12 4 11 5 10 6 9 7 7 8 8 9 6 10 4 11 5 12
REMARK SMILES IDX 92 13 91 14 90 15 3 16 2 17 1 18 93 19 94 20 95 21 96 22
REMARK SMILES IDX 102 23 97 24 100 25 98 26 101 27 99 28 16 29 17 30 18 31
REMARK SMILES IDX 19 32 20 33 21 34 22 35 23 36 24 37 25 38 89 39 26 40 88 41
REMARK SMILES IDX 27 42 28 43 29 44 82 45 30 46 87 47 81 48 83 49 31 50 86 51
REMARK SMILES IDX 80 52 79 53 32 55 66 56 45 57 65 58 46 59 49 60 64 61 84 62
REMARK SMILES IDX 47 63 48 64 63 66 85 67 50 68 33 69 34 70 43 71 35 72 36 73
REMARK SMILES IDX 42 74 44 75 37 76 38 77 39 78 40 79 41 80 67 81 68 82 77 83
REMARK SMILES IDX 69 84 70 85 76 86 78 87 71 88 72 89 73 90 74 91 75 92 51 93
REMARK SMILES IDX 52 94 61 95 53 96 54 97 60 98 62 99 55 100 56 101 57 102
REMARK SMILES IDX 58 103 59 104
REMARK H PARENT 83 54 49 65
REMARK Flexibility Score: inf
ROOT
ATOM      1  O   UNL A   1      41.588  27.546  25.375  1.00  0.00    -0.377 OA
ENDROOT
BRANCH   1   2
ATOM      2  C   UNL A   1      42.378  28.652  25.780  1.00  0.00     0.188 C 
BRANCH   2   3
ATOM      3  C   UNL A   1      43.386  28.276  26.883  1.00  0.00     0.188 C 
BRANCH   3   4
ATOM      4  O   UNL A   1      44.580  29.045  26.802  1.00  0.00    -0.376 OA
BRANCH   4   5
ATOM      5  C   UNL A   1      45.625  28.591  25.957  1.00  0.00     0.202 C 
BRANCH   5   6
ATOM      6  C   UNL A   1      45.553  27.225  25.260  1.00  0.00     0.261 C 
BRANCH   6   7
ATOM      7  O   UNL A   1      46.451  26.205  25.703  1.00  0.00    -0.460 OA
BRANCH   7   8
ATOM      8  C   UNL A   1      46.651  25.098  24.950  1.00  0.00     0.338 C 
ATOM      9  O   UNL A   1      47.563  24.864  24.203  1.00  0.00    -0.246 OA
BRANCH   8  10
ATOM     10  C   UNL A   1      45.578  24.146  25.350  1.00  0.00     0.064 A 
ATOM     11  C   UNL A   1      44.353  22.913  27.039  1.00  0.00     0.162 A 
ATOM     12  C   UNL A   1      45.370  23.815  26.706  1.00  0.00     0.066 A 
ATOM     13  C   UNL A   1      43.644  22.285  26.002  1.00  0.00     0.161 A 
ATOM     14  C   UNL A   1      43.753  22.726  24.684  1.00  0.00     0.051 A 
ATOM     15  C   UNL A   1      44.724  23.654  24.355  1.00  0.00     0.020 A 
BRANCH  11  16
ATOM     16  O   UNL A   1      43.945  22.606  28.305  1.00  0.00    -0.490 OA
BRANCH  16  17
ATOM     17  C   UNL A   1      44.442  23.377  29.393  1.00  0.00     0.226 C 
ATOM     18  C   UNL A   1      43.509  24.576  29.516  1.00  0.00     0.049 C 
ENDBRANCH  16  17
ENDBRANCH  11  16
BRANCH  13  19
ATOM     19  O   UNL A   1      42.925  21.129  26.119  1.00  0.00    -0.485 OA
BRANCH  19  20
ATOM     20  C   UNL A   1      41.785  21.106  26.993  1.00  0.00     0.265 C 
BRANCH  20  21
ATOM     21  C   UNL A   1      40.324  21.201  26.529  1.00  0.00    -0.009 A 
ATOM     22  C   UNL A   1      39.800  20.091  25.843  1.00  0.00     0.009 A 
ATOM     23  C   UNL A   1      39.488  22.318  26.672  1.00  0.00     0.029 A 
ATOM     24  C   UNL A   1      38.548  20.144  25.222  1.00  0.00     0.022 A 
ATOM     25  C   UNL A   1      38.266  22.408  25.991  1.00  0.00     0.060 A 
ATOM     26  C   UNL A   1      37.798  21.318  25.257  1.00  0.00     0.059 A 
ATOM     27  Cl  UNL A   1      37.425  23.918  26.039  1.00  0.00    -0.083 Cl
ATOM     28  Cl  UNL A   1      36.319  21.358  24.366  1.00  0.00    -0.083 Cl
ENDBRANCH  20  21
ENDBRANCH  19  20
ENDBRANCH  13  19
ENDBRANCH   8  10
ENDBRANCH   7   8
ENDBRANCH   6   7
ENDBRANCH   5   6
ENDBRANCH   4   5
ENDBRANCH   3   4
ENDBRANCH   2   3
ENDBRANCH   1   2
BRANCH   1  29
ATOM     29  C   UNL A   1      41.913  26.276  25.935  1.00  0.00     0.188 C 
BRANCH  29  30
ATOM     30  C   UNL A   1      40.938  25.545  26.888  1.00  0.00     0.188 C 
BRANCH  30  31
ATOM     31  O   UNL A   1      39.877  26.354  27.395  1.00  0.00    -0.376 OA
BRANCH  31  32
ATOM     32  C   UNL A   1      40.154  27.163  28.529  1.00  0.00     0.202 C 
BRANCH  32  33
ATOM     33  C   UNL A   1      39.281  28.419  28.633  1.00  0.00     0.261 C 
BRANCH  33  34
ATOM     34  O   UNL A   1      39.944  29.569  29.174  1.00  0.00    -0.460 OA
BRANCH  34  35
ATOM     35  C   UNL A   1      39.184  30.434  29.881  1.00  0.00     0.338 C 
ATOM     36  O   UNL A   1      38.076  30.237  30.343  1.00  0.00    -0.246 OA
BRANCH  35  37
ATOM     37  C   UNL A   1      40.009  31.623  30.163  1.00  0.00     0.060 A 
ATOM     38  C   UNL A   1      41.378  31.454  30.402  1.00  0.00     0.016 A 
ATOM     39  C   UNL A   1      39.425  32.891  30.192  1.00  0.00     0.016 A 
ATOM     40  C   UNL A   1      42.164  32.560  30.718  1.00  0.00     0.010 A 
ATOM     41  C   UNL A   1      40.210  33.994  30.528  1.00  0.00     0.010 A 
ATOM     42  C   UNL A   1      41.572  33.826  30.828  1.00  0.00    -0.014 A 
BRANCH  42  43
ATOM     43  C   UNL A   1      42.319  34.934  31.461  1.00  0.00     0.031 A 
ATOM     44  C   UNL A   1      42.438  34.940  32.960  1.00  0.00     0.074 A 
ATOM     45  C   UNL A   1      42.877  35.911  30.725  1.00  0.00     0.049 A 
ATOM     46  N   UNL A   1      42.998  35.821  33.745  1.00  0.00    -0.248 NA
ATOM     47  C   UNL A   1      41.838  33.796  33.668  1.00  0.00     0.031 C 
ATOM     48  C   UNL A   1      42.848  35.992  29.266  1.00  0.00     0.029 A 
ATOM     49  N   UNL A   1      43.567  37.031  31.114  1.00  0.00    -0.354 N 
ATOM     50  C   UNL A   1      42.816  35.343  35.036  1.00  0.00     0.074 A 
ATOM     51  C   UNL A   1      42.069  34.110  34.933  1.00  0.00     0.031 C 
ATOM     52  C   UNL A   1      43.481  37.115  28.882  1.00  0.00     0.029 A 
ATOM     53  C   UNL A   1      43.933  37.842  30.068  1.00  0.00     0.049 A 
ATOM     54  H   UNL A   1      43.778  37.233  32.054  1.00  0.00     0.167 HD
ATOM     55  C   UNL A   1      43.243  35.880  36.203  1.00  0.00     0.037 A 
ATOM     56  C   UNL A   1      44.545  39.042  30.074  1.00  0.00     0.037 A 
ATOM     57  C   UNL A   1      43.975  37.113  36.299  1.00  0.00     0.049 A 
ATOM     58  C   UNL A   1      44.954  39.654  31.390  1.00  0.00     0.074 A 
ATOM     59  C   UNL A   1      44.464  37.738  37.432  1.00  0.00     0.029 A 
ATOM     60  N   UNL A   1      44.312  37.917  35.219  1.00  0.00    -0.354 N 
ATOM     61  N   UNL A   1      44.806  39.178  32.604  1.00  0.00    -0.248 NA
ATOM     62  C   UNL A   1      45.616  40.965  31.338  1.00  0.00     0.031 C 
ATOM     63  C   UNL A   1      45.059  38.943  37.041  1.00  0.00     0.029 A 
ATOM     64  C   UNL A   1      44.983  39.045  35.660  1.00  0.00     0.049 A 
ATOM     65  H   UNL A   1      44.104  37.716  34.278  1.00  0.00     0.167 HD
ATOM     66  C   UNL A   1      45.379  40.117  33.456  1.00  0.00     0.074 A 
ATOM     67  C   UNL A   1      45.885  41.185  32.618  1.00  0.00     0.031 C 
ATOM     68  C   UNL A   1      45.483  40.095  34.809  1.00  0.00     0.037 A 
BRANCH  55  69
ATOM     69  C   UNL A   1      42.896  35.144  37.467  1.00  0.00     0.058 A 
ATOM     70  C   UNL A   1      41.689  35.371  38.145  1.00  0.00     0.135 A 
ATOM     71  C   UNL A   1      43.782  34.196  38.004  1.00  0.00     0.135 A 
ATOM     72  F   UNL A   1      40.817  36.284  37.688  1.00  0.00    -0.206 F 
ATOM     73  C   UNL A   1      41.384  34.706  39.329  1.00  0.00     0.059 A 
ATOM     74  C   UNL A   1      43.486  33.500  39.171  1.00  0.00     0.059 A 
ATOM     75  F   UNL A   1      44.953  33.947  37.398  1.00  0.00    -0.206 F 
ATOM     76  C   UNL A   1      42.291  33.774  39.835  1.00  0.00     0.060 A 
BRANCH  76  77
ATOM     77  S   UNL A   1      41.886  32.923  41.374  1.00  0.00     0.124 S 
ATOM     78  O   UNL A   1      43.213  32.691  41.936  1.00  0.00    -0.237 OA
ATOM     79  O   UNL A   1      41.066  33.910  42.071  1.00  0.00    -0.237 OA
ATOM     80  O   UNL A   1      41.177  31.728  40.926  1.00  0.00    -0.744 OA
ENDBRANCH  76  77
ENDBRANCH  55  69
BRANCH  56  81
ATOM     81  C   UNL A   1      44.802  39.751  28.792  1.00  0.00     0.058 A 
ATOM     82  C   UNL A   1      43.902  40.705  28.298  1.00  0.00     0.135 A 
ATOM     83  C   UNL A   1      45.957  39.489  28.038  1.00  0.00     0.135 A 
ATOM     84  F   UNL A   1      42.777  40.980  28.976  1.00  0.00    -0.206 F 
ATOM     85  C   UNL A   1      44.131  41.370  27.097  1.00  0.00     0.059 A 
ATOM     86  C   UNL A   1      46.221  40.158  26.846  1.00  0.00     0.059 A 
ATOM     87  F   UNL A   1      46.854  38.589  28.471  1.00  0.00    -0.206 F 
ATOM     88  C   UNL A   1      45.296  41.092  26.380  1.00  0.00     0.060 A 
BRANCH  88  89
ATOM     89  S   UNL A   1      45.613  42.003  24.853  1.00  0.00     0.124 S 
ATOM     90  O   UNL A   1      44.414  41.702  24.078  1.00  0.00    -0.237 OA
ATOM     91  O   UNL A   1      45.736  43.375  25.334  1.00  0.00    -0.237 OA
ATOM     92  O   UNL A   1      46.851  41.406  24.358  1.00  0.00    -0.744 OA
ENDBRANCH  88  89
ENDBRANCH  56  81
BRANCH  68  93
ATOM     93  C   UNL A   1      46.198  41.242  35.471  1.00  0.00     0.058 A 
ATOM     94  C   UNL A   1      47.593  41.257  35.616  1.00  0.00     0.135 A 
ATOM     95  C   UNL A   1      45.480  42.367  35.908  1.00  0.00     0.135 A 
ATOM     96  F   UNL A   1      48.326  40.204  35.218  1.00  0.00    -0.206 F 
ATOM     97  C   UNL A   1      48.252  42.340  36.190  1.00  0.00     0.059 A 
ATOM     98  C   UNL A   1      46.120  43.472  36.461  1.00  0.00     0.059 A 
ATOM     99  F   UNL A   1      44.145  42.408  35.780  1.00  0.00    -0.206 F 
ATOM    100  C   UNL A   1      47.506  43.444  36.608  1.00  0.00     0.060 A 
BRANCH 100 101
ATOM    101  S   UNL A   1      48.374  44.859  37.318  1.00  0.00     0.124 S 
ATOM    102  O   UNL A   1      47.304  45.846  37.407  1.00  0.00    -0.237 OA
ATOM    103  O   UNL A   1      48.854  44.327  38.590  1.00  0.00    -0.237 OA
ATOM    104  O   UNL A   1      49.414  45.148  36.335  1.00  0.00    -0.744 OA
ENDBRANCH 100 101
ENDBRANCH  68  93
ENDBRANCH  42  43
ENDBRANCH  35  37
ENDBRANCH  34  35
ENDBRANCH  33  34
ENDBRANCH  32  33
ENDBRANCH  31  32
ENDBRANCH  30  31
ENDBRANCH  29  30
ENDBRANCH   1  29
TORSDOF 28
ENDMDL
