MODEL 1
REMARK VINA RESULT:      -9.0      0.000      0.000
REMARK SMILES CC1(C)Cc2c(c(N3CCOCC3)nc3sc(C(=O)OCCOCCOCCOCCOC(=O)c4ccc(-c5c6nc(c(-c7c(F)cc(S(=O)(=O)[O-])cc7F)c7ccc([nH]7)c(-c7c(F)cc(S(=O)(=O)[O-])cc7F)c7nc(c(-c8c(F)cc(S(=O)(=O)[O-])cc8F)c8ccc5[nH]8)C=C7)C=C6)cc4)c(N)c23)CS1
REMARK SMILES IDX 27 1 26 2 25 3 24 4 23 5 22 6 21 7 20 8 18 9 19 10 17 11
REMARK SMILES IDX 1 12 2 13 3 14 4 15 105 16 5 17 104 18 6 19 103 20 7 21
REMARK SMILES IDX 15 22 101 23 14 24 16 25 8 26 9 27 13 28 10 29 12 30 11 31
REMARK SMILES IDX 102 32 28 35 29 36 30 37 31 38 32 39 33 40 34 41 35 42 36 43
REMARK SMILES IDX 100 44 37 45 99 46 38 47 39 48 40 49 93 50 41 51 98 52 92 53
REMARK SMILES IDX 94 54 42 55 97 56 91 57 90 58 43 60 77 61 56 62 76 63 57 64
REMARK SMILES IDX 60 65 75 66 95 67 58 68 59 69 74 71 96 72 61 73 44 74 45 75
REMARK SMILES IDX 54 76 46 77 47 78 53 79 55 80 48 81 49 82 50 83 51 84 52 85
REMARK SMILES IDX 78 86 79 87 88 88 80 89 81 90 87 91 89 92 82 93 83 94 84 95
REMARK SMILES IDX 85 96 86 97 62 98 63 99 72 100 64 101 65 102 71 103 73 104
REMARK SMILES IDX 66 105 67 106 68 107 69 108 70 109
REMARK H PARENT 102 33 102 34 94 59 60 70
REMARK Flexibility Score: inf
ROOT
ATOM      1  C   UNL A   1      39.254  29.024  29.090  1.00  0.00     0.188 C 
ENDROOT
BRANCH   1   2
ATOM      2  O   UNL A   1      39.833  27.946  29.824  1.00  0.00    -0.377 OA
BRANCH   2   3
ATOM      3  C   UNL A   1      41.121  27.521  29.420  1.00  0.00     0.188 C 
BRANCH   3   4
ATOM      4  C   UNL A   1      41.189  27.071  27.946  1.00  0.00     0.188 C 
BRANCH   4   5
ATOM      5  O   UNL A   1      40.271  26.137  27.403  1.00  0.00    -0.376 OA
BRANCH   5   6
ATOM      6  C   UNL A   1      40.622  25.195  26.404  1.00  0.00     0.202 C 
BRANCH   6   7
ATOM      7  C   UNL A   1      41.097  23.756  26.677  1.00  0.00     0.261 C 
BRANCH   7   8
ATOM      8  O   UNL A   1      40.114  22.780  27.009  1.00  0.00    -0.459 OA
BRANCH   8   9
ATOM      9  C   UNL A   1      39.712  21.969  25.995  1.00  0.00     0.350 C 
ATOM     10  O   UNL A   1      40.450  21.202  25.388  1.00  0.00    -0.245 OA
BRANCH   9  11
ATOM     11  C   UNL A   1      38.267  22.000  25.887  1.00  0.00     0.138 A 
ATOM     12  C   UNL A   1      33.706  17.234  23.623  1.00  0.00     0.023 C 
ATOM     13  C   UNL A   1      33.481  18.577  24.336  1.00  0.00     0.015 C 
ATOM     14  C   UNL A   1      32.727  18.314  25.650  1.00  0.00     0.023 C 
ATOM     15  C   UNL A   1      34.830  19.276  24.579  1.00  0.00     0.054 C 
ATOM     16  S   UNL A   1      32.512  19.619  23.200  1.00  0.00    -0.150 SA
ATOM     17  C   UNL A   1      34.829  20.723  25.034  1.00  0.00    -0.027 A 
ATOM     18  C   UNL A   1      32.406  21.086  24.240  1.00  0.00     0.109 C 
ATOM     19  C   UNL A   1      33.665  21.536  24.949  1.00  0.00     0.009 A 
ATOM     20  C   UNL A   1      36.033  21.369  25.455  1.00  0.00     0.039 A 
ATOM     21  C   UNL A   1      33.689  22.851  25.470  1.00  0.00     0.134 A 
ATOM     22  C   UNL A   1      35.918  22.686  25.883  1.00  0.00     0.128 A 
ATOM     23  C   UNL A   1      37.424  20.975  25.497  1.00  0.00     0.067 A 
ATOM     24  N   UNL A   1      34.800  23.418  25.950  1.00  0.00    -0.220 NA
ATOM     25  S   UNL A   1      37.397  23.400  26.319  1.00  0.00    -0.106 S 
BRANCH  21  26
ATOM     26  N   UNL A   1      32.580  23.665  25.380  1.00  0.00    -0.352 N 
ATOM     27  C   UNL A   1      31.881  24.175  26.564  1.00  0.00     0.146 C 
ATOM     28  C   UNL A   1      32.478  24.580  24.237  1.00  0.00     0.146 C 
ATOM     29  C   UNL A   1      30.397  24.318  26.182  1.00  0.00     0.181 C 
ATOM     30  C   UNL A   1      30.982  24.751  23.917  1.00  0.00     0.181 C 
ATOM     31  O   UNL A   1      30.228  25.204  25.059  1.00  0.00    -0.378 OA
ENDBRANCH  21  26
BRANCH  23  32
ATOM     32  N   UNL A   1      37.894  19.742  25.188  1.00  0.00    -0.397 N 
ATOM     33  H   UNL A   1      38.074  19.505  24.250  1.00  0.00     0.156 HD
ATOM     34  H   UNL A   1      38.052  19.083  25.901  1.00  0.00     0.156 HD
ENDBRANCH  23  32
ENDBRANCH   9  11
ENDBRANCH   8   9
ENDBRANCH   7   8
ENDBRANCH   6   7
ENDBRANCH   5   6
ENDBRANCH   4   5
ENDBRANCH   3   4
ENDBRANCH   2   3
ENDBRANCH   1   2
BRANCH   1  35
ATOM     35  C   UNL A   1      37.723  29.054  28.836  1.00  0.00     0.188 C 
BRANCH  35  36
ATOM     36  O   UNL A   1      37.304  29.941  27.811  1.00  0.00    -0.376 OA
BRANCH  36  37
ATOM     37  C   UNL A   1      35.945  30.224  27.548  1.00  0.00     0.202 C 
BRANCH  37  38
ATOM     38  C   UNL A   1      35.419  31.620  27.853  1.00  0.00     0.261 C 
BRANCH  38  39
ATOM     39  O   UNL A   1      36.037  32.246  28.957  1.00  0.00    -0.460 OA
BRANCH  39  40
ATOM     40  C   UNL A   1      35.179  32.911  29.758  1.00  0.00     0.338 C 
ATOM     41  O   UNL A   1      34.212  33.559  29.414  1.00  0.00    -0.246 OA
BRANCH  40  42
ATOM     42  C   UNL A   1      35.701  32.839  31.125  1.00  0.00     0.060 A 
ATOM     43  C   UNL A   1      36.443  33.935  31.550  1.00  0.00     0.016 A 
ATOM     44  C   UNL A   1      35.735  31.598  31.786  1.00  0.00     0.016 A 
ATOM     45  C   UNL A   1      37.428  33.705  32.478  1.00  0.00     0.010 A 
ATOM     46  C   UNL A   1      36.721  31.372  32.713  1.00  0.00     0.010 A 
ATOM     47  C   UNL A   1      37.617  32.401  32.963  1.00  0.00    -0.014 A 
BRANCH  47  48
ATOM     48  C   UNL A   1      38.762  32.178  33.813  1.00  0.00     0.031 A 
ATOM     49  C   UNL A   1      38.652  32.910  35.087  1.00  0.00     0.074 A 
ATOM     50  C   UNL A   1      39.808  31.405  33.467  1.00  0.00     0.049 A 
ATOM     51  N   UNL A   1      39.261  34.002  35.402  1.00  0.00    -0.248 NA
ATOM     52  C   UNL A   1      37.578  32.522  36.013  1.00  0.00     0.031 C 
ATOM     53  C   UNL A   1      39.942  30.470  32.346  1.00  0.00     0.029 A 
ATOM     54  N   UNL A   1      40.989  31.267  34.119  1.00  0.00    -0.354 N 
ATOM     55  C   UNL A   1      38.819  34.316  36.678  1.00  0.00     0.074 A 
ATOM     56  C   UNL A   1      37.657  33.499  36.917  1.00  0.00     0.031 C 
ATOM     57  C   UNL A   1      41.049  29.711  32.529  1.00  0.00     0.029 A 
ATOM     58  C   UNL A   1      41.776  30.207  33.687  1.00  0.00     0.049 A 
ATOM     59  H   UNL A   1      41.270  31.873  34.843  1.00  0.00     0.167 HD
ATOM     60  C   UNL A   1      39.604  35.034  37.522  1.00  0.00     0.037 A 
ATOM     61  C   UNL A   1      42.917  29.768  34.278  1.00  0.00     0.037 A 
ATOM     62  C   UNL A   1      40.637  35.738  36.800  1.00  0.00     0.049 A 
ATOM     63  C   UNL A   1      43.452  30.911  35.066  1.00  0.00     0.074 A 
ATOM     64  C   UNL A   1      40.645  36.724  35.833  1.00  0.00     0.029 A 
ATOM     65  N   UNL A   1      41.887  35.167  36.768  1.00  0.00    -0.354 N 
ATOM     66  N   UNL A   1      43.911  32.009  34.528  1.00  0.00    -0.248 NA
ATOM     67  C   UNL A   1      43.050  31.023  36.460  1.00  0.00     0.031 C 
ATOM     68  C   UNL A   1      41.732  36.395  34.971  1.00  0.00     0.029 A 
ATOM     69  C   UNL A   1      42.365  35.262  35.485  1.00  0.00     0.049 A 
ATOM     70  H   UNL A   1      42.357  34.763  37.532  1.00  0.00     0.167 HD
ATOM     71  C   UNL A   1      43.463  33.028  35.357  1.00  0.00     0.074 A 
ATOM     72  C   UNL A   1      43.013  32.353  36.573  1.00  0.00     0.031 C 
ATOM     73  C   UNL A   1      43.245  34.287  34.875  1.00  0.00     0.037 A 
BRANCH  60  74
ATOM     74  C   UNL A   1      39.683  34.768  39.003  1.00  0.00     0.058 A 
ATOM     75  C   UNL A   1      40.044  33.481  39.447  1.00  0.00     0.135 A 
ATOM     76  C   UNL A   1      39.145  35.628  39.988  1.00  0.00     0.135 A 
ATOM     77  F   UNL A   1      40.557  32.582  38.594  1.00  0.00    -0.206 F 
ATOM     78  C   UNL A   1      39.811  33.055  40.755  1.00  0.00     0.059 A 
ATOM     79  C   UNL A   1      38.958  35.242  41.307  1.00  0.00     0.059 A 
ATOM     80  F   UNL A   1      38.679  36.849  39.705  1.00  0.00    -0.206 F 
ATOM     81  C   UNL A   1      39.253  33.940  41.672  1.00  0.00     0.060 A 
BRANCH  81  82
ATOM     82  S   UNL A   1      38.851  33.362  43.327  1.00  0.00     0.124 S 
ATOM     83  O   UNL A   1      38.655  34.622  44.035  1.00  0.00    -0.237 OA
ATOM     84  O   UNL A   1      37.651  32.569  43.082  1.00  0.00    -0.237 OA
ATOM     85  O   UNL A   1      40.034  32.598  43.712  1.00  0.00    -0.744 OA
ENDBRANCH  81  82
ENDBRANCH  60  74
BRANCH  61  86
ATOM     86  C   UNL A   1      43.333  28.362  34.542  1.00  0.00     0.058 A 
ATOM     87  C   UNL A   1      42.489  27.483  35.249  1.00  0.00     0.135 A 
ATOM     88  C   UNL A   1      44.403  27.766  33.846  1.00  0.00     0.135 A 
ATOM     89  F   UNL A   1      41.436  27.961  35.930  1.00  0.00    -0.206 F 
ATOM     90  C   UNL A   1      42.656  26.094  35.214  1.00  0.00     0.059 A 
ATOM     91  C   UNL A   1      44.592  26.383  33.801  1.00  0.00     0.059 A 
ATOM     92  F   UNL A   1      45.245  28.504  33.107  1.00  0.00    -0.206 F 
ATOM     93  C   UNL A   1      43.697  25.551  34.463  1.00  0.00     0.060 A 
BRANCH  93  94
ATOM     94  S   UNL A   1      43.805  23.755  34.264  1.00  0.00     0.124 S 
ATOM     95  O   UNL A   1      42.516  23.315  34.783  1.00  0.00    -0.237 OA
ATOM     96  O   UNL A   1      43.993  23.617  32.824  1.00  0.00    -0.237 OA
ATOM     97  O   UNL A   1      44.963  23.393  35.079  1.00  0.00    -0.744 OA
ENDBRANCH  93  94
ENDBRANCH  61  86
BRANCH  73  98
ATOM     98  C   UNL A   1      43.793  34.630  33.511  1.00  0.00     0.058 A 
ATOM     99  C   UNL A   1      43.114  34.418  32.297  1.00  0.00     0.135 A 
ATOM    100  C   UNL A   1      44.998  35.345  33.451  1.00  0.00     0.135 A 
ATOM    101  F   UNL A   1      41.912  33.824  32.274  1.00  0.00    -0.206 F 
ATOM    102  C   UNL A   1      43.627  34.871  31.078  1.00  0.00     0.059 A 
ATOM    103  C   UNL A   1      45.513  35.832  32.253  1.00  0.00     0.059 A 
ATOM    104  F   UNL A   1      45.667  35.629  34.581  1.00  0.00    -0.206 F 
ATOM    105  C   UNL A   1      44.827  35.583  31.067  1.00  0.00     0.060 A 
BRANCH 105 106
ATOM    106  S   UNL A   1      45.453  36.237  29.504  1.00  0.00     0.124 S 
ATOM    107  O   UNL A   1      46.654  35.436  29.292  1.00  0.00    -0.237 OA
ATOM    108  O   UNL A   1      44.347  35.978  28.587  1.00  0.00    -0.237 OA
ATOM    109  O   UNL A   1      45.690  37.650  29.795  1.00  0.00    -0.744 OA
ENDBRANCH 105 106
ENDBRANCH  73  98
ENDBRANCH  47  48
ENDBRANCH  40  42
ENDBRANCH  39  40
ENDBRANCH  38  39
ENDBRANCH  37  38
ENDBRANCH  36  37
ENDBRANCH  35  36
ENDBRANCH   1  35
TORSDOF 25
ENDMDL
MODEL 2
REMARK VINA RESULT:      -9.0      5.147     12.358
REMARK SMILES CC1(C)Cc2c(c(N3CCOCC3)nc3sc(C(=O)OCCOCCOCCOCCOC(=O)c4ccc(-c5c6nc(c(-c7c(F)cc(S(=O)(=O)[O-])cc7F)c7ccc([nH]7)c(-c7c(F)cc(S(=O)(=O)[O-])cc7F)c7nc(c(-c8c(F)cc(S(=O)(=O)[O-])cc8F)c8ccc5[nH]8)C=C7)C=C6)cc4)c(N)c23)CS1
REMARK SMILES IDX 27 1 26 2 25 3 24 4 23 5 22 6 21 7 20 8 18 9 19 10 17 11
REMARK SMILES IDX 1 12 2 13 3 14 4 15 105 16 5 17 104 18 6 19 103 20 7 21
REMARK SMILES IDX 15 22 101 23 14 24 16 25 8 26 9 27 13 28 10 29 12 30 11 31
REMARK SMILES IDX 102 32 28 35 29 36 30 37 31 38 32 39 33 40 34 41 35 42 36 43
REMARK SMILES IDX 100 44 37 45 99 46 38 47 39 48 40 49 93 50 41 51 98 52 92 53
REMARK SMILES IDX 94 54 42 55 97 56 91 57 90 58 43 60 77 61 56 62 76 63 57 64
REMARK SMILES IDX 60 65 75 66 95 67 58 68 59 69 74 71 96 72 61 73 44 74 45 75
REMARK SMILES IDX 54 76 46 77 47 78 53 79 55 80 48 81 49 82 50 83 51 84 52 85
REMARK SMILES IDX 78 86 79 87 88 88 80 89 81 90 87 91 89 92 82 93 83 94 84 95
REMARK SMILES IDX 85 96 86 97 62 98 63 99 72 100 64 101 65 102 71 103 73 104
REMARK SMILES IDX 66 105 67 106 68 107 69 108 70 109
REMARK H PARENT 102 33 102 34 94 59 60 70
REMARK Flexibility Score: inf
ROOT
ATOM      1  C   UNL A   1      34.423  36.615  32.552  1.00  0.00     0.188 C 
ENDROOT
BRANCH   1   2
ATOM      2  O   UNL A   1      34.579  36.036  33.847  1.00  0.00    -0.377 OA
BRANCH   2   3
ATOM      3  C   UNL A   1      34.684  34.627  33.905  1.00  0.00     0.188 C 
BRANCH   3   4
ATOM      4  C   UNL A   1      36.139  34.115  33.906  1.00  0.00     0.188 C 
BRANCH   4   5
ATOM      5  O   UNL A   1      37.216  34.913  34.369  1.00  0.00    -0.376 OA
BRANCH   5   6
ATOM      6  C   UNL A   1      38.496  34.387  34.675  1.00  0.00     0.202 C 
BRANCH   6   7
ATOM      7  C   UNL A   1      38.883  33.731  36.012  1.00  0.00     0.261 C 
BRANCH   7   8
ATOM      8  O   UNL A   1      37.840  33.413  36.927  1.00  0.00    -0.459 OA
BRANCH   8   9
ATOM      9  C   UNL A   1      37.891  32.174  37.484  1.00  0.00     0.350 C 
ATOM     10  O   UNL A   1      38.139  31.147  36.865  1.00  0.00    -0.245 OA
BRANCH   9  11
ATOM     11  C   UNL A   1      37.815  32.283  38.927  1.00  0.00     0.138 A 
ATOM     12  C   UNL A   1      42.715  33.569  43.721  1.00  0.00     0.023 C 
ATOM     13  C   UNL A   1      41.186  33.495  43.847  1.00  0.00     0.015 C 
ATOM     14  C   UNL A   1      40.671  34.847  44.368  1.00  0.00     0.023 C 
ATOM     15  C   UNL A   1      40.562  33.130  42.488  1.00  0.00     0.054 C 
ATOM     16  S   UNL A   1      40.819  32.141  45.008  1.00  0.00    -0.150 SA
ATOM     17  C   UNL A   1      39.094  32.752  42.438  1.00  0.00    -0.027 A 
ATOM     18  C   UNL A   1      39.022  32.258  44.965  1.00  0.00     0.109 C 
ATOM     19  C   UNL A   1      38.362  32.428  43.613  1.00  0.00     0.009 A 
ATOM     20  C   UNL A   1      38.414  32.586  41.192  1.00  0.00     0.039 A 
ATOM     21  C   UNL A   1      36.974  32.170  43.525  1.00  0.00     0.134 A 
ATOM     22  C   UNL A   1      37.062  32.270  41.256  1.00  0.00     0.128 A 
ATOM     23  C   UNL A   1      38.829  32.620  39.806  1.00  0.00     0.067 A 
ATOM     24  N   UNL A   1      36.322  32.109  42.360  1.00  0.00    -0.220 NA
ATOM     25  S   UNL A   1      36.336  32.040  39.737  1.00  0.00    -0.106 S 
BRANCH  21  26
ATOM     26  N   UNL A   1      36.247  31.832  44.647  1.00  0.00    -0.352 N 
ATOM     27  C   UNL A   1      35.221  32.714  45.213  1.00  0.00     0.146 C 
ATOM     28  C   UNL A   1      35.958  30.415  44.889  1.00  0.00     0.146 C 
ATOM     29  C   UNL A   1      35.208  32.470  46.732  1.00  0.00     0.181 C 
ATOM     30  C   UNL A   1      35.891  30.214  46.414  1.00  0.00     0.181 C 
ATOM     31  O   UNL A   1      34.932  31.090  47.039  1.00  0.00    -0.378 OA
ENDBRANCH  21  26
BRANCH  23  32
ATOM     32  N   UNL A   1      40.073  32.938  39.374  1.00  0.00    -0.397 N 
ATOM     33  H   UNL A   1      40.407  32.572  38.524  1.00  0.00     0.156 HD
ATOM     34  H   UNL A   1      40.642  33.534  39.911  1.00  0.00     0.156 HD
ENDBRANCH  23  32
ENDBRANCH   9  11
ENDBRANCH   8   9
ENDBRANCH   7   8
ENDBRANCH   6   7
ENDBRANCH   5   6
ENDBRANCH   4   5
ENDBRANCH   3   4
ENDBRANCH   2   3
ENDBRANCH   1   2
BRANCH   1  35
ATOM     35  C   UNL A   1      33.041  36.570  31.845  1.00  0.00     0.188 C 
BRANCH  35  36
ATOM     36  O   UNL A   1      33.095  36.530  30.428  1.00  0.00    -0.376 OA
BRANCH  36  37
ATOM     37  C   UNL A   1      32.963  35.334  29.687  1.00  0.00     0.202 C 
BRANCH  37  38
ATOM     38  C   UNL A   1      34.211  34.712  29.075  1.00  0.00     0.261 C 
BRANCH  38  39
ATOM     39  O   UNL A   1      35.185  34.315  30.018  1.00  0.00    -0.460 OA
BRANCH  39  40
ATOM     40  C   UNL A   1      35.140  33.004  30.331  1.00  0.00     0.338 C 
ATOM     41  O   UNL A   1      34.389  32.466  31.117  1.00  0.00    -0.246 OA
BRANCH  40  42
ATOM     42  C   UNL A   1      36.263  32.348  29.657  1.00  0.00     0.060 A 
ATOM     43  C   UNL A   1      36.144  30.975  29.474  1.00  0.00     0.016 A 
ATOM     44  C   UNL A   1      37.494  33.022  29.552  1.00  0.00     0.016 A 
ATOM     45  C   UNL A   1      37.303  30.241  29.453  1.00  0.00     0.010 A 
ATOM     46  C   UNL A   1      38.650  32.284  29.531  1.00  0.00     0.010 A 
ATOM     47  C   UNL A   1      38.533  30.903  29.590  1.00  0.00    -0.014 A 
BRANCH  47  48
ATOM     48  C   UNL A   1      39.710  30.079  29.721  1.00  0.00     0.031 A 
ATOM     49  C   UNL A   1      40.090  29.883  31.132  1.00  0.00     0.074 A 
ATOM     50  C   UNL A   1      40.383  29.567  28.674  1.00  0.00     0.049 A 
ATOM     51  N   UNL A   1      41.047  30.477  31.759  1.00  0.00    -0.248 NA
ATOM     52  C   UNL A   1      39.166  29.135  31.995  1.00  0.00     0.031 C 
ATOM     53  C   UNL A   1      39.997  29.508  27.262  1.00  0.00     0.029 A 
ATOM     54  N   UNL A   1      41.578  28.926  28.689  1.00  0.00    -0.354 N 
ATOM     55  C   UNL A   1      40.994  29.991  33.057  1.00  0.00     0.074 A 
ATOM     56  C   UNL A   1      39.718  29.337  33.193  1.00  0.00     0.031 C 
ATOM     57  C   UNL A   1      40.841  28.675  26.604  1.00  0.00     0.029 A 
ATOM     58  C   UNL A   1      41.906  28.272  27.508  1.00  0.00     0.049 A 
ATOM     59  H   UNL A   1      42.170  28.925  29.476  1.00  0.00     0.167 HD
ATOM     60  C   UNL A   1      42.115  29.947  33.823  1.00  0.00     0.037 A 
ATOM     61  C   UNL A   1      42.962  27.438  27.325  1.00  0.00     0.037 A 
ATOM     62  C   UNL A   1      43.136  30.822  33.302  1.00  0.00     0.049 A 
ATOM     63  C   UNL A   1      43.964  27.789  28.368  1.00  0.00     0.074 A 
ATOM     64  C   UNL A   1      43.237  32.186  33.100  1.00  0.00     0.029 A 
ATOM     65  N   UNL A   1      44.125  30.254  32.534  1.00  0.00    -0.354 N 
ATOM     66  N   UNL A   1      44.607  28.925  28.399  1.00  0.00    -0.248 NA
ATOM     67  C   UNL A   1      43.912  27.068  29.631  1.00  0.00     0.031 C 
ATOM     68  C   UNL A   1      43.973  32.333  31.888  1.00  0.00     0.029 A 
ATOM     69  C   UNL A   1      44.333  31.060  31.443  1.00  0.00     0.049 A 
ATOM     70  H   UNL A   1      44.602  29.416  32.733  1.00  0.00     0.167 HD
ATOM     71  C   UNL A   1      44.665  29.266  29.744  1.00  0.00     0.074 A 
ATOM     72  C   UNL A   1      44.297  28.044  30.458  1.00  0.00     0.031 C 
ATOM     73  C   UNL A   1      44.736  30.570  30.140  1.00  0.00     0.037 A 
BRANCH  60  74
ATOM     74  C   UNL A   1      42.417  28.823  34.780  1.00  0.00     0.058 A 
ATOM     75  C   UNL A   1      43.100  29.110  35.977  1.00  0.00     0.135 A 
ATOM     76  C   UNL A   1      42.323  27.453  34.441  1.00  0.00     0.135 A 
ATOM     77  F   UNL A   1      43.254  30.377  36.390  1.00  0.00    -0.206 F 
ATOM     78  C   UNL A   1      43.713  28.115  36.739  1.00  0.00     0.059 A 
ATOM     79  C   UNL A   1      42.878  26.444  35.215  1.00  0.00     0.059 A 
ATOM     80  F   UNL A   1      41.779  27.027  33.296  1.00  0.00    -0.206 F 
ATOM     81  C   UNL A   1      43.608  26.787  36.339  1.00  0.00     0.060 A 
BRANCH  81  82
ATOM     82  S   UNL A   1      44.488  25.514  37.256  1.00  0.00     0.124 S 
ATOM     83  O   UNL A   1      44.455  26.056  38.609  1.00  0.00    -0.237 OA
ATOM     84  O   UNL A   1      43.655  24.341  37.013  1.00  0.00    -0.237 OA
ATOM     85  O   UNL A   1      45.801  25.487  36.617  1.00  0.00    -0.744 OA
ENDBRANCH  81  82
ENDBRANCH  60  74
BRANCH  61  86
ATOM     86  C   UNL A   1      42.986  26.129  26.615  1.00  0.00     0.058 A 
ATOM     87  C   UNL A   1      43.846  25.921  25.519  1.00  0.00     0.135 A 
ATOM     88  C   UNL A   1      42.412  24.972  27.179  1.00  0.00     0.135 A 
ATOM     89  F   UNL A   1      44.448  26.963  24.926  1.00  0.00    -0.206 F 
ATOM     90  C   UNL A   1      44.171  24.640  25.055  1.00  0.00     0.059 A 
ATOM     91  C   UNL A   1      42.718  23.687  26.729  1.00  0.00     0.059 A 
ATOM     92  F   UNL A   1      41.609  25.050  28.251  1.00  0.00    -0.206 F 
ATOM     93  C   UNL A   1      43.622  23.526  25.685  1.00  0.00     0.060 A 
BRANCH  93  94
ATOM     94  S   UNL A   1      44.180  21.871  25.211  1.00  0.00     0.124 S 
ATOM     95  O   UNL A   1      45.413  21.737  25.978  1.00  0.00    -0.237 OA
ATOM     96  O   UNL A   1      43.066  21.035  25.644  1.00  0.00    -0.237 OA
ATOM     97  O   UNL A   1      44.354  21.974  23.764  1.00  0.00    -0.744 OA
ENDBRANCH  93  94
ENDBRANCH  61  86
BRANCH  73  98
ATOM     98  C   UNL A   1      45.065  31.612  29.098  1.00  0.00     0.058 A 
ATOM     99  C   UNL A   1      46.362  31.898  28.632  1.00  0.00     0.135 A 
ATOM    100  C   UNL A   1      43.998  32.238  28.438  1.00  0.00     0.135 A 
ATOM    101  F   UNL A   1      47.433  31.274  29.145  1.00  0.00    -0.206 F 
ATOM    102  C   UNL A   1      46.585  32.789  27.578  1.00  0.00     0.059 A 
ATOM    103  C   UNL A   1      44.194  33.104  27.367  1.00  0.00     0.059 A 
ATOM    104  F   UNL A   1      42.733  31.965  28.799  1.00  0.00    -0.206 F 
ATOM    105  C   UNL A   1      45.492  33.385  26.947  1.00  0.00     0.060 A 
BRANCH 105 106
ATOM    106  S   UNL A   1      45.772  34.474  25.535  1.00  0.00     0.124 S 
ATOM    107  O   UNL A   1      45.278  35.755  26.029  1.00  0.00    -0.237 OA
ATOM    108  O   UNL A   1      47.217  34.383  25.345  1.00  0.00    -0.237 OA
ATOM    109  O   UNL A   1      44.974  33.868  24.471  1.00  0.00    -0.744 OA
ENDBRANCH 105 106
ENDBRANCH  73  98
ENDBRANCH  47  48
ENDBRANCH  40  42
ENDBRANCH  39  40
ENDBRANCH  38  39
ENDBRANCH  37  38
ENDBRANCH  36  37
ENDBRANCH  35  36
ENDBRANCH   1  35
TORSDOF 25
ENDMDL
MODEL 3
REMARK VINA RESULT:      -8.7      5.104     12.967
REMARK SMILES CC1(C)Cc2c(c(N3CCOCC3)nc3sc(C(=O)OCCOCCOCCOCCOC(=O)c4ccc(-c5c6nc(c(-c7c(F)cc(S(=O)(=O)[O-])cc7F)c7ccc([nH]7)c(-c7c(F)cc(S(=O)(=O)[O-])cc7F)c7nc(c(-c8c(F)cc(S(=O)(=O)[O-])cc8F)c8ccc5[nH]8)C=C7)C=C6)cc4)c(N)c23)CS1
REMARK SMILES IDX 27 1 26 2 25 3 24 4 23 5 22 6 21 7 20 8 18 9 19 10 17 11
REMARK SMILES IDX 1 12 2 13 3 14 4 15 105 16 5 17 104 18 6 19 103 20 7 21
REMARK SMILES IDX 15 22 101 23 14 24 16 25 8 26 9 27 13 28 10 29 12 30 11 31
REMARK SMILES IDX 102 32 28 35 29 36 30 37 31 38 32 39 33 40 34 41 35 42 36 43
REMARK SMILES IDX 100 44 37 45 99 46 38 47 39 48 40 49 93 50 41 51 98 52 92 53
REMARK SMILES IDX 94 54 42 55 97 56 91 57 90 58 43 60 77 61 56 62 76 63 57 64
REMARK SMILES IDX 60 65 75 66 95 67 58 68 59 69 74 71 96 72 61 73 44 74 45 75
REMARK SMILES IDX 54 76 46 77 47 78 53 79 55 80 48 81 49 82 50 83 51 84 52 85
REMARK SMILES IDX 78 86 79 87 88 88 80 89 81 90 87 91 89 92 82 93 83 94 84 95
REMARK SMILES IDX 85 96 86 97 62 98 63 99 72 100 64 101 65 102 71 103 73 104
REMARK SMILES IDX 66 105 67 106 68 107 69 108 70 109
REMARK H PARENT 102 33 102 34 94 59 60 70
REMARK Flexibility Score: inf
ROOT
ATOM      1  C   UNL A   1      36.387  33.709  33.868  1.00  0.00     0.188 C 
ENDROOT
BRANCH   1   2
ATOM      2  O   UNL A   1      36.611  32.768  34.917  1.00  0.00    -0.377 OA
BRANCH   2   3
ATOM      3  C   UNL A   1      37.177  33.271  36.112  1.00  0.00     0.188 C 
BRANCH   3   4
ATOM      4  C   UNL A   1      38.718  33.197  36.144  1.00  0.00     0.188 C 
BRANCH   4   5
ATOM      5  O   UNL A   1      39.466  33.589  37.283  1.00  0.00    -0.376 OA
BRANCH   5   6
ATOM      6  C   UNL A   1      38.912  34.332  38.356  1.00  0.00     0.202 C 
BRANCH   6   7
ATOM      7  C   UNL A   1      38.417  33.730  39.684  1.00  0.00     0.261 C 
BRANCH   7   8
ATOM      8  O   UNL A   1      37.152  33.077  39.689  1.00  0.00    -0.459 OA
BRANCH   8   9
ATOM      9  C   UNL A   1      37.170  31.743  39.953  1.00  0.00     0.350 C 
ATOM     10  O   UNL A   1      37.404  30.876  39.120  1.00  0.00    -0.245 OA
BRANCH   9  11
ATOM     11  C   UNL A   1      37.078  31.527  41.383  1.00  0.00     0.138 A 
ATOM     12  C   UNL A   1      41.952  30.030  46.143  1.00  0.00     0.023 C 
ATOM     13  C   UNL A   1      40.474  30.415  46.309  1.00  0.00     0.015 C 
ATOM     14  C   UNL A   1      40.394  31.697  47.155  1.00  0.00     0.023 C 
ATOM     15  C   UNL A   1      39.818  30.597  44.929  1.00  0.00     0.054 C 
ATOM     16  S   UNL A   1      39.655  29.013  47.132  1.00  0.00    -0.150 SA
ATOM     17  C   UNL A   1      38.309  30.725  44.851  1.00  0.00    -0.027 A 
ATOM     18  C   UNL A   1      37.991  29.697  47.191  1.00  0.00     0.109 C 
ATOM     19  C   UNL A   1      37.468  30.381  45.945  1.00  0.00     0.009 A 
ATOM     20  C   UNL A   1      37.658  31.081  43.629  1.00  0.00     0.039 A 
ATOM     21  C   UNL A   1      36.075  30.603  45.855  1.00  0.00     0.134 A 
ATOM     22  C   UNL A   1      36.275  31.202  43.671  1.00  0.00     0.128 A 
ATOM     23  C   UNL A   1      38.114  31.309  42.275  1.00  0.00     0.067 A 
ATOM     24  N   UNL A   1      35.481  31.027  44.735  1.00  0.00    -0.220 NA
ATOM     25  S   UNL A   1      35.569  31.579  42.172  1.00  0.00    -0.106 S 
BRANCH  21  26
ATOM     26  N   UNL A   1      35.237  30.257  46.895  1.00  0.00    -0.352 N 
ATOM     27  C   UNL A   1      34.959  28.861  47.248  1.00  0.00     0.146 C 
ATOM     28  C   UNL A   1      35.162  31.150  48.056  1.00  0.00     0.146 C 
ATOM     29  C   UNL A   1      33.525  28.817  47.806  1.00  0.00     0.181 C 
ATOM     30  C   UNL A   1      33.737  31.040  48.628  1.00  0.00     0.181 C 
ATOM     31  O   UNL A   1      33.383  29.681  48.951  1.00  0.00    -0.378 OA
ENDBRANCH  21  26
BRANCH  23  32
ATOM     32  N   UNL A   1      39.409  31.310  41.880  1.00  0.00    -0.397 N 
ATOM     33  H   UNL A   1      40.026  30.619  42.211  1.00  0.00     0.156 HD
ATOM     34  H   UNL A   1      39.735  32.005  41.264  1.00  0.00     0.156 HD
ENDBRANCH  23  32
ENDBRANCH   9  11
ENDBRANCH   8   9
ENDBRANCH   7   8
ENDBRANCH   6   7
ENDBRANCH   5   6
ENDBRANCH   4   5
ENDBRANCH   3   4
ENDBRANCH   2   3
ENDBRANCH   1   2
BRANCH   1  35
ATOM     35  C   UNL A   1      35.382  33.376  32.732  1.00  0.00     0.188 C 
BRANCH  35  36
ATOM     36  O   UNL A   1      35.300  34.350  31.703  1.00  0.00    -0.376 OA
BRANCH  36  37
ATOM     37  C   UNL A   1      34.159  34.507  30.883  1.00  0.00     0.202 C 
BRANCH  37  38
ATOM     38  C   UNL A   1      34.242  34.074  29.426  1.00  0.00     0.261 C 
BRANCH  38  39
ATOM     39  O   UNL A   1      34.495  32.697  29.242  1.00  0.00    -0.460 OA
BRANCH  39  40
ATOM     40  C   UNL A   1      35.584  32.437  28.490  1.00  0.00     0.338 C 
ATOM     41  O   UNL A   1      35.764  32.752  27.332  1.00  0.00    -0.246 OA
BRANCH  40  42
ATOM     42  C   UNL A   1      36.470  31.573  29.274  1.00  0.00     0.060 A 
ATOM     43  C   UNL A   1      37.597  32.185  29.810  1.00  0.00     0.016 A 
ATOM     44  C   UNL A   1      36.348  30.176  29.161  1.00  0.00     0.016 A 
ATOM     45  C   UNL A   1      38.713  31.405  29.984  1.00  0.00     0.010 A 
ATOM     46  C   UNL A   1      37.466  29.400  29.335  1.00  0.00     0.010 A 
ATOM     47  C   UNL A   1      38.655  30.045  29.640  1.00  0.00    -0.014 A 
BRANCH  47  48
ATOM     48  C   UNL A   1      39.893  29.303  29.689  1.00  0.00     0.031 A 
ATOM     49  C   UNL A   1      40.319  29.035  31.073  1.00  0.00     0.074 A 
ATOM     50  C   UNL A   1      40.576  28.921  28.594  1.00  0.00     0.049 A 
ATOM     51  N   UNL A   1      41.245  29.652  31.726  1.00  0.00    -0.248 NA
ATOM     52  C   UNL A   1      39.473  28.159  31.896  1.00  0.00     0.031 C 
ATOM     53  C   UNL A   1      40.162  28.936  27.188  1.00  0.00     0.029 A 
ATOM     54  N   UNL A   1      41.815  28.373  28.540  1.00  0.00    -0.354 N 
ATOM     55  C   UNL A   1      41.258  29.071  32.985  1.00  0.00     0.074 A 
ATOM     56  C   UNL A   1      40.037  28.315  33.095  1.00  0.00     0.031 C 
ATOM     57  C   UNL A   1      41.049  28.219  26.456  1.00  0.00     0.029 A 
ATOM     58  C   UNL A   1      42.162  27.833  27.308  1.00  0.00     0.049 A 
ATOM     59  H   UNL A   1      42.424  28.359  29.314  1.00  0.00     0.167 HD
ATOM     60  C   UNL A   1      42.398  29.055  33.725  1.00  0.00     0.037 A 
ATOM     61  C   UNL A   1      43.272  27.096  27.044  1.00  0.00     0.037 A 
ATOM     62  C   UNL A   1      43.339  30.041  33.251  1.00  0.00     0.049 A 
ATOM     63  C   UNL A   1      44.270  27.445  28.091  1.00  0.00     0.074 A 
ATOM     64  C   UNL A   1      43.334  31.419  33.149  1.00  0.00     0.029 A 
ATOM     65  N   UNL A   1      44.348  29.606  32.425  1.00  0.00    -0.354 N 
ATOM     66  N   UNL A   1      44.828  28.621  28.195  1.00  0.00    -0.248 NA
ATOM     67  C   UNL A   1      44.301  26.632  29.298  1.00  0.00     0.031 C 
ATOM     68  C   UNL A   1      44.028  31.708  31.938  1.00  0.00     0.029 A 
ATOM     69  C   UNL A   1      44.470  30.502  31.393  1.00  0.00     0.049 A 
ATOM     70  H   UNL A   1      44.890  28.794  32.553  1.00  0.00     0.167 HD
ATOM     71  C   UNL A   1      44.892  28.866  29.560  1.00  0.00     0.074 A 
ATOM     72  C   UNL A   1      44.633  27.572  30.188  1.00  0.00     0.031 C 
ATOM     73  C   UNL A   1      44.877  30.140  30.051  1.00  0.00     0.037 A 
BRANCH  60  74
ATOM     74  C   UNL A   1      42.804  27.891  34.589  1.00  0.00     0.058 A 
ATOM     75  C   UNL A   1      42.943  28.086  35.977  1.00  0.00     0.135 A 
ATOM     76  C   UNL A   1      43.337  26.682  34.084  1.00  0.00     0.135 A 
ATOM     77  F   UNL A   1      42.480  29.202  36.561  1.00  0.00    -0.206 F 
ATOM     78  C   UNL A   1      43.632  27.185  36.788  1.00  0.00     0.059 A 
ATOM     79  C   UNL A   1      43.976  25.746  34.884  1.00  0.00     0.059 A 
ATOM     80  F   UNL A   1      43.357  26.391  32.779  1.00  0.00    -0.206 F 
ATOM     81  C   UNL A   1      44.158  26.025  36.227  1.00  0.00     0.060 A 
BRANCH  81  82
ATOM     82  S   UNL A   1      45.140  24.915  37.247  1.00  0.00     0.124 S 
ATOM     83  O   UNL A   1      44.934  23.640  36.570  1.00  0.00    -0.237 OA
ATOM     84  O   UNL A   1      46.471  25.499  37.125  1.00  0.00    -0.237 OA
ATOM     85  O   UNL A   1      44.525  25.038  38.565  1.00  0.00    -0.744 OA
ENDBRANCH  81  82
ENDBRANCH  60  74
BRANCH  61  86
ATOM     86  C   UNL A   1      43.375  25.848  26.238  1.00  0.00     0.058 A 
ATOM     87  C   UNL A   1      44.501  25.606  25.427  1.00  0.00     0.135 A 
ATOM     88  C   UNL A   1      42.542  24.739  26.484  1.00  0.00     0.135 A 
ATOM     89  F   UNL A   1      45.358  26.600  25.149  1.00  0.00    -0.206 F 
ATOM     90  C   UNL A   1      44.818  24.330  24.945  1.00  0.00     0.059 A 
ATOM     91  C   UNL A   1      42.835  23.458  26.011  1.00  0.00     0.059 A 
ATOM     92  F   UNL A   1      41.464  24.845  27.276  1.00  0.00    -0.206 F 
ATOM     93  C   UNL A   1      43.992  23.255  25.267  1.00  0.00     0.060 A 
BRANCH  93  94
ATOM     94  S   UNL A   1      44.494  21.579  24.805  1.00  0.00     0.124 S 
ATOM     95  O   UNL A   1      45.795  21.464  25.454  1.00  0.00    -0.237 OA
ATOM     96  O   UNL A   1      43.424  20.769  25.376  1.00  0.00    -0.237 OA
ATOM     97  O   UNL A   1      44.528  21.625  23.345  1.00  0.00    -0.744 OA
ENDBRANCH  93  94
ENDBRANCH  61  86
BRANCH  73  98
ATOM     98  C   UNL A   1      45.104  31.276  29.083  1.00  0.00     0.058 A 
ATOM     99  C   UNL A   1      46.365  31.795  28.737  1.00  0.00     0.135 A 
ATOM    100  C   UNL A   1      43.999  31.754  28.364  1.00  0.00     0.135 A 
ATOM    101  F   UNL A   1      47.485  31.328  29.310  1.00  0.00    -0.206 F 
ATOM    102  C   UNL A   1      46.513  32.766  27.742  1.00  0.00     0.059 A 
ATOM    103  C   UNL A   1      44.126  32.698  27.350  1.00  0.00     0.059 A 
ATOM    104  F   UNL A   1      42.774  31.259  28.609  1.00  0.00    -0.206 F 
ATOM    105  C   UNL A   1      45.386  33.209  27.050  1.00  0.00     0.060 A 
BRANCH 105 106
ATOM    106  S   UNL A   1      45.584  34.405  25.711  1.00  0.00     0.124 S 
ATOM    107  O   UNL A   1      45.197  35.656  26.354  1.00  0.00    -0.237 OA
ATOM    108  O   UNL A   1      46.999  34.275  25.376  1.00  0.00    -0.237 OA
ATOM    109  O   UNL A   1      44.664  33.923  24.682  1.00  0.00    -0.744 OA
ENDBRANCH 105 106
ENDBRANCH  73  98
ENDBRANCH  47  48
ENDBRANCH  40  42
ENDBRANCH  39  40
ENDBRANCH  38  39
ENDBRANCH  37  38
ENDBRANCH  36  37
ENDBRANCH  35  36
ENDBRANCH   1  35
TORSDOF 25
ENDMDL
