MODEL 1
REMARK VINA RESULT:      -6.4      0.000      0.000
REMARK SMILES CC(C)C[C@@H](CNc1ccc(C(N)=O)cc1)C(=O)OCCOCCOCCOCCOC(=O)c1ccc(-c2c3nc(c(-c4c(F)cc(S(=O)(=O)[O-])cc4F)c4ccc([nH]4)c(-c4c(F)cc(S(=O)(=O)[O-])cc4F)c4nc(c(-c5c(F)cc(S(=O)(=O)[O-])cc5F)c5ccc2[nH]5)C=C4)C=C3)cc1
REMARK SMILES IDX 24 1 23 2 22 3 21 4 20 5 19 6 17 7 18 8 5 9 4 10 2 11 1 12
REMARK SMILES IDX 3 13 6 14 7 15 8 17 9 18 16 19 10 20 15 21 11 22 12 23 13 24
REMARK SMILES IDX 14 25 25 28 26 29 27 30 28 31 29 32 30 33 31 34 32 35 33 36
REMARK SMILES IDX 34 37 35 38 99 39 36 40 98 41 37 42 38 43 39 44 92 45 40 46
REMARK SMILES IDX 97 47 91 48 93 49 41 50 96 51 90 52 89 53 42 55 76 56 55 57
REMARK SMILES IDX 75 58 56 59 59 60 74 61 94 62 57 63 58 64 73 66 95 67 60 68
REMARK SMILES IDX 43 69 44 70 53 71 45 72 46 73 52 74 54 75 47 76 48 77 49 78
REMARK SMILES IDX 50 79 51 80 77 81 78 82 87 83 79 84 80 85 86 86 88 87 81 88
REMARK SMILES IDX 82 89 83 90 84 91 85 92 61 93 62 94 71 95 63 96 64 97 70 98
REMARK SMILES IDX 72 99 65 100 66 101 67 102 68 103 69 104
REMARK H PARENT 7 16 13 26 13 27 93 54 59 65
REMARK Flexibility Score: inf
ROOT
ATOM      1  C   UNL A   1      44.272  44.214  32.033  1.00  0.00     0.188 C 
ENDROOT
BRANCH   1   2
ATOM      2  C   UNL A   1      45.217  43.693  30.946  1.00  0.00     0.188 C 
BRANCH   2   3
ATOM      3  O   UNL A   1      46.378  42.962  31.285  1.00  0.00    -0.376 OA
BRANCH   3   4
ATOM      4  C   UNL A   1      47.470  42.836  30.387  1.00  0.00     0.202 C 
BRANCH   4   5
ATOM      5  C   UNL A   1      47.429  43.237  28.900  1.00  0.00     0.261 C 
BRANCH   5   6
ATOM      6  O   UNL A   1      47.744  42.225  27.924  1.00  0.00    -0.463 OA
BRANCH   6   7
ATOM      7  C   UNL A   1      46.680  41.674  27.302  1.00  0.00     0.310 C 
ATOM      8  O   UNL A   1      45.537  41.678  27.763  1.00  0.00    -0.252 OA
BRANCH   7   9
ATOM      9  C   UNL A   1      46.964  40.983  25.978  1.00  0.00     0.118 C 
BRANCH   9  10
ATOM     10  C   UNL A   1      47.739  39.647  25.895  1.00  0.00     0.020 C 
BRANCH  10  11
ATOM     11  C   UNL A   1      47.132  38.526  26.786  1.00  0.00    -0.017 C 
ATOM     12  C   UNL A   1      47.310  38.793  28.287  1.00  0.00     0.007 C 
ATOM     13  C   UNL A   1      45.639  38.347  26.497  1.00  0.00     0.007 C 
ENDBRANCH  10  11
ENDBRANCH   9  10
BRANCH   9  14
ATOM     14  C   UNL A   1      45.634  40.941  25.222  1.00  0.00     0.128 C 
BRANCH  14  15
ATOM     15  N   UNL A   1      45.112  42.283  25.005  1.00  0.00    -0.384 N 
ATOM     16  H   UNL A   1      45.283  42.981  25.678  1.00  0.00     0.160 HD
BRANCH  15  17
ATOM     17  C   UNL A   1      44.382  42.598  23.873  1.00  0.00     0.034 A 
ATOM     18  C   UNL A   1      45.033  42.721  22.638  1.00  0.00     0.026 A 
ATOM     19  C   UNL A   1      42.996  42.744  23.906  1.00  0.00     0.026 A 
ATOM     20  C   UNL A   1      44.320  43.017  21.469  1.00  0.00     0.016 A 
ATOM     21  C   UNL A   1      42.280  43.054  22.749  1.00  0.00     0.016 A 
ATOM     22  C   UNL A   1      42.936  43.206  21.523  1.00  0.00     0.039 A 
BRANCH  22  23
ATOM     23  C   UNL A   1      42.107  43.566  20.339  1.00  0.00     0.248 C 
ATOM     24  N   UNL A   1      42.725  44.116  19.253  1.00  0.00    -0.366 N 
ATOM     25  O   UNL A   1      40.893  43.390  20.342  1.00  0.00    -0.270 OA
ATOM     26  H   UNL A   1      43.699  44.253  19.259  1.00  0.00     0.159 HD
ATOM     27  H   UNL A   1      42.195  44.374  18.464  1.00  0.00     0.159 HD
ENDBRANCH  22  23
ENDBRANCH  15  17
ENDBRANCH  14  15
ENDBRANCH   9  14
ENDBRANCH   7   9
ENDBRANCH   6   7
ENDBRANCH   5   6
ENDBRANCH   4   5
ENDBRANCH   3   4
ENDBRANCH   2   3
ENDBRANCH   1   2
BRANCH   1  28
ATOM     28  O   UNL A   1      42.943  43.736  31.994  1.00  0.00    -0.377 OA
BRANCH  28  29
ATOM     29  C   UNL A   1      42.712  42.336  31.873  1.00  0.00     0.188 C 
BRANCH  29  30
ATOM     30  C   UNL A   1      42.206  41.758  30.539  1.00  0.00     0.188 C 
BRANCH  30  31
ATOM     31  O   UNL A   1      42.404  40.360  30.392  1.00  0.00    -0.376 OA
BRANCH  31  32
ATOM     32  C   UNL A   1      42.561  39.822  29.087  1.00  0.00     0.202 C 
BRANCH  32  33
ATOM     33  C   UNL A   1      43.506  38.623  28.898  1.00  0.00     0.261 C 
BRANCH  33  34
ATOM     34  O   UNL A   1      42.971  37.324  29.201  1.00  0.00    -0.460 OA
BRANCH  34  35
ATOM     35  C   UNL A   1      42.442  36.599  28.196  1.00  0.00     0.338 C 
ATOM     36  O   UNL A   1      41.408  36.831  27.588  1.00  0.00    -0.246 OA
BRANCH  35  37
ATOM     37  C   UNL A   1      43.427  35.572  27.805  1.00  0.00     0.060 A 
ATOM     38  C   UNL A   1      44.145  34.908  28.807  1.00  0.00     0.016 A 
ATOM     39  C   UNL A   1      43.664  35.288  26.457  1.00  0.00     0.016 A 
ATOM     40  C   UNL A   1      45.140  33.994  28.465  1.00  0.00     0.010 A 
ATOM     41  C   UNL A   1      44.676  34.387  26.116  1.00  0.00     0.010 A 
ATOM     42  C   UNL A   1      45.448  33.772  27.117  1.00  0.00    -0.014 A 
BRANCH  42  43
ATOM     43  C   UNL A   1      46.710  33.075  26.764  1.00  0.00     0.031 A 
ATOM     44  C   UNL A   1      46.698  31.570  26.699  1.00  0.00     0.074 A 
ATOM     45  C   UNL A   1      47.830  33.758  26.469  1.00  0.00     0.049 A 
ATOM     46  N   UNL A   1      47.677  30.741  26.450  1.00  0.00    -0.248 NA
ATOM     47  C   UNL A   1      45.404  30.915  26.953  1.00  0.00     0.031 C 
ATOM     48  C   UNL A   1      47.954  35.214  26.450  1.00  0.00     0.029 A 
ATOM     49  N   UNL A   1      49.084  33.308  26.134  1.00  0.00    -0.354 N 
ATOM     50  C   UNL A   1      47.121  29.468  26.525  1.00  0.00     0.074 A 
ATOM     51  C   UNL A   1      45.728  29.633  26.876  1.00  0.00     0.031 C 
ATOM     52  C   UNL A   1      49.220  35.539  26.131  1.00  0.00     0.029 A 
ATOM     53  C   UNL A   1      50.002  34.315  25.958  1.00  0.00     0.049 A 
ATOM     54  H   UNL A   1      49.304  32.354  26.030  1.00  0.00     0.167 HD
ATOM     55  C   UNL A   1      47.716  28.271  26.311  1.00  0.00     0.037 A 
ATOM     56  C   UNL A   1      51.326  34.253  25.709  1.00  0.00     0.037 A 
ATOM     57  C   UNL A   1      49.103  28.114  25.962  1.00  0.00     0.049 A 
ATOM     58  C   UNL A   1      51.984  32.906  25.547  1.00  0.00     0.074 A 
ATOM     59  C   UNL A   1      49.800  26.946  25.710  1.00  0.00     0.029 A 
ATOM     60  N   UNL A   1      50.009  29.157  25.824  1.00  0.00    -0.354 N 
ATOM     61  N   UNL A   1      51.445  31.710  25.602  1.00  0.00    -0.248 NA
ATOM     62  C   UNL A   1      53.430  32.898  25.282  1.00  0.00     0.031 C 
ATOM     63  C   UNL A   1      51.139  27.277  25.481  1.00  0.00     0.029 A 
ATOM     64  C   UNL A   1      51.264  28.657  25.518  1.00  0.00     0.049 A 
ATOM     65  H   UNL A   1      49.791  30.111  25.927  1.00  0.00     0.167 HD
ATOM     66  C   UNL A   1      52.478  30.813  25.346  1.00  0.00     0.074 A 
ATOM     67  C   UNL A   1      53.671  31.604  25.125  1.00  0.00     0.031 C 
ATOM     68  C   UNL A   1      52.442  29.457  25.294  1.00  0.00     0.037 A 
BRANCH  55  69
ATOM     69  C   UNL A   1      46.875  27.034  26.481  1.00  0.00     0.058 A 
ATOM     70  C   UNL A   1      46.815  26.336  27.697  1.00  0.00     0.135 A 
ATOM     71  C   UNL A   1      46.094  26.557  25.415  1.00  0.00     0.135 A 
ATOM     72  F   UNL A   1      47.559  26.734  28.743  1.00  0.00    -0.206 F 
ATOM     73  C   UNL A   1      46.032  25.196  27.845  1.00  0.00     0.059 A 
ATOM     74  C   UNL A   1      45.277  25.439  25.549  1.00  0.00     0.059 A 
ATOM     75  F   UNL A   1      46.116  27.182  24.227  1.00  0.00    -0.206 F 
ATOM     76  C   UNL A   1      45.264  24.756  26.765  1.00  0.00     0.060 A 
BRANCH  76  77
ATOM     77  S   UNL A   1      44.246  23.281  26.975  1.00  0.00     0.124 S 
ATOM     78  O   UNL A   1      43.020  23.672  26.286  1.00  0.00    -0.237 OA
ATOM     79  O   UNL A   1      45.045  22.255  26.313  1.00  0.00    -0.237 OA
ATOM     80  O   UNL A   1      44.134  23.147  28.424  1.00  0.00    -0.744 OA
ENDBRANCH  76  77
ENDBRANCH  55  69
BRANCH  56  81
ATOM     81  C   UNL A   1      52.126  35.505  25.610  1.00  0.00     0.058 A 
ATOM     82  C   UNL A   1      52.306  36.159  24.383  1.00  0.00     0.135 A 
ATOM     83  C   UNL A   1      52.729  36.071  26.745  1.00  0.00     0.135 A 
ATOM     84  F   UNL A   1      51.762  35.651  23.266  1.00  0.00    -0.206 F 
ATOM     85  C   UNL A   1      53.061  37.322  24.279  1.00  0.00     0.059 A 
ATOM     86  C   UNL A   1      53.464  37.249  26.673  1.00  0.00     0.059 A 
ATOM     87  F   UNL A   1      52.582  35.491  27.946  1.00  0.00    -0.206 F 
ATOM     88  C   UNL A   1      53.629  37.865  25.433  1.00  0.00     0.060 A 
BRANCH  88  89
ATOM     89  S   UNL A   1      54.540  39.417  25.300  1.00  0.00     0.124 S 
ATOM     90  O   UNL A   1      54.035  39.950  24.041  1.00  0.00    -0.237 OA
ATOM     91  O   UNL A   1      54.119  40.117  26.511  1.00  0.00    -0.237 OA
ATOM     92  O   UNL A   1      55.935  38.986  25.293  1.00  0.00    -0.744 OA
ENDBRANCH  88  89
ENDBRANCH  56  81
BRANCH  68  93
ATOM     93  C   UNL A   1      53.717  28.738  24.940  1.00  0.00     0.058 A 
ATOM     94  C   UNL A   1      54.615  28.287  25.920  1.00  0.00     0.135 A 
ATOM     95  C   UNL A   1      54.019  28.453  23.597  1.00  0.00     0.135 A 
ATOM     96  F   UNL A   1      54.379  28.534  27.218  1.00  0.00    -0.206 F 
ATOM     97  C   UNL A   1      55.781  27.606  25.581  1.00  0.00     0.059 A 
ATOM     98  C   UNL A   1      55.161  27.745  23.237  1.00  0.00     0.059 A 
ATOM     99  F   UNL A   1      53.190  28.849  22.618  1.00  0.00    -0.206 F 
ATOM    100  C   UNL A   1      56.043  27.338  24.236  1.00  0.00     0.060 A 
BRANCH 100 101
ATOM    101  S   UNL A   1      57.547  26.433  23.812  1.00  0.00     0.124 S 
ATOM    102  O   UNL A   1      58.582  27.333  24.310  1.00  0.00    -0.237 OA
ATOM    103  O   UNL A   1      57.380  25.187  24.554  1.00  0.00    -0.237 OA
ATOM    104  O   UNL A   1      57.472  26.307  22.360  1.00  0.00    -0.744 OA
ENDBRANCH 100 101
ENDBRANCH  68  93
ENDBRANCH  42  43
ENDBRANCH  35  37
ENDBRANCH  34  35
ENDBRANCH  33  34
ENDBRANCH  32  33
ENDBRANCH  31  32
ENDBRANCH  30  31
ENDBRANCH  29  30
ENDBRANCH  28  29
ENDBRANCH   1  28
TORSDOF 29
ENDMDL
MODEL 2
REMARK VINA RESULT:      -6.4      4.741      9.711
REMARK SMILES CC(C)C[C@@H](CNc1ccc(C(N)=O)cc1)C(=O)OCCOCCOCCOCCOC(=O)c1ccc(-c2c3nc(c(-c4c(F)cc(S(=O)(=O)[O-])cc4F)c4ccc([nH]4)c(-c4c(F)cc(S(=O)(=O)[O-])cc4F)c4nc(c(-c5c(F)cc(S(=O)(=O)[O-])cc5F)c5ccc2[nH]5)C=C4)C=C3)cc1
REMARK SMILES IDX 24 1 23 2 22 3 21 4 20 5 19 6 17 7 18 8 5 9 4 10 2 11 1 12
REMARK SMILES IDX 3 13 6 14 7 15 8 17 9 18 16 19 10 20 15 21 11 22 12 23 13 24
REMARK SMILES IDX 14 25 25 28 26 29 27 30 28 31 29 32 30 33 31 34 32 35 33 36
REMARK SMILES IDX 34 37 35 38 99 39 36 40 98 41 37 42 38 43 39 44 92 45 40 46
REMARK SMILES IDX 97 47 91 48 93 49 41 50 96 51 90 52 89 53 42 55 76 56 55 57
REMARK SMILES IDX 75 58 56 59 59 60 74 61 94 62 57 63 58 64 73 66 95 67 60 68
REMARK SMILES IDX 43 69 44 70 53 71 45 72 46 73 52 74 54 75 47 76 48 77 49 78
REMARK SMILES IDX 50 79 51 80 77 81 78 82 87 83 79 84 80 85 86 86 88 87 81 88
REMARK SMILES IDX 82 89 83 90 84 91 85 92 61 93 62 94 71 95 63 96 64 97 70 98
REMARK SMILES IDX 72 99 65 100 66 101 67 102 68 103 69 104
REMARK H PARENT 7 16 13 26 13 27 93 54 59 65
REMARK Flexibility Score: inf
ROOT
ATOM      1  C   UNL A   1      43.906  42.210  26.556  1.00  0.00     0.188 C 
ENDROOT
BRANCH   1   2
ATOM      2  C   UNL A   1      44.740  42.982  25.531  1.00  0.00     0.188 C 
BRANCH   2   3
ATOM      3  O   UNL A   1      44.166  43.435  24.322  1.00  0.00    -0.376 OA
BRANCH   3   4
ATOM      4  C   UNL A   1      44.790  44.430  23.524  1.00  0.00     0.202 C 
BRANCH   4   5
ATOM      5  C   UNL A   1      45.683  44.137  22.304  1.00  0.00     0.261 C 
BRANCH   5   6
ATOM      6  O   UNL A   1      46.279  45.258  21.624  1.00  0.00    -0.463 OA
BRANCH   6   7
ATOM      7  C   UNL A   1      45.489  45.864  20.712  1.00  0.00     0.310 C 
ATOM      8  O   UNL A   1      45.108  47.033  20.802  1.00  0.00    -0.252 OA
BRANCH   7   9
ATOM      9  C   UNL A   1      45.035  45.004  19.544  1.00  0.00     0.118 C 
BRANCH   9  10
ATOM     10  C   UNL A   1      43.694  45.250  18.812  1.00  0.00     0.020 C 
BRANCH  10  11
ATOM     11  C   UNL A   1      42.698  44.061  18.932  1.00  0.00    -0.017 C 
ATOM     12  C   UNL A   1      42.515  43.577  20.377  1.00  0.00     0.007 C 
ATOM     13  C   UNL A   1      41.326  44.441  18.367  1.00  0.00     0.007 C 
ENDBRANCH  10  11
ENDBRANCH   9  10
BRANCH   9  14
ATOM     14  C   UNL A   1      46.223  44.921  18.585  1.00  0.00     0.128 C 
BRANCH  14  15
ATOM     15  N   UNL A   1      47.164  46.008  18.821  1.00  0.00    -0.384 N 
ATOM     16  H   UNL A   1      46.851  46.825  19.272  1.00  0.00     0.160 HD
BRANCH  15  17
ATOM     17  C   UNL A   1      48.486  45.915  18.426  1.00  0.00     0.034 A 
ATOM     18  C   UNL A   1      49.476  46.590  19.152  1.00  0.00     0.026 A 
ATOM     19  C   UNL A   1      48.881  45.119  17.352  1.00  0.00     0.026 A 
ATOM     20  C   UNL A   1      50.828  46.500  18.792  1.00  0.00     0.016 A 
ATOM     21  C   UNL A   1      50.223  45.035  16.977  1.00  0.00     0.016 A 
ATOM     22  C   UNL A   1      51.206  45.735  17.685  1.00  0.00     0.039 A 
BRANCH  22  23
ATOM     23  C   UNL A   1      52.612  45.618  17.206  1.00  0.00     0.248 C 
ATOM     24  N   UNL A   1      52.878  45.888  15.894  1.00  0.00    -0.366 N 
ATOM     25  O   UNL A   1      53.512  45.271  17.964  1.00  0.00    -0.270 OA
ATOM     26  H   UNL A   1      52.152  46.166  15.292  1.00  0.00     0.159 HD
ATOM     27  H   UNL A   1      53.797  45.805  15.551  1.00  0.00     0.159 HD
ENDBRANCH  22  23
ENDBRANCH  15  17
ENDBRANCH  14  15
ENDBRANCH   9  14
ENDBRANCH   7   9
ENDBRANCH   6   7
ENDBRANCH   5   6
ENDBRANCH   4   5
ENDBRANCH   3   4
ENDBRANCH   2   3
ENDBRANCH   1   2
BRANCH   1  28
ATOM     28  O   UNL A   1      44.612  41.621  27.629  1.00  0.00    -0.377 OA
BRANCH  28  29
ATOM     29  C   UNL A   1      45.801  42.245  28.102  1.00  0.00     0.188 C 
BRANCH  29  30
ATOM     30  C   UNL A   1      46.631  41.569  29.209  1.00  0.00     0.188 C 
BRANCH  30  31
ATOM     31  O   UNL A   1      46.188  40.268  29.563  1.00  0.00    -0.376 OA
BRANCH  31  32
ATOM     32  C   UNL A   1      47.135  39.329  30.051  1.00  0.00     0.202 C 
BRANCH  32  33
ATOM     33  C   UNL A   1      48.209  38.803  29.084  1.00  0.00     0.261 C 
BRANCH  33  34
ATOM     34  O   UNL A   1      48.108  37.424  28.692  1.00  0.00    -0.460 OA
BRANCH  34  35
ATOM     35  C   UNL A   1      48.830  36.511  29.372  1.00  0.00     0.338 C 
ATOM     36  O   UNL A   1      49.842  36.713  30.026  1.00  0.00    -0.246 OA
BRANCH  35  37
ATOM     37  C   UNL A   1      48.080  35.240  29.365  1.00  0.00     0.060 A 
ATOM     38  C   UNL A   1      48.627  34.129  30.020  1.00  0.00     0.016 A 
ATOM     39  C   UNL A   1      46.860  35.135  28.692  1.00  0.00     0.016 A 
ATOM     40  C   UNL A   1      47.983  32.894  29.959  1.00  0.00     0.010 A 
ATOM     41  C   UNL A   1      46.226  33.892  28.614  1.00  0.00     0.010 A 
ATOM     42  C   UNL A   1      46.807  32.758  29.209  1.00  0.00    -0.014 A 
BRANCH  42  43
ATOM     43  C   UNL A   1      46.317  31.400  28.866  1.00  0.00     0.031 A 
ATOM     44  C   UNL A   1      44.876  31.071  29.155  1.00  0.00     0.074 A 
ATOM     45  C   UNL A   1      47.115  30.493  28.278  1.00  0.00     0.049 A 
ATOM     46  N   UNL A   1      44.228  29.949  28.979  1.00  0.00    -0.248 NA
ATOM     47  C   UNL A   1      44.057  32.157  29.720  1.00  0.00     0.031 C 
ATOM     48  C   UNL A   1      48.512  30.709  27.905  1.00  0.00     0.029 A 
ATOM     49  N   UNL A   1      46.861  29.198  27.895  1.00  0.00    -0.354 N 
ATOM     50  C   UNL A   1      42.931  30.190  29.420  1.00  0.00     0.074 A 
ATOM     51  C   UNL A   1      42.892  31.553  29.902  1.00  0.00     0.031 C 
ATOM     52  C   UNL A   1      48.996  29.580  27.357  1.00  0.00     0.029 A 
ATOM     53  C   UNL A   1      47.955  28.553  27.372  1.00  0.00     0.049 A 
ATOM     54  H   UNL A   1      45.977  28.774  27.988  1.00  0.00     0.167 HD
ATOM     55  C   UNL A   1      41.866  29.354  29.414  1.00  0.00     0.037 A 
ATOM     56  C   UNL A   1      48.103  27.273  26.974  1.00  0.00     0.037 A 
ATOM     57  C   UNL A   1      41.912  27.999  28.933  1.00  0.00     0.049 A 
ATOM     58  C   UNL A   1      46.923  26.337  27.045  1.00  0.00     0.074 A 
ATOM     59  C   UNL A   1      40.886  27.072  28.871  1.00  0.00     0.029 A 
ATOM     60  N   UNL A   1      43.047  27.370  28.440  1.00  0.00    -0.354 N 
ATOM     61  N   UNL A   1      45.697  26.580  27.446  1.00  0.00    -0.248 NA
ATOM     62  C   UNL A   1      47.143  24.952  26.603  1.00  0.00     0.031 C 
ATOM     63  C   UNL A   1      41.414  25.867  28.398  1.00  0.00     0.029 A 
ATOM     64  C   UNL A   1      42.753  26.060  28.098  1.00  0.00     0.049 A 
ATOM     65  H   UNL A   1      43.931  27.793  28.346  1.00  0.00     0.167 HD
ATOM     66  C   UNL A   1      44.994  25.392  27.273  1.00  0.00     0.074 A 
ATOM     67  C   UNL A   1      45.929  24.433  26.721  1.00  0.00     0.031 C 
ATOM     68  C   UNL A   1      43.692  25.118  27.542  1.00  0.00     0.037 A 
BRANCH  55  69
ATOM     69  C   UNL A   1      40.569  29.872  29.974  1.00  0.00     0.058 A 
ATOM     70  C   UNL A   1      39.453  30.121  29.161  1.00  0.00     0.135 A 
ATOM     71  C   UNL A   1      40.433  30.094  31.355  1.00  0.00     0.135 A 
ATOM     72  F   UNL A   1      39.532  29.948  27.831  1.00  0.00    -0.206 F 
ATOM     73  C   UNL A   1      38.257  30.596  29.690  1.00  0.00     0.059 A 
ATOM     74  C   UNL A   1      39.237  30.536  31.911  1.00  0.00     0.059 A 
ATOM     75  F   UNL A   1      41.469  29.877  32.180  1.00  0.00    -0.206 F 
ATOM     76  C   UNL A   1      38.157  30.798  31.068  1.00  0.00     0.060 A 
BRANCH  76  77
ATOM     77  S   UNL A   1      36.597  31.405  31.740  1.00  0.00     0.124 S 
ATOM     78  O   UNL A   1      35.964  30.164  32.175  1.00  0.00    -0.237 OA
ATOM     79  O   UNL A   1      37.044  32.296  32.806  1.00  0.00    -0.237 OA
ATOM     80  O   UNL A   1      35.967  32.063  30.599  1.00  0.00    -0.744 OA
ENDBRANCH  76  77
ENDBRANCH  55  69
BRANCH  56  81
ATOM     81  C   UNL A   1      49.424  26.793  26.483  1.00  0.00     0.058 A 
ATOM     82  C   UNL A   1      50.453  26.455  27.374  1.00  0.00     0.135 A 
ATOM     83  C   UNL A   1      49.683  26.666  25.109  1.00  0.00     0.135 A 
ATOM     84  F   UNL A   1      50.260  26.573  28.697  1.00  0.00    -0.206 F 
ATOM     85  C   UNL A   1      51.694  26.017  26.924  1.00  0.00     0.059 A 
ATOM     86  C   UNL A   1      50.905  26.202  24.634  1.00  0.00     0.059 A 
ATOM     87  F   UNL A   1      48.731  26.967  24.213  1.00  0.00    -0.206 F 
ATOM     88  C   UNL A   1      51.907  25.885  25.551  1.00  0.00     0.060 A 
BRANCH  88  89
ATOM     89  S   UNL A   1      53.494  25.241  24.980  1.00  0.00     0.124 S 
ATOM     90  O   UNL A   1      53.472  25.607  23.570  1.00  0.00    -0.237 OA
ATOM     91  O   UNL A   1      54.435  25.976  25.821  1.00  0.00    -0.237 OA
ATOM     92  O   UNL A   1      53.398  23.813  25.268  1.00  0.00    -0.744 OA
ENDBRANCH  88  89
ENDBRANCH  56  81
BRANCH  68  93
ATOM     93  C   UNL A   1      43.183  23.743  27.201  1.00  0.00     0.058 A 
ATOM     94  C   UNL A   1      42.756  23.405  25.908  1.00  0.00     0.135 A 
ATOM     95  C   UNL A   1      43.172  22.730  28.177  1.00  0.00     0.135 A 
ATOM     96  F   UNL A   1      42.742  24.333  24.937  1.00  0.00    -0.206 F 
ATOM     97  C   UNL A   1      42.306  22.124  25.600  1.00  0.00     0.059 A 
ATOM     98  C   UNL A   1      42.759  21.435  27.884  1.00  0.00     0.059 A 
ATOM     99  F   UNL A   1      43.582  22.993  29.428  1.00  0.00    -0.206 F 
ATOM    100  C   UNL A   1      42.314  21.145  26.595  1.00  0.00     0.060 A 
BRANCH 100 101
ATOM    101  S   UNL A   1      41.751  19.482  26.177  1.00  0.00     0.124 S 
ATOM    102  O   UNL A   1      41.922  18.785  27.447  1.00  0.00    -0.237 OA
ATOM    103  O   UNL A   1      40.372  19.715  25.762  1.00  0.00    -0.237 OA
ATOM    104  O   UNL A   1      42.661  19.072  25.110  1.00  0.00    -0.744 OA
ENDBRANCH 100 101
ENDBRANCH  68  93
ENDBRANCH  42  43
ENDBRANCH  35  37
ENDBRANCH  34  35
ENDBRANCH  33  34
ENDBRANCH  32  33
ENDBRANCH  31  32
ENDBRANCH  30  31
ENDBRANCH  29  30
ENDBRANCH  28  29
ENDBRANCH   1  28
TORSDOF 29
ENDMDL
MODEL 3
REMARK VINA RESULT:      -6.4      5.488      9.860
REMARK SMILES CC(C)C[C@@H](CNc1ccc(C(N)=O)cc1)C(=O)OCCOCCOCCOCCOC(=O)c1ccc(-c2c3nc(c(-c4c(F)cc(S(=O)(=O)[O-])cc4F)c4ccc([nH]4)c(-c4c(F)cc(S(=O)(=O)[O-])cc4F)c4nc(c(-c5c(F)cc(S(=O)(=O)[O-])cc5F)c5ccc2[nH]5)C=C4)C=C3)cc1
REMARK SMILES IDX 24 1 23 2 22 3 21 4 20 5 19 6 17 7 18 8 5 9 4 10 2 11 1 12
REMARK SMILES IDX 3 13 6 14 7 15 8 17 9 18 16 19 10 20 15 21 11 22 12 23 13 24
REMARK SMILES IDX 14 25 25 28 26 29 27 30 28 31 29 32 30 33 31 34 32 35 33 36
REMARK SMILES IDX 34 37 35 38 99 39 36 40 98 41 37 42 38 43 39 44 92 45 40 46
REMARK SMILES IDX 97 47 91 48 93 49 41 50 96 51 90 52 89 53 42 55 76 56 55 57
REMARK SMILES IDX 75 58 56 59 59 60 74 61 94 62 57 63 58 64 73 66 95 67 60 68
REMARK SMILES IDX 43 69 44 70 53 71 45 72 46 73 52 74 54 75 47 76 48 77 49 78
REMARK SMILES IDX 50 79 51 80 77 81 78 82 87 83 79 84 80 85 86 86 88 87 81 88
REMARK SMILES IDX 82 89 83 90 84 91 85 92 61 93 62 94 71 95 63 96 64 97 70 98
REMARK SMILES IDX 72 99 65 100 66 101 67 102 68 103 69 104
REMARK H PARENT 7 16 13 26 13 27 93 54 59 65
REMARK Flexibility Score: inf
ROOT
ATOM      1  C   UNL A   1      43.637  45.147  32.370  1.00  0.00     0.188 C 
ENDROOT
BRANCH   1   2
ATOM      2  C   UNL A   1      43.976  44.191  33.518  1.00  0.00     0.188 C 
BRANCH   2   3
ATOM      3  O   UNL A   1      43.014  43.873  34.503  1.00  0.00    -0.376 OA
BRANCH   3   4
ATOM      4  C   UNL A   1      42.531  42.550  34.677  1.00  0.00     0.202 C 
BRANCH   4   5
ATOM      5  C   UNL A   1      43.105  41.311  33.965  1.00  0.00     0.261 C 
BRANCH   5   6
ATOM      6  O   UNL A   1      43.963  40.438  34.725  1.00  0.00    -0.463 OA
BRANCH   6   7
ATOM      7  C   UNL A   1      43.789  39.118  34.497  1.00  0.00     0.310 C 
ATOM      8  O   UNL A   1      42.798  38.642  33.941  1.00  0.00    -0.252 OA
BRANCH   7   9
ATOM      9  C   UNL A   1      44.888  38.201  35.011  1.00  0.00     0.118 C 
BRANCH   9  10
ATOM     10  C   UNL A   1      44.593  36.774  35.532  1.00  0.00     0.020 C 
BRANCH  10  11
ATOM     11  C   UNL A   1      45.318  35.660  34.725  1.00  0.00    -0.017 C 
ATOM     12  C   UNL A   1      46.134  34.712  35.614  1.00  0.00     0.007 C 
ATOM     13  C   UNL A   1      44.314  34.830  33.920  1.00  0.00     0.007 C 
ENDBRANCH  10  11
ENDBRANCH   9  10
BRANCH   9  14
ATOM     14  C   UNL A   1      45.995  38.226  33.956  1.00  0.00     0.128 C 
BRANCH  14  15
ATOM     15  N   UNL A   1      45.450  38.485  32.630  1.00  0.00    -0.384 N 
ATOM     16  H   UNL A   1      44.500  38.728  32.539  1.00  0.00     0.160 HD
BRANCH  15  17
ATOM     17  C   UNL A   1      46.238  38.398  31.497  1.00  0.00     0.034 A 
ATOM     18  C   UNL A   1      46.226  39.439  30.561  1.00  0.00     0.026 A 
ATOM     19  C   UNL A   1      47.098  37.323  31.278  1.00  0.00     0.026 A 
ATOM     20  C   UNL A   1      47.029  39.393  29.413  1.00  0.00     0.016 A 
ATOM     21  C   UNL A   1      47.890  37.260  30.131  1.00  0.00     0.016 A 
ATOM     22  C   UNL A   1      47.853  38.288  29.182  1.00  0.00     0.039 A 
BRANCH  22  23
ATOM     23  C   UNL A   1      48.705  38.135  27.970  1.00  0.00     0.248 C 
ATOM     24  N   UNL A   1      49.370  39.230  27.497  1.00  0.00    -0.366 N 
ATOM     25  O   UNL A   1      48.799  37.055  27.395  1.00  0.00    -0.270 OA
ATOM     26  H   UNL A   1      49.290  40.092  27.963  1.00  0.00     0.159 HD
ATOM     27  H   UNL A   1      49.928  39.156  26.690  1.00  0.00     0.159 HD
ENDBRANCH  22  23
ENDBRANCH  15  17
ENDBRANCH  14  15
ENDBRANCH   9  14
ENDBRANCH   7   9
ENDBRANCH   6   7
ENDBRANCH   5   6
ENDBRANCH   4   5
ENDBRANCH   3   4
ENDBRANCH   2   3
ENDBRANCH   1   2
BRANCH   1  28
ATOM     28  O   UNL A   1      43.458  44.562  31.096  1.00  0.00    -0.377 OA
BRANCH  28  29
ATOM     29  C   UNL A   1      44.522  43.811  30.521  1.00  0.00     0.188 C 
BRANCH  29  30
ATOM     30  C   UNL A   1      44.221  42.474  29.818  1.00  0.00     0.188 C 
BRANCH  30  31
ATOM     31  O   UNL A   1      43.308  41.639  30.512  1.00  0.00    -0.376 OA
BRANCH  31  32
ATOM     32  C   UNL A   1      41.968  41.553  30.050  1.00  0.00     0.202 C 
BRANCH  32  33
ATOM     33  C   UNL A   1      41.561  40.331  29.209  1.00  0.00     0.261 C 
BRANCH  33  34
ATOM     34  O   UNL A   1      42.609  39.422  28.837  1.00  0.00    -0.460 OA
BRANCH  34  35
ATOM     35  C   UNL A   1      42.444  38.671  27.730  1.00  0.00     0.338 C 
ATOM     36  O   UNL A   1      42.093  39.059  26.625  1.00  0.00    -0.246 OA
BRANCH  35  37
ATOM     37  C   UNL A   1      42.955  37.317  28.016  1.00  0.00     0.060 A 
ATOM     38  C   UNL A   1      42.245  36.211  27.531  1.00  0.00     0.016 A 
ATOM     39  C   UNL A   1      44.110  37.137  28.782  1.00  0.00     0.016 A 
ATOM     40  C   UNL A   1      42.658  34.919  27.856  1.00  0.00     0.010 A 
ATOM     41  C   UNL A   1      44.510  35.842  29.124  1.00  0.00     0.010 A 
ATOM     42  C   UNL A   1      43.760  34.731  28.700  1.00  0.00    -0.014 A 
BRANCH  42  43
ATOM     43  C   UNL A   1      43.987  33.399  29.312  1.00  0.00     0.031 A 
ATOM     44  C   UNL A   1      43.161  33.017  30.512  1.00  0.00     0.074 A 
ATOM     45  C   UNL A   1      44.875  32.531  28.796  1.00  0.00     0.049 A 
ATOM     46  N   UNL A   1      43.201  31.931  31.238  1.00  0.00    -0.248 NA
ATOM     47  C   UNL A   1      42.154  33.998  30.952  1.00  0.00     0.031 C 
ATOM     48  C   UNL A   1      45.697  32.765  27.611  1.00  0.00     0.029 A 
ATOM     49  N   UNL A   1      45.235  31.272  29.213  1.00  0.00    -0.354 N 
ATOM     50  C   UNL A   1      42.235  32.099  32.224  1.00  0.00     0.074 A 
ATOM     51  C   UNL A   1      41.648  33.406  32.024  1.00  0.00     0.031 C 
ATOM     52  C   UNL A   1      46.477  31.689  27.402  1.00  0.00     0.029 A 
ATOM     53  C   UNL A   1      46.233  30.706  28.457  1.00  0.00     0.049 A 
ATOM     54  H   UNL A   1      44.817  30.820  29.981  1.00  0.00     0.167 HD
ATOM     55  C   UNL A   1      41.863  31.239  33.200  1.00  0.00     0.037 A 
ATOM     56  C   UNL A   1      46.888  29.538  28.615  1.00  0.00     0.037 A 
ATOM     57  C   UNL A   1      42.451  29.940  33.393  1.00  0.00     0.049 A 
ATOM     58  C   UNL A   1      46.508  28.626  29.754  1.00  0.00     0.074 A 
ATOM     59  C   UNL A   1      42.137  28.986  34.346  1.00  0.00     0.029 A 
ATOM     60  N   UNL A   1      43.481  29.414  32.627  1.00  0.00    -0.354 N 
ATOM     61  N   UNL A   1      45.581  28.789  30.669  1.00  0.00    -0.248 NA
ATOM     62  C   UNL A   1      47.260  27.369  29.881  1.00  0.00     0.031 C 
ATOM     63  C   UNL A   1      43.018  27.911  34.193  1.00  0.00     0.029 A 
ATOM     64  C   UNL A   1      43.834  28.162  33.102  1.00  0.00     0.049 A 
ATOM     65  H   UNL A   1      43.899  29.865  31.858  1.00  0.00     0.167 HD
ATOM     66  C   UNL A   1      45.616  27.642  31.457  1.00  0.00     0.074 A 
ATOM     67  C   UNL A   1      46.648  26.789  30.904  1.00  0.00     0.031 C 
ATOM     68  C   UNL A   1      44.859  27.320  32.537  1.00  0.00     0.037 A 
BRANCH  55  69
ATOM     69  C   UNL A   1      40.791  31.690  34.156  1.00  0.00     0.058 A 
ATOM     70  C   UNL A   1      41.091  32.393  35.334  1.00  0.00     0.135 A 
ATOM     71  C   UNL A   1      39.438  31.438  33.873  1.00  0.00     0.135 A 
ATOM     72  F   UNL A   1      42.368  32.642  35.666  1.00  0.00    -0.206 F 
ATOM     73  C   UNL A   1      40.092  32.808  36.208  1.00  0.00     0.059 A 
ATOM     74  C   UNL A   1      38.420  31.873  34.716  1.00  0.00     0.059 A 
ATOM     75  F   UNL A   1      39.093  30.765  32.764  1.00  0.00    -0.206 F 
ATOM     76  C   UNL A   1      38.758  32.546  35.889  1.00  0.00     0.060 A 
BRANCH  76  77
ATOM     77  S   UNL A   1      37.474  33.100  37.030  1.00  0.00     0.124 S 
ATOM     78  O   UNL A   1      36.442  33.561  36.105  1.00  0.00    -0.237 OA
ATOM     79  O   UNL A   1      37.165  31.878  37.766  1.00  0.00    -0.237 OA
ATOM     80  O   UNL A   1      38.134  34.146  37.805  1.00  0.00    -0.744 OA
ENDBRANCH  76  77
ENDBRANCH  55  69
BRANCH  56  81
ATOM     81  C   UNL A   1      47.983  29.165  27.677  1.00  0.00     0.058 A 
ATOM     82  C   UNL A   1      47.739  28.358  26.556  1.00  0.00     0.135 A 
ATOM     83  C   UNL A   1      49.299  29.608  27.888  1.00  0.00     0.135 A 
ATOM     84  F   UNL A   1      46.501  27.898  26.319  1.00  0.00    -0.206 F 
ATOM     85  C   UNL A   1      48.758  27.995  25.682  1.00  0.00     0.059 A 
ATOM     86  C   UNL A   1      50.330  29.284  27.012  1.00  0.00     0.059 A 
ATOM     87  F   UNL A   1      49.587  30.389  28.940  1.00  0.00    -0.206 F 
ATOM     88  C   UNL A   1      50.050  28.472  25.914  1.00  0.00     0.060 A 
BRANCH  88  89
ATOM     89  S   UNL A   1      51.348  28.060  24.730  1.00  0.00     0.124 S 
ATOM     90  O   UNL A   1      51.151  29.080  23.708  1.00  0.00    -0.237 OA
ATOM     91  O   UNL A   1      52.551  28.191  25.547  1.00  0.00    -0.237 OA
ATOM     92  O   UNL A   1      51.020  26.693  24.335  1.00  0.00    -0.744 OA
ENDBRANCH  88  89
ENDBRANCH  56  81
BRANCH  68  93
ATOM     93  C   UNL A   1      45.083  25.972  33.169  1.00  0.00     0.058 A 
ATOM     94  C   UNL A   1      44.596  24.788  32.592  1.00  0.00     0.135 A 
ATOM     95  C   UNL A   1      45.842  25.858  34.347  1.00  0.00     0.135 A 
ATOM     96  F   UNL A   1      43.862  24.836  31.469  1.00  0.00    -0.206 F 
ATOM     97  C   UNL A   1      44.826  23.546  33.174  1.00  0.00     0.059 A 
ATOM     98  C   UNL A   1      46.114  24.625  34.928  1.00  0.00     0.059 A 
ATOM     99  F   UNL A   1      46.344  26.956  34.935  1.00  0.00    -0.206 F 
ATOM    100  C   UNL A   1      45.589  23.474  34.342  1.00  0.00     0.060 A 
BRANCH 100 101
ATOM    101  S   UNL A   1      45.900  21.854  35.074  1.00  0.00     0.124 S 
ATOM    102  O   UNL A   1      44.602  21.206  34.918  1.00  0.00    -0.237 OA
ATOM    103  O   UNL A   1      46.973  21.334  34.234  1.00  0.00    -0.237 OA
ATOM    104  O   UNL A   1      46.282  22.168  36.448  1.00  0.00    -0.744 OA
ENDBRANCH 100 101
ENDBRANCH  68  93
ENDBRANCH  42  43
ENDBRANCH  35  37
ENDBRANCH  34  35
ENDBRANCH  33  34
ENDBRANCH  32  33
ENDBRANCH  31  32
ENDBRANCH  30  31
ENDBRANCH  29  30
ENDBRANCH  28  29
ENDBRANCH   1  28
TORSDOF 29
ENDMDL
