MODEL 1
REMARK VINA RESULT:      -9.4      0.000      0.000
REMARK SMILES C[NH2+][C@@]1(C(=O)OCCOCCOCCOCCOC(=O)c2ccc(-c3c4nc(c(-c5c(F)cc(S(=O)(=O)[O-])cc5F)c5ccc([nH]5)c(-c5c(F)cc(S(=O)(=O)[O-])cc5F)c5nc(c(-c6c(F)cc(S(=O)(=O)[O-])cc6F)c6ccc3[nH]6)C=C5)C=C4)cc2)CC[C@H]([NH+]2CC[NH+](C)CC2)C1
REMARK SMILES IDX 13 1 12 2 11 3 10 4 9 5 8 6 7 7 6 8 4 9 5 10 3 11 87 12
REMARK SMILES IDX 97 13 88 14 89 15 2 16 1 17 90 20 91 21 96 22 92 24 95 25
REMARK SMILES IDX 93 26 94 27 14 29 15 30 16 31 17 32 18 33 19 34 20 35 21 36
REMARK SMILES IDX 22 37 86 38 23 39 85 40 24 41 25 42 26 43 79 44 27 45 84 46
REMARK SMILES IDX 78 47 80 48 28 49 83 50 77 51 76 52 29 54 63 55 42 56 62 57
REMARK SMILES IDX 43 58 46 59 61 60 81 61 44 62 45 63 60 65 82 66 47 67 30 68
REMARK SMILES IDX 31 69 40 70 32 71 33 72 39 73 41 74 34 75 35 76 36 77 37 78
REMARK SMILES IDX 38 79 64 80 65 81 74 82 66 83 67 84 73 85 75 86 68 87 69 88
REMARK SMILES IDX 70 89 71 90 72 91 48 92 49 93 58 94 50 95 51 96 57 97 59 98
REMARK SMILES IDX 52 99 53 100 54 101 55 102 56 103
REMARK H PARENT 2 18 2 19 90 23 93 28 80 53 46 64
REMARK Flexibility Score: inf
ROOT
ATOM      1  C   UNL A   1      38.399  23.624  26.138  1.00  0.00     0.188 C 
ENDROOT
BRANCH   1   2
ATOM      2  O   UNL A   1      36.995  23.740  26.200  1.00  0.00    -0.377 OA
BRANCH   2   3
ATOM      3  C   UNL A   1      36.184  22.785  25.542  1.00  0.00     0.188 C 
BRANCH   3   4
ATOM      4  C   UNL A   1      35.117  21.947  26.257  1.00  0.00     0.188 C 
BRANCH   4   5
ATOM      5  O   UNL A   1      33.783  22.393  26.187  1.00  0.00    -0.376 OA
BRANCH   5   6
ATOM      6  C   UNL A   1      33.062  22.548  24.981  1.00  0.00     0.202 C 
BRANCH   6   7
ATOM      7  C   UNL A   1      31.968  23.601  24.762  1.00  0.00     0.261 C 
BRANCH   7   8
ATOM      8  O   UNL A   1      32.310  24.936  25.145  1.00  0.00    -0.459 OA
BRANCH   8   9
ATOM      9  C   UNL A   1      33.149  25.572  24.279  1.00  0.00     0.368 C 
ATOM     10  O   UNL A   1      34.361  25.354  24.259  1.00  0.00    -0.245 OA
BRANCH   9  11
ATOM     11  C   UNL A   1      32.442  26.479  23.209  1.00  0.00     0.200 C 
ATOM     12  C   UNL A   1      33.476  27.521  22.738  1.00  0.00     0.087 C 
ATOM     13  C   UNL A   1      31.315  27.434  23.664  1.00  0.00     0.146 C 
ATOM     14  C   UNL A   1      33.453  28.573  23.859  1.00  0.00     0.072 C 
ATOM     15  C   UNL A   1      31.976  28.679  24.279  1.00  0.00     0.191 C 
BRANCH  11  16
ATOM     16  N   UNL A   1      31.880  25.653  22.099  1.00  0.00    -0.334 N 
ATOM     17  C   UNL A   1      32.625  25.654  20.851  1.00  0.00     0.331 C 
ATOM     18  H   UNL A   1      31.825  24.689  22.427  1.00  0.00     0.347 HD
ATOM     19  H   UNL A   1      30.979  26.076  21.877  1.00  0.00     0.347 HD
ENDBRANCH  11  16
BRANCH  15  20
ATOM     20  N   UNL A   1      31.565  28.951  25.659  1.00  0.00    -0.323 N 
ATOM     21  C   UNL A   1      31.840  30.308  26.155  1.00  0.00     0.324 C 
ATOM     22  C   UNL A   1      31.948  27.998  26.708  1.00  0.00     0.324 C 
ATOM     23  H   UNL A   1      30.564  28.828  25.509  1.00  0.00     0.348 HD
ATOM     24  C   UNL A   1      33.269  30.528  26.707  1.00  0.00     0.324 C 
ATOM     25  C   UNL A   1      33.405  28.122  27.176  1.00  0.00     0.324 C 
ATOM     26  N   UNL A   1      33.762  29.474  27.615  1.00  0.00    -0.328 N 
ATOM     27  C   UNL A   1      35.214  29.585  27.781  1.00  0.00     0.333 C 
ATOM     28  H   UNL A   1      33.302  29.623  28.512  1.00  0.00     0.348 HD
ENDBRANCH  15  20
ENDBRANCH   9  11
ENDBRANCH   8   9
ENDBRANCH   7   8
ENDBRANCH   6   7
ENDBRANCH   5   6
ENDBRANCH   4   5
ENDBRANCH   3   4
ENDBRANCH   2   3
ENDBRANCH   1   2
BRANCH   1  29
ATOM     29  C   UNL A   1      38.920  22.179  26.240  1.00  0.00     0.188 C 
BRANCH  29  30
ATOM     30  O   UNL A   1      40.040  21.838  27.049  1.00  0.00    -0.376 OA
BRANCH  30  31
ATOM     31  C   UNL A   1      41.228  21.328  26.471  1.00  0.00     0.202 C 
BRANCH  31  32
ATOM     32  C   UNL A   1      42.289  22.292  25.913  1.00  0.00     0.261 C 
BRANCH  32  33
ATOM     33  O   UNL A   1      41.983  23.688  25.948  1.00  0.00    -0.460 OA
BRANCH  33  34
ATOM     34  C   UNL A   1      42.976  24.484  26.396  1.00  0.00     0.338 C 
ATOM     35  O   UNL A   1      44.166  24.422  26.103  1.00  0.00    -0.246 OA
BRANCH  34  36
ATOM     36  C   UNL A   1      42.400  25.547  27.237  1.00  0.00     0.060 A 
ATOM     37  C   UNL A   1      43.056  26.783  27.305  1.00  0.00     0.016 A 
ATOM     38  C   UNL A   1      41.268  25.301  28.017  1.00  0.00     0.016 A 
ATOM     39  C   UNL A   1      42.602  27.767  28.177  1.00  0.00     0.010 A 
ATOM     40  C   UNL A   1      40.832  26.277  28.917  1.00  0.00     0.010 A 
ATOM     41  C   UNL A   1      41.522  27.498  29.026  1.00  0.00    -0.014 A 
BRANCH  41  42
ATOM     42  C   UNL A   1      41.265  28.403  30.170  1.00  0.00     0.031 A 
ATOM     43  C   UNL A   1      42.133  28.266  31.392  1.00  0.00     0.074 A 
ATOM     44  C   UNL A   1      40.318  29.354  30.103  1.00  0.00     0.049 A 
ATOM     45  N   UNL A   1      42.074  28.909  32.528  1.00  0.00    -0.248 NA
ATOM     46  C   UNL A   1      43.214  27.268  31.321  1.00  0.00     0.031 C 
ATOM     47  C   UNL A   1      39.461  29.612  28.946  1.00  0.00     0.029 A 
ATOM     48  N   UNL A   1      39.917  30.276  31.035  1.00  0.00    -0.354 N 
ATOM     49  C   UNL A   1      43.097  28.386  33.310  1.00  0.00     0.074 A 
ATOM     50  C   UNL A   1      43.746  27.356  32.530  1.00  0.00     0.031 C 
ATOM     51  C   UNL A   1      38.621  30.617  29.245  1.00  0.00     0.029 A 
ATOM     52  C   UNL A   1      38.857  31.048  30.623  1.00  0.00     0.049 A 
ATOM     53  H   UNL A   1      40.346  30.375  31.915  1.00  0.00     0.167 HD
ATOM     54  C   UNL A   1      43.466  28.739  34.565  1.00  0.00     0.037 A 
ATOM     55  C   UNL A   1      38.143  31.973  31.296  1.00  0.00     0.037 A 
ATOM     56  C   UNL A   1      42.809  29.766  35.331  1.00  0.00     0.049 A 
ATOM     57  C   UNL A   1      38.524  32.297  32.719  1.00  0.00     0.074 A 
ATOM     58  C   UNL A   1      43.104  30.210  36.607  1.00  0.00     0.029 A 
ATOM     59  N   UNL A   1      41.719  30.505  34.892  1.00  0.00    -0.354 N 
ATOM     60  N   UNL A   1      39.499  31.805  33.447  1.00  0.00    -0.248 NA
ATOM     61  C   UNL A   1      37.708  33.304  33.413  1.00  0.00     0.031 C 
ATOM     62  C   UNL A   1      42.158  31.176  36.962  1.00  0.00     0.029 A 
ATOM     63  C   UNL A   1      41.312  31.382  35.883  1.00  0.00     0.049 A 
ATOM     64  H   UNL A   1      41.296  30.418  34.008  1.00  0.00     0.167 HD
ATOM     65  C   UNL A   1      39.432  32.462  34.672  1.00  0.00     0.074 A 
ATOM     66  C   UNL A   1      38.327  33.396  34.581  1.00  0.00     0.031 C 
ATOM     67  C   UNL A   1      40.213  32.311  35.771  1.00  0.00     0.037 A 
BRANCH  54  68
ATOM     68  C   UNL A   1      44.603  27.984  35.199  1.00  0.00     0.058 A 
ATOM     69  C   UNL A   1      45.939  28.390  35.052  1.00  0.00     0.135 A 
ATOM     70  C   UNL A   1      44.348  26.851  35.989  1.00  0.00     0.135 A 
ATOM     71  F   UNL A   1      46.243  29.453  34.290  1.00  0.00    -0.206 F 
ATOM     72  C   UNL A   1      46.983  27.686  35.645  1.00  0.00     0.059 A 
ATOM     73  C   UNL A   1      45.373  26.150  36.617  1.00  0.00     0.059 A 
ATOM     74  F   UNL A   1      43.089  26.415  36.160  1.00  0.00    -0.206 F 
ATOM     75  C   UNL A   1      46.689  26.568  36.427  1.00  0.00     0.060 A 
BRANCH  75  76
ATOM     76  S   UNL A   1      48.054  25.673  37.200  1.00  0.00     0.124 S 
ATOM     77  O   UNL A   1      48.031  24.413  36.465  1.00  0.00    -0.237 OA
ATOM     78  O   UNL A   1      49.192  26.545  36.927  1.00  0.00    -0.237 OA
ATOM     79  O   UNL A   1      47.655  25.588  38.602  1.00  0.00    -0.744 OA
ENDBRANCH  75  76
ENDBRANCH  54  68
BRANCH  55  80
ATOM     80  C   UNL A   1      36.988  32.642  30.640  1.00  0.00     0.058 A 
ATOM     81  C   UNL A   1      35.672  32.206  30.859  1.00  0.00     0.135 A 
ATOM     82  C   UNL A   1      37.177  33.734  29.778  1.00  0.00     0.135 A 
ATOM     83  F   UNL A   1      35.439  31.158  31.662  1.00  0.00    -0.206 F 
ATOM     84  C   UNL A   1      34.587  32.820  30.240  1.00  0.00     0.059 A 
ATOM     85  C   UNL A   1      36.106  34.384  29.171  1.00  0.00     0.059 A 
ATOM     86  F   UNL A   1      38.413  34.195  29.535  1.00  0.00    -0.206 F 
ATOM     87  C   UNL A   1      34.814  33.913  29.402  1.00  0.00     0.060 A 
BRANCH  87  88
ATOM     88  S   UNL A   1      33.395  34.736  28.646  1.00  0.00     0.124 S 
ATOM     89  O   UNL A   1      34.017  35.913  28.054  1.00  0.00    -0.237 OA
ATOM     90  O   UNL A   1      32.919  33.723  27.708  1.00  0.00    -0.237 OA
ATOM     91  O   UNL A   1      32.511  34.991  29.780  1.00  0.00    -0.744 OA
ENDBRANCH  87  88
ENDBRANCH  55  80
BRANCH  67  92
ATOM     92  C   UNL A   1      39.934  33.201  36.952  1.00  0.00     0.058 A 
ATOM     93  C   UNL A   1      38.939  32.896  37.893  1.00  0.00     0.135 A 
ATOM     94  C   UNL A   1      40.717  34.346  37.177  1.00  0.00     0.135 A 
ATOM     95  F   UNL A   1      38.159  31.816  37.726  1.00  0.00    -0.206 F 
ATOM     96  C   UNL A   1      38.712  33.708  39.000  1.00  0.00     0.059 A 
ATOM     97  C   UNL A   1      40.530  35.154  38.293  1.00  0.00     0.059 A 
ATOM     98  F   UNL A   1      41.693  34.678  36.314  1.00  0.00    -0.206 F 
ATOM     99  C   UNL A   1      39.516  34.834  39.193  1.00  0.00     0.060 A 
BRANCH  99 100
ATOM    100  S   UNL A   1      39.232  35.859  40.652  1.00  0.00     0.124 S 
ATOM    101  O   UNL A   1      38.132  35.153  41.298  1.00  0.00    -0.237 OA
ATOM    102  O   UNL A   1      40.519  35.790  41.337  1.00  0.00    -0.237 OA
ATOM    103  O   UNL A   1      38.897  37.165  40.091  1.00  0.00    -0.744 OA
ENDBRANCH  99 100
ENDBRANCH  67  92
ENDBRANCH  41  42
ENDBRANCH  34  36
ENDBRANCH  33  34
ENDBRANCH  32  33
ENDBRANCH  31  32
ENDBRANCH  30  31
ENDBRANCH  29  30
ENDBRANCH   1  29
TORSDOF 25
ENDMDL
MODEL 2
REMARK VINA RESULT:      -8.9      1.262      2.087
REMARK SMILES C[NH2+][C@@]1(C(=O)OCCOCCOCCOCCOC(=O)c2ccc(-c3c4nc(c(-c5c(F)cc(S(=O)(=O)[O-])cc5F)c5ccc([nH]5)c(-c5c(F)cc(S(=O)(=O)[O-])cc5F)c5nc(c(-c6c(F)cc(S(=O)(=O)[O-])cc6F)c6ccc3[nH]6)C=C5)C=C4)cc2)CC[C@H]([NH+]2CC[NH+](C)CC2)C1
REMARK SMILES IDX 13 1 12 2 11 3 10 4 9 5 8 6 7 7 6 8 4 9 5 10 3 11 87 12
REMARK SMILES IDX 97 13 88 14 89 15 2 16 1 17 90 20 91 21 96 22 92 24 95 25
REMARK SMILES IDX 93 26 94 27 14 29 15 30 16 31 17 32 18 33 19 34 20 35 21 36
REMARK SMILES IDX 22 37 86 38 23 39 85 40 24 41 25 42 26 43 79 44 27 45 84 46
REMARK SMILES IDX 78 47 80 48 28 49 83 50 77 51 76 52 29 54 63 55 42 56 62 57
REMARK SMILES IDX 43 58 46 59 61 60 81 61 44 62 45 63 60 65 82 66 47 67 30 68
REMARK SMILES IDX 31 69 40 70 32 71 33 72 39 73 41 74 34 75 35 76 36 77 37 78
REMARK SMILES IDX 38 79 64 80 65 81 74 82 66 83 67 84 73 85 75 86 68 87 69 88
REMARK SMILES IDX 70 89 71 90 72 91 48 92 49 93 58 94 50 95 51 96 57 97 59 98
REMARK SMILES IDX 52 99 53 100 54 101 55 102 56 103
REMARK H PARENT 2 18 2 19 90 23 93 28 80 53 46 64
REMARK Flexibility Score: inf
ROOT
ATOM      1  C   UNL A   1      38.520  23.738  26.323  1.00  0.00     0.188 C 
ENDROOT
BRANCH   1   2
ATOM      2  O   UNL A   1      37.122  23.668  26.147  1.00  0.00    -0.377 OA
BRANCH   2   3
ATOM      3  C   UNL A   1      36.566  22.635  25.356  1.00  0.00     0.188 C 
BRANCH   3   4
ATOM      4  C   UNL A   1      35.473  21.683  25.857  1.00  0.00     0.188 C 
BRANCH   4   5
ATOM      5  O   UNL A   1      34.146  21.951  25.468  1.00  0.00    -0.376 OA
BRANCH   5   6
ATOM      6  C   UNL A   1      33.630  21.686  24.179  1.00  0.00     0.202 C 
BRANCH   6   7
ATOM      7  C   UNL A   1      32.393  22.374  23.589  1.00  0.00     0.261 C 
BRANCH   7   8
ATOM      8  O   UNL A   1      31.779  23.363  24.421  1.00  0.00    -0.459 OA
BRANCH   8   9
ATOM      9  C   UNL A   1      31.885  24.638  23.952  1.00  0.00     0.368 C 
ATOM     10  O   UNL A   1      31.942  24.893  22.749  1.00  0.00    -0.245 OA
BRANCH   9  11
ATOM     11  C   UNL A   1      31.769  25.762  25.043  1.00  0.00     0.200 C 
ATOM     12  C   UNL A   1      30.505  25.465  25.874  1.00  0.00     0.087 C 
ATOM     13  C   UNL A   1      31.443  27.206  24.598  1.00  0.00     0.146 C 
ATOM     14  C   UNL A   1      29.368  26.002  24.990  1.00  0.00     0.072 C 
ATOM     15  C   UNL A   1      29.926  27.289  24.356  1.00  0.00     0.191 C 
BRANCH  11  16
ATOM     16  N   UNL A   1      33.017  25.840  25.862  1.00  0.00    -0.334 N 
ATOM     17  C   UNL A   1      33.968  26.875  25.493  1.00  0.00     0.331 C 
ATOM     18  H   UNL A   1      32.742  26.002  26.831  1.00  0.00     0.347 HD
ATOM     19  H   UNL A   1      33.500  24.958  25.702  1.00  0.00     0.347 HD
ENDBRANCH  11  16
BRANCH  15  20
ATOM     20  N   UNL A   1      29.562  27.726  23.005  1.00  0.00    -0.323 N 
ATOM     21  C   UNL A   1      30.482  28.682  22.371  1.00  0.00     0.324 C 
ATOM     22  C   UNL A   1      28.189  28.184  22.759  1.00  0.00     0.324 C 
ATOM     23  H   UNL A   1      29.646  26.811  22.561  1.00  0.00     0.348 HD
ATOM     24  C   UNL A   1      30.243  30.166  22.741  1.00  0.00     0.324 C 
ATOM     25  C   UNL A   1      27.903  29.614  23.239  1.00  0.00     0.324 C 
ATOM     26  N   UNL A   1      28.835  30.607  22.697  1.00  0.00    -0.328 N 
ATOM     27  C   UNL A   1      28.680  31.882  23.400  1.00  0.00     0.333 C 
ATOM     28  H   UNL A   1      28.597  30.727  21.712  1.00  0.00     0.348 HD
ENDBRANCH  15  20
ENDBRANCH   9  11
ENDBRANCH   8   9
ENDBRANCH   7   8
ENDBRANCH   6   7
ENDBRANCH   5   6
ENDBRANCH   4   5
ENDBRANCH   3   4
ENDBRANCH   2   3
ENDBRANCH   1   2
BRANCH   1  29
ATOM     29  C   UNL A   1      39.201  22.370  26.515  1.00  0.00     0.188 C 
BRANCH  29  30
ATOM     30  O   UNL A   1      40.535  22.256  26.997  1.00  0.00    -0.376 OA
BRANCH  30  31
ATOM     31  C   UNL A   1      41.579  21.805  26.155  1.00  0.00     0.202 C 
BRANCH  31  32
ATOM     32  C   UNL A   1      42.576  22.812  25.555  1.00  0.00     0.261 C 
BRANCH  32  33
ATOM     33  O   UNL A   1      42.357  24.195  25.846  1.00  0.00    -0.460 OA
BRANCH  33  34
ATOM     34  C   UNL A   1      43.298  24.777  26.619  1.00  0.00     0.338 C 
ATOM     35  O   UNL A   1      44.508  24.581  26.588  1.00  0.00    -0.246 OA
BRANCH  34  36
ATOM     36  C   UNL A   1      42.661  25.799  27.466  1.00  0.00     0.060 A 
ATOM     37  C   UNL A   1      43.203  27.090  27.488  1.00  0.00     0.016 A 
ATOM     38  C   UNL A   1      41.589  25.465  28.297  1.00  0.00     0.016 A 
ATOM     39  C   UNL A   1      42.696  28.046  28.363  1.00  0.00     0.010 A 
ATOM     40  C   UNL A   1      41.102  26.415  29.199  1.00  0.00     0.010 A 
ATOM     41  C   UNL A   1      41.681  27.695  29.260  1.00  0.00    -0.014 A 
BRANCH  41  42
ATOM     42  C   UNL A   1      41.388  28.595  30.400  1.00  0.00     0.031 A 
ATOM     43  C   UNL A   1      42.242  28.479  31.634  1.00  0.00     0.074 A 
ATOM     44  C   UNL A   1      40.420  29.523  30.320  1.00  0.00     0.049 A 
ATOM     45  N   UNL A   1      42.153  29.120  32.768  1.00  0.00    -0.248 NA
ATOM     46  C   UNL A   1      43.347  27.505  31.578  1.00  0.00     0.031 C 
ATOM     47  C   UNL A   1      39.572  29.761  29.152  1.00  0.00     0.029 A 
ATOM     48  N   UNL A   1      39.985  30.437  31.246  1.00  0.00    -0.354 N 
ATOM     49  C   UNL A   1      43.178  28.621  33.564  1.00  0.00     0.074 A 
ATOM     50  C   UNL A   1      43.861  27.606  32.794  1.00  0.00     0.031 C 
ATOM     51  C   UNL A   1      38.705  30.747  29.439  1.00  0.00     0.029 A 
ATOM     52  C   UNL A   1      38.913  31.184  30.819  1.00  0.00     0.049 A 
ATOM     53  H   UNL A   1      40.401  30.546  32.131  1.00  0.00     0.167 HD
ATOM     54  C   UNL A   1      43.522  28.984  34.824  1.00  0.00     0.037 A 
ATOM     55  C   UNL A   1      38.170  32.093  31.482  1.00  0.00     0.037 A 
ATOM     56  C   UNL A   1      42.832  29.996  35.580  1.00  0.00     0.049 A 
ATOM     57  C   UNL A   1      38.524  32.426  32.910  1.00  0.00     0.074 A 
ATOM     58  C   UNL A   1      43.100  30.446  36.860  1.00  0.00     0.029 A 
ATOM     59  N   UNL A   1      41.731  30.709  35.126  1.00  0.00    -0.354 N 
ATOM     60  N   UNL A   1      39.501  31.957  33.651  1.00  0.00    -0.248 NA
ATOM     61  C   UNL A   1      37.677  33.415  33.592  1.00  0.00     0.031 C 
ATOM     62  C   UNL A   1      42.127  31.391  37.201  1.00  0.00     0.029 A 
ATOM     63  C   UNL A   1      41.291  31.577  36.111  1.00  0.00     0.049 A 
ATOM     64  H   UNL A   1      41.322  30.612  34.236  1.00  0.00     0.167 HD
ATOM     65  C   UNL A   1      39.403  32.613  34.874  1.00  0.00     0.074 A 
ATOM     66  C   UNL A   1      38.278  33.521  34.768  1.00  0.00     0.031 C 
ATOM     67  C   UNL A   1      40.173  32.480  35.983  1.00  0.00     0.037 A 
BRANCH  54  68
ATOM     68  C   UNL A   1      44.668  28.256  35.473  1.00  0.00     0.058 A 
ATOM     69  C   UNL A   1      45.989  28.723  35.390  1.00  0.00     0.135 A 
ATOM     70  C   UNL A   1      44.435  27.085  36.213  1.00  0.00     0.135 A 
ATOM     71  F   UNL A   1      46.274  29.825  34.678  1.00  0.00    -0.206 F 
ATOM     72  C   UNL A   1      47.041  28.043  35.997  1.00  0.00     0.059 A 
ATOM     73  C   UNL A   1      45.467  26.405  36.854  1.00  0.00     0.059 A 
ATOM     74  F   UNL A   1      43.191  26.589  36.321  1.00  0.00    -0.206 F 
ATOM     75  C   UNL A   1      46.769  26.886  36.728  1.00  0.00     0.060 A 
BRANCH  75  76
ATOM     76  S   UNL A   1      48.143  26.023  37.520  1.00  0.00     0.124 S 
ATOM     77  O   UNL A   1      48.304  26.793  38.749  1.00  0.00    -0.237 OA
ATOM     78  O   UNL A   1      47.612  24.674  37.682  1.00  0.00    -0.237 OA
ATOM     79  O   UNL A   1      49.230  26.153  36.553  1.00  0.00    -0.744 OA
ENDBRANCH  75  76
ENDBRANCH  54  68
BRANCH  55  80
ATOM     80  C   UNL A   1      37.008  32.734  30.810  1.00  0.00     0.058 A 
ATOM     81  C   UNL A   1      35.693  32.323  31.077  1.00  0.00     0.135 A 
ATOM     82  C   UNL A   1      37.190  33.775  29.885  1.00  0.00     0.135 A 
ATOM     83  F   UNL A   1      35.466  31.324  31.942  1.00  0.00    -0.206 F 
ATOM     84  C   UNL A   1      34.602  32.912  30.445  1.00  0.00     0.059 A 
ATOM     85  C   UNL A   1      36.114  34.399  29.263  1.00  0.00     0.059 A 
ATOM     86  F   UNL A   1      38.426  34.211  29.596  1.00  0.00    -0.206 F 
ATOM     87  C   UNL A   1      34.823  33.954  29.542  1.00  0.00     0.060 A 
BRANCH  87  88
ATOM     88  S   UNL A   1      33.397  34.746  28.768  1.00  0.00     0.124 S 
ATOM     89  O   UNL A   1      32.961  33.719  27.830  1.00  0.00    -0.237 OA
ATOM     90  O   UNL A   1      32.519  34.983  29.911  1.00  0.00    -0.237 OA
ATOM     91  O   UNL A   1      33.965  35.950  28.166  1.00  0.00    -0.744 OA
ENDBRANCH  87  88
ENDBRANCH  55  80
BRANCH  67  92
ATOM     92  C   UNL A   1      39.858  33.364  37.160  1.00  0.00     0.058 A 
ATOM     93  C   UNL A   1      38.869  33.028  38.098  1.00  0.00     0.135 A 
ATOM     94  C   UNL A   1      40.600  34.536  37.385  1.00  0.00     0.135 A 
ATOM     95  F   UNL A   1      38.127  31.922  37.931  1.00  0.00    -0.206 F 
ATOM     96  C   UNL A   1      38.609  33.836  39.201  1.00  0.00     0.059 A 
ATOM     97  C   UNL A   1      40.380  35.342  38.497  1.00  0.00     0.059 A 
ATOM     98  F   UNL A   1      41.568  34.899  36.525  1.00  0.00    -0.206 F 
ATOM     99  C   UNL A   1      39.373  34.990  39.394  1.00  0.00     0.060 A 
BRANCH  99 100
ATOM    100  S   UNL A   1      39.048  36.010  40.847  1.00  0.00     0.124 S 
ATOM    101  O   UNL A   1      38.197  35.129  41.640  1.00  0.00    -0.237 OA
ATOM    102  O   UNL A   1      40.389  36.238  41.375  1.00  0.00    -0.237 OA
ATOM    103  O   UNL A   1      38.389  37.190  40.295  1.00  0.00    -0.744 OA
ENDBRANCH  99 100
ENDBRANCH  67  92
ENDBRANCH  41  42
ENDBRANCH  34  36
ENDBRANCH  33  34
ENDBRANCH  32  33
ENDBRANCH  31  32
ENDBRANCH  30  31
ENDBRANCH  29  30
ENDBRANCH   1  29
TORSDOF 25
ENDMDL
MODEL 3
REMARK VINA RESULT:      -8.1      4.612      6.066
REMARK SMILES C[NH2+][C@@]1(C(=O)OCCOCCOCCOCCOC(=O)c2ccc(-c3c4nc(c(-c5c(F)cc(S(=O)(=O)[O-])cc5F)c5ccc([nH]5)c(-c5c(F)cc(S(=O)(=O)[O-])cc5F)c5nc(c(-c6c(F)cc(S(=O)(=O)[O-])cc6F)c6ccc3[nH]6)C=C5)C=C4)cc2)CC[C@H]([NH+]2CC[NH+](C)CC2)C1
REMARK SMILES IDX 13 1 12 2 11 3 10 4 9 5 8 6 7 7 6 8 4 9 5 10 3 11 87 12
REMARK SMILES IDX 97 13 88 14 89 15 2 16 1 17 90 20 91 21 96 22 92 24 95 25
REMARK SMILES IDX 93 26 94 27 14 29 15 30 16 31 17 32 18 33 19 34 20 35 21 36
REMARK SMILES IDX 22 37 86 38 23 39 85 40 24 41 25 42 26 43 79 44 27 45 84 46
REMARK SMILES IDX 78 47 80 48 28 49 83 50 77 51 76 52 29 54 63 55 42 56 62 57
REMARK SMILES IDX 43 58 46 59 61 60 81 61 44 62 45 63 60 65 82 66 47 67 30 68
REMARK SMILES IDX 31 69 40 70 32 71 33 72 39 73 41 74 34 75 35 76 36 77 37 78
REMARK SMILES IDX 38 79 64 80 65 81 74 82 66 83 67 84 73 85 75 86 68 87 69 88
REMARK SMILES IDX 70 89 71 90 72 91 48 92 49 93 58 94 50 95 51 96 57 97 59 98
REMARK SMILES IDX 52 99 53 100 54 101 55 102 56 103
REMARK H PARENT 2 18 2 19 90 23 93 28 80 53 46 64
REMARK Flexibility Score: inf
ROOT
ATOM      1  C   UNL A   1      34.965  21.827  24.538  1.00  0.00     0.188 C 
ENDROOT
BRANCH   1   2
ATOM      2  O   UNL A   1      35.450  22.731  23.570  1.00  0.00    -0.377 OA
BRANCH   2   3
ATOM      3  C   UNL A   1      34.980  24.066  23.560  1.00  0.00     0.188 C 
BRANCH   3   4
ATOM      4  C   UNL A   1      33.852  24.558  22.643  1.00  0.00     0.188 C 
BRANCH   4   5
ATOM      5  O   UNL A   1      34.016  25.811  22.024  1.00  0.00    -0.376 OA
BRANCH   5   6
ATOM      6  C   UNL A   1      32.946  26.633  21.601  1.00  0.00     0.202 C 
BRANCH   6   7
ATOM      7  C   UNL A   1      31.959  27.319  22.554  1.00  0.00     0.261 C 
BRANCH   7   8
ATOM      8  O   UNL A   1      32.357  28.608  23.031  1.00  0.00    -0.459 OA
BRANCH   8   9
ATOM      9  C   UNL A   1      33.367  28.582  23.946  1.00  0.00     0.368 C 
ATOM     10  O   UNL A   1      34.551  28.658  23.620  1.00  0.00    -0.245 OA
BRANCH   9  11
ATOM     11  C   UNL A   1      32.907  28.609  25.448  1.00  0.00     0.200 C 
ATOM     12  C   UNL A   1      33.910  27.754  26.248  1.00  0.00     0.087 C 
ATOM     13  C   UNL A   1      31.596  27.892  25.843  1.00  0.00     0.146 C 
ATOM     14  C   UNL A   1      33.440  26.315  25.978  1.00  0.00     0.072 C 
ATOM     15  C   UNL A   1      31.903  26.390  25.967  1.00  0.00     0.191 C 
BRANCH  11  16
ATOM     16  N   UNL A   1      32.792  30.013  25.945  1.00  0.00    -0.334 N 
ATOM     17  C   UNL A   1      33.749  30.420  26.960  1.00  0.00     0.331 C 
ATOM     18  H   UNL A   1      32.904  30.635  25.144  1.00  0.00     0.347 HD
ATOM     19  H   UNL A   1      31.879  30.066  26.396  1.00  0.00     0.347 HD
ENDBRANCH  11  16
BRANCH  15  20
ATOM     20  N   UNL A   1      31.077  25.541  25.103  1.00  0.00    -0.323 N 
ATOM     21  C   UNL A   1      29.626  25.616  25.328  1.00  0.00     0.324 C 
ATOM     22  C   UNL A   1      31.440  24.127  24.951  1.00  0.00     0.324 C 
ATOM     23  H   UNL A   1      31.320  25.998  24.224  1.00  0.00     0.348 HD
ATOM     24  C   UNL A   1      29.090  24.709  26.461  1.00  0.00     0.324 C 
ATOM     25  C   UNL A   1      31.025  23.235  26.130  1.00  0.00     0.324 C 
ATOM     26  N   UNL A   1      29.598  23.323  26.452  1.00  0.00    -0.328 N 
ATOM     27  C   UNL A   1      29.329  22.674  27.737  1.00  0.00     0.333 C 
ATOM     28  H   UNL A   1      29.099  22.834  25.709  1.00  0.00     0.348 HD
ENDBRANCH  15  20
ENDBRANCH   9  11
ENDBRANCH   8   9
ENDBRANCH   7   8
ENDBRANCH   6   7
ENDBRANCH   5   6
ENDBRANCH   4   5
ENDBRANCH   3   4
ENDBRANCH   2   3
ENDBRANCH   1   2
BRANCH   1  29
ATOM     29  C   UNL A   1      36.003  20.795  25.015  1.00  0.00     0.188 C 
BRANCH  29  30
ATOM     30  O   UNL A   1      37.347  20.810  24.548  1.00  0.00    -0.376 OA
BRANCH  30  31
ATOM     31  C   UNL A   1      38.422  20.481  25.408  1.00  0.00     0.202 C 
BRANCH  31  32
ATOM     32  C   UNL A   1      39.478  21.542  25.762  1.00  0.00     0.261 C 
BRANCH  32  33
ATOM     33  O   UNL A   1      39.159  22.449  26.822  1.00  0.00    -0.460 OA
BRANCH  33  34
ATOM     34  C   UNL A   1      38.695  23.653  26.427  1.00  0.00     0.338 C 
ATOM     35  O   UNL A   1      37.640  23.888  25.847  1.00  0.00    -0.246 OA
BRANCH  34  36
ATOM     36  C   UNL A   1      39.614  24.702  26.900  1.00  0.00     0.060 A 
ATOM     37  C   UNL A   1      39.853  24.819  28.276  1.00  0.00     0.016 A 
ATOM     38  C   UNL A   1      40.170  25.617  26.003  1.00  0.00     0.016 A 
ATOM     39  C   UNL A   1      40.624  25.869  28.764  1.00  0.00     0.010 A 
ATOM     40  C   UNL A   1      40.917  26.690  26.496  1.00  0.00     0.010 A 
ATOM     41  C   UNL A   1      41.113  26.839  27.881  1.00  0.00    -0.014 A 
BRANCH  41  42
ATOM     42  C   UNL A   1      41.630  28.114  28.431  1.00  0.00     0.031 A 
ATOM     43  C   UNL A   1      43.118  28.338  28.422  1.00  0.00     0.074 A 
ATOM     44  C   UNL A   1      40.795  29.065  28.881  1.00  0.00     0.049 A 
ATOM     45  N   UNL A   1      43.808  29.346  28.885  1.00  0.00    -0.248 NA
ATOM     46  C   UNL A   1      43.938  27.280  27.806  1.00  0.00     0.031 C 
ATOM     47  C   UNL A   1      39.335  28.975  28.882  1.00  0.00     0.029 A 
ATOM     48  N   UNL A   1      41.059  30.293  29.429  1.00  0.00    -0.354 N 
ATOM     49  C   UNL A   1      45.140  29.040  28.629  1.00  0.00     0.074 A 
ATOM     50  C   UNL A   1      45.164  27.742  27.994  1.00  0.00     0.031 C 
ATOM     51  C   UNL A   1      38.832  30.098  29.423  1.00  0.00     0.029 A 
ATOM     52  C   UNL A   1      39.933  30.966  29.839  1.00  0.00     0.049 A 
ATOM     53  H   UNL A   1      41.968  30.658  29.522  1.00  0.00     0.167 HD
ATOM     54  C   UNL A   1      46.243  29.781  28.895  1.00  0.00     0.037 A 
ATOM     55  C   UNL A   1      39.812  32.136  30.499  1.00  0.00     0.037 A 
ATOM     56  C   UNL A   1      46.203  31.072  29.530  1.00  0.00     0.049 A 
ATOM     57  C   UNL A   1      41.058  32.908  30.854  1.00  0.00     0.074 A 
ATOM     58  C   UNL A   1      47.258  31.911  29.842  1.00  0.00     0.029 A 
ATOM     59  N   UNL A   1      45.047  31.707  29.959  1.00  0.00    -0.354 N 
ATOM     60  N   UNL A   1      42.313  32.615  30.599  1.00  0.00    -0.248 NA
ATOM     61  C   UNL A   1      40.874  34.170  31.583  1.00  0.00     0.031 C 
ATOM     62  C   UNL A   1      46.745  33.027  30.509  1.00  0.00     0.029 A 
ATOM     63  C   UNL A   1      45.363  32.916  30.556  1.00  0.00     0.049 A 
ATOM     64  H   UNL A   1      44.134  31.352  29.855  1.00  0.00     0.167 HD
ATOM     65  C   UNL A   1      43.063  33.670  31.111  1.00  0.00     0.074 A 
ATOM     66  C   UNL A   1      42.120  34.612  31.679  1.00  0.00     0.031 C 
ATOM     67  C   UNL A   1      44.408  33.845  31.109  1.00  0.00     0.037 A 
BRANCH  54  68
ATOM     68  C   UNL A   1      47.582  29.195  28.537  1.00  0.00     0.058 A 
ATOM     69  C   UNL A   1      48.328  28.432  29.449  1.00  0.00     0.135 A 
ATOM     70  C   UNL A   1      48.114  29.379  27.250  1.00  0.00     0.135 A 
ATOM     71  F   UNL A   1      47.879  28.241  30.699  1.00  0.00    -0.206 F 
ATOM     72  C   UNL A   1      49.565  27.892  29.106  1.00  0.00     0.059 A 
ATOM     73  C   UNL A   1      49.334  28.823  26.876  1.00  0.00     0.059 A 
ATOM     74  F   UNL A   1      47.446  30.105  26.340  1.00  0.00    -0.206 F 
ATOM     75  C   UNL A   1      50.058  28.092  27.816  1.00  0.00     0.060 A 
BRANCH  75  76
ATOM     76  S   UNL A   1      51.657  27.375  27.383  1.00  0.00     0.124 S 
ATOM     77  O   UNL A   1      52.556  28.502  27.613  1.00  0.00    -0.237 OA
ATOM     78  O   UNL A   1      51.770  26.271  28.330  1.00  0.00    -0.237 OA
ATOM     79  O   UNL A   1      51.489  26.984  25.986  1.00  0.00    -0.744 OA
ENDBRANCH  75  76
ENDBRANCH  54  68
BRANCH  55  80
ATOM     80  C   UNL A   1      38.465  32.635  30.885  1.00  0.00     0.058 A 
ATOM     81  C   UNL A   1      37.924  32.370  32.153  1.00  0.00     0.135 A 
ATOM     82  C   UNL A   1      37.689  33.391  29.992  1.00  0.00     0.135 A 
ATOM     83  F   UNL A   1      38.619  31.640  33.038  1.00  0.00    -0.206 F 
ATOM     84  C   UNL A   1      36.660  32.825  32.517  1.00  0.00     0.059 A 
ATOM     85  C   UNL A   1      36.435  33.882  30.343  1.00  0.00     0.059 A 
ATOM     86  F   UNL A   1      38.158  33.678  28.768  1.00  0.00    -0.206 F 
ATOM     87  C   UNL A   1      35.925  33.586  31.606  1.00  0.00     0.060 A 
BRANCH  87  88
ATOM     88  S   UNL A   1      34.310  34.216  32.108  1.00  0.00     0.124 S 
ATOM     89  O   UNL A   1      33.778  33.093  32.871  1.00  0.00    -0.237 OA
ATOM     90  O   UNL A   1      34.670  35.401  32.882  1.00  0.00    -0.237 OA
ATOM     91  O   UNL A   1      33.644  34.488  30.837  1.00  0.00    -0.744 OA
ENDBRANCH  87  88
ENDBRANCH  55  80
BRANCH  67  92
ATOM     92  C   UNL A   1      44.945  35.121  31.701  1.00  0.00     0.058 A 
ATOM     93  C   UNL A   1      45.333  35.210  33.047  1.00  0.00     0.135 A 
ATOM     94  C   UNL A   1      45.130  36.255  30.892  1.00  0.00     0.135 A 
ATOM     95  F   UNL A   1      45.175  34.159  33.867  1.00  0.00    -0.206 F 
ATOM     96  C   UNL A   1      45.859  36.385  33.575  1.00  0.00     0.059 A 
ATOM     97  C   UNL A   1      45.684  37.429  31.390  1.00  0.00     0.059 A 
ATOM     98  F   UNL A   1      44.788  36.221  29.592  1.00  0.00    -0.206 F 
ATOM     99  C   UNL A   1      46.035  37.489  32.737  1.00  0.00     0.060 A 
BRANCH  99 100
ATOM    100  S   UNL A   1      46.751  38.995  33.429  1.00  0.00     0.124 S 
ATOM    101  O   UNL A   1      46.650  39.913  32.300  1.00  0.00    -0.237 OA
ATOM    102  O   UNL A   1      45.863  39.274  34.553  1.00  0.00    -0.237 OA
ATOM    103  O   UNL A   1      48.106  38.593  33.793  1.00  0.00    -0.744 OA
ENDBRANCH  99 100
ENDBRANCH  67  92
ENDBRANCH  41  42
ENDBRANCH  34  36
ENDBRANCH  33  34
ENDBRANCH  32  33
ENDBRANCH  31  32
ENDBRANCH  30  31
ENDBRANCH  29  30
ENDBRANCH   1  29
TORSDOF 25
ENDMDL
