MODEL 1
REMARK VINA RESULT:      -9.7      0.000      0.000
REMARK SMILES CC(C)N(c1cc2c(cc1Cl)C=C(C(=O)OCCOCCOCCOCCOC(=O)c1ccc(-c3c4nc(c(-c5c(F)cc(S(=O)(=O)[O-])cc5F)c5ccc([nH]5)c(-c5c(F)cc(S(=O)(=O)[O-])cc5F)c5nc(c(-c6c(F)cc(S(=O)(=O)[O-])cc6F)c6ccc3[nH]6)C=C5)C=C4)cc1)[C@@H](C(F)(F)F)O2)C(C)C
REMARK SMILES IDX 23 1 22 2 21 3 20 4 19 5 18 6 17 7 16 8 14 9 15 10 13 11
REMARK SMILES IDX 5 12 6 13 10 14 7 15 9 16 11 17 8 18 102 19 12 20 97 21 4 22
REMARK SMILES IDX 2 23 1 24 3 25 103 26 104 27 105 28 98 29 99 30 100 31
REMARK SMILES IDX 101 32 24 33 25 34 26 35 27 36 28 37 29 38 30 39 31 40 32 41
REMARK SMILES IDX 96 42 33 43 95 44 34 45 35 46 36 47 89 48 37 49 94 50 88 51
REMARK SMILES IDX 90 52 38 53 93 54 87 55 86 56 39 58 73 59 52 60 72 61 53 62
REMARK SMILES IDX 56 63 71 64 91 65 54 66 55 67 70 69 92 70 57 71 40 72 41 73
REMARK SMILES IDX 50 74 42 75 43 76 49 77 51 78 44 79 45 80 46 81 47 82 48 83
REMARK SMILES IDX 74 84 75 85 84 86 76 87 77 88 83 89 85 90 78 91 79 92 80 93
REMARK SMILES IDX 81 94 82 95 58 96 59 97 68 98 60 99 61 100 67 101 69 102
REMARK SMILES IDX 62 103 63 104 64 105 65 106 66 107
REMARK H PARENT 90 57 56 68
REMARK Flexibility Score: inf
ROOT
ATOM      1  C   UNL A   1      35.123  34.004  32.048  1.00  0.00     0.188 C 
ENDROOT
BRANCH   1   2
ATOM      2  O   UNL A   1      35.580  33.644  30.743  1.00  0.00    -0.377 OA
BRANCH   2   3
ATOM      3  C   UNL A   1      34.738  32.841  29.934  1.00  0.00     0.188 C 
BRANCH   3   4
ATOM      4  C   UNL A   1      35.500  31.748  29.162  1.00  0.00     0.188 C 
BRANCH   4   5
ATOM      5  O   UNL A   1      35.202  31.742  27.773  1.00  0.00    -0.376 OA
BRANCH   5   6
ATOM      6  C   UNL A   1      34.526  30.623  27.217  1.00  0.00     0.202 C 
BRANCH   6   7
ATOM      7  C   UNL A   1      32.990  30.606  27.099  1.00  0.00     0.261 C 
BRANCH   7   8
ATOM      8  O   UNL A   1      32.380  29.326  26.888  1.00  0.00    -0.460 OA
BRANCH   8   9
ATOM      9  C   UNL A   1      31.723  29.128  25.734  1.00  0.00     0.338 C 
ATOM     10  O   UNL A   1      31.181  29.974  25.044  1.00  0.00    -0.246 OA
BRANCH   9  11
ATOM     11  C   UNL A   1      31.938  27.720  25.327  1.00  0.00     0.087 C 
ATOM     12  C   UNL A   1      32.942  22.768  25.322  1.00  0.00     0.060 A 
ATOM     13  C   UNL A   1      32.792  23.764  24.328  1.00  0.00     0.074 A 
ATOM     14  C   UNL A   1      32.561  23.134  26.634  1.00  0.00     0.065 A 
ATOM     15  C   UNL A   1      32.405  25.077  24.632  1.00  0.00     0.130 A 
ATOM     16  C   UNL A   1      32.134  24.437  26.930  1.00  0.00     0.034 A 
ATOM     17  Cl  UNL A   1      32.709  22.101  28.017  1.00  0.00    -0.082 Cl
ATOM     18  C   UNL A   1      32.109  25.421  25.943  1.00  0.00     0.019 A 
ATOM     19  O   UNL A   1      32.380  25.965  23.595  1.00  0.00    -0.475 OA
ATOM     20  C   UNL A   1      31.867  26.804  26.301  1.00  0.00     0.027 C 
ATOM     21  C   UNL A   1      32.159  27.382  23.872  1.00  0.00     0.316 C 
BRANCH  12  22
ATOM     22  N   UNL A   1      33.512  21.526  24.961  1.00  0.00    -0.365 N 
BRANCH  22  23
ATOM     23  C   UNL A   1      34.985  21.424  24.859  1.00  0.00     0.076 C 
ATOM     24  C   UNL A   1      35.713  22.230  25.933  1.00  0.00     0.030 C 
ATOM     25  C   UNL A   1      35.498  19.984  24.840  1.00  0.00     0.030 C 
ENDBRANCH  22  23
BRANCH  22  26
ATOM     26  C   UNL A   1      32.546  20.429  24.694  1.00  0.00     0.076 C 
ATOM     27  C   UNL A   1      32.382  20.125  23.208  1.00  0.00     0.030 C 
ATOM     28  C   UNL A   1      32.830  19.164  25.497  1.00  0.00     0.030 C 
ENDBRANCH  22  26
ENDBRANCH  12  22
BRANCH  21  29
ATOM     29  C   UNL A   1      33.322  28.182  23.267  1.00  0.00     0.430 C 
ATOM     30  F   UNL A   1      33.137  29.514  23.423  1.00  0.00    -0.167 F 
ATOM     31  F   UNL A   1      34.503  27.875  23.848  1.00  0.00    -0.167 F 
ATOM     32  F   UNL A   1      33.448  27.943  21.940  1.00  0.00    -0.167 F 
ENDBRANCH  21  29
ENDBRANCH   9  11
ENDBRANCH   8   9
ENDBRANCH   7   8
ENDBRANCH   6   7
ENDBRANCH   5   6
ENDBRANCH   4   5
ENDBRANCH   3   4
ENDBRANCH   2   3
ENDBRANCH   1   2
BRANCH   1  33
ATOM     33  C   UNL A   1      35.758  35.161  32.859  1.00  0.00     0.188 C 
BRANCH  33  34
ATOM     34  O   UNL A   1      36.812  34.762  33.730  1.00  0.00    -0.376 OA
BRANCH  34  35
ATOM     35  C   UNL A   1      36.807  33.419  34.187  1.00  0.00     0.202 C 
BRANCH  35  36
ATOM     36  C   UNL A   1      38.164  32.710  34.117  1.00  0.00     0.261 C 
BRANCH  36  37
ATOM     37  O   UNL A   1      38.110  31.285  33.979  1.00  0.00    -0.460 OA
BRANCH  37  38
ATOM     38  C   UNL A   1      37.624  30.781  32.814  1.00  0.00     0.338 C 
ATOM     39  O   UNL A   1      36.486  30.812  32.423  1.00  0.00    -0.246 OA
BRANCH  38  40
ATOM     40  C   UNL A   1      38.803  30.362  32.016  1.00  0.00     0.060 A 
ATOM     41  C   UNL A   1      38.844  30.615  30.644  1.00  0.00     0.016 A 
ATOM     42  C   UNL A   1      39.841  29.664  32.643  1.00  0.00     0.016 A 
ATOM     43  C   UNL A   1      39.942  30.185  29.898  1.00  0.00     0.010 A 
ATOM     44  C   UNL A   1      40.938  29.229  31.893  1.00  0.00     0.010 A 
ATOM     45  C   UNL A   1      41.004  29.505  30.518  1.00  0.00    -0.014 A 
BRANCH  45  46
ATOM     46  C   UNL A   1      42.250  29.252  29.756  1.00  0.00     0.031 A 
ATOM     47  C   UNL A   1      43.318  30.290  29.600  1.00  0.00     0.074 A 
ATOM     48  C   UNL A   1      42.400  28.037  29.194  1.00  0.00     0.049 A 
ATOM     49  N   UNL A   1      44.492  30.177  29.033  1.00  0.00    -0.248 NA
ATOM     50  C   UNL A   1      43.036  31.627  30.140  1.00  0.00     0.031 C 
ATOM     51  C   UNL A   1      41.406  26.962  29.253  1.00  0.00     0.029 A 
ATOM     52  N   UNL A   1      43.433  27.498  28.474  1.00  0.00    -0.354 N 
ATOM     53  C   UNL A   1      45.102  31.419  29.158  1.00  0.00     0.074 A 
ATOM     54  C   UNL A   1      44.146  32.284  29.822  1.00  0.00     0.031 C 
ATOM     55  C   UNL A   1      41.887  25.886  28.614  1.00  0.00     0.029 A 
ATOM     56  C   UNL A   1      43.209  26.200  28.081  1.00  0.00     0.049 A 
ATOM     57  H   UNL A   1      44.257  27.992  28.259  1.00  0.00     0.167 HD
ATOM     58  C   UNL A   1      46.346  31.790  28.768  1.00  0.00     0.037 A 
ATOM     59  C   UNL A   1      43.980  25.354  27.372  1.00  0.00     0.037 A 
ATOM     60  C   UNL A   1      47.280  30.920  28.094  1.00  0.00     0.049 A 
ATOM     61  C   UNL A   1      45.341  25.800  26.926  1.00  0.00     0.074 A 
ATOM     62  C   UNL A   1      48.584  31.190  27.711  1.00  0.00     0.029 A 
ATOM     63  N   UNL A   1      47.009  29.622  27.681  1.00  0.00    -0.354 N 
ATOM     64  N   UNL A   1      45.938  26.950  27.132  1.00  0.00    -0.248 NA
ATOM     65  C   UNL A   1      46.139  24.834  26.159  1.00  0.00     0.031 C 
ATOM     66  C   UNL A   1      49.079  30.080  27.018  1.00  0.00     0.029 A 
ATOM     67  C   UNL A   1      48.106  29.094  27.016  1.00  0.00     0.049 A 
ATOM     68  H   UNL A   1      46.162  29.146  27.839  1.00  0.00     0.167 HD
ATOM     69  C   UNL A   1      47.185  26.843  26.529  1.00  0.00     0.074 A 
ATOM     70  C   UNL A   1      47.266  25.508  25.971  1.00  0.00     0.031 C 
ATOM     71  C   UNL A   1      48.172  27.771  26.444  1.00  0.00     0.037 A 
BRANCH  58  72
ATOM     72  C   UNL A   1      46.782  33.203  29.053  1.00  0.00     0.058 A 
ATOM     73  C   UNL A   1      47.462  33.538  30.235  1.00  0.00     0.135 A 
ATOM     74  C   UNL A   1      46.590  34.219  28.102  1.00  0.00     0.135 A 
ATOM     75  F   UNL A   1      47.670  32.608  31.181  1.00  0.00    -0.206 F 
ATOM     76  C   UNL A   1      47.916  34.831  30.474  1.00  0.00     0.059 A 
ATOM     77  C   UNL A   1      47.057  35.515  28.310  1.00  0.00     0.059 A 
ATOM     78  F   UNL A   1      45.950  33.955  26.952  1.00  0.00    -0.206 F 
ATOM     79  C   UNL A   1      47.710  35.813  29.504  1.00  0.00     0.060 A 
BRANCH  79  80
ATOM     80  S   UNL A   1      48.313  37.484  29.828  1.00  0.00     0.124 S 
ATOM     81  O   UNL A   1      49.630  37.445  29.199  1.00  0.00    -0.237 OA
ATOM     82  O   UNL A   1      47.314  38.310  29.157  1.00  0.00    -0.237 OA
ATOM     83  O   UNL A   1      48.318  37.569  31.284  1.00  0.00    -0.744 OA
ENDBRANCH  79  80
ENDBRANCH  58  72
BRANCH  59  84
ATOM     84  C   UNL A   1      43.472  23.990  27.073  1.00  0.00     0.058 A 
ATOM     85  C   UNL A   1      43.688  22.929  27.962  1.00  0.00     0.135 A 
ATOM     86  C   UNL A   1      42.708  23.737  25.921  1.00  0.00     0.135 A 
ATOM     87  F   UNL A   1      44.415  23.122  29.073  1.00  0.00    -0.206 F 
ATOM     88  C   UNL A   1      43.164  21.664  27.723  1.00  0.00     0.059 A 
ATOM     89  C   UNL A   1      42.153  22.487  25.674  1.00  0.00     0.059 A 
ATOM     90  F   UNL A   1      42.460  24.727  25.049  1.00  0.00    -0.206 F 
ATOM     91  C   UNL A   1      42.388  21.456  26.581  1.00  0.00     0.060 A 
BRANCH  91  92
ATOM     92  S   UNL A   1      41.649  19.829  26.326  1.00  0.00     0.124 S 
ATOM     93  O   UNL A   1      41.973  19.157  27.578  1.00  0.00    -0.237 OA
ATOM     94  O   UNL A   1      40.242  20.163  26.124  1.00  0.00    -0.237 OA
ATOM     95  O   UNL A   1      42.342  19.326  25.142  1.00  0.00    -0.744 OA
ENDBRANCH  91  92
ENDBRANCH  59  84
BRANCH  71  96
ATOM     96  C   UNL A   1      49.428  27.380  25.711  1.00  0.00     0.058 A 
ATOM     97  C   UNL A   1      49.505  27.431  24.310  1.00  0.00     0.135 A 
ATOM     98  C   UNL A   1      50.582  26.998  26.416  1.00  0.00     0.135 A 
ATOM     99  F   UNL A   1      48.429  27.779  23.587  1.00  0.00    -0.206 F 
ATOM    100  C   UNL A   1      50.673  27.098  23.632  1.00  0.00     0.059 A 
ATOM    101  C   UNL A   1      51.770  26.689  25.759  1.00  0.00     0.059 A 
ATOM    102  F   UNL A   1      50.566  26.938  27.756  1.00  0.00    -0.206 F 
ATOM    103  C   UNL A   1      51.803  26.732  24.366  1.00  0.00     0.060 A 
BRANCH 103 104
ATOM    104  S   UNL A   1      53.322  26.337  23.473  1.00  0.00     0.124 S 
ATOM    105  O   UNL A   1      54.113  27.545  23.689  1.00  0.00    -0.237 OA
ATOM    106  O   UNL A   1      53.788  25.142  24.168  1.00  0.00    -0.237 OA
ATOM    107  O   UNL A   1      52.866  26.123  22.103  1.00  0.00    -0.744 OA
ENDBRANCH 103 104
ENDBRANCH  71  96
ENDBRANCH  45  46
ENDBRANCH  38  40
ENDBRANCH  37  38
ENDBRANCH  36  37
ENDBRANCH  35  36
ENDBRANCH  34  35
ENDBRANCH  33  34
ENDBRANCH   1  33
TORSDOF 27
ENDMDL
MODEL 2
REMARK VINA RESULT:      -9.2      0.459      7.756
REMARK SMILES CC(C)N(c1cc2c(cc1Cl)C=C(C(=O)OCCOCCOCCOCCOC(=O)c1ccc(-c3c4nc(c(-c5c(F)cc(S(=O)(=O)[O-])cc5F)c5ccc([nH]5)c(-c5c(F)cc(S(=O)(=O)[O-])cc5F)c5nc(c(-c6c(F)cc(S(=O)(=O)[O-])cc6F)c6ccc3[nH]6)C=C5)C=C4)cc1)[C@@H](C(F)(F)F)O2)C(C)C
REMARK SMILES IDX 23 1 22 2 21 3 20 4 19 5 18 6 17 7 16 8 14 9 15 10 13 11
REMARK SMILES IDX 5 12 6 13 10 14 7 15 9 16 11 17 8 18 102 19 12 20 97 21 4 22
REMARK SMILES IDX 2 23 1 24 3 25 103 26 104 27 105 28 98 29 99 30 100 31
REMARK SMILES IDX 101 32 24 33 25 34 26 35 27 36 28 37 29 38 30 39 31 40 32 41
REMARK SMILES IDX 96 42 33 43 95 44 34 45 35 46 36 47 89 48 37 49 94 50 88 51
REMARK SMILES IDX 90 52 38 53 93 54 87 55 86 56 39 58 73 59 52 60 72 61 53 62
REMARK SMILES IDX 56 63 71 64 91 65 54 66 55 67 70 69 92 70 57 71 40 72 41 73
REMARK SMILES IDX 50 74 42 75 43 76 49 77 51 78 44 79 45 80 46 81 47 82 48 83
REMARK SMILES IDX 74 84 75 85 84 86 76 87 77 88 83 89 85 90 78 91 79 92 80 93
REMARK SMILES IDX 81 94 82 95 58 96 59 97 68 98 60 99 61 100 67 101 69 102
REMARK SMILES IDX 62 103 63 104 64 105 65 106 66 107
REMARK H PARENT 90 57 56 68
REMARK Flexibility Score: inf
ROOT
ATOM      1  C   UNL A   1      35.037  34.142  31.995  1.00  0.00     0.188 C 
ENDROOT
BRANCH   1   2
ATOM      2  O   UNL A   1      35.563  33.772  30.720  1.00  0.00    -0.377 OA
BRANCH   2   3
ATOM      3  C   UNL A   1      34.701  33.121  29.801  1.00  0.00     0.188 C 
BRANCH   3   4
ATOM      4  C   UNL A   1      35.382  31.965  29.045  1.00  0.00     0.188 C 
BRANCH   4   5
ATOM      5  O   UNL A   1      35.051  31.938  27.664  1.00  0.00    -0.376 OA
BRANCH   5   6
ATOM      6  C   UNL A   1      34.388  30.797  27.136  1.00  0.00     0.202 C 
BRANCH   6   7
ATOM      7  C   UNL A   1      32.859  30.651  27.245  1.00  0.00     0.261 C 
BRANCH   7   8
ATOM      8  O   UNL A   1      32.319  29.353  26.963  1.00  0.00    -0.460 OA
BRANCH   8   9
ATOM      9  C   UNL A   1      31.626  29.197  25.823  1.00  0.00     0.338 C 
ATOM     10  O   UNL A   1      31.065  30.068  25.181  1.00  0.00    -0.246 OA
BRANCH   9  11
ATOM     11  C   UNL A   1      31.826  27.804  25.361  1.00  0.00     0.087 C 
ATOM     12  C   UNL A   1      32.853  22.861  25.143  1.00  0.00     0.060 A 
ATOM     13  C   UNL A   1      32.642  23.887  24.191  1.00  0.00     0.074 A 
ATOM     14  C   UNL A   1      32.544  23.184  26.486  1.00  0.00     0.065 A 
ATOM     15  C   UNL A   1      32.267  25.187  24.558  1.00  0.00     0.130 A 
ATOM     16  C   UNL A   1      32.126  24.474  26.846  1.00  0.00     0.034 A 
ATOM     17  Cl  UNL A   1      32.773  22.108  27.824  1.00  0.00    -0.082 Cl
ATOM     18  C   UNL A   1      32.042  25.488  25.893  1.00  0.00     0.019 A 
ATOM     19  O   UNL A   1      32.180  26.107  23.553  1.00  0.00    -0.475 OA
ATOM     20  C   UNL A   1      31.813  26.858  26.308  1.00  0.00     0.027 C 
ATOM     21  C   UNL A   1      31.968  27.513  23.886  1.00  0.00     0.316 C 
BRANCH  12  22
ATOM     22  N   UNL A   1      33.408  21.635  24.712  1.00  0.00    -0.365 N 
BRANCH  22  23
ATOM     23  C   UNL A   1      32.514  20.467  24.554  1.00  0.00     0.076 C 
ATOM     24  C   UNL A   1      32.288  20.083  23.093  1.00  0.00     0.030 C 
ATOM     25  C   UNL A   1      32.956  19.245  25.360  1.00  0.00     0.030 C 
ENDBRANCH  22  23
BRANCH  22  26
ATOM     26  C   UNL A   1      34.875  21.643  24.476  1.00  0.00     0.076 C 
ATOM     27  C   UNL A   1      35.551  22.926  24.953  1.00  0.00     0.030 C 
ATOM     28  C   UNL A   1      35.582  20.404  25.015  1.00  0.00     0.030 C 
ENDBRANCH  22  26
ENDBRANCH  12  22
BRANCH  21  29
ATOM     29  C   UNL A   1      33.091  28.340  23.243  1.00  0.00     0.430 C 
ATOM     30  F   UNL A   1      34.159  27.565  22.939  1.00  0.00    -0.167 F 
ATOM     31  F   UNL A   1      32.689  28.929  22.095  1.00  0.00    -0.167 F 
ATOM     32  F   UNL A   1      33.522  29.319  24.073  1.00  0.00    -0.167 F 
ENDBRANCH  21  29
ENDBRANCH   9  11
ENDBRANCH   8   9
ENDBRANCH   7   8
ENDBRANCH   6   7
ENDBRANCH   5   6
ENDBRANCH   4   5
ENDBRANCH   3   4
ENDBRANCH   2   3
ENDBRANCH   1   2
BRANCH   1  33
ATOM     33  C   UNL A   1      35.646  35.287  32.844  1.00  0.00     0.188 C 
BRANCH  33  34
ATOM     34  O   UNL A   1      36.676  34.875  33.736  1.00  0.00    -0.376 OA
BRANCH  34  35
ATOM     35  C   UNL A   1      36.652  33.529  34.184  1.00  0.00     0.202 C 
BRANCH  35  36
ATOM     36  C   UNL A   1      37.992  32.792  34.080  1.00  0.00     0.261 C 
BRANCH  36  37
ATOM     37  O   UNL A   1      37.904  31.374  33.888  1.00  0.00    -0.460 OA
BRANCH  37  38
ATOM     38  C   UNL A   1      37.438  30.927  32.693  1.00  0.00     0.338 C 
ATOM     39  O   UNL A   1      36.329  31.060  32.245  1.00  0.00    -0.246 OA
BRANCH  38  40
ATOM     40  C   UNL A   1      38.616  30.415  31.950  1.00  0.00     0.060 A 
ATOM     41  C   UNL A   1      38.770  30.710  30.594  1.00  0.00     0.016 A 
ATOM     42  C   UNL A   1      39.536  29.592  32.609  1.00  0.00     0.016 A 
ATOM     43  C   UNL A   1      39.863  30.194  29.897  1.00  0.00     0.010 A 
ATOM     44  C   UNL A   1      40.629  29.072  31.907  1.00  0.00     0.010 A 
ATOM     45  C   UNL A   1      40.809  29.386  30.552  1.00  0.00    -0.014 A 
BRANCH  45  46
ATOM     46  C   UNL A   1      42.068  29.031  29.855  1.00  0.00     0.031 A 
ATOM     47  C   UNL A   1      42.285  27.689  29.226  1.00  0.00     0.074 A 
ATOM     48  C   UNL A   1      43.034  29.969  29.800  1.00  0.00     0.049 A 
ATOM     49  N   UNL A   1      43.302  27.274  28.514  1.00  0.00    -0.248 NA
ATOM     50  C   UNL A   1      41.236  26.679  29.425  1.00  0.00     0.031 C 
ATOM     51  C   UNL A   1      42.943  31.298  30.409  1.00  0.00     0.029 A 
ATOM     52  N   UNL A   1      44.270  29.956  29.207  1.00  0.00    -0.354 N 
ATOM     53  C   UNL A   1      43.015  25.961  28.162  1.00  0.00     0.074 A 
ATOM     54  C   UNL A   1      41.743  25.636  28.777  1.00  0.00     0.031 C 
ATOM     55  C   UNL A   1      44.065  31.980  30.141  1.00  0.00     0.029 A 
ATOM     56  C   UNL A   1      44.963  31.132  29.364  1.00  0.00     0.049 A 
ATOM     57  H   UNL A   1      44.625  29.181  28.717  1.00  0.00     0.167 HD
ATOM     58  C   UNL A   1      43.741  25.118  27.388  1.00  0.00     0.037 A 
ATOM     59  C   UNL A   1      46.187  31.491  28.931  1.00  0.00     0.037 A 
ATOM     60  C   UNL A   1      45.015  25.453  26.795  1.00  0.00     0.049 A 
ATOM     61  C   UNL A   1      46.983  30.529  28.099  1.00  0.00     0.074 A 
ATOM     62  C   UNL A   1      45.797  24.685  25.947  1.00  0.00     0.029 A 
ATOM     63  N   UNL A   1      45.705  26.640  27.000  1.00  0.00    -0.354 N 
ATOM     64  N   UNL A   1      46.657  29.323  27.700  1.00  0.00    -0.248 NA
ATOM     65  C   UNL A   1      48.309  30.976  27.652  1.00  0.00     0.031 C 
ATOM     66  C   UNL A   1      46.983  25.382  25.689  1.00  0.00     0.029 A 
ATOM     67  C   UNL A   1      46.918  26.609  26.328  1.00  0.00     0.049 A 
ATOM     68  H   UNL A   1      45.381  27.394  27.543  1.00  0.00     0.167 HD
ATOM     69  C   UNL A   1      47.733  28.869  26.946  1.00  0.00     0.074 A 
ATOM     70  C   UNL A   1      48.709  29.940  26.926  1.00  0.00     0.031 C 
ATOM     71  C   UNL A   1      47.896  27.671  26.330  1.00  0.00     0.037 A 
BRANCH  58  72
ATOM     72  C   UNL A   1      43.186  23.743  27.128  1.00  0.00     0.058 A 
ATOM     73  C   UNL A   1      42.533  23.428  25.926  1.00  0.00     0.135 A 
ATOM     74  C   UNL A   1      43.377  22.706  28.058  1.00  0.00     0.135 A 
ATOM     75  F   UNL A   1      42.319  24.380  25.004  1.00  0.00    -0.206 F 
ATOM     76  C   UNL A   1      42.070  22.143  25.663  1.00  0.00     0.059 A 
ATOM     77  C   UNL A   1      42.943  21.407  27.805  1.00  0.00     0.059 A 
ATOM     78  F   UNL A   1      43.999  22.949  29.222  1.00  0.00    -0.206 F 
ATOM     79  C   UNL A   1      42.281  21.137  26.609  1.00  0.00     0.060 A 
BRANCH  79  80
ATOM     80  S   UNL A   1      41.681  19.473  26.246  1.00  0.00     0.124 S 
ATOM     81  O   UNL A   1      42.583  19.066  25.173  1.00  0.00    -0.237 OA
ATOM     82  O   UNL A   1      41.866  18.792  27.523  1.00  0.00    -0.237 OA
ATOM     83  O   UNL A   1      40.294  19.690  25.849  1.00  0.00    -0.744 OA
ENDBRANCH  79  80
ENDBRANCH  58  72
BRANCH  59  84
ATOM     84  C   UNL A   1      46.706  32.843  29.264  1.00  0.00     0.058 A 
ATOM     85  C   UNL A   1      47.538  33.043  30.373  1.00  0.00     0.135 A 
ATOM     86  C   UNL A   1      46.428  33.948  28.443  1.00  0.00     0.135 A 
ATOM     87  F   UNL A   1      47.827  32.018  31.189  1.00  0.00    -0.206 F 
ATOM     88  C   UNL A   1      48.079  34.292  30.658  1.00  0.00     0.059 A 
ATOM     89  C   UNL A   1      46.978  35.200  28.693  1.00  0.00     0.059 A 
ATOM     90  F   UNL A   1      45.650  33.801  27.359  1.00  0.00    -0.206 F 
ATOM     91  C   UNL A   1      47.802  35.361  29.805  1.00  0.00     0.060 A 
BRANCH  91  92
ATOM     92  S   UNL A   1      48.576  36.957  30.144  1.00  0.00     0.124 S 
ATOM     93  O   UNL A   1      49.593  36.591  31.122  1.00  0.00    -0.237 OA
ATOM     94  O   UNL A   1      49.068  37.341  28.824  1.00  0.00    -0.237 OA
ATOM     95  O   UNL A   1      47.472  37.766  30.653  1.00  0.00    -0.744 OA
ENDBRANCH  91  92
ENDBRANCH  59  84
BRANCH  71  96
ATOM     96  C   UNL A   1      49.185  27.446  25.584  1.00  0.00     0.058 A 
ATOM     97  C   UNL A   1      49.248  27.541  24.185  1.00  0.00     0.135 A 
ATOM     98  C   UNL A   1      50.378  27.183  26.277  1.00  0.00     0.135 A 
ATOM     99  F   UNL A   1      48.136  27.781  23.473  1.00  0.00    -0.206 F 
ATOM    100  C   UNL A   1      50.444  27.363  23.497  1.00  0.00     0.059 A 
ATOM    101  C   UNL A   1      51.591  27.030  25.610  1.00  0.00     0.059 A 
ATOM    102  F   UNL A   1      50.377  27.088  27.615  1.00  0.00    -0.206 F 
ATOM    103  C   UNL A   1      51.612  27.112  24.219  1.00  0.00     0.060 A 
BRANCH 103 104
ATOM    104  S   UNL A   1      53.162  26.918  23.312  1.00  0.00     0.124 S 
ATOM    105  O   UNL A   1      53.794  25.824  24.043  1.00  0.00    -0.237 OA
ATOM    106  O   UNL A   1      52.696  26.594  21.968  1.00  0.00    -0.237 OA
ATOM    107  O   UNL A   1      53.805  28.220  23.452  1.00  0.00    -0.744 OA
ENDBRANCH 103 104
ENDBRANCH  71  96
ENDBRANCH  45  46
ENDBRANCH  38  40
ENDBRANCH  37  38
ENDBRANCH  36  37
ENDBRANCH  35  36
ENDBRANCH  34  35
ENDBRANCH  33  34
ENDBRANCH   1  33
TORSDOF 27
ENDMDL
MODEL 3
REMARK VINA RESULT:      -8.8      4.586      5.769
REMARK SMILES CC(C)N(c1cc2c(cc1Cl)C=C(C(=O)OCCOCCOCCOCCOC(=O)c1ccc(-c3c4nc(c(-c5c(F)cc(S(=O)(=O)[O-])cc5F)c5ccc([nH]5)c(-c5c(F)cc(S(=O)(=O)[O-])cc5F)c5nc(c(-c6c(F)cc(S(=O)(=O)[O-])cc6F)c6ccc3[nH]6)C=C5)C=C4)cc1)[C@@H](C(F)(F)F)O2)C(C)C
REMARK SMILES IDX 23 1 22 2 21 3 20 4 19 5 18 6 17 7 16 8 14 9 15 10 13 11
REMARK SMILES IDX 5 12 6 13 10 14 7 15 9 16 11 17 8 18 102 19 12 20 97 21 4 22
REMARK SMILES IDX 2 23 1 24 3 25 103 26 104 27 105 28 98 29 99 30 100 31
REMARK SMILES IDX 101 32 24 33 25 34 26 35 27 36 28 37 29 38 30 39 31 40 32 41
REMARK SMILES IDX 96 42 33 43 95 44 34 45 35 46 36 47 89 48 37 49 94 50 88 51
REMARK SMILES IDX 90 52 38 53 93 54 87 55 86 56 39 58 73 59 52 60 72 61 53 62
REMARK SMILES IDX 56 63 71 64 91 65 54 66 55 67 70 69 92 70 57 71 40 72 41 73
REMARK SMILES IDX 50 74 42 75 43 76 49 77 51 78 44 79 45 80 46 81 47 82 48 83
REMARK SMILES IDX 74 84 75 85 84 86 76 87 77 88 83 89 85 90 78 91 79 92 80 93
REMARK SMILES IDX 81 94 82 95 58 96 59 97 68 98 60 99 61 100 67 101 69 102
REMARK SMILES IDX 62 103 63 104 64 105 65 106 66 107
REMARK H PARENT 90 57 56 68
REMARK Flexibility Score: inf
ROOT
ATOM      1  C   UNL A   1      34.725  34.223  31.792  1.00  0.00     0.188 C 
ENDROOT
BRANCH   1   2
ATOM      2  O   UNL A   1      34.072  35.022  30.804  1.00  0.00    -0.377 OA
BRANCH   2   3
ATOM      3  C   UNL A   1      33.730  34.417  29.569  1.00  0.00     0.188 C 
BRANCH   3   4
ATOM      4  C   UNL A   1      34.290  32.991  29.415  1.00  0.00     0.188 C 
BRANCH   4   5
ATOM      5  O   UNL A   1      34.530  32.634  28.061  1.00  0.00    -0.376 OA
BRANCH   5   6
ATOM      6  C   UNL A   1      34.606  31.259  27.714  1.00  0.00     0.202 C 
BRANCH   6   7
ATOM      7  C   UNL A   1      33.342  30.476  27.309  1.00  0.00     0.261 C 
BRANCH   7   8
ATOM      8  O   UNL A   1      33.377  29.824  26.033  1.00  0.00    -0.460 OA
BRANCH   8   9
ATOM      9  C   UNL A   1      32.208  29.452  25.487  1.00  0.00     0.338 C 
ATOM     10  O   UNL A   1      31.268  30.175  25.203  1.00  0.00    -0.246 OA
BRANCH   9  11
ATOM     11  C   UNL A   1      32.325  28.028  25.096  1.00  0.00     0.087 C 
ATOM     12  C   UNL A   1      33.108  23.036  25.118  1.00  0.00     0.060 A 
ATOM     13  C   UNL A   1      32.912  24.019  24.118  1.00  0.00     0.074 A 
ATOM     14  C   UNL A   1      32.864  23.445  26.450  1.00  0.00     0.065 A 
ATOM     15  C   UNL A   1      32.612  25.353  24.424  1.00  0.00     0.130 A 
ATOM     16  C   UNL A   1      32.522  24.772  26.752  1.00  0.00     0.034 A 
ATOM     17  Cl  UNL A   1      33.091  22.433  27.838  1.00  0.00    -0.082 Cl
ATOM     18  C   UNL A   1      32.451  25.736  25.748  1.00  0.00     0.019 A 
ATOM     19  O   UNL A   1      32.532  26.221  23.373  1.00  0.00    -0.475 OA
ATOM     20  C   UNL A   1      32.302  27.136  26.093  1.00  0.00     0.027 C 
ATOM     21  C   UNL A   1      32.399  27.652  23.636  1.00  0.00     0.316 C 
BRANCH  12  22
ATOM     22  N   UNL A   1      33.589  21.763  24.737  1.00  0.00    -0.365 N 
BRANCH  22  23
ATOM     23  C   UNL A   1      35.044  21.584  24.539  1.00  0.00     0.076 C 
ATOM     24  C   UNL A   1      35.674  22.698  23.705  1.00  0.00     0.030 C 
ATOM     25  C   UNL A   1      35.821  21.396  25.843  1.00  0.00     0.030 C 
ENDBRANCH  22  23
BRANCH  22  26
ATOM     26  C   UNL A   1      32.553  20.715  24.550  1.00  0.00     0.076 C 
ATOM     27  C   UNL A   1      32.224  20.454  23.083  1.00  0.00     0.030 C 
ATOM     28  C   UNL A   1      32.861  19.420  25.294  1.00  0.00     0.030 C 
ENDBRANCH  22  26
ENDBRANCH  12  22
BRANCH  21  29
ATOM     29  C   UNL A   1      33.536  28.386  22.910  1.00  0.00     0.430 C 
ATOM     30  F   UNL A   1      34.634  28.488  23.694  1.00  0.00    -0.167 F 
ATOM     31  F   UNL A   1      33.911  27.745  21.781  1.00  0.00    -0.167 F 
ATOM     32  F   UNL A   1      33.168  29.642  22.560  1.00  0.00    -0.167 F 
ENDBRANCH  21  29
ENDBRANCH   9  11
ENDBRANCH   8   9
ENDBRANCH   7   8
ENDBRANCH   6   7
ENDBRANCH   5   6
ENDBRANCH   4   5
ENDBRANCH   3   4
ENDBRANCH   2   3
ENDBRANCH   1   2
BRANCH   1  33
ATOM     33  C   UNL A   1      34.004  33.731  33.072  1.00  0.00     0.188 C 
BRANCH  33  34
ATOM     34  O   UNL A   1      34.869  33.182  34.062  1.00  0.00    -0.376 OA
BRANCH  34  35
ATOM     35  C   UNL A   1      36.241  33.534  33.996  1.00  0.00     0.202 C 
BRANCH  35  36
ATOM     36  C   UNL A   1      37.140  32.805  35.001  1.00  0.00     0.261 C 
BRANCH  36  37
ATOM     37  O   UNL A   1      37.542  31.482  34.623  1.00  0.00    -0.460 OA
BRANCH  37  38
ATOM     38  C   UNL A   1      38.536  30.896  35.340  1.00  0.00     0.338 C 
ATOM     39  O   UNL A   1      38.424  30.214  36.325  1.00  0.00    -0.246 OA
BRANCH  38  40
ATOM     40  C   UNL A   1      39.784  31.089  34.560  1.00  0.00     0.060 A 
ATOM     41  C   UNL A   1      39.918  30.504  33.299  1.00  0.00     0.016 A 
ATOM     42  C   UNL A   1      40.839  31.815  35.124  1.00  0.00     0.016 A 
ATOM     43  C   UNL A   1      41.108  30.663  32.589  1.00  0.00     0.010 A 
ATOM     44  C   UNL A   1      42.034  31.969  34.413  1.00  0.00     0.010 A 
ATOM     45  C   UNL A   1      42.168  31.410  33.132  1.00  0.00    -0.014 A 
BRANCH  45  46
ATOM     46  C   UNL A   1      43.331  31.749  32.278  1.00  0.00     0.031 A 
ATOM     47  C   UNL A   1      43.350  32.957  31.393  1.00  0.00     0.074 A 
ATOM     48  C   UNL A   1      44.395  30.923  32.320  1.00  0.00     0.049 A 
ATOM     49  N   UNL A   1      44.331  33.418  30.659  1.00  0.00    -0.248 NA
ATOM     50  C   UNL A   1      42.114  33.747  31.312  1.00  0.00     0.031 C 
ATOM     51  C   UNL A   1      44.470  29.698  33.120  1.00  0.00     0.029 A 
ATOM     52  N   UNL A   1      45.609  30.984  31.688  1.00  0.00    -0.354 N 
ATOM     53  C   UNL A   1      43.843  34.561  30.039  1.00  0.00     0.074 A 
ATOM     54  C   UNL A   1      42.461  34.699  30.453  1.00  0.00     0.031 C 
ATOM     55  C   UNL A   1      45.673  29.135  32.947  1.00  0.00     0.029 A 
ATOM     56  C   UNL A   1      46.446  29.943  32.008  1.00  0.00     0.049 A 
ATOM     57  H   UNL A   1      45.858  31.705  31.066  1.00  0.00     0.167 HD
ATOM     58  C   UNL A   1      44.497  35.416  29.214  1.00  0.00     0.037 A 
ATOM     59  C   UNL A   1      47.697  29.666  31.594  1.00  0.00     0.037 A 
ATOM     60  C   UNL A   1      45.871  35.256  28.799  1.00  0.00     0.049 A 
ATOM     61  C   UNL A   1      48.388  30.614  30.659  1.00  0.00     0.074 A 
ATOM     62  C   UNL A   1      46.636  36.102  28.014  1.00  0.00     0.029 A 
ATOM     63  N   UNL A   1      46.680  34.172  29.115  1.00  0.00    -0.354 N 
ATOM     64  N   UNL A   1      47.943  31.739  30.152  1.00  0.00    -0.248 NA
ATOM     65  C   UNL A   1      49.753  30.263  30.245  1.00  0.00     0.031 C 
ATOM     66  C   UNL A   1      47.884  35.504  27.806  1.00  0.00     0.029 A 
ATOM     67  C   UNL A   1      47.920  34.311  28.509  1.00  0.00     0.049 A 
ATOM     68  H   UNL A   1      46.412  33.417  29.686  1.00  0.00     0.167 HD
ATOM     69  C   UNL A   1      48.975  32.236  29.366  1.00  0.00     0.074 A 
ATOM     70  C   UNL A   1      50.076  31.301  29.484  1.00  0.00     0.031 C 
ATOM     71  C   UNL A   1      49.005  33.364  28.612  1.00  0.00     0.037 A 
BRANCH  58  72
ATOM     72  C   UNL A   1      43.742  36.612  28.696  1.00  0.00     0.058 A 
ATOM     73  C   UNL A   1      43.696  37.819  29.411  1.00  0.00     0.135 A 
ATOM     74  C   UNL A   1      43.123  36.577  27.435  1.00  0.00     0.135 A 
ATOM     75  F   UNL A   1      44.266  37.909  30.623  1.00  0.00    -0.206 F 
ATOM     76  C   UNL A   1      43.046  38.941  28.906  1.00  0.00     0.059 A 
ATOM     77  C   UNL A   1      42.489  37.695  26.899  1.00  0.00     0.059 A 
ATOM     78  F   UNL A   1      43.140  35.450  26.705  1.00  0.00    -0.206 F 
ATOM     79  C   UNL A   1      42.446  38.870  27.647  1.00  0.00     0.060 A 
BRANCH  79  80
ATOM     80  S   UNL A   1      41.615  40.338  27.005  1.00  0.00     0.124 S 
ATOM     81  O   UNL A   1      42.745  41.117  26.505  1.00  0.00    -0.237 OA
ATOM     82  O   UNL A   1      40.734  39.775  25.987  1.00  0.00    -0.237 OA
ATOM     83  O   UNL A   1      40.945  40.892  28.176  1.00  0.00    -0.744 OA
ENDBRANCH  79  80
ENDBRANCH  58  72
BRANCH  59  84
ATOM     84  C   UNL A   1      48.372  28.442  32.098  1.00  0.00     0.058 A 
ATOM     85  C   UNL A   1      48.272  27.227  31.407  1.00  0.00     0.135 A 
ATOM     86  C   UNL A   1      49.182  28.481  33.245  1.00  0.00     0.135 A 
ATOM     87  F   UNL A   1      47.507  27.141  30.309  1.00  0.00    -0.206 F 
ATOM     88  C   UNL A   1      48.950  26.091  31.835  1.00  0.00     0.059 A 
ATOM     89  C   UNL A   1      49.890  27.365  33.677  1.00  0.00     0.059 A 
ATOM     90  F   UNL A   1      49.323  29.627  33.930  1.00  0.00    -0.206 F 
ATOM     91  C   UNL A   1      49.766  26.174  32.965  1.00  0.00     0.060 A 
BRANCH  91  92
ATOM     92  S   UNL A   1      50.702  24.712  33.461  1.00  0.00     0.124 S 
ATOM     93  O   UNL A   1      50.077  24.380  34.736  1.00  0.00    -0.237 OA
ATOM     94  O   UNL A   1      50.434  23.792  32.359  1.00  0.00    -0.237 OA
ATOM     95  O   UNL A   1      52.075  25.202  33.539  1.00  0.00    -0.744 OA
ENDBRANCH  91  92
ENDBRANCH  59  84
BRANCH  71  96
ATOM     96  C   UNL A   1      50.268  33.650  27.844  1.00  0.00     0.058 A 
ATOM     97  C   UNL A   1      51.357  34.304  28.442  1.00  0.00     0.135 A 
ATOM     98  C   UNL A   1      50.411  33.224  26.514  1.00  0.00     0.135 A 
ATOM     99  F   UNL A   1      51.270  34.742  29.708  1.00  0.00    -0.206 F 
ATOM    100  C   UNL A   1      52.536  34.543  27.744  1.00  0.00     0.059 A 
ATOM    101  C   UNL A   1      51.592  33.427  25.805  1.00  0.00     0.059 A 
ATOM    102  F   UNL A   1      49.404  32.588  25.895  1.00  0.00    -0.206 F 
ATOM    103  C   UNL A   1      52.646  34.096  26.425  1.00  0.00     0.060 A 
BRANCH 103 104
ATOM    104  S   UNL A   1      54.196  34.384  25.543  1.00  0.00     0.124 S 
ATOM    105  O   UNL A   1      54.641  35.642  26.136  1.00  0.00    -0.237 OA
ATOM    106  O   UNL A   1      54.978  33.205  25.899  1.00  0.00    -0.237 OA
ATOM    107  O   UNL A   1      53.784  34.460  24.145  1.00  0.00    -0.744 OA
ENDBRANCH 103 104
ENDBRANCH  71  96
ENDBRANCH  45  46
ENDBRANCH  38  40
ENDBRANCH  37  38
ENDBRANCH  36  37
ENDBRANCH  35  36
ENDBRANCH  34  35
ENDBRANCH  33  34
ENDBRANCH   1  33
TORSDOF 27
ENDMDL
