MODEL 1
REMARK VINA RESULT:     -10.0      0.000      0.000
REMARK SMILES C[C@@H]1C[C@@H]1C(=O)Nc1ccc(F)cc1C(=O)OCCOCCOCCOCCOC(=O)c1ccc(-c2c3nc(c(-c4c(F)cc(S(=O)(=O)[O-])cc4F)c4ccc([nH]4)c(-c4c(F)cc(S(=O)(=O)[O-])cc4F)c4nc(c(-c5c(F)cc(S(=O)(=O)[O-])cc5F)c5ccc2[nH]5)C=C4)C=C3)cc1
REMARK SMILES IDX 24 1 23 2 22 3 21 4 20 5 19 6 18 7 17 8 15 9 16 10 14 11
REMARK SMILES IDX 8 12 9 13 10 14 13 15 11 16 12 17 7 18 5 19 6 20 4 22 1 23
REMARK SMILES IDX 2 24 3 25 25 26 26 27 27 28 28 29 29 30 30 31 31 32 32 33
REMARK SMILES IDX 33 34 97 35 34 36 96 37 35 38 36 39 37 40 90 41 38 42 95 43
REMARK SMILES IDX 89 44 91 45 39 46 94 47 88 48 87 49 40 51 74 52 53 53 73 54
REMARK SMILES IDX 54 55 57 56 72 57 92 58 55 59 56 60 71 62 93 63 58 64 41 65
REMARK SMILES IDX 42 66 51 67 43 68 44 69 50 70 52 71 45 72 46 73 47 74 48 75
REMARK SMILES IDX 49 76 75 77 76 78 85 79 77 80 78 81 84 82 86 83 79 84 80 85
REMARK SMILES IDX 81 86 82 87 83 88 59 89 60 90 69 91 61 92 62 93 68 94 70 95
REMARK SMILES IDX 63 96 64 97 65 98 66 99 67 100
REMARK H PARENT 7 21 91 50 57 61
REMARK Flexibility Score: inf
ROOT
ATOM      1  C   UNL A   1      35.751  21.889  25.607  1.00  0.00     0.188 C 
ENDROOT
BRANCH   1   2
ATOM      2  O   UNL A   1      34.323  21.828  25.634  1.00  0.00    -0.377 OA
BRANCH   2   3
ATOM      3  C   UNL A   1      33.675  20.583  25.454  1.00  0.00     0.188 C 
BRANCH   3   4
ATOM      4  C   UNL A   1      32.361  20.612  24.651  1.00  0.00     0.188 C 
BRANCH   4   5
ATOM      5  O   UNL A   1      32.508  21.079  23.326  1.00  0.00    -0.376 OA
BRANCH   5   6
ATOM      6  C   UNL A   1      31.836  22.237  22.865  1.00  0.00     0.202 C 
BRANCH   6   7
ATOM      7  C   UNL A   1      31.906  23.621  23.541  1.00  0.00     0.261 C 
BRANCH   7   8
ATOM      8  O   UNL A   1      30.895  24.571  23.206  1.00  0.00    -0.460 OA
BRANCH   8   9
ATOM      9  C   UNL A   1      30.262  25.185  24.224  1.00  0.00     0.340 C 
ATOM     10  O   UNL A   1      30.236  24.813  25.386  1.00  0.00    -0.246 OA
BRANCH   9  11
ATOM     11  C   UNL A   1      29.782  26.522  23.779  1.00  0.00     0.086 A 
ATOM     12  C   UNL A   1      30.607  27.613  23.409  1.00  0.00     0.056 A 
ATOM     13  C   UNL A   1      29.973  28.771  22.938  1.00  0.00     0.030 A 
ATOM     14  C   UNL A   1      28.586  28.926  23.009  1.00  0.00     0.041 A 
ATOM     15  C   UNL A   1      28.385  26.687  23.853  1.00  0.00     0.057 A 
ATOM     16  C   UNL A   1      27.809  27.896  23.506  1.00  0.00     0.124 A 
ATOM     17  F   UNL A   1      26.490  28.071  23.649  1.00  0.00    -0.207 F 
BRANCH  12  18
ATOM     18  N   UNL A   1      32.012  27.534  23.551  1.00  0.00    -0.325 N 
ATOM     19  C   UNL A   1      32.849  27.579  24.648  1.00  0.00     0.227 C 
ATOM     20  O   UNL A   1      34.066  27.551  24.488  1.00  0.00    -0.274 OA
ATOM     21  H   UNL A   1      32.489  27.427  22.697  1.00  0.00     0.169 HD
BRANCH  19  22
ATOM     22  C   UNL A   1      32.297  27.646  26.028  1.00  0.00     0.082 C 
ATOM     23  C   UNL A   1      31.779  30.255  26.032  1.00  0.00     0.008 C 
ATOM     24  C   UNL A   1      31.796  28.920  26.691  1.00  0.00    -0.001 C 
ATOM     25  C   UNL A   1      33.097  28.323  27.128  1.00  0.00     0.018 C 
ENDBRANCH  19  22
ENDBRANCH  12  18
ENDBRANCH   9  11
ENDBRANCH   8   9
ENDBRANCH   7   8
ENDBRANCH   6   7
ENDBRANCH   5   6
ENDBRANCH   4   5
ENDBRANCH   3   4
ENDBRANCH   2   3
ENDBRANCH   1   2
BRANCH   1  26
ATOM     26  C   UNL A   1      36.534  23.225  25.568  1.00  0.00     0.188 C 
BRANCH  26  27
ATOM     27  O   UNL A   1      37.948  23.096  25.542  1.00  0.00    -0.376 OA
BRANCH  27  28
ATOM     28  C   UNL A   1      38.500  21.795  25.639  1.00  0.00     0.202 C 
BRANCH  28  29
ATOM     29  C   UNL A   1      39.739  21.640  26.530  1.00  0.00     0.261 C 
BRANCH  29  30
ATOM     30  O   UNL A   1      40.267  20.312  26.645  1.00  0.00    -0.460 OA
BRANCH  30  31
ATOM     31  C   UNL A   1      41.498  20.090  26.127  1.00  0.00     0.338 C 
ATOM     32  O   UNL A   1      41.852  19.145  25.457  1.00  0.00    -0.246 OA
BRANCH  31  33
ATOM     33  C   UNL A   1      42.298  21.310  26.372  1.00  0.00     0.060 A 
ATOM     34  C   UNL A   1      42.553  21.708  27.691  1.00  0.00     0.016 A 
ATOM     35  C   UNL A   1      42.809  22.039  25.297  1.00  0.00     0.016 A 
ATOM     36  C   UNL A   1      43.303  22.860  27.936  1.00  0.00     0.010 A 
ATOM     37  C   UNL A   1      43.542  23.200  25.544  1.00  0.00     0.010 A 
ATOM     38  C   UNL A   1      43.767  23.632  26.863  1.00  0.00    -0.014 A 
BRANCH  38  39
ATOM     39  C   UNL A   1      44.332  24.981  27.103  1.00  0.00     0.031 A 
ATOM     40  C   UNL A   1      43.402  26.080  27.535  1.00  0.00     0.074 A 
ATOM     41  C   UNL A   1      45.644  25.227  26.946  1.00  0.00     0.049 A 
ATOM     42  N   UNL A   1      43.647  27.347  27.735  1.00  0.00    -0.248 NA
ATOM     43  C   UNL A   1      42.001  25.690  27.768  1.00  0.00     0.031 C 
ATOM     44  C   UNL A   1      46.652  24.235  26.584  1.00  0.00     0.029 A 
ATOM     45  N   UNL A   1      46.350  26.398  27.070  1.00  0.00    -0.354 N 
ATOM     46  C   UNL A   1      42.436  27.908  28.122  1.00  0.00     0.074 A 
ATOM     47  C   UNL A   1      41.448  26.852  28.081  1.00  0.00     0.031 C 
ATOM     48  C   UNL A   1      47.851  24.837  26.517  1.00  0.00     0.029 A 
ATOM     49  C   UNL A   1      47.689  26.266  26.790  1.00  0.00     0.049 A 
ATOM     50  H   UNL A   1      45.936  27.251  27.335  1.00  0.00     0.167 HD
ATOM     51  C   UNL A   1      42.174  29.184  28.493  1.00  0.00     0.037 A 
ATOM     52  C   UNL A   1      48.666  27.195  26.743  1.00  0.00     0.037 A 
ATOM     53  C   UNL A   1      43.160  30.233  28.506  1.00  0.00     0.049 A 
ATOM     54  C   UNL A   1      48.334  28.634  27.042  1.00  0.00     0.074 A 
ATOM     55  C   UNL A   1      42.994  31.563  28.848  1.00  0.00     0.029 A 
ATOM     56  N   UNL A   1      44.492  30.074  28.149  1.00  0.00    -0.354 N 
ATOM     57  N   UNL A   1      47.185  29.158  27.402  1.00  0.00    -0.248 NA
ATOM     58  C   UNL A   1      49.427  29.609  26.923  1.00  0.00     0.031 C 
ATOM     59  C   UNL A   1      44.213  32.220  28.644  1.00  0.00     0.029 A 
ATOM     60  C   UNL A   1      45.155  31.288  28.236  1.00  0.00     0.049 A 
ATOM     61  H   UNL A   1      44.906  29.224  27.876  1.00  0.00     0.167 HD
ATOM     62  C   UNL A   1      47.422  30.519  27.573  1.00  0.00     0.074 A 
ATOM     63  C   UNL A   1      48.824  30.736  27.285  1.00  0.00     0.031 C 
ATOM     64  C   UNL A   1      46.554  31.495  27.941  1.00  0.00     0.037 A 
BRANCH  51  65
ATOM     65  C   UNL A   1      40.758  29.509  28.886  1.00  0.00     0.058 A 
ATOM     66  C   UNL A   1      39.732  29.515  27.929  1.00  0.00     0.135 A 
ATOM     67  C   UNL A   1      40.413  29.815  30.214  1.00  0.00     0.135 A 
ATOM     68  F   UNL A   1      40.000  29.226  26.646  1.00  0.00    -0.206 F 
ATOM     69  C   UNL A   1      38.415  29.802  28.272  1.00  0.00     0.059 A 
ATOM     70  C   UNL A   1      39.097  30.074  30.586  1.00  0.00     0.059 A 
ATOM     71  F   UNL A   1      41.350  29.805  31.175  1.00  0.00    -0.206 F 
ATOM     72  C   UNL A   1      38.104  30.070  29.607  1.00  0.00     0.060 A 
BRANCH  72  73
ATOM     73  S   UNL A   1      36.378  30.347  30.051  1.00  0.00     0.124 S 
ATOM     74  O   UNL A   1      36.178  29.368  31.114  1.00  0.00    -0.237 OA
ATOM     75  O   UNL A   1      36.390  31.746  30.468  1.00  0.00    -0.237 OA
ATOM     76  O   UNL A   1      35.661  30.081  28.806  1.00  0.00    -0.744 OA
ENDBRANCH  72  73
ENDBRANCH  51  65
BRANCH  52  77
ATOM     77  C   UNL A   1      50.055  26.771  26.425  1.00  0.00     0.058 A 
ATOM     78  C   UNL A   1      50.529  26.739  25.104  1.00  0.00     0.135 A 
ATOM     79  C   UNL A   1      50.911  26.310  27.436  1.00  0.00     0.135 A 
ATOM     80  F   UNL A   1      49.752  27.174  24.100  1.00  0.00    -0.206 F 
ATOM     81  C   UNL A   1      51.778  26.213  24.791  1.00  0.00     0.059 A 
ATOM     82  C   UNL A   1      52.175  25.804  27.150  1.00  0.00     0.059 A 
ATOM     83  F   UNL A   1      50.512  26.343  28.717  1.00  0.00    -0.206 F 
ATOM     84  C   UNL A   1      52.589  25.734  25.821  1.00  0.00     0.060 A 
BRANCH  84  85
ATOM     85  S   UNL A   1      54.174  24.984  25.388  1.00  0.00     0.124 S 
ATOM     86  O   UNL A   1      54.959  25.239  26.592  1.00  0.00    -0.237 OA
ATOM     87  O   UNL A   1      53.800  23.594  25.154  1.00  0.00    -0.237 OA
ATOM     88  O   UNL A   1      54.588  25.729  24.203  1.00  0.00    -0.744 OA
ENDBRANCH  84  85
ENDBRANCH  52  77
BRANCH  64  89
ATOM     89  C   UNL A   1      47.083  32.900  28.072  1.00  0.00     0.058 A 
ATOM     90  C   UNL A   1      46.988  33.799  26.995  1.00  0.00     0.135 A 
ATOM     91  C   UNL A   1      47.774  33.324  29.217  1.00  0.00     0.135 A 
ATOM     92  F   UNL A   1      46.343  33.445  25.872  1.00  0.00    -0.206 F 
ATOM     93  C   UNL A   1      47.585  35.055  27.039  1.00  0.00     0.059 A 
ATOM     94  C   UNL A   1      48.354  34.589  29.294  1.00  0.00     0.059 A 
ATOM     95  F   UNL A   1      47.886  32.510  30.279  1.00  0.00    -0.206 F 
ATOM     96  C   UNL A   1      48.271  35.439  28.191  1.00  0.00     0.060 A 
BRANCH  96  97
ATOM     97  S   UNL A   1      49.049  37.068  28.223  1.00  0.00     0.124 S 
ATOM     98  O   UNL A   1      50.398  36.748  28.678  1.00  0.00    -0.237 OA
ATOM     99  O   UNL A   1      48.932  37.492  26.831  1.00  0.00    -0.237 OA
ATOM    100  O   UNL A   1      48.230  37.818  29.171  1.00  0.00    -0.744 OA
ENDBRANCH  96  97
ENDBRANCH  64  89
ENDBRANCH  38  39
ENDBRANCH  31  33
ENDBRANCH  30  31
ENDBRANCH  29  30
ENDBRANCH  28  29
ENDBRANCH  27  28
ENDBRANCH  26  27
ENDBRANCH   1  26
TORSDOF 25
ENDMDL
MODEL 2
REMARK VINA RESULT:      -9.7      6.194     10.909
REMARK SMILES C[C@@H]1C[C@@H]1C(=O)Nc1ccc(F)cc1C(=O)OCCOCCOCCOCCOC(=O)c1ccc(-c2c3nc(c(-c4c(F)cc(S(=O)(=O)[O-])cc4F)c4ccc([nH]4)c(-c4c(F)cc(S(=O)(=O)[O-])cc4F)c4nc(c(-c5c(F)cc(S(=O)(=O)[O-])cc5F)c5ccc2[nH]5)C=C4)C=C3)cc1
REMARK SMILES IDX 24 1 23 2 22 3 21 4 20 5 19 6 18 7 17 8 15 9 16 10 14 11
REMARK SMILES IDX 8 12 9 13 10 14 13 15 11 16 12 17 7 18 5 19 6 20 4 22 1 23
REMARK SMILES IDX 2 24 3 25 25 26 26 27 27 28 28 29 29 30 30 31 31 32 32 33
REMARK SMILES IDX 33 34 97 35 34 36 96 37 35 38 36 39 37 40 90 41 38 42 95 43
REMARK SMILES IDX 89 44 91 45 39 46 94 47 88 48 87 49 40 51 74 52 53 53 73 54
REMARK SMILES IDX 54 55 57 56 72 57 92 58 55 59 56 60 71 62 93 63 58 64 41 65
REMARK SMILES IDX 42 66 51 67 43 68 44 69 50 70 52 71 45 72 46 73 47 74 48 75
REMARK SMILES IDX 49 76 75 77 76 78 85 79 77 80 78 81 84 82 86 83 79 84 80 85
REMARK SMILES IDX 81 86 82 87 83 88 59 89 60 90 69 91 61 92 62 93 68 94 70 95
REMARK SMILES IDX 63 96 64 97 65 98 66 99 67 100
REMARK H PARENT 7 21 91 50 57 61
REMARK Flexibility Score: inf
ROOT
ATOM      1  C   UNL A   1      36.597  20.889  25.219  1.00  0.00     0.188 C 
ENDROOT
BRANCH   1   2
ATOM      2  O   UNL A   1      35.204  20.905  25.538  1.00  0.00    -0.377 OA
BRANCH   2   3
ATOM      3  C   UNL A   1      34.316  20.065  24.826  1.00  0.00     0.188 C 
BRANCH   3   4
ATOM      4  C   UNL A   1      33.071  20.746  24.227  1.00  0.00     0.188 C 
BRANCH   4   5
ATOM      5  O   UNL A   1      32.764  21.996  24.809  1.00  0.00    -0.376 OA
BRANCH   5   6
ATOM      6  C   UNL A   1      33.157  23.215  24.205  1.00  0.00     0.202 C 
BRANCH   6   7
ATOM      7  C   UNL A   1      34.287  24.127  24.722  1.00  0.00     0.261 C 
BRANCH   7   8
ATOM      8  O   UNL A   1      33.910  25.295  25.452  1.00  0.00    -0.460 OA
BRANCH   8   9
ATOM      9  C   UNL A   1      33.753  26.436  24.754  1.00  0.00     0.340 C 
ATOM     10  O   UNL A   1      33.785  26.548  23.539  1.00  0.00    -0.246 OA
BRANCH   9  11
ATOM     11  C   UNL A   1      33.302  27.522  25.667  1.00  0.00     0.086 A 
ATOM     12  C   UNL A   1      31.956  27.805  26.007  1.00  0.00     0.056 A 
ATOM     13  C   UNL A   1      31.728  28.818  26.949  1.00  0.00     0.030 A 
ATOM     14  C   UNL A   1      32.760  29.649  27.394  1.00  0.00     0.041 A 
ATOM     15  C   UNL A   1      34.336  28.365  26.115  1.00  0.00     0.057 A 
ATOM     16  C   UNL A   1      34.048  29.440  26.938  1.00  0.00     0.124 A 
ATOM     17  F   UNL A   1      35.024  30.282  27.301  1.00  0.00    -0.207 F 
BRANCH  12  18
ATOM     18  N   UNL A   1      30.893  27.111  25.383  1.00  0.00    -0.325 N 
ATOM     19  C   UNL A   1      30.308  27.212  24.136  1.00  0.00     0.227 C 
ATOM     20  O   UNL A   1      29.336  26.516  23.861  1.00  0.00    -0.274 OA
ATOM     21  H   UNL A   1      30.489  26.417  25.951  1.00  0.00     0.169 HD
BRANCH  19  22
ATOM     22  C   UNL A   1      30.850  28.145  23.112  1.00  0.00     0.082 C 
ATOM     23  C   UNL A   1      29.859  30.377  24.165  1.00  0.00     0.008 C 
ATOM     24  C   UNL A   1      30.631  29.650  23.120  1.00  0.00    -0.001 C 
ATOM     25  C   UNL A   1      29.908  28.803  22.119  1.00  0.00     0.018 C 
ENDBRANCH  19  22
ENDBRANCH  12  18
ENDBRANCH   9  11
ENDBRANCH   8   9
ENDBRANCH   7   8
ENDBRANCH   6   7
ENDBRANCH   5   6
ENDBRANCH   4   5
ENDBRANCH   3   4
ENDBRANCH   2   3
ENDBRANCH   1   2
BRANCH   1  26
ATOM     26  C   UNL A   1      37.655  21.677  26.033  1.00  0.00     0.188 C 
BRANCH  26  27
ATOM     27  O   UNL A   1      38.944  21.745  25.440  1.00  0.00    -0.376 OA
BRANCH  27  28
ATOM     28  C   UNL A   1      40.073  21.627  26.287  1.00  0.00     0.202 C 
BRANCH  28  29
ATOM     29  C   UNL A   1      40.108  22.544  27.517  1.00  0.00     0.261 C 
BRANCH  29  30
ATOM     30  O   UNL A   1      41.354  23.204  27.772  1.00  0.00    -0.460 OA
BRANCH  30  31
ATOM     31  C   UNL A   1      41.634  24.302  27.030  1.00  0.00     0.338 C 
ATOM     32  O   UNL A   1      41.917  24.338  25.852  1.00  0.00    -0.246 OA
BRANCH  31  33
ATOM     33  C   UNL A   1      41.351  25.481  27.876  1.00  0.00     0.060 A 
ATOM     34  C   UNL A   1      42.345  26.452  28.053  1.00  0.00     0.016 A 
ATOM     35  C   UNL A   1      40.096  25.632  28.470  1.00  0.00     0.016 A 
ATOM     36  C   UNL A   1      42.092  27.568  28.852  1.00  0.00     0.010 A 
ATOM     37  C   UNL A   1      39.852  26.738  29.285  1.00  0.00     0.010 A 
ATOM     38  C   UNL A   1      40.858  27.696  29.503  1.00  0.00    -0.014 A 
BRANCH  38  39
ATOM     39  C   UNL A   1      40.669  28.727  30.551  1.00  0.00     0.031 A 
ATOM     40  C   UNL A   1      41.572  28.699  31.752  1.00  0.00     0.074 A 
ATOM     41  C   UNL A   1      39.720  29.672  30.439  1.00  0.00     0.049 A 
ATOM     42  N   UNL A   1      41.555  29.445  32.824  1.00  0.00    -0.248 NA
ATOM     43  C   UNL A   1      42.639  27.684  31.739  1.00  0.00     0.031 C 
ATOM     44  C   UNL A   1      38.821  29.834  29.300  1.00  0.00     0.029 A 
ATOM     45  N   UNL A   1      39.356  30.672  31.305  1.00  0.00    -0.354 N 
ATOM     46  C   UNL A   1      42.607  28.997  33.613  1.00  0.00     0.074 A 
ATOM     47  C   UNL A   1      43.211  27.881  32.917  1.00  0.00     0.031 C 
ATOM     48  C   UNL A   1      38.007  30.877  29.534  1.00  0.00     0.029 A 
ATOM     49  C   UNL A   1      38.300  31.429  30.858  1.00  0.00     0.049 A 
ATOM     50  H   UNL A   1      39.808  30.832  32.164  1.00  0.00     0.167 HD
ATOM     51  C   UNL A   1      43.040  29.481  34.801  1.00  0.00     0.037 A 
ATOM     52  C   UNL A   1      37.635  32.439  31.456  1.00  0.00     0.037 A 
ATOM     53  C   UNL A   1      42.415  30.575  35.497  1.00  0.00     0.049 A 
ATOM     54  C   UNL A   1      38.054  32.888  32.833  1.00  0.00     0.074 A 
ATOM     55  C   UNL A   1      42.765  31.131  36.715  1.00  0.00     0.029 A 
ATOM     56  N   UNL A   1      41.304  31.272  35.043  1.00  0.00    -0.354 N 
ATOM     57  N   UNL A   1      39.046  32.455  33.575  1.00  0.00    -0.248 NA
ATOM     58  C   UNL A   1      37.259  33.955  33.456  1.00  0.00     0.031 C 
ATOM     59  C   UNL A   1      41.831  32.126  37.023  1.00  0.00     0.029 A 
ATOM     60  C   UNL A   1      40.936  32.235  35.969  1.00  0.00     0.049 A 
ATOM     61  H   UNL A   1      40.845  31.108  34.188  1.00  0.00     0.167 HD
ATOM     62  C   UNL A   1      39.010  33.211  34.742  1.00  0.00     0.074 A 
ATOM     63  C   UNL A   1      37.902  34.134  34.605  1.00  0.00     0.031 C 
ATOM     64  C   UNL A   1      39.826  33.147  35.825  1.00  0.00     0.037 A 
BRANCH  51  65
ATOM     65  C   UNL A   1      44.230  28.803  35.427  1.00  0.00     0.058 A 
ATOM     66  C   UNL A   1      44.058  27.808  36.402  1.00  0.00     0.135 A 
ATOM     67  C   UNL A   1      45.545  29.137  35.061  1.00  0.00     0.135 A 
ATOM     68  F   UNL A   1      42.825  27.444  36.788  1.00  0.00    -0.206 F 
ATOM     69  C   UNL A   1      45.143  27.162  36.984  1.00  0.00     0.059 A 
ATOM     70  C   UNL A   1      46.645  28.480  35.608  1.00  0.00     0.059 A 
ATOM     71  F   UNL A   1      45.770  30.066  34.120  1.00  0.00    -0.206 F 
ATOM     72  C   UNL A   1      46.434  27.497  36.573  1.00  0.00     0.060 A 
BRANCH  72  73
ATOM     73  S   UNL A   1      47.825  26.584  37.270  1.00  0.00     0.124 S 
ATOM     74  O   UNL A   1      47.218  25.954  38.438  1.00  0.00    -0.237 OA
ATOM     75  O   UNL A   1      48.182  25.686  36.176  1.00  0.00    -0.237 OA
ATOM     76  O   UNL A   1      48.806  27.628  37.556  1.00  0.00    -0.744 OA
ENDBRANCH  72  73
ENDBRANCH  51  65
BRANCH  52  77
ATOM     77  C   UNL A   1      36.522  33.106  30.730  1.00  0.00     0.058 A 
ATOM     78  C   UNL A   1      36.765  34.048  29.718  1.00  0.00     0.135 A 
ATOM     79  C   UNL A   1      35.188  32.871  31.095  1.00  0.00     0.135 A 
ATOM     80  F   UNL A   1      38.023  34.305  29.327  1.00  0.00    -0.206 F 
ATOM     81  C   UNL A   1      35.732  34.772  29.134  1.00  0.00     0.059 A 
ATOM     82  C   UNL A   1      34.135  33.565  30.507  1.00  0.00     0.059 A 
ATOM     83  F   UNL A   1      34.904  31.963  32.041  1.00  0.00    -0.206 F 
ATOM     84  C   UNL A   1      34.420  34.534  29.546  1.00  0.00     0.060 A 
BRANCH  84  85
ATOM     85  S   UNL A   1      33.099  35.539  28.833  1.00  0.00     0.124 S 
ATOM     86  O   UNL A   1      33.859  36.523  28.069  1.00  0.00    -0.237 OA
ATOM     87  O   UNL A   1      32.358  34.558  28.048  1.00  0.00    -0.237 OA
ATOM     88  O   UNL A   1      32.401  36.060  30.004  1.00  0.00    -0.744 OA
ENDBRANCH  84  85
ENDBRANCH  52  77
BRANCH  64  89
ATOM     89  C   UNL A   1      39.574  34.107  36.959  1.00  0.00     0.058 A 
ATOM     90  C   UNL A   1      40.190  35.370  36.972  1.00  0.00     0.135 A 
ATOM     91  C   UNL A   1      38.811  33.741  38.079  1.00  0.00     0.135 A 
ATOM     92  F   UNL A   1      40.935  35.771  35.930  1.00  0.00    -0.206 F 
ATOM     93  C   UNL A   1      40.083  36.223  38.066  1.00  0.00     0.059 A 
ATOM     94  C   UNL A   1      38.666  34.591  39.174  1.00  0.00     0.059 A 
ATOM     95  F   UNL A   1      38.192  32.551  38.115  1.00  0.00    -0.206 F 
ATOM     96  C   UNL A   1      39.323  35.822  39.165  1.00  0.00     0.060 A 
BRANCH  96  97
ATOM     97  S   UNL A   1      39.207  36.937  40.581  1.00  0.00     0.124 S 
ATOM     98  O   UNL A   1      38.655  36.062  41.609  1.00  0.00    -0.237 OA
ATOM     99  O   UNL A   1      40.598  37.340  40.769  1.00  0.00    -0.237 OA
ATOM    100  O   UNL A   1      38.314  37.992  40.111  1.00  0.00    -0.744 OA
ENDBRANCH  96  97
ENDBRANCH  64  89
ENDBRANCH  38  39
ENDBRANCH  31  33
ENDBRANCH  30  31
ENDBRANCH  29  30
ENDBRANCH  28  29
ENDBRANCH  27  28
ENDBRANCH  26  27
ENDBRANCH   1  26
TORSDOF 25
ENDMDL
MODEL 3
REMARK VINA RESULT:      -9.6      2.967      9.066
REMARK SMILES C[C@@H]1C[C@@H]1C(=O)Nc1ccc(F)cc1C(=O)OCCOCCOCCOCCOC(=O)c1ccc(-c2c3nc(c(-c4c(F)cc(S(=O)(=O)[O-])cc4F)c4ccc([nH]4)c(-c4c(F)cc(S(=O)(=O)[O-])cc4F)c4nc(c(-c5c(F)cc(S(=O)(=O)[O-])cc5F)c5ccc2[nH]5)C=C4)C=C3)cc1
REMARK SMILES IDX 24 1 23 2 22 3 21 4 20 5 19 6 18 7 17 8 15 9 16 10 14 11
REMARK SMILES IDX 8 12 9 13 10 14 13 15 11 16 12 17 7 18 5 19 6 20 4 22 1 23
REMARK SMILES IDX 2 24 3 25 25 26 26 27 27 28 28 29 29 30 30 31 31 32 32 33
REMARK SMILES IDX 33 34 97 35 34 36 96 37 35 38 36 39 37 40 90 41 38 42 95 43
REMARK SMILES IDX 89 44 91 45 39 46 94 47 88 48 87 49 40 51 74 52 53 53 73 54
REMARK SMILES IDX 54 55 57 56 72 57 92 58 55 59 56 60 71 62 93 63 58 64 41 65
REMARK SMILES IDX 42 66 51 67 43 68 44 69 50 70 52 71 45 72 46 73 47 74 48 75
REMARK SMILES IDX 49 76 75 77 76 78 85 79 77 80 78 81 84 82 86 83 79 84 80 85
REMARK SMILES IDX 81 86 82 87 83 88 59 89 60 90 69 91 61 92 62 93 68 94 70 95
REMARK SMILES IDX 63 96 64 97 65 98 66 99 67 100
REMARK H PARENT 7 21 91 50 57 61
REMARK Flexibility Score: inf
ROOT
ATOM      1  C   UNL A   1      33.665  20.389  24.972  1.00  0.00     0.188 C 
ENDROOT
BRANCH   1   2
ATOM      2  O   UNL A   1      32.335  20.509  24.464  1.00  0.00    -0.377 OA
BRANCH   2   3
ATOM      3  C   UNL A   1      32.081  21.368  23.369  1.00  0.00     0.188 C 
BRANCH   3   4
ATOM      4  C   UNL A   1      32.071  22.877  23.679  1.00  0.00     0.188 C 
BRANCH   4   5
ATOM      5  O   UNL A   1      30.873  23.334  24.272  1.00  0.00    -0.376 OA
BRANCH   5   6
ATOM      6  C   UNL A   1      30.718  23.405  25.678  1.00  0.00     0.202 C 
BRANCH   6   7
ATOM      7  C   UNL A   1      31.832  23.805  26.666  1.00  0.00     0.261 C 
BRANCH   7   8
ATOM      8  O   UNL A   1      32.020  25.197  26.919  1.00  0.00    -0.460 OA
BRANCH   8   9
ATOM      9  C   UNL A   1      33.049  25.805  26.299  1.00  0.00     0.340 C 
ATOM     10  O   UNL A   1      33.894  25.263  25.605  1.00  0.00    -0.246 OA
BRANCH   9  11
ATOM     11  C   UNL A   1      32.884  27.282  26.388  1.00  0.00     0.086 A 
ATOM     12  C   UNL A   1      31.712  28.001  26.048  1.00  0.00     0.056 A 
ATOM     13  C   UNL A   1      31.716  29.385  26.275  1.00  0.00     0.030 A 
ATOM     14  C   UNL A   1      32.882  30.064  26.636  1.00  0.00     0.041 A 
ATOM     15  C   UNL A   1      34.058  27.972  26.747  1.00  0.00     0.057 A 
ATOM     16  C   UNL A   1      34.053  29.353  26.827  1.00  0.00     0.124 A 
ATOM     17  F   UNL A   1      35.189  30.009  27.096  1.00  0.00    -0.207 F 
BRANCH  12  18
ATOM     18  N   UNL A   1      30.604  27.341  25.468  1.00  0.00    -0.325 N 
ATOM     19  C   UNL A   1      30.409  26.729  24.245  1.00  0.00     0.227 C 
ATOM     20  O   UNL A   1      29.304  26.276  23.960  1.00  0.00    -0.274 OA
ATOM     21  H   UNL A   1      29.812  27.312  26.052  1.00  0.00     0.169 HD
BRANCH  19  22
ATOM     22  C   UNL A   1      31.524  26.598  23.271  1.00  0.00     0.082 C 
ATOM     23  C   UNL A   1      31.603  29.153  22.536  1.00  0.00     0.008 C 
ATOM     24  C   UNL A   1      32.088  27.748  22.451  1.00  0.00    -0.001 C 
ATOM     25  C   UNL A   1      31.242  26.710  21.782  1.00  0.00     0.018 C 
ENDBRANCH  19  22
ENDBRANCH  12  18
ENDBRANCH   9  11
ENDBRANCH   8   9
ENDBRANCH   7   8
ENDBRANCH   6   7
ENDBRANCH   5   6
ENDBRANCH   4   5
ENDBRANCH   3   4
ENDBRANCH   2   3
ENDBRANCH   1   2
BRANCH   1  26
ATOM     26  C   UNL A   1      34.129  21.074  26.283  1.00  0.00     0.188 C 
BRANCH  26  27
ATOM     27  O   UNL A   1      35.503  21.428  26.326  1.00  0.00    -0.376 OA
BRANCH  27  28
ATOM     28  C   UNL A   1      36.322  21.053  25.233  1.00  0.00     0.202 C 
BRANCH  28  29
ATOM     29  C   UNL A   1      37.481  21.997  24.888  1.00  0.00     0.261 C 
BRANCH  29  30
ATOM     30  O   UNL A   1      37.880  22.904  25.923  1.00  0.00    -0.460 OA
BRANCH  30  31
ATOM     31  C   UNL A   1      39.138  22.775  26.406  1.00  0.00     0.338 C 
ATOM     32  O   UNL A   1      39.852  21.797  26.340  1.00  0.00    -0.246 OA
BRANCH  31  33
ATOM     33  C   UNL A   1      39.563  24.111  26.875  1.00  0.00     0.060 A 
ATOM     34  C   UNL A   1      40.161  24.997  25.968  1.00  0.00     0.016 A 
ATOM     35  C   UNL A   1      39.348  24.490  28.201  1.00  0.00     0.016 A 
ATOM     36  C   UNL A   1      40.571  26.260  26.398  1.00  0.00     0.010 A 
ATOM     37  C   UNL A   1      39.776  25.746  28.633  1.00  0.00     0.010 A 
ATOM     38  C   UNL A   1      40.416  26.624  27.742  1.00  0.00    -0.014 A 
BRANCH  38  39
ATOM     39  C   UNL A   1      41.075  27.844  28.266  1.00  0.00     0.031 A 
ATOM     40  C   UNL A   1      42.576  27.924  28.215  1.00  0.00     0.074 A 
ATOM     41  C   UNL A   1      40.360  28.863  28.772  1.00  0.00     0.049 A 
ATOM     42  N   UNL A   1      43.376  28.848  28.673  1.00  0.00    -0.248 NA
ATOM     43  C   UNL A   1      43.263  26.799  27.559  1.00  0.00     0.031 C 
ATOM     44  C   UNL A   1      38.902  28.925  28.827  1.00  0.00     0.029 A 
ATOM     45  N   UNL A   1      40.772  30.041  29.342  1.00  0.00    -0.354 N 
ATOM     46  C   UNL A   1      44.661  28.424  28.358  1.00  0.00     0.074 A 
ATOM     47  C   UNL A   1      44.535  27.135  27.715  1.00  0.00     0.031 C 
ATOM     48  C   UNL A   1      38.538  30.086  29.397  1.00  0.00     0.029 A 
ATOM     49  C   UNL A   1      39.738  30.829  29.787  1.00  0.00     0.049 A 
ATOM     50  H   UNL A   1      41.718  30.298  29.425  1.00  0.00     0.167 HD
ATOM     51  C   UNL A   1      45.838  29.059  28.574  1.00  0.00     0.037 A 
ATOM     52  C   UNL A   1      39.758  32.005  30.447  1.00  0.00     0.037 A 
ATOM     53  C   UNL A   1      45.954  30.330  29.239  1.00  0.00     0.049 A 
ATOM     54  C   UNL A   1      41.082  32.641  30.786  1.00  0.00     0.074 A 
ATOM     55  C   UNL A   1      47.101  31.050  29.523  1.00  0.00     0.029 A 
ATOM     56  N   UNL A   1      44.886  31.065  29.736  1.00  0.00    -0.354 N 
ATOM     57  N   UNL A   1      42.293  32.231  30.490  1.00  0.00    -0.248 NA
ATOM     58  C   UNL A   1      41.043  33.894  31.553  1.00  0.00     0.031 C 
ATOM     59  C   UNL A   1      46.730  32.192  30.241  1.00  0.00     0.029 A 
ATOM     60  C   UNL A   1      45.348  32.218  30.350  1.00  0.00     0.049 A 
ATOM     61  H   UNL A   1      43.939  30.806  29.663  1.00  0.00     0.167 HD
ATOM     62  C   UNL A   1      43.160  33.186  31.015  1.00  0.00     0.074 A 
ATOM     63  C   UNL A   1      42.333  34.197  31.640  1.00  0.00     0.031 C 
ATOM     64  C   UNL A   1      44.516  33.219  30.975  1.00  0.00     0.037 A 
BRANCH  51  65
ATOM     65  C   UNL A   1      47.089  28.364  28.105  1.00  0.00     0.058 A 
ATOM     66  C   UNL A   1      47.770  27.470  28.946  1.00  0.00     0.135 A 
ATOM     67  C   UNL A   1      47.616  28.582  26.820  1.00  0.00     0.135 A 
ATOM     68  F   UNL A   1      47.311  27.219  30.182  1.00  0.00    -0.206 F 
ATOM     69  C   UNL A   1      48.921  26.810  28.529  1.00  0.00     0.059 A 
ATOM     70  C   UNL A   1      48.748  27.907  26.370  1.00  0.00     0.059 A 
ATOM     71  F   UNL A   1      46.995  29.411  25.967  1.00  0.00    -0.206 F 
ATOM     72  C   UNL A   1      49.397  27.026  27.234  1.00  0.00     0.060 A 
BRANCH  72  73
ATOM     73  S   UNL A   1      50.836  26.091  26.677  1.00  0.00     0.124 S 
ATOM     74  O   UNL A   1      50.644  24.812  27.351  1.00  0.00    -0.237 OA
ATOM     75  O   UNL A   1      50.654  26.083  25.229  1.00  0.00    -0.237 OA
ATOM     76  O   UNL A   1      51.964  26.890  27.152  1.00  0.00    -0.744 OA
ENDBRANCH  72  73
ENDBRANCH  51  65
BRANCH  52  77
ATOM     77  C   UNL A   1      38.471  32.661  30.800  1.00  0.00     0.058 A 
ATOM     78  C   UNL A   1      37.855  32.448  32.044  1.00  0.00     0.135 A 
ATOM     79  C   UNL A   1      37.792  33.453  29.863  1.00  0.00     0.135 A 
ATOM     80  F   UNL A   1      38.465  31.703  32.978  1.00  0.00    -0.206 F 
ATOM     81  C   UNL A   1      36.588  32.949  32.323  1.00  0.00     0.059 A 
ATOM     82  C   UNL A   1      36.535  33.987  30.129  1.00  0.00     0.059 A 
ATOM     83  F   UNL A   1      38.352  33.704  28.669  1.00  0.00    -0.206 F 
ATOM     84  C   UNL A   1      35.929  33.706  31.353  1.00  0.00     0.060 A 
BRANCH  84  85
ATOM     85  S   UNL A   1      34.253  34.281  31.704  1.00  0.00     0.124 S 
ATOM     86  O   UNL A   1      33.653  34.268  30.374  1.00  0.00    -0.237 OA
ATOM     87  O   UNL A   1      33.770  33.264  32.631  1.00  0.00    -0.237 OA
ATOM     88  O   UNL A   1      34.464  35.605  32.282  1.00  0.00    -0.744 OA
ENDBRANCH  84  85
ENDBRANCH  52  77
BRANCH  64  89
ATOM     89  C   UNL A   1      45.214  34.393  31.613  1.00  0.00     0.058 A 
ATOM     90  C   UNL A   1      45.534  35.529  30.851  1.00  0.00     0.135 A 
ATOM     91  C   UNL A   1      45.657  34.352  32.944  1.00  0.00     0.135 A 
ATOM     92  F   UNL A   1      45.141  35.620  29.571  1.00  0.00    -0.206 F 
ATOM     93  C   UNL A   1      46.294  36.569  31.377  1.00  0.00     0.059 A 
ATOM     94  C   UNL A   1      46.394  35.396  33.500  1.00  0.00     0.059 A 
ATOM     95  F   UNL A   1      45.369  33.295  33.721  1.00  0.00    -0.206 F 
ATOM     96  C   UNL A   1      46.725  36.491  32.702  1.00  0.00     0.060 A 
BRANCH  96  97
ATOM     97  S   UNL A   1      47.721  37.845  33.362  1.00  0.00     0.124 S 
ATOM     98  O   UNL A   1      47.158  38.998  32.669  1.00  0.00    -0.237 OA
ATOM     99  O   UNL A   1      47.440  37.763  34.792  1.00  0.00    -0.237 OA
ATOM    100  O   UNL A   1      49.082  37.486  32.975  1.00  0.00    -0.744 OA
ENDBRANCH  96  97
ENDBRANCH  64  89
ENDBRANCH  38  39
ENDBRANCH  31  33
ENDBRANCH  30  31
ENDBRANCH  29  30
ENDBRANCH  28  29
ENDBRANCH  27  28
ENDBRANCH  26  27
ENDBRANCH   1  26
TORSDOF 25
ENDMDL
