MODEL 1
REMARK VINA RESULT:      -9.5      0.000      0.000
REMARK SMILES O=C(CN1C(=O)N[C@](c2cccs2)(C2CC2)C1=O)OCCOCCOCCOCCOC(=O)c1ccc(-c2c3nc(c(-c4c(F)cc(S(=O)(=O)[O-])cc4F)c4ccc([nH]4)c(-c4c(F)cc(S(=O)(=O)[O-])cc4F)c4nc(c(-c5c(F)cc(S(=O)(=O)[O-])cc5F)c5ccc2[nH]5)C=C4)C=C3)cc1
REMARK SMILES IDX 26 1 25 2 24 3 23 4 22 5 21 6 20 7 19 8 2 9 1 10 3 11 4 12
REMARK SMILES IDX 5 13 17 14 6 15 7 16 8 17 18 18 14 20 15 21 16 22 9 23 10 24
REMARK SMILES IDX 13 25 11 26 12 27 27 28 28 29 29 30 30 31 31 32 32 33 33 34
REMARK SMILES IDX 34 35 35 36 99 37 36 38 98 39 37 40 38 41 39 42 92 43 40 44
REMARK SMILES IDX 97 45 91 46 93 47 41 48 96 49 90 50 89 51 42 53 76 54 55 55
REMARK SMILES IDX 75 56 56 57 59 58 74 59 94 60 57 61 58 62 73 64 95 65 60 66
REMARK SMILES IDX 43 67 44 68 53 69 45 70 46 71 52 72 54 73 47 74 48 75 49 76
REMARK SMILES IDX 50 77 51 78 77 79 78 80 87 81 79 82 80 83 86 84 88 85 81 86
REMARK SMILES IDX 82 87 83 88 84 89 85 90 61 91 62 92 71 93 63 94 64 95 70 96
REMARK SMILES IDX 72 97 65 98 66 99 67 100 68 101 69 102
REMARK H PARENT 7 19 93 52 59 63
REMARK Flexibility Score: inf
ROOT
ATOM      1  C   UNL A   1      33.995  30.920  27.223  1.00  0.00     0.188 C 
ENDROOT
BRANCH   1   2
ATOM      2  O   UNL A   1      32.778  30.191  27.237  1.00  0.00    -0.377 OA
BRANCH   2   3
ATOM      3  C   UNL A   1      31.919  30.456  26.133  1.00  0.00     0.188 C 
BRANCH   3   4
ATOM      4  C   UNL A   1      31.374  29.197  25.445  1.00  0.00     0.188 C 
BRANCH   4   5
ATOM      5  O   UNL A   1      31.605  29.120  24.052  1.00  0.00    -0.376 OA
BRANCH   5   6
ATOM      6  C   UNL A   1      30.876  28.298  23.166  1.00  0.00     0.202 C 
BRANCH   6   7
ATOM      7  C   UNL A   1      30.130  27.060  23.656  1.00  0.00     0.261 C 
BRANCH   7   8
ATOM      8  O   UNL A   1      30.855  26.089  24.436  1.00  0.00    -0.462 OA
BRANCH   8   9
ATOM      9  C   UNL A   1      30.565  25.445  25.573  1.00  0.00     0.326 C 
ATOM     10  O   UNL A   1      30.359  26.116  26.589  1.00  0.00    -0.250 OA
BRANCH   9  11
ATOM     11  C   UNL A   1      30.652  23.939  25.711  1.00  0.00     0.253 C 
BRANCH  11  12
ATOM     12  N   UNL A   1      31.910  23.255  25.700  1.00  0.00    -0.251 N 
ATOM     13  C   UNL A   1      32.430  22.667  26.819  1.00  0.00     0.325 C 
ATOM     14  C   UNL A   1      32.439  22.692  24.577  1.00  0.00     0.262 C 
ATOM     15  O   UNL A   1      32.103  22.859  27.967  1.00  0.00    -0.248 OA
ATOM     16  N   UNL A   1      33.364  21.738  26.428  1.00  0.00    -0.318 N 
ATOM     17  C   UNL A   1      33.513  21.654  24.992  1.00  0.00     0.158 C 
ATOM     18  O   UNL A   1      32.073  22.928  23.432  1.00  0.00    -0.271 OA
ATOM     19  H   UNL A   1      33.878  21.186  27.061  1.00  0.00     0.166 HD
BRANCH  17  20
ATOM     20  C   UNL A   1      34.888  22.206  24.683  1.00  0.00     0.030 C 
ATOM     21  C   UNL A   1      35.261  22.938  23.419  1.00  0.00     0.007 C 
ATOM     22  C   UNL A   1      35.263  23.665  24.743  1.00  0.00     0.007 C 
ENDBRANCH  17  20
BRANCH  17  23
ATOM     23  C   UNL A   1      32.868  20.368  24.494  1.00  0.00     0.040 A 
ATOM     24  C   UNL A   1      32.452  20.133  23.180  1.00  0.00     0.018 A 
ATOM     25  S   UNL A   1      32.826  18.907  25.382  1.00  0.00    -0.146 S 
ATOM     26  C   UNL A   1      32.388  18.749  22.863  1.00  0.00     0.012 A 
ATOM     27  C   UNL A   1      32.584  17.969  23.976  1.00  0.00     0.065 A 
ENDBRANCH  17  23
ENDBRANCH  11  12
ENDBRANCH   9  11
ENDBRANCH   8   9
ENDBRANCH   7   8
ENDBRANCH   6   7
ENDBRANCH   5   6
ENDBRANCH   4   5
ENDBRANCH   3   4
ENDBRANCH   2   3
ENDBRANCH   1   2
BRANCH   1  28
ATOM     28  C   UNL A   1      33.966  32.278  27.960  1.00  0.00     0.188 C 
BRANCH  28  29
ATOM     29  O   UNL A   1      34.799  33.361  27.578  1.00  0.00    -0.376 OA
BRANCH  29  30
ATOM     30  C   UNL A   1      34.907  34.519  28.385  1.00  0.00     0.202 C 
BRANCH  30  31
ATOM     31  C   UNL A   1      34.624  34.495  29.897  1.00  0.00     0.261 C 
BRANCH  31  32
ATOM     32  O   UNL A   1      35.670  34.021  30.746  1.00  0.00    -0.460 OA
BRANCH  32  33
ATOM     33  C   UNL A   1      35.522  32.754  31.206  1.00  0.00     0.338 C 
ATOM     34  O   UNL A   1      34.525  32.261  31.693  1.00  0.00    -0.246 OA
BRANCH  33  35
ATOM     35  C   UNL A   1      36.725  31.979  30.826  1.00  0.00     0.060 A 
ATOM     36  C   UNL A   1      37.598  31.564  31.842  1.00  0.00     0.016 A 
ATOM     37  C   UNL A   1      36.978  31.638  29.494  1.00  0.00     0.016 A 
ATOM     38  C   UNL A   1      38.738  30.830  31.532  1.00  0.00     0.010 A 
ATOM     39  C   UNL A   1      38.146  30.940  29.178  1.00  0.00     0.010 A 
ATOM     40  C   UNL A   1      39.045  30.566  30.193  1.00  0.00    -0.014 A 
BRANCH  40  41
ATOM     41  C   UNL A   1      40.418  30.136  29.844  1.00  0.00     0.031 A 
ATOM     42  C   UNL A   1      41.509  31.168  29.920  1.00  0.00     0.074 A 
ATOM     43  C   UNL A   1      40.695  28.866  29.503  1.00  0.00     0.049 A 
ATOM     44  N   UNL A   1      42.774  31.064  29.612  1.00  0.00    -0.248 NA
ATOM     45  C   UNL A   1      41.116  32.503  30.408  1.00  0.00     0.031 C 
ATOM     46  C   UNL A   1      39.728  27.771  29.449  1.00  0.00     0.029 A 
ATOM     47  N   UNL A   1      41.880  28.288  29.124  1.00  0.00    -0.354 N 
ATOM     48  C   UNL A   1      43.325  32.316  29.859  1.00  0.00     0.074 A 
ATOM     49  C   UNL A   1      42.255  33.172  30.318  1.00  0.00     0.031 C 
ATOM     50  C   UNL A   1      40.356  26.656  29.037  1.00  0.00     0.029 A 
ATOM     51  C   UNL A   1      41.760  26.966  28.766  1.00  0.00     0.049 A 
ATOM     52  H   UNL A   1      42.737  28.773  29.109  1.00  0.00     0.167 HD
ATOM     53  C   UNL A   1      44.610  32.713  29.719  1.00  0.00     0.037 A 
ATOM     54  C   UNL A   1      42.674  26.120  28.251  1.00  0.00     0.037 A 
ATOM     55  C   UNL A   1      45.667  31.854  29.256  1.00  0.00     0.049 A 
ATOM     56  C   UNL A   1      44.085  26.609  28.030  1.00  0.00     0.074 A 
ATOM     57  C   UNL A   1      47.006  32.154  29.089  1.00  0.00     0.029 A 
ATOM     58  N   UNL A   1      45.502  30.530  28.880  1.00  0.00    -0.354 N 
ATOM     59  N   UNL A   1      44.601  27.789  28.285  1.00  0.00    -0.248 NA
ATOM     60  C   UNL A   1      45.040  25.651  27.452  1.00  0.00     0.031 C 
ATOM     61  C   UNL A   1      47.641  31.028  28.556  1.00  0.00     0.029 A 
ATOM     62  C   UNL A   1      46.711  30.006  28.454  1.00  0.00     0.049 A 
ATOM     63  H   UNL A   1      44.651  30.035  28.910  1.00  0.00     0.167 HD
ATOM     64  C   UNL A   1      45.946  27.704  27.932  1.00  0.00     0.074 A 
ATOM     65  C   UNL A   1      46.165  26.354  27.455  1.00  0.00     0.031 C 
ATOM     66  C   UNL A   1      46.912  28.653  27.998  1.00  0.00     0.037 A 
BRANCH  53  67
ATOM     67  C   UNL A   1      44.938  34.145  30.035  1.00  0.00     0.058 A 
ATOM     68  C   UNL A   1      45.355  34.546  31.314  1.00  0.00     0.135 A 
ATOM     69  C   UNL A   1      44.877  35.124  29.030  1.00  0.00     0.135 A 
ATOM     70  F   UNL A   1      45.406  33.657  32.319  1.00  0.00    -0.206 F 
ATOM     71  C   UNL A   1      45.688  35.868  31.590  1.00  0.00     0.059 A 
ATOM     72  C   UNL A   1      45.233  36.447  29.275  1.00  0.00     0.059 A 
ATOM     73  F   UNL A   1      44.474  34.797  27.792  1.00  0.00    -0.206 F 
ATOM     74  C   UNL A   1      45.629  36.810  30.561  1.00  0.00     0.060 A 
BRANCH  74  75
ATOM     75  S   UNL A   1      46.098  38.514  30.926  1.00  0.00     0.124 S 
ATOM     76  O   UNL A   1      47.548  38.459  30.768  1.00  0.00    -0.237 OA
ATOM     77  O   UNL A   1      45.377  39.261  29.899  1.00  0.00    -0.237 OA
ATOM     78  O   UNL A   1      45.623  38.714  32.292  1.00  0.00    -0.744 OA
ENDBRANCH  74  75
ENDBRANCH  53  67
BRANCH  54  79
ATOM     79  C   UNL A   1      42.288  24.729  27.883  1.00  0.00     0.058 A 
ATOM     80  C   UNL A   1      41.614  24.453  26.685  1.00  0.00     0.135 A 
ATOM     81  C   UNL A   1      42.564  23.649  28.738  1.00  0.00     0.135 A 
ATOM     82  F   UNL A   1      41.315  25.450  25.838  1.00  0.00    -0.206 F 
ATOM     83  C   UNL A   1      41.206  23.164  26.356  1.00  0.00     0.059 A 
ATOM     84  C   UNL A   1      42.194  22.347  28.417  1.00  0.00     0.059 A 
ATOM     85  F   UNL A   1      43.215  23.855  29.893  1.00  0.00    -0.206 F 
ATOM     86  C   UNL A   1      41.502  22.116  27.230  1.00  0.00     0.060 A 
BRANCH  86  87
ATOM     87  S   UNL A   1      40.996  20.442  26.777  1.00  0.00     0.124 S 
ATOM     88  O   UNL A   1      39.826  20.704  25.946  1.00  0.00    -0.237 OA
ATOM     89  O   UNL A   1      42.178  19.945  26.078  1.00  0.00    -0.237 OA
ATOM     90  O   UNL A   1      40.728  19.812  28.066  1.00  0.00    -0.744 OA
ENDBRANCH  86  87
ENDBRANCH  54  79
BRANCH  66  91
ATOM     91  C   UNL A   1      48.308  28.260  27.594  1.00  0.00     0.058 A 
ATOM     92  C   UNL A   1      49.287  27.920  28.540  1.00  0.00     0.135 A 
ATOM     93  C   UNL A   1      48.648  28.158  26.234  1.00  0.00     0.135 A 
ATOM     94  F   UNL A   1      49.018  28.002  29.853  1.00  0.00    -0.206 F 
ATOM     95  C   UNL A   1      50.564  27.522  28.153  1.00  0.00     0.059 A 
ATOM     96  C   UNL A   1      49.906  27.731  25.824  1.00  0.00     0.059 A 
ATOM     97  F   UNL A   1      47.744  28.456  25.287  1.00  0.00    -0.206 F 
ATOM     98  C   UNL A   1      50.862  27.427  26.792  1.00  0.00     0.060 A 
BRANCH  98  99
ATOM     99  S   UNL A   1      52.511  26.876  26.304  1.00  0.00     0.124 S 
ATOM    100  O   UNL A   1      53.207  28.147  26.136  1.00  0.00    -0.237 OA
ATOM    101  O   UNL A   1      52.924  26.073  27.451  1.00  0.00    -0.237 OA
ATOM    102  O   UNL A   1      52.269  26.125  25.076  1.00  0.00    -0.744 OA
ENDBRANCH  98  99
ENDBRANCH  66  91
ENDBRANCH  40  41
ENDBRANCH  33  35
ENDBRANCH  32  33
ENDBRANCH  31  32
ENDBRANCH  30  31
ENDBRANCH  29  30
ENDBRANCH  28  29
ENDBRANCH   1  28
TORSDOF 26
ENDMDL
MODEL 2
REMARK VINA RESULT:      -9.4      1.904      2.702
REMARK SMILES O=C(CN1C(=O)N[C@](c2cccs2)(C2CC2)C1=O)OCCOCCOCCOCCOC(=O)c1ccc(-c2c3nc(c(-c4c(F)cc(S(=O)(=O)[O-])cc4F)c4ccc([nH]4)c(-c4c(F)cc(S(=O)(=O)[O-])cc4F)c4nc(c(-c5c(F)cc(S(=O)(=O)[O-])cc5F)c5ccc2[nH]5)C=C4)C=C3)cc1
REMARK SMILES IDX 26 1 25 2 24 3 23 4 22 5 21 6 20 7 19 8 2 9 1 10 3 11 4 12
REMARK SMILES IDX 5 13 17 14 6 15 7 16 8 17 18 18 14 20 15 21 16 22 9 23 10 24
REMARK SMILES IDX 13 25 11 26 12 27 27 28 28 29 29 30 30 31 31 32 32 33 33 34
REMARK SMILES IDX 34 35 35 36 99 37 36 38 98 39 37 40 38 41 39 42 92 43 40 44
REMARK SMILES IDX 97 45 91 46 93 47 41 48 96 49 90 50 89 51 42 53 76 54 55 55
REMARK SMILES IDX 75 56 56 57 59 58 74 59 94 60 57 61 58 62 73 64 95 65 60 66
REMARK SMILES IDX 43 67 44 68 53 69 45 70 46 71 52 72 54 73 47 74 48 75 49 76
REMARK SMILES IDX 50 77 51 78 77 79 78 80 87 81 79 82 80 83 86 84 88 85 81 86
REMARK SMILES IDX 82 87 83 88 84 89 85 90 61 91 62 92 71 93 63 94 64 95 70 96
REMARK SMILES IDX 72 97 65 98 66 99 67 100 68 101 69 102
REMARK H PARENT 7 19 93 52 59 63
REMARK Flexibility Score: inf
ROOT
ATOM      1  C   UNL A   1      33.330  28.454  25.607  1.00  0.00     0.188 C 
ENDROOT
BRANCH   1   2
ATOM      2  O   UNL A   1      32.030  28.992  25.423  1.00  0.00    -0.377 OA
BRANCH   2   3
ATOM      3  C   UNL A   1      31.679  29.238  24.066  1.00  0.00     0.188 C 
BRANCH   3   4
ATOM      4  C   UNL A   1      30.294  28.710  23.669  1.00  0.00     0.188 C 
BRANCH   4   5
ATOM      5  O   UNL A   1      30.139  27.305  23.738  1.00  0.00    -0.376 OA
BRANCH   5   6
ATOM      6  C   UNL A   1      30.749  26.391  22.853  1.00  0.00     0.202 C 
BRANCH   6   7
ATOM      7  C   UNL A   1      31.708  25.314  23.351  1.00  0.00     0.261 C 
BRANCH   7   8
ATOM      8  O   UNL A   1      31.869  25.148  24.774  1.00  0.00    -0.462 OA
BRANCH   8   9
ATOM      9  C   UNL A   1      31.346  24.278  25.648  1.00  0.00     0.326 C 
ATOM     10  O   UNL A   1      30.797  24.724  26.660  1.00  0.00    -0.250 OA
BRANCH   9  11
ATOM     11  C   UNL A   1      31.551  22.782  25.540  1.00  0.00     0.253 C 
BRANCH  11  12
ATOM     12  N   UNL A   1      32.853  22.193  25.637  1.00  0.00    -0.251 N 
ATOM     13  C   UNL A   1      33.399  21.823  26.834  1.00  0.00     0.325 C 
ATOM     14  C   UNL A   1      33.433  21.501  24.616  1.00  0.00     0.262 C 
ATOM     15  O   UNL A   1      33.046  22.167  27.938  1.00  0.00    -0.248 OA
ATOM     16  N   UNL A   1      34.399  20.911  26.594  1.00  0.00    -0.318 N 
ATOM     17  C   UNL A   1      34.570  20.617  25.188  1.00  0.00     0.158 C 
ATOM     18  O   UNL A   1      33.065  21.530  23.447  1.00  0.00    -0.271 OA
ATOM     19  H   UNL A   1      34.941  20.501  27.305  1.00  0.00     0.166 HD
BRANCH  17  20
ATOM     20  C   UNL A   1      35.907  21.208  24.798  1.00  0.00     0.030 C 
ATOM     21  C   UNL A   1      36.110  22.589  24.231  1.00  0.00     0.007 C 
ATOM     22  C   UNL A   1      36.655  22.245  25.597  1.00  0.00     0.007 C 
ENDBRANCH  17  20
BRANCH  17  23
ATOM     23  C   UNL A   1      34.020  19.227  24.895  1.00  0.00     0.040 A 
ATOM     24  C   UNL A   1      34.669  18.248  24.136  1.00  0.00     0.018 A 
ATOM     25  S   UNL A   1      32.671  18.539  25.689  1.00  0.00    -0.146 S 
ATOM     26  C   UNL A   1      34.230  16.933  24.444  1.00  0.00     0.012 A 
ATOM     27  C   UNL A   1      33.149  16.949  25.292  1.00  0.00     0.065 A 
ENDBRANCH  17  23
ENDBRANCH  11  12
ENDBRANCH   9  11
ENDBRANCH   8   9
ENDBRANCH   7   8
ENDBRANCH   6   7
ENDBRANCH   5   6
ENDBRANCH   4   5
ENDBRANCH   3   4
ENDBRANCH   2   3
ENDBRANCH   1   2
BRANCH   1  28
ATOM     28  C   UNL A   1      34.007  28.793  26.954  1.00  0.00     0.188 C 
BRANCH  28  29
ATOM     29  O   UNL A   1      35.116  29.674  27.040  1.00  0.00    -0.376 OA
BRANCH  29  30
ATOM     30  C   UNL A   1      36.078  29.537  28.069  1.00  0.00     0.202 C 
BRANCH  30  31
ATOM     31  C   UNL A   1      35.768  29.884  29.535  1.00  0.00     0.261 C 
BRANCH  31  32
ATOM     32  O   UNL A   1      36.318  31.101  30.045  1.00  0.00    -0.460 OA
BRANCH  32  33
ATOM     33  C   UNL A   1      37.001  30.991  31.210  1.00  0.00     0.338 C 
ATOM     34  O   UNL A   1      36.539  30.963  32.333  1.00  0.00    -0.246 OA
BRANCH  33  35
ATOM     35  C   UNL A   1      38.416  30.693  30.892  1.00  0.00     0.060 A 
ATOM     36  C   UNL A   1      38.899  31.038  29.621  1.00  0.00     0.016 A 
ATOM     37  C   UNL A   1      39.266  30.111  31.836  1.00  0.00     0.016 A 
ATOM     38  C   UNL A   1      40.222  30.781  29.279  1.00  0.00     0.010 A 
ATOM     39  C   UNL A   1      40.582  29.811  31.478  1.00  0.00     0.010 A 
ATOM     40  C   UNL A   1      41.052  30.114  30.187  1.00  0.00    -0.014 A 
BRANCH  40  41
ATOM     41  C   UNL A   1      42.310  29.509  29.696  1.00  0.00     0.031 A 
ATOM     42  C   UNL A   1      43.539  30.378  29.681  1.00  0.00     0.074 A 
ATOM     43  C   UNL A   1      42.372  28.224  29.307  1.00  0.00     0.049 A 
ATOM     44  N   UNL A   1      44.741  30.109  29.247  1.00  0.00    -0.248 NA
ATOM     45  C   UNL A   1      43.386  31.738  30.229  1.00  0.00     0.031 C 
ATOM     46  C   UNL A   1      41.260  27.276  29.330  1.00  0.00     0.029 A 
ATOM     47  N   UNL A   1      43.422  27.500  28.802  1.00  0.00    -0.354 N 
ATOM     48  C   UNL A   1      45.484  31.265  29.460  1.00  0.00     0.074 A 
ATOM     49  C   UNL A   1      44.593  32.245  30.038  1.00  0.00     0.031 C 
ATOM     50  C   UNL A   1      41.683  26.098  28.839  1.00  0.00     0.029 A 
ATOM     51  C   UNL A   1      43.084  26.219  28.435  1.00  0.00     0.049 A 
ATOM     52  H   UNL A   1      44.333  27.862  28.710  1.00  0.00     0.167 HD
ATOM     53  C   UNL A   1      46.792  31.484  29.199  1.00  0.00     0.037 A 
ATOM     54  C   UNL A   1      43.816  25.271  27.816  1.00  0.00     0.037 A 
ATOM     55  C   UNL A   1      47.668  30.502  28.619  1.00  0.00     0.049 A 
ATOM     56  C   UNL A   1      45.253  25.567  27.464  1.00  0.00     0.074 A 
ATOM     57  C   UNL A   1      49.014  30.619  28.324  1.00  0.00     0.029 A 
ATOM     58  N   UNL A   1      47.283  29.226  28.237  1.00  0.00    -0.354 N 
ATOM     59  N   UNL A   1      45.952  26.656  27.688  1.00  0.00    -0.248 NA
ATOM     60  C   UNL A   1      46.004  24.505  26.778  1.00  0.00     0.031 C 
ATOM     61  C   UNL A   1      49.430  29.433  27.711  1.00  0.00     0.029 A 
ATOM     62  C   UNL A   1      48.360  28.553  27.685  1.00  0.00     0.049 A 
ATOM     63  H   UNL A   1      46.378  28.852  28.343  1.00  0.00     0.167 HD
ATOM     64  C   UNL A   1      47.232  26.396  27.202  1.00  0.00     0.074 A 
ATOM     65  C   UNL A   1      47.212  25.044  26.681  1.00  0.00     0.031 C 
ATOM     66  C   UNL A   1      48.324  27.200  27.187  1.00  0.00     0.037 A 
BRANCH  53  67
ATOM     67  C   UNL A   1      47.348  32.846  29.506  1.00  0.00     0.058 A 
ATOM     68  C   UNL A   1      47.936  33.146  30.745  1.00  0.00     0.135 A 
ATOM     69  C   UNL A   1      47.330  33.855  28.529  1.00  0.00     0.135 A 
ATOM     70  F   UNL A   1      47.956  32.228  31.724  1.00  0.00    -0.206 F 
ATOM     71  C   UNL A   1      48.476  34.401  31.008  1.00  0.00     0.059 A 
ATOM     72  C   UNL A   1      47.890  35.107  28.759  1.00  0.00     0.059 A 
ATOM     73  F   UNL A   1      46.770  33.625  27.330  1.00  0.00    -0.206 F 
ATOM     74  C   UNL A   1      48.454  35.373  30.006  1.00  0.00     0.060 A 
BRANCH  74  75
ATOM     75  S   UNL A   1      49.191  36.983  30.353  1.00  0.00     0.124 S 
ATOM     76  O   UNL A   1      49.255  37.569  29.018  1.00  0.00    -0.237 OA
ATOM     77  O   UNL A   1      48.216  37.581  31.261  1.00  0.00    -0.237 OA
ATOM     78  O   UNL A   1      50.479  36.648  30.952  1.00  0.00    -0.744 OA
ENDBRANCH  74  75
ENDBRANCH  53  67
BRANCH  54  79
ATOM     79  C   UNL A   1      43.204  23.959  27.464  1.00  0.00     0.058 A 
ATOM     80  C   UNL A   1      43.154  22.908  28.390  1.00  0.00     0.135 A 
ATOM     81  C   UNL A   1      42.681  23.723  26.182  1.00  0.00     0.135 A 
ATOM     82  F   UNL A   1      43.651  23.076  29.625  1.00  0.00    -0.206 F 
ATOM     83  C   UNL A   1      42.630  21.663  28.054  1.00  0.00     0.059 A 
ATOM     84  C   UNL A   1      42.125  22.497  25.832  1.00  0.00     0.059 A 
ATOM     85  F   UNL A   1      42.696  24.697  25.259  1.00  0.00    -0.206 F 
ATOM     86  C   UNL A   1      42.116  21.468  26.771  1.00  0.00     0.060 A 
BRANCH  86  87
ATOM     87  S   UNL A   1      41.408  19.858  26.358  1.00  0.00     0.124 S 
ATOM     88  O   UNL A   1      41.572  19.134  27.613  1.00  0.00    -0.237 OA
ATOM     89  O   UNL A   1      40.038  20.211  25.998  1.00  0.00    -0.237 OA
ATOM     90  O   UNL A   1      42.241  19.400  25.250  1.00  0.00    -0.744 OA
ENDBRANCH  86  87
ENDBRANCH  54  79
BRANCH  66  91
ATOM     91  C   UNL A   1      49.605  26.630  26.639  1.00  0.00     0.058 A 
ATOM     92  C   UNL A   1      49.971  26.785  25.293  1.00  0.00     0.135 A 
ATOM     93  C   UNL A   1      50.508  25.975  27.493  1.00  0.00     0.135 A 
ATOM     94  F   UNL A   1      49.144  27.400  24.433  1.00  0.00    -0.206 F 
ATOM     95  C   UNL A   1      51.176  26.286  24.806  1.00  0.00     0.059 A 
ATOM     96  C   UNL A   1      51.733  25.498  27.036  1.00  0.00     0.059 A 
ATOM     97  F   UNL A   1      50.215  25.813  28.793  1.00  0.00    -0.206 F 
ATOM     98  C   UNL A   1      52.052  25.647  25.687  1.00  0.00     0.060 A 
BRANCH  98  99
ATOM     99  S   UNL A   1      53.626  25.034  25.050  1.00  0.00     0.124 S 
ATOM    100  O   UNL A   1      54.565  25.557  26.037  1.00  0.00    -0.237 OA
ATOM    101  O   UNL A   1      53.428  23.588  25.067  1.00  0.00    -0.237 OA
ATOM    102  O   UNL A   1      53.713  25.633  23.723  1.00  0.00    -0.744 OA
ENDBRANCH  98  99
ENDBRANCH  66  91
ENDBRANCH  40  41
ENDBRANCH  33  35
ENDBRANCH  32  33
ENDBRANCH  31  32
ENDBRANCH  30  31
ENDBRANCH  29  30
ENDBRANCH  28  29
ENDBRANCH   1  28
TORSDOF 26
ENDMDL
MODEL 3
REMARK VINA RESULT:      -9.0      5.783      7.453
REMARK SMILES O=C(CN1C(=O)N[C@](c2cccs2)(C2CC2)C1=O)OCCOCCOCCOCCOC(=O)c1ccc(-c2c3nc(c(-c4c(F)cc(S(=O)(=O)[O-])cc4F)c4ccc([nH]4)c(-c4c(F)cc(S(=O)(=O)[O-])cc4F)c4nc(c(-c5c(F)cc(S(=O)(=O)[O-])cc5F)c5ccc2[nH]5)C=C4)C=C3)cc1
REMARK SMILES IDX 26 1 25 2 24 3 23 4 22 5 21 6 20 7 19 8 2 9 1 10 3 11 4 12
REMARK SMILES IDX 5 13 17 14 6 15 7 16 8 17 18 18 14 20 15 21 16 22 9 23 10 24
REMARK SMILES IDX 13 25 11 26 12 27 27 28 28 29 29 30 30 31 31 32 32 33 33 34
REMARK SMILES IDX 34 35 35 36 99 37 36 38 98 39 37 40 38 41 39 42 92 43 40 44
REMARK SMILES IDX 97 45 91 46 93 47 41 48 96 49 90 50 89 51 42 53 76 54 55 55
REMARK SMILES IDX 75 56 56 57 59 58 74 59 94 60 57 61 58 62 73 64 95 65 60 66
REMARK SMILES IDX 43 67 44 68 53 69 45 70 46 71 52 72 54 73 47 74 48 75 49 76
REMARK SMILES IDX 50 77 51 78 77 79 78 80 87 81 79 82 80 83 86 84 88 85 81 86
REMARK SMILES IDX 82 87 83 88 84 89 85 90 61 91 62 92 71 93 63 94 64 95 70 96
REMARK SMILES IDX 72 97 65 98 66 99 67 100 68 101 69 102
REMARK H PARENT 7 19 93 52 59 63
REMARK Flexibility Score: inf
ROOT
ATOM      1  C   UNL A   1      35.573  31.062  28.405  1.00  0.00     0.188 C 
ENDROOT
BRANCH   1   2
ATOM      2  O   UNL A   1      34.318  30.421  28.238  1.00  0.00    -0.377 OA
BRANCH   2   3
ATOM      3  C   UNL A   1      34.104  29.871  26.943  1.00  0.00     0.188 C 
BRANCH   3   4
ATOM      4  C   UNL A   1      33.518  28.453  26.951  1.00  0.00     0.188 C 
BRANCH   4   5
ATOM      5  O   UNL A   1      32.243  28.321  26.351  1.00  0.00    -0.376 OA
BRANCH   5   6
ATOM      6  C   UNL A   1      31.724  27.112  25.840  1.00  0.00     0.202 C 
BRANCH   6   7
ATOM      7  C   UNL A   1      30.662  26.316  26.592  1.00  0.00     0.261 C 
BRANCH   7   8
ATOM      8  O   UNL A   1      30.415  24.954  26.186  1.00  0.00    -0.462 OA
BRANCH   8   9
ATOM      9  C   UNL A   1      30.454  23.793  26.851  1.00  0.00     0.326 C 
ATOM     10  O   UNL A   1      29.414  23.382  27.375  1.00  0.00    -0.250 OA
BRANCH   9  11
ATOM     11  C   UNL A   1      31.744  23.053  27.139  1.00  0.00     0.253 C 
BRANCH  11  12
ATOM     12  N   UNL A   1      32.736  22.849  26.125  1.00  0.00    -0.251 N 
ATOM     13  C   UNL A   1      32.615  21.875  25.174  1.00  0.00     0.325 C 
ATOM     14  C   UNL A   1      33.570  23.836  25.694  1.00  0.00     0.262 C 
ATOM     15  O   UNL A   1      31.878  20.917  25.195  1.00  0.00    -0.248 OA
ATOM     16  N   UNL A   1      33.432  22.197  24.116  1.00  0.00    -0.318 N 
ATOM     17  C   UNL A   1      34.152  23.436  24.314  1.00  0.00     0.158 C 
ATOM     18  O   UNL A   1      33.772  24.894  26.279  1.00  0.00    -0.271 OA
ATOM     19  H   UNL A   1      33.517  21.642  23.308  1.00  0.00     0.166 HD
BRANCH  17  20
ATOM     20  C   UNL A   1      35.606  23.051  24.476  1.00  0.00     0.030 C 
ATOM     21  C   UNL A   1      36.219  21.763  23.991  1.00  0.00     0.007 C 
ATOM     22  C   UNL A   1      36.631  23.077  23.372  1.00  0.00     0.007 C 
ENDBRANCH  17  20
BRANCH  17  23
ATOM     23  C   UNL A   1      33.545  24.517  23.429  1.00  0.00     0.040 A 
ATOM     24  C   UNL A   1      34.020  25.827  23.319  1.00  0.00     0.018 A 
ATOM     25  S   UNL A   1      32.381  24.221  22.211  1.00  0.00    -0.146 S 
ATOM     26  C   UNL A   1      33.644  26.447  22.097  1.00  0.00     0.012 A 
ATOM     27  C   UNL A   1      32.759  25.670  21.391  1.00  0.00     0.065 A 
ENDBRANCH  17  23
ENDBRANCH  11  12
ENDBRANCH   9  11
ENDBRANCH   8   9
ENDBRANCH   7   8
ENDBRANCH   6   7
ENDBRANCH   5   6
ENDBRANCH   4   5
ENDBRANCH   3   4
ENDBRANCH   2   3
ENDBRANCH   1   2
BRANCH   1  28
ATOM     28  C   UNL A   1      35.724  32.425  27.695  1.00  0.00     0.188 C 
BRANCH  28  29
ATOM     29  O   UNL A   1      34.635  33.323  27.546  1.00  0.00    -0.376 OA
BRANCH  29  30
ATOM     30  C   UNL A   1      34.690  34.632  28.081  1.00  0.00     0.202 C 
BRANCH  30  31
ATOM     31  C   UNL A   1      33.502  35.267  28.823  1.00  0.00     0.261 C 
BRANCH  31  32
ATOM     32  O   UNL A   1      32.980  34.551  29.945  1.00  0.00    -0.460 OA
BRANCH  32  33
ATOM     33  C   UNL A   1      33.107  35.169  31.145  1.00  0.00     0.338 C 
ATOM     34  O   UNL A   1      32.338  35.963  31.647  1.00  0.00    -0.246 OA
BRANCH  33  35
ATOM     35  C   UNL A   1      34.250  34.559  31.861  1.00  0.00     0.060 A 
ATOM     36  C   UNL A   1      35.385  35.349  32.098  1.00  0.00     0.016 A 
ATOM     37  C   UNL A   1      34.199  33.240  32.320  1.00  0.00     0.016 A 
ATOM     38  C   UNL A   1      36.481  34.819  32.770  1.00  0.00     0.010 A 
ATOM     39  C   UNL A   1      35.316  32.694  32.956  1.00  0.00     0.010 A 
ATOM     40  C   UNL A   1      36.472  33.472  33.151  1.00  0.00    -0.014 A 
BRANCH  40  41
ATOM     41  C   UNL A   1      37.752  32.821  33.509  1.00  0.00     0.031 A 
ATOM     42  C   UNL A   1      38.283  33.051  34.898  1.00  0.00     0.074 A 
ATOM     43  C   UNL A   1      38.407  32.026  32.646  1.00  0.00     0.049 A 
ATOM     44  N   UNL A   1      39.401  32.645  35.437  1.00  0.00    -0.248 NA
ATOM     45  C   UNL A   1      37.434  33.851  35.800  1.00  0.00     0.031 C 
ATOM     46  C   UNL A   1      37.959  31.689  31.296  1.00  0.00     0.029 A 
ATOM     47  N   UNL A   1      39.602  31.366  32.779  1.00  0.00    -0.354 N 
ATOM     48  C   UNL A   1      39.396  33.147  36.734  1.00  0.00     0.074 A 
ATOM     49  C   UNL A   1      38.176  33.907  36.894  1.00  0.00     0.031 C 
ATOM     50  C   UNL A   1      38.881  30.901  30.716  1.00  0.00     0.029 A 
ATOM     51  C   UNL A   1      39.998  30.706  31.640  1.00  0.00     0.049 A 
ATOM     52  H   UNL A   1      40.127  31.364  33.612  1.00  0.00     0.167 HD
ATOM     53  C   UNL A   1      40.324  32.984  37.703  1.00  0.00     0.037 A 
ATOM     54  C   UNL A   1      41.145  30.050  31.371  1.00  0.00     0.037 A 
ATOM     55  C   UNL A   1      41.536  32.230  37.531  1.00  0.00     0.049 A 
ATOM     56  C   UNL A   1      42.201  29.948  32.445  1.00  0.00     0.074 A 
ATOM     57  C   UNL A   1      42.538  31.993  38.454  1.00  0.00     0.029 A 
ATOM     58  N   UNL A   1      41.915  31.598  36.356  1.00  0.00    -0.354 N 
ATOM     59  N   UNL A   1      42.178  30.409  33.675  1.00  0.00    -0.248 NA
ATOM     60  C   UNL A   1      43.439  29.235  32.097  1.00  0.00     0.031 C 
ATOM     61  C   UNL A   1      43.551  31.267  37.820  1.00  0.00     0.029 A 
ATOM     62  C   UNL A   1      43.149  30.993  36.522  1.00  0.00     0.049 A 
ATOM     63  H   UNL A   1      41.385  31.582  35.527  1.00  0.00     0.167 HD
ATOM     64  C   UNL A   1      43.380  30.011  34.255  1.00  0.00     0.074 A 
ATOM     65  C   UNL A   1      44.102  29.264  33.245  1.00  0.00     0.031 C 
ATOM     66  C   UNL A   1      43.845  30.240  35.508  1.00  0.00     0.037 A 
BRANCH  53  67
ATOM     67  C   UNL A   1      40.083  33.660  39.024  1.00  0.00     0.058 A 
ATOM     68  C   UNL A   1      40.621  34.922  39.322  1.00  0.00     0.135 A 
ATOM     69  C   UNL A   1      39.263  33.054  39.990  1.00  0.00     0.135 A 
ATOM     70  F   UNL A   1      41.433  35.534  38.446  1.00  0.00    -0.206 F 
ATOM     71  C   UNL A   1      40.366  35.553  40.535  1.00  0.00     0.059 A 
ATOM     72  C   UNL A   1      38.970  33.679  41.197  1.00  0.00     0.059 A 
ATOM     73  F   UNL A   1      38.731  31.842  39.761  1.00  0.00    -0.206 F 
ATOM     74  C   UNL A   1      39.533  34.926  41.464  1.00  0.00     0.060 A 
BRANCH  74  75
ATOM     75  S   UNL A   1      39.184  35.774  43.017  1.00  0.00     0.124 S 
ATOM     76  O   UNL A   1      37.749  35.549  43.158  1.00  0.00    -0.237 OA
ATOM     77  O   UNL A   1      40.034  35.055  43.962  1.00  0.00    -0.237 OA
ATOM     78  O   UNL A   1      39.578  37.154  42.749  1.00  0.00    -0.744 OA
ENDBRANCH  74  75
ENDBRANCH  53  67
BRANCH  54  79
ATOM     79  C   UNL A   1      41.375  29.457  30.024  1.00  0.00     0.058 A 
ATOM     80  C   UNL A   1      40.831  28.213  29.675  1.00  0.00     0.135 A 
ATOM     81  C   UNL A   1      42.167  30.114  29.068  1.00  0.00     0.135 A 
ATOM     82  F   UNL A   1      40.077  27.538  30.557  1.00  0.00    -0.206 F 
ATOM     83  C   UNL A   1      41.081  27.628  28.437  1.00  0.00     0.059 A 
ATOM     84  C   UNL A   1      42.406  29.563  27.813  1.00  0.00     0.059 A 
ATOM     85  F   UNL A   1      42.705  31.311  29.346  1.00  0.00    -0.206 F 
ATOM     86  C   UNL A   1      41.870  28.313  27.511  1.00  0.00     0.060 A 
BRANCH  86  87
ATOM     87  S   UNL A   1      42.160  27.559  25.896  1.00  0.00     0.124 S 
ATOM     88  O   UNL A   1      41.038  26.632  25.799  1.00  0.00    -0.237 OA
ATOM     89  O   UNL A   1      42.112  28.715  25.006  1.00  0.00    -0.237 OA
ATOM     90  O   UNL A   1      43.476  26.945  26.043  1.00  0.00    -0.744 OA
ENDBRANCH  86  87
ENDBRANCH  54  79
BRANCH  66  91
ATOM     91  C   UNL A   1      45.173  29.638  35.883  1.00  0.00     0.058 A 
ATOM     92  C   UNL A   1      46.381  30.328  35.697  1.00  0.00     0.135 A 
ATOM     93  C   UNL A   1      45.227  28.376  36.498  1.00  0.00     0.135 A 
ATOM     94  F   UNL A   1      46.387  31.535  35.111  1.00  0.00    -0.206 F 
ATOM     95  C   UNL A   1      47.600  29.775  36.082  1.00  0.00     0.059 A 
ATOM     96  C   UNL A   1      46.430  27.819  36.921  1.00  0.00     0.059 A 
ATOM     97  F   UNL A   1      44.100  27.679  36.714  1.00  0.00    -0.206 F 
ATOM     98  C   UNL A   1      47.612  28.521  36.696  1.00  0.00     0.060 A 
BRANCH  98  99
ATOM     99  S   UNL A   1      49.196  27.832  37.222  1.00  0.00     0.124 S 
ATOM    100  O   UNL A   1      48.844  27.232  38.504  1.00  0.00    -0.237 OA
ATOM    101  O   UNL A   1      49.500  26.893  36.145  1.00  0.00    -0.237 OA
ATOM    102  O   UNL A   1      50.070  28.999  37.292  1.00  0.00    -0.744 OA
ENDBRANCH  98  99
ENDBRANCH  66  91
ENDBRANCH  40  41
ENDBRANCH  33  35
ENDBRANCH  32  33
ENDBRANCH  31  32
ENDBRANCH  30  31
ENDBRANCH  29  30
ENDBRANCH  28  29
ENDBRANCH   1  28
TORSDOF 26
ENDMDL
