MODEL 1
REMARK VINA RESULT:      -9.5      0.000      0.000
REMARK SMILES O=C(OCCOCCOCCOCCOC(=O)[C@H]1[C@@H]2C[C@H]3C[C@@H](C2)C[C@]1(n1ncc(N2CCN(c4ccc(F)cc4)CC2)c(Cl)c1=O)C3)c1ccc(-c2c3nc(c(-c4c(F)cc(S(=O)(=O)[O-])cc4F)c4ccc([nH]4)c(-c4c(F)cc(S(=O)(=O)[O-])cc4F)c4nc(c(-c5c(F)cc(S(=O)(=O)[O-])cc5F)c5ccc2[nH]5)C=C4)C=C3)cc1
REMARK SMILES IDX 9 1 8 2 7 3 6 4 5 5 4 6 3 7 2 8 1 9 49 10 50 11 114 12 51 13
REMARK SMILES IDX 113 14 52 15 53 16 54 17 107 18 55 19 112 20 106 21 108 22
REMARK SMILES IDX 56 23 111 24 105 25 104 26 57 28 91 29 70 30 90 31 71 32
REMARK SMILES IDX 74 33 89 34 109 35 72 36 73 37 88 39 110 40 75 41 58 42
REMARK SMILES IDX 59 43 68 44 60 45 61 46 67 47 69 48 62 49 63 50 64 51 65 52
REMARK SMILES IDX 66 53 92 54 93 55 102 56 94 57 95 58 101 59 103 60 96 61
REMARK SMILES IDX 97 62 98 63 99 64 100 65 76 66 77 67 86 68 78 69 79 70 85 71
REMARK SMILES IDX 87 72 80 73 81 74 82 75 83 76 84 77 10 78 11 79 12 80 13 81
REMARK SMILES IDX 14 82 15 83 16 84 17 85 18 86 19 87 26 88 24 89 20 90 48 91
REMARK SMILES IDX 25 92 23 93 21 94 22 95 27 96 28 97 46 98 29 99 44 100
REMARK SMILES IDX 47 101 30 102 45 103 31 104 32 105 43 106 33 107 42 108
REMARK SMILES IDX 34 109 35 110 36 111 41 112 37 113 40 114 38 115 39 116
REMARK H PARENT 108 27 74 38
REMARK Flexibility Score: inf
ROOT
ATOM      1  O   UNL A   1      33.406  29.826  25.410  1.00  0.00    -0.377 OA
ENDROOT
BRANCH   1   2
ATOM      2  C   UNL A   1      33.821  29.951  26.759  1.00  0.00     0.188 C 
BRANCH   2   3
ATOM      3  C   UNL A   1      33.383  31.220  27.483  1.00  0.00     0.188 C 
BRANCH   3   4
ATOM      4  O   UNL A   1      34.454  32.071  27.906  1.00  0.00    -0.376 OA
BRANCH   4   5
ATOM      5  C   UNL A   1      34.152  33.057  28.885  1.00  0.00     0.202 C 
BRANCH   5   6
ATOM      6  C   UNL A   1      34.889  32.877  30.201  1.00  0.00     0.261 C 
BRANCH   6   7
ATOM      7  O   UNL A   1      34.307  33.642  31.262  1.00  0.00    -0.460 OA
BRANCH   7   8
ATOM      8  C   UNL A   1      34.990  34.368  32.184  1.00  0.00     0.338 C 
ATOM      9  O   UNL A   1      34.789  35.579  32.244  1.00  0.00    -0.246 OA
BRANCH   8  10
ATOM     10  C   UNL A   1      36.148  33.802  32.952  1.00  0.00     0.060 A 
ATOM     11  C   UNL A   1      37.427  34.204  32.525  1.00  0.00     0.016 A 
ATOM     12  C   UNL A   1      36.063  32.940  34.052  1.00  0.00     0.016 A 
ATOM     13  C   UNL A   1      38.580  33.774  33.190  1.00  0.00     0.010 A 
ATOM     14  C   UNL A   1      37.211  32.458  34.683  1.00  0.00     0.010 A 
ATOM     15  C   UNL A   1      38.470  32.915  34.288  1.00  0.00    -0.014 A 
BRANCH  15  16
ATOM     16  C   UNL A   1      39.597  32.759  35.230  1.00  0.00     0.031 A 
ATOM     17  C   UNL A   1      39.943  33.791  36.251  1.00  0.00     0.074 A 
ATOM     18  C   UNL A   1      40.347  31.652  35.067  1.00  0.00     0.049 A 
ATOM     19  N   UNL A   1      40.829  33.715  37.208  1.00  0.00    -0.248 NA
ATOM     20  C   UNL A   1      39.221  35.069  36.189  1.00  0.00     0.031 C 
ATOM     21  C   UNL A   1      40.115  30.636  34.032  1.00  0.00     0.029 A 
ATOM     22  N   UNL A   1      41.448  31.196  35.737  1.00  0.00    -0.354 N 
ATOM     23  C   UNL A   1      40.754  34.920  37.893  1.00  0.00     0.074 A 
ATOM     24  C   UNL A   1      39.769  35.731  37.204  1.00  0.00     0.031 C 
ATOM     25  C   UNL A   1      41.045  29.679  34.137  1.00  0.00     0.029 A 
ATOM     26  C   UNL A   1      41.925  30.002  35.253  1.00  0.00     0.049 A 
ATOM     27  H   UNL A   1      41.858  31.676  36.493  1.00  0.00     0.167 HD
ATOM     28  C   UNL A   1      41.438  35.288  39.004  1.00  0.00     0.037 A 
ATOM     29  C   UNL A   1      42.943  29.233  35.677  1.00  0.00     0.037 A 
ATOM     30  C   UNL A   1      42.442  34.458  39.629  1.00  0.00     0.049 A 
ATOM     31  C   UNL A   1      43.684  29.659  36.905  1.00  0.00     0.074 A 
ATOM     32  C   UNL A   1      43.143  34.685  40.800  1.00  0.00     0.029 A 
ATOM     33  N   UNL A   1      42.908  33.254  39.114  1.00  0.00    -0.354 N 
ATOM     34  N   UNL A   1      43.498  30.731  37.639  1.00  0.00    -0.248 NA
ATOM     35  C   UNL A   1      44.756  28.777  37.377  1.00  0.00     0.031 C 
ATOM     36  C   UNL A   1      44.067  33.647  40.964  1.00  0.00     0.029 A 
ATOM     37  C   UNL A   1      43.916  32.747  39.920  1.00  0.00     0.049 A 
ATOM     38  H   UNL A   1      42.570  32.822  38.295  1.00  0.00     0.167 HD
ATOM     39  C   UNL A   1      44.426  30.653  38.667  1.00  0.00     0.074 A 
ATOM     40  C   UNL A   1      45.160  29.416  38.468  1.00  0.00     0.031 C 
ATOM     41  C   UNL A   1      44.649  31.525  39.680  1.00  0.00     0.037 A 
BRANCH  28  42
ATOM     42  C   UNL A   1      41.122  36.625  39.621  1.00  0.00     0.058 A 
ATOM     43  C   UNL A   1      41.973  37.730  39.445  1.00  0.00     0.135 A 
ATOM     44  C   UNL A   1      39.930  36.833  40.335  1.00  0.00     0.135 A 
ATOM     45  F   UNL A   1      43.126  37.594  38.770  1.00  0.00    -0.206 F 
ATOM     46  C   UNL A   1      41.669  38.980  39.977  1.00  0.00     0.059 A 
ATOM     47  C   UNL A   1      39.594  38.083  40.856  1.00  0.00     0.059 A 
ATOM     48  F   UNL A   1      39.072  35.820  40.528  1.00  0.00    -0.206 F 
ATOM     49  C   UNL A   1      40.476  39.147  40.682  1.00  0.00     0.060 A 
BRANCH  49  50
ATOM     50  S   UNL A   1      40.099  40.778  41.359  1.00  0.00     0.124 S 
ATOM     51  O   UNL A   1      41.433  41.282  41.672  1.00  0.00    -0.237 OA
ATOM     52  O   UNL A   1      39.422  41.431  40.242  1.00  0.00    -0.237 OA
ATOM     53  O   UNL A   1      39.255  40.484  42.513  1.00  0.00    -0.744 OA
ENDBRANCH  49  50
ENDBRANCH  28  42
BRANCH  29  54
ATOM     54  C   UNL A   1      43.217  27.959  34.969  1.00  0.00     0.058 A 
ATOM     55  C   UNL A   1      44.245  27.878  34.021  1.00  0.00     0.135 A 
ATOM     56  C   UNL A   1      42.561  26.770  35.331  1.00  0.00     0.135 A 
ATOM     57  F   UNL A   1      44.907  28.986  33.653  1.00  0.00    -0.206 F 
ATOM     58  C   UNL A   1      44.627  26.662  33.464  1.00  0.00     0.059 A 
ATOM     59  C   UNL A   1      42.937  25.540  34.801  1.00  0.00     0.059 A 
ATOM     60  F   UNL A   1      41.592  26.794  36.259  1.00  0.00    -0.206 F 
ATOM     61  C   UNL A   1      43.975  25.496  33.871  1.00  0.00     0.060 A 
BRANCH  61  62
ATOM     62  S   UNL A   1      44.553  23.914  33.220  1.00  0.00     0.124 S 
ATOM     63  O   UNL A   1      44.370  24.103  31.783  1.00  0.00    -0.237 OA
ATOM     64  O   UNL A   1      45.935  23.878  33.686  1.00  0.00    -0.237 OA
ATOM     65  O   UNL A   1      43.662  22.944  33.846  1.00  0.00    -0.744 OA
ENDBRANCH  61  62
ENDBRANCH  29  54
BRANCH  41  66
ATOM     66  C   UNL A   1      45.763  31.195  40.629  1.00  0.00     0.058 A 
ATOM     67  C   UNL A   1      45.536  30.384  41.752  1.00  0.00     0.135 A 
ATOM     68  C   UNL A   1      47.078  31.611  40.370  1.00  0.00     0.135 A 
ATOM     69  F   UNL A   1      44.293  29.976  42.051  1.00  0.00    -0.206 F 
ATOM     70  C   UNL A   1      46.578  29.990  42.582  1.00  0.00     0.059 A 
ATOM     71  C   UNL A   1      48.139  31.210  41.174  1.00  0.00     0.059 A 
ATOM     72  F   UNL A   1      47.343  32.388  39.307  1.00  0.00    -0.206 F 
ATOM     73  C   UNL A   1      47.878  30.397  42.277  1.00  0.00     0.060 A 
BRANCH  73  74
ATOM     74  S   UNL A   1      49.229  29.806  43.319  1.00  0.00     0.124 S 
ATOM     75  O   UNL A   1      49.918  31.051  43.644  1.00  0.00    -0.237 OA
ATOM     76  O   UNL A   1      48.513  29.171  44.421  1.00  0.00    -0.237 OA
ATOM     77  O   UNL A   1      49.959  28.893  42.445  1.00  0.00    -0.744 OA
ENDBRANCH  73  74
ENDBRANCH  41  66
ENDBRANCH  15  16
ENDBRANCH   8  10
ENDBRANCH   7   8
ENDBRANCH   6   7
ENDBRANCH   5   6
ENDBRANCH   4   5
ENDBRANCH   3   4
ENDBRANCH   2   3
ENDBRANCH   1   2
BRANCH   1  78
ATOM     78  C   UNL A   1      33.031  28.548  24.928  1.00  0.00     0.188 C 
BRANCH  78  79
ATOM     79  C   UNL A   1      32.161  27.752  25.905  1.00  0.00     0.188 C 
BRANCH  79  80
ATOM     80  O   UNL A   1      31.336  26.727  25.372  1.00  0.00    -0.376 OA
BRANCH  80  81
ATOM     81  C   UNL A   1      31.225  25.482  26.070  1.00  0.00     0.202 C 
BRANCH  81  82
ATOM     82  C   UNL A   1      32.349  25.034  27.020  1.00  0.00     0.261 C 
BRANCH  82  83
ATOM     83  O   UNL A   1      33.445  24.378  26.328  1.00  0.00    -0.463 OA
BRANCH  83  84
ATOM     84  C   UNL A   1      33.799  23.151  26.772  1.00  0.00     0.311 C 
ATOM     85  O   UNL A   1      34.373  22.936  27.840  1.00  0.00    -0.252 OA
BRANCH  84  86
ATOM     86  C   UNL A   1      33.434  21.990  25.853  1.00  0.00     0.130 C 
ATOM     87  C   UNL A   1      31.978  21.884  25.324  1.00  0.00     0.006 C 
ATOM     88  C   UNL A   1      34.441  21.770  24.691  1.00  0.00     0.081 C 
ATOM     89  C   UNL A   1      31.708  22.848  24.158  1.00  0.00     0.008 C 
ATOM     90  C   UNL A   1      31.744  20.448  24.809  1.00  0.00     0.008 C 
ATOM     91  C   UNL A   1      34.156  20.312  24.163  1.00  0.00     0.035 C 
ATOM     92  C   UNL A   1      34.121  22.739  23.516  1.00  0.00     0.035 C 
ATOM     93  C   UNL A   1      32.682  22.561  23.007  1.00  0.00    -0.008 C 
ATOM     94  C   UNL A   1      32.717  20.143  23.664  1.00  0.00    -0.008 C 
ATOM     95  C   UNL A   1      32.481  21.123  22.512  1.00  0.00     0.007 C 
BRANCH  88  96
ATOM     96  N   UNL A   1      35.871  21.878  25.131  1.00  0.00    -0.222 N 
ATOM     97  N   UNL A   1      36.291  23.145  25.469  1.00  0.00    -0.175 NA
ATOM     98  C   UNL A   1      36.731  20.771  25.167  1.00  0.00     0.288 A 
ATOM     99  C   UNL A   1      37.508  23.287  25.864  1.00  0.00     0.161 A 
ATOM    100  C   UNL A   1      38.153  21.038  25.523  1.00  0.00     0.132 A 
ATOM    101  O   UNL A   1      36.361  19.616  24.965  1.00  0.00    -0.266 OA
ATOM    102  C   UNL A   1      38.543  22.238  25.969  1.00  0.00     0.082 A 
ATOM    103  Cl  UNL A   1      39.213  19.672  25.515  1.00  0.00    -0.076 Cl
BRANCH 102 104
ATOM    104  N   UNL A   1      39.737  22.626  26.564  1.00  0.00    -0.365 N 
ATOM    105  C   UNL A   1      40.871  21.678  26.622  1.00  0.00     0.138 C 
ATOM    106  C   UNL A   1      40.085  24.026  26.890  1.00  0.00     0.138 C 
ATOM    107  C   UNL A   1      42.042  22.167  25.742  1.00  0.00     0.138 C 
ATOM    108  C   UNL A   1      41.330  24.523  26.121  1.00  0.00     0.138 C 
ATOM    109  N   UNL A   1      42.410  23.526  26.149  1.00  0.00    -0.368 N 
BRANCH 109 110
ATOM    110  C   UNL A   1      43.649  23.800  26.670  1.00  0.00     0.037 A 
ATOM    111  C   UNL A   1      44.005  23.384  27.961  1.00  0.00     0.029 A 
ATOM    112  C   UNL A   1      44.594  24.514  25.922  1.00  0.00     0.029 A 
ATOM    113  C   UNL A   1      45.263  23.678  28.491  1.00  0.00     0.041 A 
ATOM    114  C   UNL A   1      45.847  24.829  26.452  1.00  0.00     0.041 A 
ATOM    115  C   UNL A   1      46.169  24.406  27.733  1.00  0.00     0.123 A 
ATOM    116  F   UNL A   1      47.371  24.704  28.246  1.00  0.00    -0.207 F 
ENDBRANCH 109 110
ENDBRANCH 102 104
ENDBRANCH  88  96
ENDBRANCH  84  86
ENDBRANCH  83  84
ENDBRANCH  82  83
ENDBRANCH  81  82
ENDBRANCH  80  81
ENDBRANCH  79  80
ENDBRANCH  78  79
ENDBRANCH   1  78
TORSDOF 26
ENDMDL
MODEL 2
REMARK VINA RESULT:      -9.2      5.859     11.887
REMARK SMILES O=C(OCCOCCOCCOCCOC(=O)[C@H]1[C@@H]2C[C@H]3C[C@@H](C2)C[C@]1(n1ncc(N2CCN(c4ccc(F)cc4)CC2)c(Cl)c1=O)C3)c1ccc(-c2c3nc(c(-c4c(F)cc(S(=O)(=O)[O-])cc4F)c4ccc([nH]4)c(-c4c(F)cc(S(=O)(=O)[O-])cc4F)c4nc(c(-c5c(F)cc(S(=O)(=O)[O-])cc5F)c5ccc2[nH]5)C=C4)C=C3)cc1
REMARK SMILES IDX 9 1 8 2 7 3 6 4 5 5 4 6 3 7 2 8 1 9 49 10 50 11 114 12 51 13
REMARK SMILES IDX 113 14 52 15 53 16 54 17 107 18 55 19 112 20 106 21 108 22
REMARK SMILES IDX 56 23 111 24 105 25 104 26 57 28 91 29 70 30 90 31 71 32
REMARK SMILES IDX 74 33 89 34 109 35 72 36 73 37 88 39 110 40 75 41 58 42
REMARK SMILES IDX 59 43 68 44 60 45 61 46 67 47 69 48 62 49 63 50 64 51 65 52
REMARK SMILES IDX 66 53 92 54 93 55 102 56 94 57 95 58 101 59 103 60 96 61
REMARK SMILES IDX 97 62 98 63 99 64 100 65 76 66 77 67 86 68 78 69 79 70 85 71
REMARK SMILES IDX 87 72 80 73 81 74 82 75 83 76 84 77 10 78 11 79 12 80 13 81
REMARK SMILES IDX 14 82 15 83 16 84 17 85 18 86 19 87 26 88 24 89 20 90 48 91
REMARK SMILES IDX 25 92 23 93 21 94 22 95 27 96 28 97 46 98 29 99 44 100
REMARK SMILES IDX 47 101 30 102 45 103 31 104 32 105 43 106 33 107 42 108
REMARK SMILES IDX 34 109 35 110 36 111 41 112 37 113 40 114 38 115 39 116
REMARK H PARENT 108 27 74 38
REMARK Flexibility Score: inf
ROOT
ATOM      1  O   UNL A   1      43.694  23.206  28.010  1.00  0.00    -0.377 OA
ENDROOT
BRANCH   1   2
ATOM      2  C   UNL A   1      45.073  22.998  27.764  1.00  0.00     0.188 C 
BRANCH   2   3
ATOM      3  C   UNL A   1      45.479  22.834  26.303  1.00  0.00     0.188 C 
BRANCH   3   4
ATOM      4  O   UNL A   1      46.826  23.219  26.006  1.00  0.00    -0.376 OA
BRANCH   4   5
ATOM      5  C   UNL A   1      47.273  24.467  26.517  1.00  0.00     0.202 C 
BRANCH   5   6
ATOM      6  C   UNL A   1      46.633  25.678  25.860  1.00  0.00     0.261 C 
BRANCH   6   7
ATOM      7  O   UNL A   1      45.781  26.399  26.756  1.00  0.00    -0.460 OA
BRANCH   7   8
ATOM      8  C   UNL A   1      44.437  26.545  26.628  1.00  0.00     0.338 C 
ATOM      9  O   UNL A   1      43.912  26.237  25.560  1.00  0.00    -0.246 OA
BRANCH   8  10
ATOM     10  C   UNL A   1      43.613  27.291  27.635  1.00  0.00     0.060 A 
ATOM     11  C   UNL A   1      43.474  26.678  28.894  1.00  0.00     0.016 A 
ATOM     12  C   UNL A   1      42.999  28.533  27.437  1.00  0.00     0.016 A 
ATOM     13  C   UNL A   1      42.763  27.298  29.927  1.00  0.00     0.010 A 
ATOM     14  C   UNL A   1      42.237  29.130  28.443  1.00  0.00     0.010 A 
ATOM     15  C   UNL A   1      42.160  28.540  29.707  1.00  0.00    -0.014 A 
BRANCH  15  16
ATOM     16  C   UNL A   1      41.750  29.384  30.847  1.00  0.00     0.031 A 
ATOM     17  C   UNL A   1      40.571  30.297  30.792  1.00  0.00     0.074 A 
ATOM     18  C   UNL A   1      42.551  29.335  31.930  1.00  0.00     0.049 A 
ATOM     19  N   UNL A   1      40.042  30.994  31.763  1.00  0.00    -0.248 NA
ATOM     20  C   UNL A   1      39.908  30.465  29.492  1.00  0.00     0.031 C 
ATOM     21  C   UNL A   1      43.771  28.522  32.024  1.00  0.00     0.029 A 
ATOM     22  N   UNL A   1      42.484  29.973  33.136  1.00  0.00    -0.354 N 
ATOM     23  C   UNL A   1      38.958  31.660  31.208  1.00  0.00     0.074 A 
ATOM     24  C   UNL A   1      38.940  31.323  29.797  1.00  0.00     0.031 C 
ATOM     25  C   UNL A   1      44.336  28.713  33.222  1.00  0.00     0.029 A 
ATOM     26  C   UNL A   1      43.514  29.643  33.984  1.00  0.00     0.049 A 
ATOM     27  H   UNL A   1      41.770  30.607  33.375  1.00  0.00     0.167 HD
ATOM     28  C   UNL A   1      38.063  32.459  31.838  1.00  0.00     0.037 A 
ATOM     29  C   UNL A   1      43.757  30.025  35.250  1.00  0.00     0.037 A 
ATOM     30  C   UNL A   1      38.150  32.798  33.239  1.00  0.00     0.049 A 
ATOM     31  C   UNL A   1      42.754  30.907  35.926  1.00  0.00     0.074 A 
ATOM     32  C   UNL A   1      37.261  33.528  34.008  1.00  0.00     0.029 A 
ATOM     33  N   UNL A   1      39.207  32.452  34.075  1.00  0.00    -0.354 N 
ATOM     34  N   UNL A   1      41.645  31.406  35.434  1.00  0.00    -0.248 NA
ATOM     35  C   UNL A   1      43.016  31.266  37.323  1.00  0.00     0.031 C 
ATOM     36  C   UNL A   1      37.805  33.668  35.290  1.00  0.00     0.029 A 
ATOM     37  C   UNL A   1      39.014  32.989  35.337  1.00  0.00     0.049 A 
ATOM     38  H   UNL A   1      39.980  31.904  33.807  1.00  0.00     0.167 HD
ATOM     39  C   UNL A   1      41.068  32.136  36.462  1.00  0.00     0.074 A 
ATOM     40  C   UNL A   1      41.946  31.997  37.610  1.00  0.00     0.031 C 
ATOM     41  C   UNL A   1      39.920  32.856  36.454  1.00  0.00     0.037 A 
BRANCH  28  42
ATOM     42  C   UNL A   1      36.913  33.006  31.034  1.00  0.00     0.058 A 
ATOM     43  C   UNL A   1      35.627  32.446  31.124  1.00  0.00     0.135 A 
ATOM     44  C   UNL A   1      37.069  34.140  30.219  1.00  0.00     0.135 A 
ATOM     45  F   UNL A   1      35.414  31.362  31.889  1.00  0.00    -0.206 F 
ATOM     46  C   UNL A   1      34.549  32.969  30.416  1.00  0.00     0.059 A 
ATOM     47  C   UNL A   1      35.998  34.696  29.520  1.00  0.00     0.059 A 
ATOM     48  F   UNL A   1      38.270  34.725  30.099  1.00  0.00    -0.206 F 
ATOM     49  C   UNL A   1      34.744  34.096  29.616  1.00  0.00     0.060 A 
BRANCH  49  50
ATOM     50  S   UNL A   1      33.330  34.763  28.711  1.00  0.00     0.124 S 
ATOM     51  O   UNL A   1      33.909  35.953  28.097  1.00  0.00    -0.237 OA
ATOM     52  O   UNL A   1      33.004  33.673  27.796  1.00  0.00    -0.237 OA
ATOM     53  O   UNL A   1      32.342  35.015  29.755  1.00  0.00    -0.744 OA
ENDBRANCH  49  50
ENDBRANCH  28  42
BRANCH  29  54
ATOM     54  C   UNL A   1      44.948  29.478  35.944  1.00  0.00     0.058 A 
ATOM     55  C   UNL A   1      46.168  30.168  35.916  1.00  0.00     0.135 A 
ATOM     56  C   UNL A   1      44.855  28.342  36.764  1.00  0.00     0.135 A 
ATOM     57  F   UNL A   1      46.299  31.266  35.155  1.00  0.00    -0.206 F 
ATOM     58  C   UNL A   1      47.251  29.762  36.688  1.00  0.00     0.059 A 
ATOM     59  C   UNL A   1      45.919  27.926  37.558  1.00  0.00     0.059 A 
ATOM     60  F   UNL A   1      43.698  27.667  36.848  1.00  0.00    -0.206 F 
ATOM     61  C   UNL A   1      47.112  28.647  37.517  1.00  0.00     0.060 A 
BRANCH  61  62
ATOM     62  S   UNL A   1      48.491  28.196  38.592  1.00  0.00     0.124 S 
ATOM     63  O   UNL A   1      49.637  28.451  37.723  1.00  0.00    -0.237 OA
ATOM     64  O   UNL A   1      48.322  29.119  39.709  1.00  0.00    -0.237 OA
ATOM     65  O   UNL A   1      48.235  26.794  38.901  1.00  0.00    -0.744 OA
ENDBRANCH  61  62
ENDBRANCH  29  54
BRANCH  41  66
ATOM     66  C   UNL A   1      39.567  33.587  37.717  1.00  0.00     0.058 A 
ATOM     67  C   UNL A   1      38.704  33.014  38.664  1.00  0.00     0.135 A 
ATOM     68  C   UNL A   1      40.161  34.821  38.026  1.00  0.00     0.135 A 
ATOM     69  F   UNL A   1      38.099  31.844  38.406  1.00  0.00    -0.206 F 
ATOM     70  C   UNL A   1      38.449  33.636  39.880  1.00  0.00     0.059 A 
ATOM     71  C   UNL A   1      39.937  35.449  39.246  1.00  0.00     0.059 A 
ATOM     72  F   UNL A   1      40.994  35.408  37.150  1.00  0.00    -0.206 F 
ATOM     73  C   UNL A   1      39.080  34.847  40.167  1.00  0.00     0.060 A 
BRANCH  73  74
ATOM     74  S   UNL A   1      38.801  35.597  41.785  1.00  0.00     0.124 S 
ATOM     75  O   UNL A   1      39.864  34.989  42.580  1.00  0.00    -0.237 OA
ATOM     76  O   UNL A   1      38.960  37.019  41.497  1.00  0.00    -0.237 OA
ATOM     77  O   UNL A   1      37.445  35.180  42.125  1.00  0.00    -0.744 OA
ENDBRANCH  73  74
ENDBRANCH  41  66
ENDBRANCH  15  16
ENDBRANCH   8  10
ENDBRANCH   7   8
ENDBRANCH   6   7
ENDBRANCH   5   6
ENDBRANCH   4   5
ENDBRANCH   3   4
ENDBRANCH   2   3
ENDBRANCH   1   2
BRANCH   1  78
ATOM     78  C   UNL A   1      43.211  23.082  29.336  1.00  0.00     0.188 C 
BRANCH  78  79
ATOM     79  C   UNL A   1      44.243  23.457  30.405  1.00  0.00     0.188 C 
BRANCH  79  80
ATOM     80  O   UNL A   1      43.834  23.411  31.763  1.00  0.00    -0.376 OA
BRANCH  80  81
ATOM     81  C   UNL A   1      44.772  23.750  32.790  1.00  0.00     0.202 C 
BRANCH  81  82
ATOM     82  C   UNL A   1      45.655  25.001  32.637  1.00  0.00     0.261 C 
BRANCH  82  83
ATOM     83  O   UNL A   1      46.996  24.813  33.160  1.00  0.00    -0.463 OA
BRANCH  83  84
ATOM     84  C   UNL A   1      47.519  25.833  33.878  1.00  0.00     0.311 C 
ATOM     85  O   UNL A   1      46.863  26.763  34.347  1.00  0.00    -0.252 OA
BRANCH  84  86
ATOM     86  C   UNL A   1      49.028  25.776  34.097  1.00  0.00     0.130 C 
ATOM     87  C   UNL A   1      49.664  24.442  34.575  1.00  0.00     0.006 C 
ATOM     88  C   UNL A   1      49.855  26.369  32.923  1.00  0.00     0.081 C 
ATOM     89  C   UNL A   1      49.825  23.428  33.432  1.00  0.00     0.008 C 
ATOM     90  C   UNL A   1      51.069  24.742  35.139  1.00  0.00     0.008 C 
ATOM     91  C   UNL A   1      51.291  26.632  33.518  1.00  0.00     0.035 C 
ATOM     92  C   UNL A   1      50.025  25.309  31.799  1.00  0.00     0.035 C 
ATOM     93  C   UNL A   1      50.696  24.028  32.320  1.00  0.00    -0.008 C 
ATOM     94  C   UNL A   1      51.949  25.350  34.041  1.00  0.00    -0.008 C 
ATOM     95  C   UNL A   1      52.085  24.361  32.880  1.00  0.00     0.007 C 
BRANCH  88  96
ATOM     96  N   UNL A   1      49.282  27.653  32.399  1.00  0.00    -0.222 N 
ATOM     97  N   UNL A   1      48.724  27.583  31.143  1.00  0.00    -0.175 NA
ATOM     98  C   UNL A   1      49.338  28.852  33.124  1.00  0.00     0.288 A 
ATOM     99  C   UNL A   1      48.209  28.656  30.654  1.00  0.00     0.161 A 
ATOM    100  C   UNL A   1      48.827  30.074  32.443  1.00  0.00     0.132 A 
ATOM    101  O   UNL A   1      49.742  28.927  34.284  1.00  0.00    -0.266 OA
ATOM    102  C   UNL A   1      48.175  29.996  31.277  1.00  0.00     0.082 A 
ATOM    103  Cl  UNL A   1      48.948  31.553  33.330  1.00  0.00    -0.076 Cl
BRANCH 102 104
ATOM    104  N   UNL A   1      47.428  30.954  30.603  1.00  0.00    -0.365 N 
ATOM    105  C   UNL A   1      47.918  31.494  29.315  1.00  0.00     0.138 C 
ATOM    106  C   UNL A   1      46.018  31.276  30.910  1.00  0.00     0.138 C 
ATOM    107  C   UNL A   1      46.996  31.067  28.153  1.00  0.00     0.138 C 
ATOM    108  C   UNL A   1      45.069  30.979  29.729  1.00  0.00     0.138 C 
ATOM    109  N   UNL A   1      45.622  31.476  28.459  1.00  0.00    -0.368 N 
BRANCH 109 110
ATOM    110  C   UNL A   1      44.962  32.390  27.679  1.00  0.00     0.037 A 
ATOM    111  C   UNL A   1      44.351  33.521  28.239  1.00  0.00     0.029 A 
ATOM    112  C   UNL A   1      44.875  32.212  26.291  1.00  0.00     0.029 A 
ATOM    113  C   UNL A   1      43.669  34.441  27.441  1.00  0.00     0.041 A 
ATOM    114  C   UNL A   1      44.178  33.117  25.488  1.00  0.00     0.041 A 
ATOM    115  C   UNL A   1      43.583  34.225  26.073  1.00  0.00     0.123 A 
ATOM    116  F   UNL A   1      42.914  35.098  25.307  1.00  0.00    -0.207 F 
ENDBRANCH 109 110
ENDBRANCH 102 104
ENDBRANCH  88  96
ENDBRANCH  84  86
ENDBRANCH  83  84
ENDBRANCH  82  83
ENDBRANCH  81  82
ENDBRANCH  80  81
ENDBRANCH  79  80
ENDBRANCH  78  79
ENDBRANCH   1  78
TORSDOF 26
ENDMDL
MODEL 3
REMARK VINA RESULT:      -9.2      0.859      7.494
REMARK SMILES O=C(OCCOCCOCCOCCOC(=O)[C@H]1[C@@H]2C[C@H]3C[C@@H](C2)C[C@]1(n1ncc(N2CCN(c4ccc(F)cc4)CC2)c(Cl)c1=O)C3)c1ccc(-c2c3nc(c(-c4c(F)cc(S(=O)(=O)[O-])cc4F)c4ccc([nH]4)c(-c4c(F)cc(S(=O)(=O)[O-])cc4F)c4nc(c(-c5c(F)cc(S(=O)(=O)[O-])cc5F)c5ccc2[nH]5)C=C4)C=C3)cc1
REMARK SMILES IDX 9 1 8 2 7 3 6 4 5 5 4 6 3 7 2 8 1 9 49 10 50 11 114 12 51 13
REMARK SMILES IDX 113 14 52 15 53 16 54 17 107 18 55 19 112 20 106 21 108 22
REMARK SMILES IDX 56 23 111 24 105 25 104 26 57 28 91 29 70 30 90 31 71 32
REMARK SMILES IDX 74 33 89 34 109 35 72 36 73 37 88 39 110 40 75 41 58 42
REMARK SMILES IDX 59 43 68 44 60 45 61 46 67 47 69 48 62 49 63 50 64 51 65 52
REMARK SMILES IDX 66 53 92 54 93 55 102 56 94 57 95 58 101 59 103 60 96 61
REMARK SMILES IDX 97 62 98 63 99 64 100 65 76 66 77 67 86 68 78 69 79 70 85 71
REMARK SMILES IDX 87 72 80 73 81 74 82 75 83 76 84 77 10 78 11 79 12 80 13 81
REMARK SMILES IDX 14 82 15 83 16 84 17 85 18 86 19 87 26 88 24 89 20 90 48 91
REMARK SMILES IDX 25 92 23 93 21 94 22 95 27 96 28 97 46 98 29 99 44 100
REMARK SMILES IDX 47 101 30 102 45 103 31 104 32 105 43 106 33 107 42 108
REMARK SMILES IDX 34 109 35 110 36 111 41 112 37 113 40 114 38 115 39 116
REMARK H PARENT 108 27 74 38
REMARK Flexibility Score: inf
ROOT
ATOM      1  O   UNL A   1      32.168  30.390  25.688  1.00  0.00    -0.377 OA
ENDROOT
BRANCH   1   2
ATOM      2  C   UNL A   1      33.099  30.167  26.732  1.00  0.00     0.188 C 
BRANCH   2   3
ATOM      3  C   UNL A   1      33.519  31.395  27.532  1.00  0.00     0.188 C 
BRANCH   3   4
ATOM      4  O   UNL A   1      34.923  31.675  27.511  1.00  0.00    -0.376 OA
BRANCH   4   5
ATOM      5  C   UNL A   1      35.336  32.964  27.946  1.00  0.00     0.202 C 
BRANCH   5   6
ATOM      6  C   UNL A   1      36.541  32.957  28.870  1.00  0.00     0.261 C 
BRANCH   6   7
ATOM      7  O   UNL A   1      36.418  31.994  29.921  1.00  0.00    -0.460 OA
BRANCH   7   8
ATOM      8  C   UNL A   1      36.052  32.259  31.201  1.00  0.00     0.338 C 
ATOM      9  O   UNL A   1      34.878  32.542  31.430  1.00  0.00    -0.246 OA
BRANCH   8  10
ATOM     10  C   UNL A   1      37.057  32.464  32.296  1.00  0.00     0.060 A 
ATOM     11  C   UNL A   1      36.708  31.948  33.558  1.00  0.00     0.016 A 
ATOM     12  C   UNL A   1      38.299  33.096  32.165  1.00  0.00     0.016 A 
ATOM     13  C   UNL A   1      37.582  32.043  34.646  1.00  0.00     0.010 A 
ATOM     14  C   UNL A   1      39.152  33.247  33.259  1.00  0.00     0.010 A 
ATOM     15  C   UNL A   1      38.820  32.675  34.489  1.00  0.00    -0.014 A 
BRANCH  15  16
ATOM     16  C   UNL A   1      39.900  32.455  35.472  1.00  0.00     0.031 A 
ATOM     17  C   UNL A   1      40.730  31.214  35.492  1.00  0.00     0.074 A 
ATOM     18  C   UNL A   1      40.049  33.417  36.404  1.00  0.00     0.049 A 
ATOM     19  N   UNL A   1      41.781  30.958  36.226  1.00  0.00    -0.248 NA
ATOM     20  C   UNL A   1      40.331  30.121  34.596  1.00  0.00     0.031 C 
ATOM     21  C   UNL A   1      39.217  34.623  36.493  1.00  0.00     0.029 A 
ATOM     22  N   UNL A   1      40.922  33.538  37.448  1.00  0.00    -0.354 N 
ATOM     23  C   UNL A   1      42.200  29.686  35.858  1.00  0.00     0.074 A 
ATOM     24  C   UNL A   1      41.252  29.202  34.873  1.00  0.00     0.031 C 
ATOM     25  C   UNL A   1      39.619  35.359  37.536  1.00  0.00     0.029 A 
ATOM     26  C   UNL A   1      40.744  34.690  38.175  1.00  0.00     0.049 A 
ATOM     27  H   UNL A   1      41.611  32.867  37.660  1.00  0.00     0.167 HD
ATOM     28  C   UNL A   1      43.288  29.010  36.301  1.00  0.00     0.037 A 
ATOM     29  C   UNL A   1      41.429  35.173  39.226  1.00  0.00     0.037 A 
ATOM     30  C   UNL A   1      44.180  29.520  37.317  1.00  0.00     0.049 A 
ATOM     31  C   UNL A   1      42.628  34.410  39.697  1.00  0.00     0.074 A 
ATOM     32  C   UNL A   1      45.357  28.967  37.789  1.00  0.00     0.029 A 
ATOM     33  N   UNL A   1      43.973  30.690  38.040  1.00  0.00    -0.354 N 
ATOM     34  N   UNL A   1      43.107  33.279  39.236  1.00  0.00    -0.248 NA
ATOM     35  C   UNL A   1      43.388  34.985  40.811  1.00  0.00     0.031 C 
ATOM     36  C   UNL A   1      45.832  29.773  38.831  1.00  0.00     0.029 A 
ATOM     37  C   UNL A   1      44.976  30.854  38.982  1.00  0.00     0.049 A 
ATOM     38  H   UNL A   1      43.222  31.312  37.901  1.00  0.00     0.167 HD
ATOM     39  C   UNL A   1      44.233  33.005  39.999  1.00  0.00     0.074 A 
ATOM     40  C   UNL A   1      44.370  34.101  40.941  1.00  0.00     0.031 C 
ATOM     41  C   UNL A   1      45.071  31.943  39.926  1.00  0.00     0.037 A 
BRANCH  28  42
ATOM     42  C   UNL A   1      43.586  27.667  35.689  1.00  0.00     0.058 A 
ATOM     43  C   UNL A   1      44.431  27.545  34.572  1.00  0.00     0.135 A 
ATOM     44  C   UNL A   1      43.086  26.482  36.255  1.00  0.00     0.135 A 
ATOM     45  F   UNL A   1      44.942  28.641  33.988  1.00  0.00    -0.206 F 
ATOM     46  C   UNL A   1      44.744  26.305  34.023  1.00  0.00     0.059 A 
ATOM     47  C   UNL A   1      43.406  25.228  35.736  1.00  0.00     0.059 A 
ATOM     48  F   UNL A   1      42.282  26.533  37.327  1.00  0.00    -0.206 F 
ATOM     49  C   UNL A   1      44.227  25.150  34.613  1.00  0.00     0.060 A 
BRANCH  49  50
ATOM     50  S   UNL A   1      44.651  23.551  33.888  1.00  0.00     0.124 S 
ATOM     51  O   UNL A   1      44.235  23.737  32.502  1.00  0.00    -0.237 OA
ATOM     52  O   UNL A   1      46.092  23.479  34.112  1.00  0.00    -0.237 OA
ATOM     53  O   UNL A   1      43.853  22.602  34.659  1.00  0.00    -0.744 OA
ENDBRANCH  49  50
ENDBRANCH  28  42
BRANCH  29  54
ATOM     54  C   UNL A   1      41.026  36.479  39.802  1.00  0.00     0.058 A 
ATOM     55  C   UNL A   1      40.119  36.538  40.869  1.00  0.00     0.135 A 
ATOM     56  C   UNL A   1      41.646  37.674  39.399  1.00  0.00     0.135 A 
ATOM     57  F   UNL A   1      39.512  35.420  41.294  1.00  0.00    -0.206 F 
ATOM     58  C   UNL A   1      39.850  37.732  41.529  1.00  0.00     0.059 A 
ATOM     59  C   UNL A   1      41.405  38.877  40.055  1.00  0.00     0.059 A 
ATOM     60  F   UNL A   1      42.545  37.662  38.403  1.00  0.00    -0.206 F 
ATOM     61  C   UNL A   1      40.509  38.895  41.123  1.00  0.00     0.060 A 
BRANCH  61  62
ATOM     62  S   UNL A   1      40.229  40.414  42.058  1.00  0.00     0.124 S 
ATOM     63  O   UNL A   1      39.237  39.978  43.037  1.00  0.00    -0.237 OA
ATOM     64  O   UNL A   1      41.560  40.699  42.583  1.00  0.00    -0.237 OA
ATOM     65  O   UNL A   1      39.748  41.349  41.048  1.00  0.00    -0.744 OA
ENDBRANCH  61  62
ENDBRANCH  29  54
BRANCH  41  66
ATOM     66  C   UNL A   1      46.192  31.892  40.923  1.00  0.00     0.058 A 
ATOM     67  C   UNL A   1      46.039  31.224  42.147  1.00  0.00     0.135 A 
ATOM     68  C   UNL A   1      47.452  32.432  40.618  1.00  0.00     0.135 A 
ATOM     69  F   UNL A   1      44.849  30.707  42.490  1.00  0.00    -0.206 F 
ATOM     70  C   UNL A   1      47.100  31.085  43.033  1.00  0.00     0.059 A 
ATOM     71  C   UNL A   1      48.533  32.285  41.480  1.00  0.00     0.059 A 
ATOM     72  F   UNL A   1      47.646  33.081  39.458  1.00  0.00    -0.206 F 
ATOM     73  C   UNL A   1      48.347  31.607  42.685  1.00  0.00     0.060 A 
BRANCH  73  74
ATOM     74  S   UNL A   1      49.732  31.343  43.811  1.00  0.00     0.124 S 
ATOM     75  O   UNL A   1      49.659  29.903  44.037  1.00  0.00    -0.237 OA
ATOM     76  O   UNL A   1      50.867  31.804  43.017  1.00  0.00    -0.237 OA
ATOM     77  O   UNL A   1      49.400  32.177  44.962  1.00  0.00    -0.744 OA
ENDBRANCH  73  74
ENDBRANCH  41  66
ENDBRANCH  15  16
ENDBRANCH   8  10
ENDBRANCH   7   8
ENDBRANCH   6   7
ENDBRANCH   5   6
ENDBRANCH   4   5
ENDBRANCH   3   4
ENDBRANCH   2   3
ENDBRANCH   1   2
BRANCH   1  78
ATOM     78  C   UNL A   1      31.437  29.289  25.179  1.00  0.00     0.188 C 
BRANCH  78  79
ATOM     79  C   UNL A   1      31.557  28.022  26.032  1.00  0.00     0.188 C 
BRANCH  79  80
ATOM     80  O   UNL A   1      30.914  26.847  25.565  1.00  0.00    -0.376 OA
BRANCH  80  81
ATOM     81  C   UNL A   1      31.305  25.575  26.095  1.00  0.00     0.202 C 
BRANCH  81  82
ATOM     82  C   UNL A   1      32.650  25.433  26.828  1.00  0.00     0.261 C 
BRANCH  82  83
ATOM     83  O   UNL A   1      33.558  24.510  26.170  1.00  0.00    -0.463 OA
BRANCH  83  84
ATOM     84  C   UNL A   1      33.714  23.296  26.743  1.00  0.00     0.311 C 
ATOM     85  O   UNL A   1      34.100  23.116  27.899  1.00  0.00    -0.252 OA
BRANCH  84  86
ATOM     86  C   UNL A   1      33.371  22.103  25.857  1.00  0.00     0.130 C 
ATOM     87  C   UNL A   1      31.921  21.963  25.319  1.00  0.00     0.006 C 
ATOM     88  C   UNL A   1      34.391  21.860  24.710  1.00  0.00     0.081 C 
ATOM     89  C   UNL A   1      31.651  22.888  24.122  1.00  0.00     0.008 C 
ATOM     90  C   UNL A   1      31.709  20.509  24.847  1.00  0.00     0.008 C 
ATOM     91  C   UNL A   1      34.128  20.383  24.226  1.00  0.00     0.035 C 
ATOM     92  C   UNL A   1      34.070  22.787  23.504  1.00  0.00     0.035 C 
ATOM     93  C   UNL A   1      32.638  22.577  22.988  1.00  0.00    -0.008 C 
ATOM     94  C   UNL A   1      32.695  20.181  23.720  1.00  0.00    -0.008 C 
ATOM     95  C   UNL A   1      32.458  21.123  22.536  1.00  0.00     0.007 C 
BRANCH  88  96
ATOM     96  N   UNL A   1      35.816  21.998  25.159  1.00  0.00    -0.222 N 
ATOM     97  N   UNL A   1      36.205  23.272  25.507  1.00  0.00    -0.175 NA
ATOM     98  C   UNL A   1      36.702  20.912  25.194  1.00  0.00     0.288 A 
ATOM     99  C   UNL A   1      37.416  23.440  25.910  1.00  0.00     0.161 A 
ATOM    100  C   UNL A   1      38.115  21.209  25.559  1.00  0.00     0.132 A 
ATOM    101  O   UNL A   1      36.360  19.749  24.983  1.00  0.00    -0.266 OA
ATOM    102  C   UNL A   1      38.475  22.415  26.014  1.00  0.00     0.082 A 
ATOM    103  Cl  UNL A   1      39.207  19.868  25.548  1.00  0.00    -0.076 Cl
BRANCH 102 104
ATOM    104  N   UNL A   1      39.655  22.828  26.618  1.00  0.00    -0.365 N 
ATOM    105  C   UNL A   1      40.810  21.905  26.680  1.00  0.00     0.138 C 
ATOM    106  C   UNL A   1      39.971  24.234  26.950  1.00  0.00     0.138 C 
ATOM    107  C   UNL A   1      41.975  22.422  25.809  1.00  0.00     0.138 C 
ATOM    108  C   UNL A   1      41.209  24.760  26.191  1.00  0.00     0.138 C 
ATOM    109  N   UNL A   1      42.311  23.787  26.223  1.00  0.00    -0.368 N 
BRANCH 109 110
ATOM    110  C   UNL A   1      43.540  24.086  26.753  1.00  0.00     0.037 A 
ATOM    111  C   UNL A   1      44.228  25.251  26.385  1.00  0.00     0.029 A 
ATOM    112  C   UNL A   1      44.146  23.225  27.678  1.00  0.00     0.029 A 
ATOM    113  C   UNL A   1      45.485  25.543  26.917  1.00  0.00     0.041 A 
ATOM    114  C   UNL A   1      45.412  23.500  28.200  1.00  0.00     0.041 A 
ATOM    115  C   UNL A   1      46.068  24.660  27.815  1.00  0.00     0.123 A 
ATOM    116  F   UNL A   1      47.282  24.930  28.314  1.00  0.00    -0.207 F 
ENDBRANCH 109 110
ENDBRANCH 102 104
ENDBRANCH  88  96
ENDBRANCH  84  86
ENDBRANCH  83  84
ENDBRANCH  82  83
ENDBRANCH  81  82
ENDBRANCH  80  81
ENDBRANCH  79  80
ENDBRANCH  78  79
ENDBRANCH   1  78
TORSDOF 26
ENDMDL
