MODEL 1
REMARK VINA RESULT:     -10.7      0.000      0.000
REMARK SMILES O=C(OCCOCCOCCOCCOC(=O)[C@]1(NC(=O)C2CCN(C(=O)C3CC3)CC2)CCCc2ccccc21)c1ccc(-c2c3nc(c(-c4c(F)cc(S(=O)(=O)[O-])cc4F)c4ccc([nH]4)c(-c4c(F)cc(S(=O)(=O)[O-])cc4F)c4nc(c(-c5c(F)cc(S(=O)(=O)[O-])cc5F)c5ccc2[nH]5)C=C4)C=C3)cc1
REMARK SMILES IDX 9 1 8 2 7 3 6 4 5 5 4 6 3 7 2 8 1 9 42 10 43 11 107 12 44 13
REMARK SMILES IDX 106 14 45 15 46 16 47 17 100 18 48 19 105 20 99 21 101 22
REMARK SMILES IDX 49 23 104 24 98 25 97 26 50 28 84 29 63 30 83 31 64 32 67 33
REMARK SMILES IDX 82 34 102 35 65 36 66 37 81 39 103 40 68 41 51 42 52 43
REMARK SMILES IDX 61 44 53 45 54 46 60 47 62 48 55 49 56 50 57 51 58 52 59 53
REMARK SMILES IDX 85 54 86 55 95 56 87 57 88 58 94 59 96 60 89 61 90 62 91 63
REMARK SMILES IDX 92 64 93 65 69 66 70 67 79 68 71 69 72 70 78 71 80 72 73 73
REMARK SMILES IDX 74 74 75 75 76 76 77 77 10 78 11 79 12 80 13 81 14 82 15 83
REMARK SMILES IDX 16 84 17 85 18 86 33 87 41 88 34 89 36 90 40 91 35 92 37 93
REMARK SMILES IDX 39 94 38 95 19 96 20 97 21 99 22 100 23 101 32 102 24 103
REMARK SMILES IDX 31 104 25 105 26 106 27 107 28 108 29 109 30 110
REMARK H PARENT 101 27 67 38 19 98
REMARK Flexibility Score: inf
ROOT
ATOM      1  O   UNL A   1      41.297  21.316  25.764  1.00  0.00    -0.377 OA
ENDROOT
BRANCH   1   2
ATOM      2  C   UNL A   1      42.401  21.759  26.533  1.00  0.00     0.188 C 
BRANCH   2   3
ATOM      3  C   UNL A   1      43.769  21.363  25.972  1.00  0.00     0.188 C 
BRANCH   3   4
ATOM      4  O   UNL A   1      43.881  21.723  24.590  1.00  0.00    -0.376 OA
BRANCH   4   5
ATOM      5  C   UNL A   1      43.870  23.117  24.273  1.00  0.00     0.202 C 
BRANCH   5   6
ATOM      6  C   UNL A   1      44.815  23.973  25.113  1.00  0.00     0.261 C 
BRANCH   6   7
ATOM      7  O   UNL A   1      44.119  24.863  25.987  1.00  0.00    -0.460 OA
BRANCH   7   8
ATOM      8  C   UNL A   1      44.491  25.263  27.230  1.00  0.00     0.338 C 
ATOM      9  O   UNL A   1      45.461  24.696  27.735  1.00  0.00    -0.246 OA
BRANCH   8  10
ATOM     10  C   UNL A   1      43.781  26.301  28.056  1.00  0.00     0.060 A 
ATOM     11  C   UNL A   1      44.080  27.666  28.117  1.00  0.00     0.016 A 
ATOM     12  C   UNL A   1      42.681  25.848  28.810  1.00  0.00     0.016 A 
ATOM     13  C   UNL A   1      43.356  28.548  28.894  1.00  0.00     0.010 A 
ATOM     14  C   UNL A   1      41.965  26.718  29.635  1.00  0.00     0.010 A 
ATOM     15  C   UNL A   1      42.337  28.062  29.698  1.00  0.00    -0.014 A 
BRANCH  15  16
ATOM     16  C   UNL A   1      41.929  28.934  30.803  1.00  0.00     0.031 A 
ATOM     17  C   UNL A   1      42.839  28.968  31.994  1.00  0.00     0.074 A 
ATOM     18  C   UNL A   1      40.921  29.804  30.633  1.00  0.00     0.049 A 
ATOM     19  N   UNL A   1      42.697  29.587  33.128  1.00  0.00    -0.248 NA
ATOM     20  C   UNL A   1      44.103  28.211  31.875  1.00  0.00     0.031 C 
ATOM     21  C   UNL A   1      40.142  29.965  29.403  1.00  0.00     0.029 A 
ATOM     22  N   UNL A   1      40.402  30.737  31.485  1.00  0.00    -0.354 N 
ATOM     23  C   UNL A   1      43.826  29.262  33.871  1.00  0.00     0.074 A 
ATOM     24  C   UNL A   1      44.652  28.401  33.063  1.00  0.00     0.031 C 
ATOM     25  C   UNL A   1      39.232  30.936  29.587  1.00  0.00     0.029 A 
ATOM     26  C   UNL A   1      39.319  31.403  30.965  1.00  0.00     0.049 A 
ATOM     27  H   UNL A   1      40.767  30.914  32.381  1.00  0.00     0.167 HD
ATOM     28  C   UNL A   1      44.123  29.650  35.130  1.00  0.00     0.037 A 
ATOM     29  C   UNL A   1      38.468  32.245  31.578  1.00  0.00     0.037 A 
ATOM     30  C   UNL A   1      43.253  30.504  35.887  1.00  0.00     0.049 A 
ATOM     31  C   UNL A   1      38.731  32.545  33.031  1.00  0.00     0.074 A 
ATOM     32  C   UNL A   1      43.359  30.907  37.202  1.00  0.00     0.029 A 
ATOM     33  N   UNL A   1      42.099  31.088  35.372  1.00  0.00    -0.354 N 
ATOM     34  N   UNL A   1      39.734  32.146  33.784  1.00  0.00    -0.248 NA
ATOM     35  C   UNL A   1      37.751  33.383  33.726  1.00  0.00     0.031 C 
ATOM     36  C   UNL A   1      42.237  31.690  37.497  1.00  0.00     0.029 A 
ATOM     37  C   UNL A   1      41.468  31.831  36.348  1.00  0.00     0.049 A 
ATOM     38  H   UNL A   1      41.779  30.985  34.447  1.00  0.00     0.167 HD
ATOM     39  C   UNL A   1      39.519  32.704  35.036  1.00  0.00     0.074 A 
ATOM     40  C   UNL A   1      38.294  33.478  34.932  1.00  0.00     0.031 C 
ATOM     41  C   UNL A   1      40.253  32.593  36.173  1.00  0.00     0.037 A 
BRANCH  28  42
ATOM     42  C   UNL A   1      45.357  29.068  35.757  1.00  0.00     0.058 A 
ATOM     43  C   UNL A   1      46.619  29.674  35.642  1.00  0.00     0.135 A 
ATOM     44  C   UNL A   1      45.283  27.841  36.437  1.00  0.00     0.135 A 
ATOM     45  F   UNL A   1      46.756  30.823  34.961  1.00  0.00    -0.206 F 
ATOM     46  C   UNL A   1      47.765  29.076  36.159  1.00  0.00     0.059 A 
ATOM     47  C   UNL A   1      46.411  27.237  36.986  1.00  0.00     0.059 A 
ATOM     48  F   UNL A   1      44.109  27.202  36.553  1.00  0.00    -0.206 F 
ATOM     49  C   UNL A   1      47.650  27.855  36.829  1.00  0.00     0.060 A 
BRANCH  49  50
ATOM     50  S   UNL A   1      49.146  27.089  37.490  1.00  0.00     0.124 S 
ATOM     51  O   UNL A   1      48.816  26.979  38.907  1.00  0.00    -0.237 OA
ATOM     52  O   UNL A   1      49.200  25.830  36.753  1.00  0.00    -0.237 OA
ATOM     53  O   UNL A   1      50.194  28.050  37.163  1.00  0.00    -0.744 OA
ENDBRANCH  49  50
ENDBRANCH  28  42
BRANCH  29  54
ATOM     54  C   UNL A   1      37.279  32.778  30.859  1.00  0.00     0.058 A 
ATOM     55  C   UNL A   1      37.380  33.855  29.968  1.00  0.00     0.135 A 
ATOM     56  C   UNL A   1      36.004  32.214  31.050  1.00  0.00     0.135 A 
ATOM     57  F   UNL A   1      38.570  34.437  29.753  1.00  0.00    -0.206 F 
ATOM     58  C   UNL A   1      36.264  34.368  29.309  1.00  0.00     0.059 A 
ATOM     59  C   UNL A   1      34.879  32.689  30.382  1.00  0.00     0.059 A 
ATOM     60  F   UNL A   1      35.844  31.175  31.884  1.00  0.00    -0.206 F 
ATOM     61  C   UNL A   1      35.016  33.777  29.524  1.00  0.00     0.060 A 
BRANCH  61  62
ATOM     62  S   UNL A   1      33.575  34.443  28.663  1.00  0.00     0.124 S 
ATOM     63  O   UNL A   1      32.685  34.755  29.775  1.00  0.00    -0.237 OA
ATOM     64  O   UNL A   1      34.140  35.588  27.955  1.00  0.00    -0.237 OA
ATOM     65  O   UNL A   1      33.150  33.335  27.810  1.00  0.00    -0.744 OA
ENDBRANCH  61  62
ENDBRANCH  29  54
BRANCH  41  66
ATOM     66  C   UNL A   1      39.775  33.365  37.366  1.00  0.00     0.058 A 
ATOM     67  C   UNL A   1      38.795  32.854  38.228  1.00  0.00     0.135 A 
ATOM     68  C   UNL A   1      40.374  34.592  37.689  1.00  0.00     0.135 A 
ATOM     69  F   UNL A   1      38.192  31.687  37.954  1.00  0.00    -0.206 F 
ATOM     70  C   UNL A   1      38.410  33.546  39.368  1.00  0.00     0.059 A 
ATOM     71  C   UNL A   1      40.029  35.284  38.841  1.00  0.00     0.059 A 
ATOM     72  F   UNL A   1      41.327  35.110  36.898  1.00  0.00    -0.206 F 
ATOM     73  C   UNL A   1      39.040  34.757  39.670  1.00  0.00     0.060 A 
BRANCH  73  74
ATOM     74  S   UNL A   1      38.573  35.616  41.185  1.00  0.00     0.124 S 
ATOM     75  O   UNL A   1      38.458  36.992  40.716  1.00  0.00    -0.237 OA
ATOM     76  O   UNL A   1      37.318  34.959  41.539  1.00  0.00    -0.237 OA
ATOM     77  O   UNL A   1      39.690  35.348  42.085  1.00  0.00    -0.744 OA
ENDBRANCH  73  74
ENDBRANCH  41  66
ENDBRANCH  15  16
ENDBRANCH   8  10
ENDBRANCH   7   8
ENDBRANCH   6   7
ENDBRANCH   5   6
ENDBRANCH   4   5
ENDBRANCH   3   4
ENDBRANCH   2   3
ENDBRANCH   1   2
BRANCH   1  78
ATOM     78  C   UNL A   1      40.078  21.253  26.477  1.00  0.00     0.188 C 
BRANCH  78  79
ATOM     79  C   UNL A   1      38.812  21.840  25.835  1.00  0.00     0.188 C 
BRANCH  79  80
ATOM     80  O   UNL A   1      38.531  23.181  26.143  1.00  0.00    -0.376 OA
BRANCH  80  81
ATOM     81  C   UNL A   1      37.205  23.668  26.039  1.00  0.00     0.202 C 
BRANCH  81  82
ATOM     82  C   UNL A   1      36.366  23.620  24.742  1.00  0.00     0.261 C 
BRANCH  82  83
ATOM     83  O   UNL A   1      35.180  24.438  24.708  1.00  0.00    -0.461 OA
BRANCH  83  84
ATOM     84  C   UNL A   1      34.301  24.328  23.692  1.00  0.00     0.336 C 
ATOM     85  O   UNL A   1      34.612  23.846  22.606  1.00  0.00    -0.249 OA
BRANCH  84  86
ATOM     86  C   UNL A   1      32.878  24.945  23.982  1.00  0.00     0.164 C 
ATOM     87  C   UNL A   1      32.399  25.316  22.541  1.00  0.00     0.046 C 
ATOM     88  C   UNL A   1      32.707  26.265  24.806  1.00  0.00    -0.008 A 
ATOM     89  C   UNL A   1      33.239  26.453  21.941  1.00  0.00     0.008 C 
ATOM     90  C   UNL A   1      32.869  27.547  24.208  1.00  0.00    -0.042 A 
ATOM     91  C   UNL A   1      32.317  26.262  26.167  1.00  0.00     0.007 A 
ATOM     92  C   UNL A   1      33.090  27.743  22.729  1.00  0.00     0.036 C 
ATOM     93  C   UNL A   1      32.766  28.730  24.977  1.00  0.00     0.004 A 
ATOM     94  C   UNL A   1      32.165  27.451  26.906  1.00  0.00     0.000 A 
ATOM     95  C   UNL A   1      32.424  28.683  26.322  1.00  0.00     0.000 A 
BRANCH  86  96
ATOM     96  N   UNL A   1      31.952  23.891  24.521  1.00  0.00    -0.336 N 
ATOM     97  C   UNL A   1      32.147  22.601  24.945  1.00  0.00     0.224 C 
ATOM     98  H   UNL A   1      31.015  24.186  24.582  1.00  0.00     0.164 HD
ATOM     99  O   UNL A   1      31.406  22.200  25.848  1.00  0.00    -0.275 OA
BRANCH  97 100
ATOM    100  C   UNL A   1      33.174  21.663  24.305  1.00  0.00     0.082 C 
ATOM    101  C   UNL A   1      32.664  21.099  22.968  1.00  0.00     0.035 C 
ATOM    102  C   UNL A   1      33.665  20.555  25.268  1.00  0.00     0.035 C 
ATOM    103  C   UNL A   1      31.835  19.830  23.115  1.00  0.00     0.120 C 
ATOM    104  C   UNL A   1      32.759  19.324  25.291  1.00  0.00     0.120 C 
ATOM    105  N   UNL A   1      32.551  18.854  23.929  1.00  0.00    -0.342 N 
ATOM    106  C   UNL A   1      33.067  17.727  23.288  1.00  0.00     0.225 C 
ATOM    107  O   UNL A   1      32.885  17.570  22.074  1.00  0.00    -0.275 OA
BRANCH 106 108
ATOM    108  C   UNL A   1      33.813  16.620  23.956  1.00  0.00     0.079 C 
ATOM    109  C   UNL A   1      35.032  16.674  24.829  1.00  0.00     0.014 C 
ATOM    110  C   UNL A   1      33.688  16.352  25.434  1.00  0.00     0.014 C 
ENDBRANCH 106 108
ENDBRANCH  97 100
ENDBRANCH  86  96
ENDBRANCH  84  86
ENDBRANCH  83  84
ENDBRANCH  82  83
ENDBRANCH  81  82
ENDBRANCH  80  81
ENDBRANCH  79  80
ENDBRANCH  78  79
ENDBRANCH   1  78
TORSDOF 26
ENDMDL
MODEL 2
REMARK VINA RESULT:     -10.6      2.015      8.992
REMARK SMILES O=C(OCCOCCOCCOCCOC(=O)[C@]1(NC(=O)C2CCN(C(=O)C3CC3)CC2)CCCc2ccccc21)c1ccc(-c2c3nc(c(-c4c(F)cc(S(=O)(=O)[O-])cc4F)c4ccc([nH]4)c(-c4c(F)cc(S(=O)(=O)[O-])cc4F)c4nc(c(-c5c(F)cc(S(=O)(=O)[O-])cc5F)c5ccc2[nH]5)C=C4)C=C3)cc1
REMARK SMILES IDX 9 1 8 2 7 3 6 4 5 5 4 6 3 7 2 8 1 9 42 10 43 11 107 12 44 13
REMARK SMILES IDX 106 14 45 15 46 16 47 17 100 18 48 19 105 20 99 21 101 22
REMARK SMILES IDX 49 23 104 24 98 25 97 26 50 28 84 29 63 30 83 31 64 32 67 33
REMARK SMILES IDX 82 34 102 35 65 36 66 37 81 39 103 40 68 41 51 42 52 43
REMARK SMILES IDX 61 44 53 45 54 46 60 47 62 48 55 49 56 50 57 51 58 52 59 53
REMARK SMILES IDX 85 54 86 55 95 56 87 57 88 58 94 59 96 60 89 61 90 62 91 63
REMARK SMILES IDX 92 64 93 65 69 66 70 67 79 68 71 69 72 70 78 71 80 72 73 73
REMARK SMILES IDX 74 74 75 75 76 76 77 77 10 78 11 79 12 80 13 81 14 82 15 83
REMARK SMILES IDX 16 84 17 85 18 86 33 87 41 88 34 89 36 90 40 91 35 92 37 93
REMARK SMILES IDX 39 94 38 95 19 96 20 97 21 99 22 100 23 101 32 102 24 103
REMARK SMILES IDX 31 104 25 105 26 106 27 107 28 108 29 109 30 110
REMARK H PARENT 101 27 67 38 19 98
REMARK Flexibility Score: inf
ROOT
ATOM      1  O   UNL A   1      40.085  22.173  25.793  1.00  0.00    -0.377 OA
ENDROOT
BRANCH   1   2
ATOM      2  C   UNL A   1      40.492  22.931  26.918  1.00  0.00     0.188 C 
BRANCH   2   3
ATOM      3  C   UNL A   1      41.346  22.163  27.929  1.00  0.00     0.188 C 
BRANCH   3   4
ATOM      4  O   UNL A   1      42.361  21.398  27.269  1.00  0.00    -0.376 OA
BRANCH   4   5
ATOM      5  C   UNL A   1      43.282  22.110  26.438  1.00  0.00     0.202 C 
BRANCH   5   6
ATOM      6  C   UNL A   1      44.038  23.236  27.138  1.00  0.00     0.261 C 
BRANCH   6   7
ATOM      7  O   UNL A   1      43.673  24.529  26.649  1.00  0.00    -0.460 OA
BRANCH   7   8
ATOM      8  C   UNL A   1      44.201  25.728  27.006  1.00  0.00     0.338 C 
ATOM      9  O   UNL A   1      45.298  26.022  26.530  1.00  0.00    -0.246 OA
BRANCH   8  10
ATOM     10  C   UNL A   1      43.577  26.695  27.976  1.00  0.00     0.060 A 
ATOM     11  C   UNL A   1      43.939  28.033  28.169  1.00  0.00     0.016 A 
ATOM     12  C   UNL A   1      42.495  26.205  28.731  1.00  0.00     0.016 A 
ATOM     13  C   UNL A   1      43.293  28.850  29.073  1.00  0.00     0.010 A 
ATOM     14  C   UNL A   1      41.858  27.006  29.682  1.00  0.00     0.010 A 
ATOM     15  C   UNL A   1      42.292  28.319  29.871  1.00  0.00    -0.014 A 
BRANCH  15  16
ATOM     16  C   UNL A   1      41.976  29.079  31.084  1.00  0.00     0.031 A 
ATOM     17  C   UNL A   1      40.729  29.911  31.040  1.00  0.00     0.074 A 
ATOM     18  C   UNL A   1      42.654  28.845  32.218  1.00  0.00     0.049 A 
ATOM     19  N   UNL A   1      40.246  30.727  31.929  1.00  0.00    -0.248 NA
ATOM     20  C   UNL A   1      39.897  29.782  29.826  1.00  0.00     0.031 C 
ATOM     21  C   UNL A   1      43.741  27.873  32.367  1.00  0.00     0.029 A 
ATOM     22  N   UNL A   1      42.509  29.382  33.465  1.00  0.00    -0.354 N 
ATOM     23  C   UNL A   1      39.083  31.240  31.368  1.00  0.00     0.074 A 
ATOM     24  C   UNL A   1      38.920  30.640  30.067  1.00  0.00     0.031 C 
ATOM     25  C   UNL A   1      44.172  27.894  33.640  1.00  0.00     0.029 A 
ATOM     26  C   UNL A   1      43.445  28.930  34.363  1.00  0.00     0.049 A 
ATOM     27  H   UNL A   1      41.804  30.029  33.697  1.00  0.00     0.167 HD
ATOM     28  C   UNL A   1      38.240  32.148  31.904  1.00  0.00     0.037 A 
ATOM     29  C   UNL A   1      43.707  29.368  35.608  1.00  0.00     0.037 A 
ATOM     30  C   UNL A   1      38.461  32.715  33.204  1.00  0.00     0.049 A 
ATOM     31  C   UNL A   1      42.849  30.492  36.131  1.00  0.00     0.074 A 
ATOM     32  C   UNL A   1      37.761  33.714  33.847  1.00  0.00     0.029 A 
ATOM     33  N   UNL A   1      39.483  32.316  34.060  1.00  0.00    -0.354 N 
ATOM     34  N   UNL A   1      41.815  31.071  35.559  1.00  0.00    -0.248 NA
ATOM     35  C   UNL A   1      43.195  31.036  37.446  1.00  0.00     0.031 C 
ATOM     36  C   UNL A   1      38.395  33.956  35.071  1.00  0.00     0.029 A 
ATOM     37  C   UNL A   1      39.449  33.062  35.220  1.00  0.00     0.049 A 
ATOM     38  H   UNL A   1      40.136  31.604  33.867  1.00  0.00     0.167 HD
ATOM     39  C   UNL A   1      41.372  32.034  36.455  1.00  0.00     0.074 A 
ATOM     40  C   UNL A   1      42.246  31.947  37.612  1.00  0.00     0.031 C 
ATOM     41  C   UNL A   1      40.344  32.914  36.344  1.00  0.00     0.037 A 
BRANCH  28  42
ATOM     42  C   UNL A   1      37.106  32.628  31.044  1.00  0.00     0.058 A 
ATOM     43  C   UNL A   1      35.841  32.019  31.056  1.00  0.00     0.135 A 
ATOM     44  C   UNL A   1      37.311  33.685  30.143  1.00  0.00     0.135 A 
ATOM     45  F   UNL A   1      35.602  30.972  31.863  1.00  0.00    -0.206 F 
ATOM     46  C   UNL A   1      34.828  32.425  30.191  1.00  0.00     0.059 A 
ATOM     47  C   UNL A   1      36.305  34.127  29.288  1.00  0.00     0.059 A 
ATOM     48  F   UNL A   1      38.509  34.287  30.068  1.00  0.00    -0.206 F 
ATOM     49  C   UNL A   1      35.071  33.481  29.309  1.00  0.00     0.060 A 
BRANCH  49  50
ATOM     50  S   UNL A   1      33.750  33.993  28.191  1.00  0.00     0.124 S 
ATOM     51  O   UNL A   1      33.253  32.706  27.715  1.00  0.00    -0.237 OA
ATOM     52  O   UNL A   1      32.856  34.726  29.083  1.00  0.00    -0.237 OA
ATOM     53  O   UNL A   1      34.442  34.805  27.195  1.00  0.00    -0.744 OA
ENDBRANCH  49  50
ENDBRANCH  28  42
BRANCH  29  54
ATOM     54  C   UNL A   1      44.850  28.813  36.382  1.00  0.00     0.058 A 
ATOM     55  C   UNL A   1      44.683  27.752  37.282  1.00  0.00     0.135 A 
ATOM     56  C   UNL A   1      46.147  29.339  36.236  1.00  0.00     0.135 A 
ATOM     57  F   UNL A   1      43.466  27.216  37.466  1.00  0.00    -0.206 F 
ATOM     58  C   UNL A   1      45.749  27.245  38.022  1.00  0.00     0.059 A 
ATOM     59  C   UNL A   1      47.233  28.831  36.942  1.00  0.00     0.059 A 
ATOM     60  F   UNL A   1      46.373  30.351  35.384  1.00  0.00    -0.206 F 
ATOM     61  C   UNL A   1      47.022  27.792  37.845  1.00  0.00     0.060 A 
BRANCH  61  62
ATOM     62  S   UNL A   1      48.400  27.127  38.804  1.00  0.00     0.124 S 
ATOM     63  O   UNL A   1      49.321  28.257  38.821  1.00  0.00    -0.237 OA
ATOM     64  O   UNL A   1      47.763  26.802  40.077  1.00  0.00    -0.237 OA
ATOM     65  O   UNL A   1      48.833  25.974  38.017  1.00  0.00    -0.744 OA
ENDBRANCH  61  62
ENDBRANCH  29  54
BRANCH  41  66
ATOM     66  C   UNL A   1      40.087  33.807  37.520  1.00  0.00     0.058 A 
ATOM     67  C   UNL A   1      39.166  33.461  38.519  1.00  0.00     0.135 A 
ATOM     68  C   UNL A   1      40.840  34.980  37.684  1.00  0.00     0.135 A 
ATOM     69  F   UNL A   1      38.421  32.351  38.398  1.00  0.00    -0.206 F 
ATOM     70  C   UNL A   1      38.987  34.261  39.639  1.00  0.00     0.059 A 
ATOM     71  C   UNL A   1      40.702  35.776  38.812  1.00  0.00     0.059 A 
ATOM     72  F   UNL A   1      41.743  35.341  36.759  1.00  0.00    -0.206 F 
ATOM     73  C   UNL A   1      39.766  35.413  39.779  1.00  0.00     0.060 A 
BRANCH  73  74
ATOM     74  S   UNL A   1      39.565  36.411  41.267  1.00  0.00     0.124 S 
ATOM     75  O   UNL A   1      40.928  36.882  41.489  1.00  0.00    -0.237 OA
ATOM     76  O   UNL A   1      38.606  37.424  40.835  1.00  0.00    -0.237 OA
ATOM     77  O   UNL A   1      39.061  35.457  42.250  1.00  0.00    -0.744 OA
ENDBRANCH  73  74
ENDBRANCH  41  66
ENDBRANCH  15  16
ENDBRANCH   8  10
ENDBRANCH   7   8
ENDBRANCH   6   7
ENDBRANCH   5   6
ENDBRANCH   4   5
ENDBRANCH   3   4
ENDBRANCH   2   3
ENDBRANCH   1   2
BRANCH   1  78
ATOM     78  C   UNL A   1      38.988  21.315  26.034  1.00  0.00     0.188 C 
BRANCH  78  79
ATOM     79  C   UNL A   1      37.573  21.806  25.695  1.00  0.00     0.188 C 
BRANCH  79  80
ATOM     80  O   UNL A   1      37.380  22.266  24.382  1.00  0.00    -0.376 OA
BRANCH  80  81
ATOM     81  C   UNL A   1      36.147  22.858  24.013  1.00  0.00     0.202 C 
BRANCH  81  82
ATOM     82  C   UNL A   1      35.513  24.062  24.748  1.00  0.00     0.261 C 
BRANCH  82  83
ATOM     83  O   UNL A   1      34.718  24.960  23.950  1.00  0.00    -0.461 OA
BRANCH  83  84
ATOM     84  C   UNL A   1      33.586  25.497  24.447  1.00  0.00     0.336 C 
ATOM     85  O   UNL A   1      33.591  26.509  25.142  1.00  0.00    -0.249 OA
BRANCH  84  86
ATOM     86  C   UNL A   1      32.275  24.675  24.138  1.00  0.00     0.164 C 
ATOM     87  C   UNL A   1      31.383  25.034  25.370  1.00  0.00     0.046 C 
ATOM     88  C   UNL A   1      32.278  23.110  24.095  1.00  0.00    -0.008 A 
ATOM     89  C   UNL A   1      31.953  24.448  26.670  1.00  0.00     0.008 C 
ATOM     90  C   UNL A   1      32.192  22.329  25.283  1.00  0.00    -0.042 A 
ATOM     91  C   UNL A   1      32.296  22.385  22.878  1.00  0.00     0.007 A 
ATOM     92  C   UNL A   1      31.968  22.929  26.648  1.00  0.00     0.036 C 
ATOM     93  C   UNL A   1      32.252  20.916  25.234  1.00  0.00     0.004 A 
ATOM     94  C   UNL A   1      32.300  20.978  22.844  1.00  0.00     0.000 A 
ATOM     95  C   UNL A   1      32.314  20.243  24.020  1.00  0.00     0.000 A 
BRANCH  86  96
ATOM     96  N   UNL A   1      31.601  25.211  22.905  1.00  0.00    -0.336 N 
ATOM     97  C   UNL A   1      31.229  26.472  22.515  1.00  0.00     0.224 C 
ATOM     98  H   UNL A   1      31.382  24.516  22.244  1.00  0.00     0.164 HD
ATOM     99  O   UNL A   1      31.263  26.707  21.304  1.00  0.00    -0.275 OA
BRANCH  97 100
ATOM    100  C   UNL A   1      30.727  27.531  23.501  1.00  0.00     0.082 C 
ATOM    101  C   UNL A   1      29.232  27.349  23.810  1.00  0.00     0.035 C 
ATOM    102  C   UNL A   1      31.071  28.976  23.063  1.00  0.00     0.035 C 
ATOM    103  C   UNL A   1      28.312  28.059  22.826  1.00  0.00     0.120 C 
ATOM    104  C   UNL A   1      30.045  29.581  22.104  1.00  0.00     0.120 C 
ATOM    105  N   UNL A   1      28.714  29.453  22.679  1.00  0.00    -0.342 N 
ATOM    106  C   UNL A   1      27.888  30.431  23.234  1.00  0.00     0.225 C 
ATOM    107  O   UNL A   1      26.839  30.101  23.803  1.00  0.00    -0.275 OA
BRANCH 106 108
ATOM    108  C   UNL A   1      28.129  31.903  23.172  1.00  0.00     0.079 C 
ATOM    109  C   UNL A   1      29.389  32.657  22.868  1.00  0.00     0.014 C 
ATOM    110  C   UNL A   1      28.267  32.633  21.861  1.00  0.00     0.014 C 
ENDBRANCH 106 108
ENDBRANCH  97 100
ENDBRANCH  86  96
ENDBRANCH  84  86
ENDBRANCH  83  84
ENDBRANCH  82  83
ENDBRANCH  81  82
ENDBRANCH  80  81
ENDBRANCH  79  80
ENDBRANCH  78  79
ENDBRANCH   1  78
TORSDOF 26
ENDMDL
MODEL 3
REMARK VINA RESULT:     -10.6      0.873      7.772
REMARK SMILES O=C(OCCOCCOCCOCCOC(=O)[C@]1(NC(=O)C2CCN(C(=O)C3CC3)CC2)CCCc2ccccc21)c1ccc(-c2c3nc(c(-c4c(F)cc(S(=O)(=O)[O-])cc4F)c4ccc([nH]4)c(-c4c(F)cc(S(=O)(=O)[O-])cc4F)c4nc(c(-c5c(F)cc(S(=O)(=O)[O-])cc5F)c5ccc2[nH]5)C=C4)C=C3)cc1
REMARK SMILES IDX 9 1 8 2 7 3 6 4 5 5 4 6 3 7 2 8 1 9 42 10 43 11 107 12 44 13
REMARK SMILES IDX 106 14 45 15 46 16 47 17 100 18 48 19 105 20 99 21 101 22
REMARK SMILES IDX 49 23 104 24 98 25 97 26 50 28 84 29 63 30 83 31 64 32 67 33
REMARK SMILES IDX 82 34 102 35 65 36 66 37 81 39 103 40 68 41 51 42 52 43
REMARK SMILES IDX 61 44 53 45 54 46 60 47 62 48 55 49 56 50 57 51 58 52 59 53
REMARK SMILES IDX 85 54 86 55 95 56 87 57 88 58 94 59 96 60 89 61 90 62 91 63
REMARK SMILES IDX 92 64 93 65 69 66 70 67 79 68 71 69 72 70 78 71 80 72 73 73
REMARK SMILES IDX 74 74 75 75 76 76 77 77 10 78 11 79 12 80 13 81 14 82 15 83
REMARK SMILES IDX 16 84 17 85 18 86 33 87 41 88 34 89 36 90 40 91 35 92 37 93
REMARK SMILES IDX 39 94 38 95 19 96 20 97 21 99 22 100 23 101 32 102 24 103
REMARK SMILES IDX 31 104 25 105 26 106 27 107 28 108 29 109 30 110
REMARK H PARENT 101 27 67 38 19 98
REMARK Flexibility Score: inf
ROOT
ATOM      1  O   UNL A   1      40.711  21.088  25.528  1.00  0.00    -0.377 OA
ENDROOT
BRANCH   1   2
ATOM      2  C   UNL A   1      41.439  21.929  26.404  1.00  0.00     0.188 C 
BRANCH   2   3
ATOM      3  C   UNL A   1      42.935  21.615  26.494  1.00  0.00     0.188 C 
BRANCH   3   4
ATOM      4  O   UNL A   1      43.545  21.649  25.199  1.00  0.00    -0.376 OA
BRANCH   4   5
ATOM      5  C   UNL A   1      43.528  22.895  24.498  1.00  0.00     0.202 C 
BRANCH   5   6
ATOM      6  C   UNL A   1      44.153  24.064  25.256  1.00  0.00     0.261 C 
BRANCH   6   7
ATOM      7  O   UNL A   1      43.233  25.137  25.465  1.00  0.00    -0.460 OA
BRANCH   7   8
ATOM      8  C   UNL A   1      43.522  26.426  25.778  1.00  0.00     0.338 C 
ATOM      9  O   UNL A   1      44.393  26.984  25.109  1.00  0.00    -0.246 OA
BRANCH   8  10
ATOM     10  C   UNL A   1      42.904  27.204  26.909  1.00  0.00     0.060 A 
ATOM     11  C   UNL A   1      42.932  28.591  27.080  1.00  0.00     0.016 A 
ATOM     12  C   UNL A   1      42.194  26.451  27.864  1.00  0.00     0.016 A 
ATOM     13  C   UNL A   1      42.317  29.217  28.146  1.00  0.00     0.010 A 
ATOM     14  C   UNL A   1      41.603  27.063  28.971  1.00  0.00     0.010 A 
ATOM     15  C   UNL A   1      41.704  28.448  29.121  1.00  0.00    -0.014 A 
BRANCH  15  16
ATOM     16  C   UNL A   1      41.484  29.111  30.409  1.00  0.00     0.031 A 
ATOM     17  C   UNL A   1      40.295  30.020  30.493  1.00  0.00     0.074 A 
ATOM     18  C   UNL A   1      42.187  28.732  31.488  1.00  0.00     0.049 A 
ATOM     19  N   UNL A   1      39.900  30.781  31.472  1.00  0.00    -0.248 NA
ATOM     20  C   UNL A   1      39.411  30.056  29.309  1.00  0.00     0.031 C 
ATOM     21  C   UNL A   1      43.211  27.684  31.503  1.00  0.00     0.029 A 
ATOM     22  N   UNL A   1      42.125  29.161  32.783  1.00  0.00    -0.354 N 
ATOM     23  C   UNL A   1      38.754  31.415  31.009  1.00  0.00     0.074 A 
ATOM     24  C   UNL A   1      38.504  30.949  29.668  1.00  0.00     0.031 C 
ATOM     25  C   UNL A   1      43.690  27.561  32.753  1.00  0.00     0.029 A 
ATOM     26  C   UNL A   1      43.061  28.570  33.596  1.00  0.00     0.049 A 
ATOM     27  H   UNL A   1      41.473  29.826  33.102  1.00  0.00     0.167 HD
ATOM     28  C   UNL A   1      37.994  32.321  31.660  1.00  0.00     0.037 A 
ATOM     29  C   UNL A   1      43.397  28.874  34.862  1.00  0.00     0.037 A 
ATOM     30  C   UNL A   1      38.301  32.751  32.995  1.00  0.00     0.049 A 
ATOM     31  C   UNL A   1      42.636  29.996  35.520  1.00  0.00     0.074 A 
ATOM     32  C   UNL A   1      37.693  33.729  33.754  1.00  0.00     0.029 A 
ATOM     33  N   UNL A   1      39.325  32.212  33.767  1.00  0.00    -0.354 N 
ATOM     34  N   UNL A   1      41.623  30.690  35.047  1.00  0.00    -0.248 NA
ATOM     35  C   UNL A   1      43.067  30.395  36.863  1.00  0.00     0.031 C 
ATOM     36  C   UNL A   1      38.387  33.818  34.966  1.00  0.00     0.029 A 
ATOM     37  C   UNL A   1      39.383  32.849  34.989  1.00  0.00     0.049 A 
ATOM     38  H   UNL A   1      39.921  31.481  33.483  1.00  0.00     0.167 HD
ATOM     39  C   UNL A   1      41.278  31.593  36.044  1.00  0.00     0.074 A 
ATOM     40  C   UNL A   1      42.187  31.345  37.150  1.00  0.00     0.031 C 
ATOM     41  C   UNL A   1      40.308  32.542  36.056  1.00  0.00     0.037 A 
BRANCH  28  42
ATOM     42  C   UNL A   1      36.863  32.949  30.896  1.00  0.00     0.058 A 
ATOM     43  C   UNL A   1      37.071  33.925  29.908  1.00  0.00     0.135 A 
ATOM     44  C   UNL A   1      35.537  32.607  31.205  1.00  0.00     0.135 A 
ATOM     45  F   UNL A   1      38.317  34.326  29.606  1.00  0.00    -0.206 F 
ATOM     46  C   UNL A   1      36.006  34.555  29.270  1.00  0.00     0.059 A 
ATOM     47  C   UNL A   1      34.456  33.203  30.560  1.00  0.00     0.059 A 
ATOM     48  F   UNL A   1      35.277  31.700  32.160  1.00  0.00    -0.206 F 
ATOM     49  C   UNL A   1      34.701  34.186  29.604  1.00  0.00     0.060 A 
BRANCH  49  50
ATOM     50  S   UNL A   1      33.330  35.015  28.772  1.00  0.00     0.124 S 
ATOM     51  O   UNL A   1      32.745  33.918  28.007  1.00  0.00    -0.237 OA
ATOM     52  O   UNL A   1      32.533  35.499  29.895  1.00  0.00    -0.237 OA
ATOM     53  O   UNL A   1      33.987  36.050  27.981  1.00  0.00    -0.744 OA
ENDBRANCH  49  50
ENDBRANCH  28  42
BRANCH  29  54
ATOM     54  C   UNL A   1      44.529  28.180  35.534  1.00  0.00     0.058 A 
ATOM     55  C   UNL A   1      44.328  27.038  36.321  1.00  0.00     0.135 A 
ATOM     56  C   UNL A   1      45.849  28.649  35.401  1.00  0.00     0.135 A 
ATOM     57  F   UNL A   1      43.089  26.549  36.488  1.00  0.00    -0.206 F 
ATOM     58  C   UNL A   1      45.385  26.398  36.966  1.00  0.00     0.059 A 
ATOM     59  C   UNL A   1      46.924  28.011  36.012  1.00  0.00     0.059 A 
ATOM     60  F   UNL A   1      46.106  29.734  34.654  1.00  0.00    -0.206 F 
ATOM     61  C   UNL A   1      46.680  26.894  36.806  1.00  0.00     0.060 A 
BRANCH  61  62
ATOM     62  S   UNL A   1      48.046  26.057  37.642  1.00  0.00     0.124 S 
ATOM     63  O   UNL A   1      48.136  26.810  38.887  1.00  0.00    -0.237 OA
ATOM     64  O   UNL A   1      47.546  24.690  37.756  1.00  0.00    -0.237 OA
ATOM     65  O   UNL A   1      49.164  26.232  36.718  1.00  0.00    -0.744 OA
ENDBRANCH  61  62
ENDBRANCH  29  54
BRANCH  41  66
ATOM     66  C   UNL A   1      40.155  33.337  37.317  1.00  0.00     0.058 A 
ATOM     67  C   UNL A   1      40.986  34.430  37.603  1.00  0.00     0.135 A 
ATOM     68  C   UNL A   1      39.105  33.047  38.202  1.00  0.00     0.135 A 
ATOM     69  F   UNL A   1      42.006  34.738  36.787  1.00  0.00    -0.206 F 
ATOM     70  C   UNL A   1      40.790  35.202  38.740  1.00  0.00     0.059 A 
ATOM     71  C   UNL A   1      38.870  33.827  39.326  1.00  0.00     0.059 A 
ATOM     72  F   UNL A   1      38.277  32.020  37.958  1.00  0.00    -0.206 F 
ATOM     73  C   UNL A   1      39.724  34.896  39.591  1.00  0.00     0.060 A 
BRANCH  73  74
ATOM     74  S   UNL A   1      39.446  35.944  41.032  1.00  0.00     0.124 S 
ATOM     75  O   UNL A   1      40.801  36.390  41.334  1.00  0.00    -0.237 OA
ATOM     76  O   UNL A   1      38.545  36.964  40.504  1.00  0.00    -0.237 OA
ATOM     77  O   UNL A   1      38.852  35.033  42.005  1.00  0.00    -0.744 OA
ENDBRANCH  73  74
ENDBRANCH  41  66
ENDBRANCH  15  16
ENDBRANCH   8  10
ENDBRANCH   7   8
ENDBRANCH   6   7
ENDBRANCH   5   6
ENDBRANCH   4   5
ENDBRANCH   3   4
ENDBRANCH   2   3
ENDBRANCH   1   2
BRANCH   1  78
ATOM     78  C   UNL A   1      39.435  20.713  26.006  1.00  0.00     0.188 C 
BRANCH  78  79
ATOM     79  C   UNL A   1      38.193  21.420  25.443  1.00  0.00     0.188 C 
BRANCH  79  80
ATOM     80  O   UNL A   1      37.659  22.449  26.236  1.00  0.00    -0.376 OA
BRANCH  80  81
ATOM     81  C   UNL A   1      36.390  22.996  25.924  1.00  0.00     0.202 C 
BRANCH  81  82
ATOM     82  C   UNL A   1      36.131  23.957  24.741  1.00  0.00     0.261 C 
BRANCH  82  83
ATOM     83  O   UNL A   1      34.845  24.607  24.706  1.00  0.00    -0.461 OA
BRANCH  83  84
ATOM     84  C   UNL A   1      34.001  24.397  23.676  1.00  0.00     0.336 C 
ATOM     85  O   UNL A   1      34.380  23.949  22.597  1.00  0.00    -0.249 OA
BRANCH  84  86
ATOM     86  C   UNL A   1      32.513  24.852  23.941  1.00  0.00     0.164 C 
ATOM     87  C   UNL A   1      31.982  25.045  22.483  1.00  0.00     0.046 C 
ATOM     88  C   UNL A   1      32.183  26.202  24.662  1.00  0.00    -0.008 A 
ATOM     89  C   UNL A   1      32.668  26.227  21.783  1.00  0.00     0.008 C 
ATOM     90  C   UNL A   1      32.179  27.442  23.964  1.00  0.00    -0.042 A 
ATOM     91  C   UNL A   1      31.805  26.258  26.026  1.00  0.00     0.007 A 
ATOM     92  C   UNL A   1      32.363  27.547  22.471  1.00  0.00     0.036 C 
ATOM     93  C   UNL A   1      31.933  28.661  24.640  1.00  0.00     0.004 A 
ATOM     94  C   UNL A   1      31.510  27.473  26.672  1.00  0.00     0.000 A 
ATOM     95  C   UNL A   1      31.608  28.677  25.990  1.00  0.00     0.000 A 
BRANCH  86  96
ATOM     96  N   UNL A   1      31.731  23.737  24.575  1.00  0.00    -0.336 N 
ATOM     97  C   UNL A   1      32.069  22.474  24.992  1.00  0.00     0.224 C 
ATOM     98  H   UNL A   1      30.783  23.956  24.722  1.00  0.00     0.164 HD
ATOM     99  O   UNL A   1      31.451  22.031  25.964  1.00  0.00    -0.275 OA
BRANCH  97 100
ATOM    100  C   UNL A   1      33.105  21.611  24.266  1.00  0.00     0.082 C 
ATOM    101  C   UNL A   1      32.533  21.021  22.966  1.00  0.00     0.035 C 
ATOM    102  C   UNL A   1      33.740  20.534  25.178  1.00  0.00     0.035 C 
ATOM    103  C   UNL A   1      31.804  19.698  23.163  1.00  0.00     0.120 C 
ATOM    104  C   UNL A   1      32.922  19.244  25.257  1.00  0.00     0.120 C 
ATOM    105  N   UNL A   1      32.643  18.768  23.910  1.00  0.00    -0.342 N 
ATOM    106  C   UNL A   1      33.183  17.681  23.221  1.00  0.00     0.225 C 
ATOM    107  O   UNL A   1      32.921  17.519  22.022  1.00  0.00    -0.275 OA
BRANCH 106 108
ATOM    108  C   UNL A   1      34.050  16.623  23.819  1.00  0.00     0.079 C 
ATOM    109  C   UNL A   1      34.666  16.547  25.185  1.00  0.00     0.014 C 
ATOM    110  C   UNL A   1      33.521  15.634  24.826  1.00  0.00     0.014 C 
ENDBRANCH 106 108
ENDBRANCH  97 100
ENDBRANCH  86  96
ENDBRANCH  84  86
ENDBRANCH  83  84
ENDBRANCH  82  83
ENDBRANCH  81  82
ENDBRANCH  80  81
ENDBRANCH  79  80
ENDBRANCH  78  79
ENDBRANCH   1  78
TORSDOF 26
ENDMDL
