MODEL 1
REMARK VINA RESULT:      -9.5      0.000      0.000
REMARK SMILES C[C@@H](C(=O)OCCOCCOCCOCCOC(=O)c1ccc(-c2c3nc(c(-c4c(F)cc(S(=O)(=O)[O-])cc4F)c4ccc([nH]4)c(-c4c(F)cc(S(=O)(=O)[O-])cc4F)c4nc(c(-c5c(F)cc(S(=O)(=O)[O-])cc5F)c5ccc2[nH]5)C=C4)C=C3)cc1)N(C)c1ccc(C(N)=O)nn1
REMARK SMILES IDX 11 1 10 2 9 3 8 4 7 5 6 6 5 7 3 8 4 9 2 10 1 11 86 12 87 13
REMARK SMILES IDX 88 14 89 15 96 16 90 17 95 18 91 19 92 20 93 21 94 22 12 25
REMARK SMILES IDX 13 26 14 27 15 28 16 29 17 30 18 31 19 32 20 33 21 34 85 35
REMARK SMILES IDX 22 36 84 37 23 38 24 39 25 40 78 41 26 42 83 43 77 44 79 45
REMARK SMILES IDX 27 46 82 47 76 48 75 49 28 51 62 52 41 53 61 54 42 55 45 56
REMARK SMILES IDX 60 57 80 58 43 59 44 60 59 62 81 63 46 64 29 65 30 66 39 67
REMARK SMILES IDX 31 68 32 69 38 70 40 71 33 72 34 73 35 74 36 75 37 76 63 77
REMARK SMILES IDX 64 78 73 79 65 80 66 81 72 82 74 83 67 84 68 85 69 86 70 87
REMARK SMILES IDX 71 88 47 89 48 90 57 91 49 92 50 93 56 94 58 95 51 96 52 97
REMARK SMILES IDX 53 98 54 99 55 100
REMARK H PARENT 93 23 93 24 79 50 45 61
REMARK Flexibility Score: inf
ROOT
ATOM      1  O   UNL A   1      42.920  19.680  25.062  1.00  0.00    -0.377 OA
ENDROOT
BRANCH   1   2
ATOM      2  C   UNL A   1      42.123  19.263  26.149  1.00  0.00     0.188 C 
BRANCH   2   3
ATOM      3  C   UNL A   1      41.907  20.320  27.248  1.00  0.00     0.188 C 
BRANCH   3   4
ATOM      4  O   UNL A   1      40.607  20.830  27.500  1.00  0.00    -0.376 OA
BRANCH   4   5
ATOM      5  C   UNL A   1      40.054  21.813  26.637  1.00  0.00     0.202 C 
BRANCH   5   6
ATOM      6  C   UNL A   1      38.944  21.483  25.617  1.00  0.00     0.261 C 
BRANCH   6   7
ATOM      7  O   UNL A   1      37.582  21.482  26.090  1.00  0.00    -0.462 OA
BRANCH   7   8
ATOM      8  C   UNL A   1      36.760  22.459  25.620  1.00  0.00     0.328 C 
ATOM      9  O   UNL A   1      36.550  23.514  26.212  1.00  0.00    -0.250 OA
BRANCH   8  10
ATOM     10  C   UNL A   1      36.069  22.098  24.274  1.00  0.00     0.190 C 
ATOM     11  C   UNL A   1      36.029  23.140  23.153  1.00  0.00     0.044 C 
BRANCH  10  12
ATOM     12  N   UNL A   1      34.776  21.339  24.440  1.00  0.00    -0.345 N 
ATOM     13  C   UNL A   1      34.955  19.954  24.888  1.00  0.00     0.146 C 
BRANCH  12  14
ATOM     14  C   UNL A   1      33.629  21.916  24.999  1.00  0.00     0.151 A 
ATOM     15  C   UNL A   1      32.570  22.358  24.210  1.00  0.00     0.051 A 
ATOM     16  N   UNL A   1      33.467  21.972  26.345  1.00  0.00    -0.132 NA
ATOM     17  C   UNL A   1      31.410  22.895  24.791  1.00  0.00     0.040 A 
ATOM     18  N   UNL A   1      32.323  22.501  26.944  1.00  0.00    -0.143 NA
ATOM     19  C   UNL A   1      31.324  22.959  26.168  1.00  0.00     0.150 A 
BRANCH  19  20
ATOM     20  C   UNL A   1      30.121  23.525  26.846  1.00  0.00     0.269 C 
ATOM     21  N   UNL A   1      29.677  24.745  26.404  1.00  0.00    -0.364 N 
ATOM     22  O   UNL A   1      29.555  22.937  27.761  1.00  0.00    -0.268 OA
ATOM     23  H   UNL A   1      30.144  25.201  25.668  1.00  0.00     0.160 HD
ATOM     24  H   UNL A   1      28.890  25.162  26.823  1.00  0.00     0.160 HD
ENDBRANCH  19  20
ENDBRANCH  12  14
ENDBRANCH  10  12
ENDBRANCH   8  10
ENDBRANCH   7   8
ENDBRANCH   6   7
ENDBRANCH   5   6
ENDBRANCH   4   5
ENDBRANCH   3   4
ENDBRANCH   2   3
ENDBRANCH   1   2
BRANCH   1  25
ATOM     25  C   UNL A   1      44.314  19.441  25.178  1.00  0.00     0.188 C 
BRANCH  25  26
ATOM     26  C   UNL A   1      45.278  20.599  24.854  1.00  0.00     0.188 C 
BRANCH  26  27
ATOM     27  O   UNL A   1      45.347  21.607  25.859  1.00  0.00    -0.376 OA
BRANCH  27  28
ATOM     28  C   UNL A   1      44.605  22.806  25.689  1.00  0.00     0.202 C 
BRANCH  28  29
ATOM     29  C   UNL A   1      43.937  23.405  26.937  1.00  0.00     0.261 C 
BRANCH  29  30
ATOM     30  O   UNL A   1      43.705  24.821  26.916  1.00  0.00    -0.460 OA
BRANCH  30  31
ATOM     31  C   UNL A   1      42.461  25.242  26.588  1.00  0.00     0.338 C 
ATOM     32  O   UNL A   1      41.744  24.799  25.719  1.00  0.00    -0.246 OA
BRANCH  31  33
ATOM     33  C   UNL A   1      42.033  26.210  27.623  1.00  0.00     0.060 A 
ATOM     34  C   UNL A   1      42.760  27.400  27.772  1.00  0.00     0.016 A 
ATOM     35  C   UNL A   1      40.920  25.954  28.426  1.00  0.00     0.016 A 
ATOM     36  C   UNL A   1      42.393  28.324  28.749  1.00  0.00     0.010 A 
ATOM     37  C   UNL A   1      40.571  26.868  29.424  1.00  0.00     0.010 A 
ATOM     38  C   UNL A   1      41.328  28.039  29.612  1.00  0.00    -0.014 A 
BRANCH  38  39
ATOM     39  C   UNL A   1      41.150  28.849  30.840  1.00  0.00     0.031 A 
ATOM     40  C   UNL A   1      40.057  29.882  30.850  1.00  0.00     0.074 A 
ATOM     41  C   UNL A   1      41.918  28.656  31.927  1.00  0.00     0.049 A 
ATOM     42  N   UNL A   1      39.736  30.743  31.779  1.00  0.00    -0.248 NA
ATOM     43  C   UNL A   1      39.213  29.953  29.646  1.00  0.00     0.031 C 
ATOM     44  C   UNL A   1      42.973  27.652  32.051  1.00  0.00     0.029 A 
ATOM     45  N   UNL A   1      41.928  29.306  33.135  1.00  0.00    -0.354 N 
ATOM     46  C   UNL A   1      38.660  31.462  31.270  1.00  0.00     0.074 A 
ATOM     47  C   UNL A   1      38.404  30.959  29.939  1.00  0.00     0.031 C 
ATOM     48  C   UNL A   1      43.540  27.764  33.265  1.00  0.00     0.029 A 
ATOM     49  C   UNL A   1      42.913  28.869  33.989  1.00  0.00     0.049 A 
ATOM     50  H   UNL A   1      41.291  30.020  33.368  1.00  0.00     0.167 HD
ATOM     51  C   UNL A   1      37.947  32.448  31.862  1.00  0.00     0.037 A 
ATOM     52  C   UNL A   1      43.279  29.329  35.203  1.00  0.00     0.037 A 
ATOM     53  C   UNL A   1      38.214  32.945  33.186  1.00  0.00     0.049 A 
ATOM     54  C   UNL A   1      42.520  30.483  35.812  1.00  0.00     0.074 A 
ATOM     55  C   UNL A   1      37.545  33.934  33.884  1.00  0.00     0.029 A 
ATOM     56  N   UNL A   1      39.240  32.500  34.008  1.00  0.00    -0.354 N 
ATOM     57  N   UNL A   1      41.494  31.143  35.330  1.00  0.00    -0.248 NA
ATOM     58  C   UNL A   1      42.966  30.950  37.132  1.00  0.00     0.031 C 
ATOM     59  C   UNL A   1      38.203  34.129  35.102  1.00  0.00     0.029 A 
ATOM     60  C   UNL A   1      39.240  33.214  35.194  1.00  0.00     0.049 A 
ATOM     61  H   UNL A   1      39.874  31.781  33.780  1.00  0.00     0.167 HD
ATOM     62  C   UNL A   1      41.152  32.082  36.301  1.00  0.00     0.074 A 
ATOM     63  C   UNL A   1      42.075  31.895  37.401  1.00  0.00     0.031 C 
ATOM     64  C   UNL A   1      40.162  33.009  36.284  1.00  0.00     0.037 A 
BRANCH  51  65
ATOM     65  C   UNL A   1      36.834  33.078  31.069  1.00  0.00     0.058 A 
ATOM     66  C   UNL A   1      37.085  33.977  30.020  1.00  0.00     0.135 A 
ATOM     67  C   UNL A   1      35.495  32.757  31.349  1.00  0.00     0.135 A 
ATOM     68  F   UNL A   1      38.344  34.337  29.724  1.00  0.00    -0.206 F 
ATOM     69  C   UNL A   1      36.049  34.553  29.292  1.00  0.00     0.059 A 
ATOM     70  C   UNL A   1      34.445  33.297  30.613  1.00  0.00     0.059 A 
ATOM     71  F   UNL A   1      35.197  31.910  32.346  1.00  0.00    -0.206 F 
ATOM     72  C   UNL A   1      34.731  34.205  29.595  1.00  0.00     0.060 A 
BRANCH  72  73
ATOM     73  S   UNL A   1      33.398  34.954  28.636  1.00  0.00     0.124 S 
ATOM     74  O   UNL A   1      34.139  35.870  27.774  1.00  0.00    -0.237 OA
ATOM     75  O   UNL A   1      32.808  33.797  27.971  1.00  0.00    -0.237 OA
ATOM     76  O   UNL A   1      32.562  35.587  29.650  1.00  0.00    -0.744 OA
ENDBRANCH  72  73
ENDBRANCH  51  65
BRANCH  52  77
ATOM     77  C   UNL A   1      44.430  28.711  35.918  1.00  0.00     0.058 A 
ATOM     78  C   UNL A   1      45.744  29.145  35.694  1.00  0.00     0.135 A 
ATOM     79  C   UNL A   1      44.236  27.668  36.837  1.00  0.00     0.135 A 
ATOM     80  F   UNL A   1      45.986  30.129  34.815  1.00  0.00    -0.206 F 
ATOM     81  C   UNL A   1      46.827  28.562  36.346  1.00  0.00     0.059 A 
ATOM     82  C   UNL A   1      45.300  27.087  37.523  1.00  0.00     0.059 A 
ATOM     83  F   UNL A   1      42.999  27.216  37.094  1.00  0.00    -0.206 F 
ATOM     84  C   UNL A   1      46.594  27.536  37.264  1.00  0.00     0.060 A 
BRANCH  84  85
ATOM     85  S   UNL A   1      48.000  26.824  38.144  1.00  0.00     0.124 S 
ATOM     86  O   UNL A   1      47.430  26.579  39.463  1.00  0.00    -0.237 OA
ATOM     87  O   UNL A   1      48.291  25.639  37.342  1.00  0.00    -0.237 OA
ATOM     88  O   UNL A   1      49.008  27.878  38.077  1.00  0.00    -0.744 OA
ENDBRANCH  84  85
ENDBRANCH  52  77
BRANCH  64  89
ATOM     89  C   UNL A   1      39.990  33.870  37.509  1.00  0.00     0.058 A 
ATOM     90  C   UNL A   1      40.692  35.073  37.677  1.00  0.00     0.135 A 
ATOM     91  C   UNL A   1      39.059  33.512  38.500  1.00  0.00     0.135 A 
ATOM     92  F   UNL A   1      41.598  35.461  36.765  1.00  0.00    -0.206 F 
ATOM     93  C   UNL A   1      40.498  35.877  38.796  1.00  0.00     0.059 A 
ATOM     94  C   UNL A   1      38.823  34.318  39.608  1.00  0.00     0.059 A 
ATOM     95  F   UNL A   1      38.350  32.379  38.383  1.00  0.00    -0.206 F 
ATOM     96  C   UNL A   1      39.558  35.493  39.755  1.00  0.00     0.060 A 
BRANCH  96  97
ATOM     97  S   UNL A   1      39.292  36.565  41.183  1.00  0.00     0.124 S 
ATOM     98  O   UNL A   1      40.653  36.739  41.678  1.00  0.00    -0.237 OA
ATOM     99  O   UNL A   1      38.681  37.745  40.578  1.00  0.00    -0.237 OA
ATOM    100  O   UNL A   1      38.409  35.779  42.040  1.00  0.00    -0.744 OA
ENDBRANCH  96  97
ENDBRANCH  64  89
ENDBRANCH  38  39
ENDBRANCH  31  33
ENDBRANCH  30  31
ENDBRANCH  29  30
ENDBRANCH  28  29
ENDBRANCH  27  28
ENDBRANCH  26  27
ENDBRANCH  25  26
ENDBRANCH   1  25
TORSDOF 26
ENDMDL
MODEL 2
REMARK VINA RESULT:      -9.2      1.655      2.719
REMARK SMILES C[C@@H](C(=O)OCCOCCOCCOCCOC(=O)c1ccc(-c2c3nc(c(-c4c(F)cc(S(=O)(=O)[O-])cc4F)c4ccc([nH]4)c(-c4c(F)cc(S(=O)(=O)[O-])cc4F)c4nc(c(-c5c(F)cc(S(=O)(=O)[O-])cc5F)c5ccc2[nH]5)C=C4)C=C3)cc1)N(C)c1ccc(C(N)=O)nn1
REMARK SMILES IDX 11 1 10 2 9 3 8 4 7 5 6 6 5 7 3 8 4 9 2 10 1 11 86 12 87 13
REMARK SMILES IDX 88 14 89 15 96 16 90 17 95 18 91 19 92 20 93 21 94 22 12 25
REMARK SMILES IDX 13 26 14 27 15 28 16 29 17 30 18 31 19 32 20 33 21 34 85 35
REMARK SMILES IDX 22 36 84 37 23 38 24 39 25 40 78 41 26 42 83 43 77 44 79 45
REMARK SMILES IDX 27 46 82 47 76 48 75 49 28 51 62 52 41 53 61 54 42 55 45 56
REMARK SMILES IDX 60 57 80 58 43 59 44 60 59 62 81 63 46 64 29 65 30 66 39 67
REMARK SMILES IDX 31 68 32 69 38 70 40 71 33 72 34 73 35 74 36 75 37 76 63 77
REMARK SMILES IDX 64 78 73 79 65 80 66 81 72 82 74 83 67 84 68 85 69 86 70 87
REMARK SMILES IDX 71 88 47 89 48 90 57 91 49 92 50 93 56 94 58 95 51 96 52 97
REMARK SMILES IDX 53 98 54 99 55 100
REMARK H PARENT 93 23 93 24 79 50 45 61
REMARK Flexibility Score: inf
ROOT
ATOM      1  O   UNL A   1      42.397  22.455  26.097  1.00  0.00    -0.377 OA
ENDROOT
BRANCH   1   2
ATOM      2  C   UNL A   1      41.757  22.390  27.353  1.00  0.00     0.188 C 
BRANCH   2   3
ATOM      3  C   UNL A   1      40.223  22.255  27.302  1.00  0.00     0.188 C 
BRANCH   3   4
ATOM      4  O   UNL A   1      39.445  23.226  26.620  1.00  0.00    -0.376 OA
BRANCH   4   5
ATOM      5  C   UNL A   1      38.247  22.839  25.965  1.00  0.00     0.202 C 
BRANCH   5   6
ATOM      6  C   UNL A   1      37.051  23.801  25.799  1.00  0.00     0.261 C 
BRANCH   6   7
ATOM      7  O   UNL A   1      35.999  23.408  24.895  1.00  0.00    -0.462 OA
BRANCH   7   8
ATOM      8  C   UNL A   1      35.581  22.116  24.952  1.00  0.00     0.328 C 
ATOM      9  O   UNL A   1      36.203  21.177  24.464  1.00  0.00    -0.250 OA
BRANCH   8  10
ATOM     10  C   UNL A   1      34.207  21.936  25.662  1.00  0.00     0.190 C 
ATOM     11  C   UNL A   1      34.175  21.677  27.170  1.00  0.00     0.044 C 
BRANCH  10  12
ATOM     12  N   UNL A   1      33.229  21.093  24.883  1.00  0.00    -0.345 N 
ATOM     13  C   UNL A   1      32.983  21.575  23.520  1.00  0.00     0.146 C 
BRANCH  12  14
ATOM     14  C   UNL A   1      33.225  19.693  24.942  1.00  0.00     0.151 A 
ATOM     15  C   UNL A   1      34.183  18.929  24.280  1.00  0.00     0.051 A 
ATOM     16  N   UNL A   1      32.342  19.035  25.732  1.00  0.00    -0.132 NA
ATOM     17  C   UNL A   1      34.189  17.529  24.385  1.00  0.00     0.040 A 
ATOM     18  N   UNL A   1      32.330  17.645  25.852  1.00  0.00    -0.143 NA
ATOM     19  C   UNL A   1      33.238  16.916  25.177  1.00  0.00     0.150 A 
BRANCH  19  20
ATOM     20  C   UNL A   1      33.187  15.432  25.323  1.00  0.00     0.269 C 
ATOM     21  N   UNL A   1      31.948  14.866  25.477  1.00  0.00    -0.364 N 
ATOM     22  O   UNL A   1      34.202  14.744  25.314  1.00  0.00    -0.268 OA
ATOM     23  H   UNL A   1      31.144  15.435  25.481  1.00  0.00     0.160 HD
ATOM     24  H   UNL A   1      31.862  13.891  25.582  1.00  0.00     0.160 HD
ENDBRANCH  19  20
ENDBRANCH  12  14
ENDBRANCH  10  12
ENDBRANCH   8  10
ENDBRANCH   7   8
ENDBRANCH   6   7
ENDBRANCH   5   6
ENDBRANCH   4   5
ENDBRANCH   3   4
ENDBRANCH   2   3
ENDBRANCH   1   2
BRANCH   1  25
ATOM     25  C   UNL A   1      43.147  21.312  25.715  1.00  0.00     0.188 C 
BRANCH  25  26
ATOM     26  C   UNL A   1      44.661  21.481  25.487  1.00  0.00     0.188 C 
BRANCH  26  27
ATOM     27  O   UNL A   1      45.029  22.705  24.858  1.00  0.00    -0.376 OA
BRANCH  27  28
ATOM     28  C   UNL A   1      45.821  23.642  25.574  1.00  0.00     0.202 C 
BRANCH  28  29
ATOM     29  C   UNL A   1      45.132  24.435  26.697  1.00  0.00     0.261 C 
BRANCH  29  30
ATOM     30  O   UNL A   1      44.720  25.770  26.372  1.00  0.00    -0.460 OA
BRANCH  30  31
ATOM     31  C   UNL A   1      43.409  25.966  26.095  1.00  0.00     0.338 C 
ATOM     32  O   UNL A   1      42.767  25.461  25.202  1.00  0.00    -0.246 OA
BRANCH  31  33
ATOM     33  C   UNL A   1      42.832  26.746  27.213  1.00  0.00     0.060 A 
ATOM     34  C   UNL A   1      43.136  28.111  27.307  1.00  0.00     0.016 A 
ATOM     35  C   UNL A   1      41.989  26.141  28.148  1.00  0.00     0.016 A 
ATOM     36  C   UNL A   1      42.623  28.870  28.357  1.00  0.00     0.010 A 
ATOM     37  C   UNL A   1      41.498  26.897  29.216  1.00  0.00     0.010 A 
ATOM     38  C   UNL A   1      41.842  28.255  29.344  1.00  0.00    -0.014 A 
BRANCH  38  39
ATOM     39  C   UNL A   1      41.578  28.972  30.613  1.00  0.00     0.031 A 
ATOM     40  C   UNL A   1      40.414  29.925  30.655  1.00  0.00     0.074 A 
ATOM     41  C   UNL A   1      42.329  28.764  31.709  1.00  0.00     0.049 A 
ATOM     42  N   UNL A   1      40.010  30.702  31.625  1.00  0.00    -0.248 NA
ATOM     43  C   UNL A   1      39.598  30.013  29.433  1.00  0.00     0.031 C 
ATOM     44  C   UNL A   1      43.449  27.829  31.802  1.00  0.00     0.029 A 
ATOM     45  N   UNL A   1      42.264  29.336  32.954  1.00  0.00    -0.354 N 
ATOM     46  C   UNL A   1      38.900  31.376  31.129  1.00  0.00     0.074 A 
ATOM     47  C   UNL A   1      38.713  30.941  29.763  1.00  0.00     0.031 C 
ATOM     48  C   UNL A   1      43.976  27.903  33.036  1.00  0.00     0.029 A 
ATOM     49  C   UNL A   1      43.255  28.915  33.808  1.00  0.00     0.049 A 
ATOM     50  H   UNL A   1      41.572  29.988  33.211  1.00  0.00     0.167 HD
ATOM     51  C   UNL A   1      38.105  32.271  31.760  1.00  0.00     0.037 A 
ATOM     52  C   UNL A   1      43.558  29.321  35.058  1.00  0.00     0.037 A 
ATOM     53  C   UNL A   1      38.304  32.701  33.119  1.00  0.00     0.049 A 
ATOM     54  C   UNL A   1      42.705  30.379  35.714  1.00  0.00     0.074 A 
ATOM     55  C   UNL A   1      37.549  33.596  33.856  1.00  0.00     0.029 A 
ATOM     56  N   UNL A   1      39.337  32.276  33.941  1.00  0.00    -0.354 N 
ATOM     57  N   UNL A   1      41.647  30.997  35.243  1.00  0.00    -0.248 NA
ATOM     58  C   UNL A   1      43.084  30.791  37.073  1.00  0.00     0.031 C 
ATOM     59  C   UNL A   1      38.161  33.758  35.102  1.00  0.00     0.029 A 
ATOM     60  C   UNL A   1      39.258  32.912  35.168  1.00  0.00     0.049 A 
ATOM     61  H   UNL A   1      40.026  31.619  33.689  1.00  0.00     0.167 HD
ATOM     62  C   UNL A   1      41.216  31.847  36.259  1.00  0.00     0.074 A 
ATOM     63  C   UNL A   1      42.122  31.654  37.372  1.00  0.00     0.031 C 
ATOM     64  C   UNL A   1      40.164  32.704  36.271  1.00  0.00     0.037 A 
BRANCH  51  65
ATOM     65  C   UNL A   1      36.970  32.872  30.974  1.00  0.00     0.058 A 
ATOM     66  C   UNL A   1      35.633  32.513  31.206  1.00  0.00     0.135 A 
ATOM     67  C   UNL A   1      37.226  33.840  29.989  1.00  0.00     0.135 A 
ATOM     68  F   UNL A   1      35.332  31.575  32.120  1.00  0.00    -0.206 F 
ATOM     69  C   UNL A   1      34.591  33.074  30.475  1.00  0.00     0.059 A 
ATOM     70  C   UNL A   1      36.197  34.438  29.267  1.00  0.00     0.059 A 
ATOM     71  F   UNL A   1      38.486  34.214  29.720  1.00  0.00    -0.206 F 
ATOM     72  C   UNL A   1      34.884  34.039  29.509  1.00  0.00     0.060 A 
BRANCH  72  73
ATOM     73  S   UNL A   1      33.521  34.765  28.574  1.00  0.00     0.124 S 
ATOM     74  O   UNL A   1      34.128  36.000  28.085  1.00  0.00    -0.237 OA
ATOM     75  O   UNL A   1      33.260  33.745  27.565  1.00  0.00    -0.237 OA
ATOM     76  O   UNL A   1      32.473  34.937  29.575  1.00  0.00    -0.744 OA
ENDBRANCH  72  73
ENDBRANCH  51  65
BRANCH  52  77
ATOM     77  C   UNL A   1      44.731  28.740  35.767  1.00  0.00     0.058 A 
ATOM     78  C   UNL A   1      44.598  27.615  36.594  1.00  0.00     0.135 A 
ATOM     79  C   UNL A   1      46.010  29.304  35.636  1.00  0.00     0.135 A 
ATOM     80  F   UNL A   1      43.396  27.046  36.765  1.00  0.00    -0.206 F 
ATOM     81  C   UNL A   1      45.687  27.076  37.274  1.00  0.00     0.059 A 
ATOM     82  C   UNL A   1      47.119  28.767  36.284  1.00  0.00     0.059 A 
ATOM     83  F   UNL A   1      46.196  30.379  34.854  1.00  0.00    -0.206 F 
ATOM     84  C   UNL A   1      46.945  27.656  37.108  1.00  0.00     0.060 A 
BRANCH  84  85
ATOM     85  S   UNL A   1      48.360  26.916  37.952  1.00  0.00     0.124 S 
ATOM     86  O   UNL A   1      48.283  27.545  39.264  1.00  0.00    -0.237 OA
ATOM     87  O   UNL A   1      48.031  25.494  37.904  1.00  0.00    -0.237 OA
ATOM     88  O   UNL A   1      49.493  27.317  37.123  1.00  0.00    -0.744 OA
ENDBRANCH  84  85
ENDBRANCH  52  77
BRANCH  64  89
ATOM     89  C   UNL A   1      39.902  33.471  37.540  1.00  0.00     0.058 A 
ATOM     90  C   UNL A   1      40.601  34.645  37.857  1.00  0.00     0.135 A 
ATOM     91  C   UNL A   1      38.888  33.055  38.421  1.00  0.00     0.135 A 
ATOM     92  F   UNL A   1      41.583  35.086  37.054  1.00  0.00    -0.206 F 
ATOM     93  C   UNL A   1      40.325  35.366  39.016  1.00  0.00     0.059 A 
ATOM     94  C   UNL A   1      38.571  33.779  39.566  1.00  0.00     0.059 A 
ATOM     95  F   UNL A   1      38.178  31.947  38.160  1.00  0.00    -0.206 F 
ATOM     96  C   UNL A   1      39.305  34.926  39.862  1.00  0.00     0.060 A 
BRANCH  96  97
ATOM     97  S   UNL A   1      38.934  35.891  41.342  1.00  0.00     0.124 S 
ATOM     98  O   UNL A   1      37.748  35.208  41.849  1.00  0.00    -0.237 OA
ATOM     99  O   UNL A   1      40.148  35.725  42.135  1.00  0.00    -0.237 OA
ATOM    100  O   UNL A   1      38.709  37.238  40.824  1.00  0.00    -0.744 OA
ENDBRANCH  96  97
ENDBRANCH  64  89
ENDBRANCH  38  39
ENDBRANCH  31  33
ENDBRANCH  30  31
ENDBRANCH  29  30
ENDBRANCH  28  29
ENDBRANCH  27  28
ENDBRANCH  26  27
ENDBRANCH  25  26
ENDBRANCH   1  25
TORSDOF 26
ENDMDL
MODEL 3
REMARK VINA RESULT:      -9.1      1.757      8.426
REMARK SMILES C[C@@H](C(=O)OCCOCCOCCOCCOC(=O)c1ccc(-c2c3nc(c(-c4c(F)cc(S(=O)(=O)[O-])cc4F)c4ccc([nH]4)c(-c4c(F)cc(S(=O)(=O)[O-])cc4F)c4nc(c(-c5c(F)cc(S(=O)(=O)[O-])cc5F)c5ccc2[nH]5)C=C4)C=C3)cc1)N(C)c1ccc(C(N)=O)nn1
REMARK SMILES IDX 11 1 10 2 9 3 8 4 7 5 6 6 5 7 3 8 4 9 2 10 1 11 86 12 87 13
REMARK SMILES IDX 88 14 89 15 96 16 90 17 95 18 91 19 92 20 93 21 94 22 12 25
REMARK SMILES IDX 13 26 14 27 15 28 16 29 17 30 18 31 19 32 20 33 21 34 85 35
REMARK SMILES IDX 22 36 84 37 23 38 24 39 25 40 78 41 26 42 83 43 77 44 79 45
REMARK SMILES IDX 27 46 82 47 76 48 75 49 28 51 62 52 41 53 61 54 42 55 45 56
REMARK SMILES IDX 60 57 80 58 43 59 44 60 59 62 81 63 46 64 29 65 30 66 39 67
REMARK SMILES IDX 31 68 32 69 38 70 40 71 33 72 34 73 35 74 36 75 37 76 63 77
REMARK SMILES IDX 64 78 73 79 65 80 66 81 72 82 74 83 67 84 68 85 69 86 70 87
REMARK SMILES IDX 71 88 47 89 48 90 57 91 49 92 50 93 56 94 58 95 51 96 52 97
REMARK SMILES IDX 53 98 54 99 55 100
REMARK H PARENT 93 23 93 24 79 50 45 61
REMARK Flexibility Score: inf
ROOT
ATOM      1  O   UNL A   1      42.358  22.477  26.063  1.00  0.00    -0.377 OA
ENDROOT
BRANCH   1   2
ATOM      2  C   UNL A   1      41.710  22.391  27.314  1.00  0.00     0.188 C 
BRANCH   2   3
ATOM      3  C   UNL A   1      40.187  22.170  27.250  1.00  0.00     0.188 C 
BRANCH   3   4
ATOM      4  O   UNL A   1      39.376  23.025  26.459  1.00  0.00    -0.376 OA
BRANCH   4   5
ATOM      5  C   UNL A   1      38.153  22.542  25.922  1.00  0.00     0.202 C 
BRANCH   5   6
ATOM      6  C   UNL A   1      36.975  23.481  25.586  1.00  0.00     0.261 C 
BRANCH   6   7
ATOM      7  O   UNL A   1      35.942  22.971  24.718  1.00  0.00    -0.462 OA
BRANCH   7   8
ATOM      8  C   UNL A   1      35.430  21.746  25.014  1.00  0.00     0.328 C 
ATOM      9  O   UNL A   1      36.040  20.694  24.840  1.00  0.00    -0.250 OA
BRANCH   8  10
ATOM     10  C   UNL A   1      33.974  21.794  25.559  1.00  0.00     0.190 C 
ATOM     11  C   UNL A   1      33.742  21.777  27.071  1.00  0.00     0.044 C 
BRANCH  10  12
ATOM     12  N   UNL A   1      33.010  20.925  24.790  1.00  0.00    -0.345 N 
ATOM     13  C   UNL A   1      32.777  21.372  23.413  1.00  0.00     0.146 C 
BRANCH  12  14
ATOM     14  C   UNL A   1      33.016  19.527  24.882  1.00  0.00     0.151 A 
ATOM     15  C   UNL A   1      33.838  18.743  24.077  1.00  0.00     0.051 A 
ATOM     16  N   UNL A   1      32.290  18.893  25.836  1.00  0.00    -0.132 NA
ATOM     17  C   UNL A   1      33.862  17.345  24.213  1.00  0.00     0.040 A 
ATOM     18  N   UNL A   1      32.299  17.506  25.989  1.00  0.00    -0.143 NA
ATOM     19  C   UNL A   1      33.069  16.757  25.180  1.00  0.00     0.150 A 
BRANCH  19  20
ATOM     20  C   UNL A   1      33.044  15.277  25.369  1.00  0.00     0.269 C 
ATOM     21  N   UNL A   1      31.816  14.696  25.558  1.00  0.00    -0.364 N 
ATOM     22  O   UNL A   1      34.069  14.605  25.364  1.00  0.00    -0.268 OA
ATOM     23  H   UNL A   1      31.004  15.252  25.558  1.00  0.00     0.160 HD
ATOM     24  H   UNL A   1      31.748  13.724  25.692  1.00  0.00     0.160 HD
ENDBRANCH  19  20
ENDBRANCH  12  14
ENDBRANCH  10  12
ENDBRANCH   8  10
ENDBRANCH   7   8
ENDBRANCH   6   7
ENDBRANCH   5   6
ENDBRANCH   4   5
ENDBRANCH   3   4
ENDBRANCH   2   3
ENDBRANCH   1   2
BRANCH   1  25
ATOM     25  C   UNL A   1      42.933  21.276  25.571  1.00  0.00     0.188 C 
BRANCH  25  26
ATOM     26  C   UNL A   1      44.469  21.155  25.572  1.00  0.00     0.188 C 
BRANCH  26  27
ATOM     27  O   UNL A   1      45.153  22.318  25.113  1.00  0.00    -0.376 OA
BRANCH  27  28
ATOM     28  C   UNL A   1      45.988  23.030  26.015  1.00  0.00     0.202 C 
BRANCH  28  29
ATOM     29  C   UNL A   1      45.298  23.902  27.076  1.00  0.00     0.261 C 
BRANCH  29  30
ATOM     30  O   UNL A   1      45.110  25.284  26.740  1.00  0.00    -0.460 OA
BRANCH  30  31
ATOM     31  C   UNL A   1      43.911  25.641  26.222  1.00  0.00     0.338 C 
ATOM     32  O   UNL A   1      43.391  25.210  25.218  1.00  0.00    -0.246 OA
BRANCH  31  33
ATOM     33  C   UNL A   1      43.237  26.503  27.220  1.00  0.00     0.060 A 
ATOM     34  C   UNL A   1      43.491  27.881  27.199  1.00  0.00     0.016 A 
ATOM     35  C   UNL A   1      42.351  25.959  28.153  1.00  0.00     0.016 A 
ATOM     36  C   UNL A   1      42.885  28.717  28.134  1.00  0.00     0.010 A 
ATOM     37  C   UNL A   1      41.767  26.795  29.108  1.00  0.00     0.010 A 
ATOM     38  C   UNL A   1      42.059  28.171  29.124  1.00  0.00    -0.014 A 
BRANCH  38  39
ATOM     39  C   UNL A   1      41.688  28.995  30.298  1.00  0.00     0.031 A 
ATOM     40  C   UNL A   1      42.517  28.857  31.546  1.00  0.00     0.074 A 
ATOM     41  C   UNL A   1      40.662  29.864  30.252  1.00  0.00     0.049 A 
ATOM     42  N   UNL A   1      42.366  29.428  32.712  1.00  0.00    -0.248 NA
ATOM     43  C   UNL A   1      43.673  27.949  31.465  1.00  0.00     0.031 C 
ATOM     44  C   UNL A   1      39.821  30.119  29.085  1.00  0.00     0.029 A 
ATOM     45  N   UNL A   1      40.152  30.689  31.223  1.00  0.00    -0.354 N 
ATOM     46  C   UNL A   1      43.400  28.943  33.504  1.00  0.00     0.074 A 
ATOM     47  C   UNL A   1      44.152  28.008  32.698  1.00  0.00     0.031 C 
ATOM     48  C   UNL A   1      38.887  31.029  29.412  1.00  0.00     0.029 A 
ATOM     49  C   UNL A   1      39.041  31.393  30.820  1.00  0.00     0.049 A 
ATOM     50  H   UNL A   1      40.543  30.767  32.123  1.00  0.00     0.167 HD
ATOM     51  C   UNL A   1      43.698  29.255  34.787  1.00  0.00     0.037 A 
ATOM     52  C   UNL A   1      38.232  32.214  31.519  1.00  0.00     0.037 A 
ATOM     53  C   UNL A   1      42.939  30.183  35.582  1.00  0.00     0.049 A 
ATOM     54  C   UNL A   1      38.537  32.488  32.972  1.00  0.00     0.074 A 
ATOM     55  C   UNL A   1      43.163  30.578  36.889  1.00  0.00     0.029 A 
ATOM     56  N   UNL A   1      41.803  30.853  35.151  1.00  0.00    -0.354 N 
ATOM     57  N   UNL A   1      39.527  32.038  33.706  1.00  0.00    -0.248 NA
ATOM     58  C   UNL A   1      37.618  33.383  33.688  1.00  0.00     0.031 C 
ATOM     59  C   UNL A   1      42.128  31.439  37.267  1.00  0.00     0.029 A 
ATOM     60  C   UNL A   1      41.297  31.635  36.174  1.00  0.00     0.049 A 
ATOM     61  H   UNL A   1      41.414  30.781  34.249  1.00  0.00     0.167 HD
ATOM     62  C   UNL A   1      39.368  32.621  34.961  1.00  0.00     0.074 A 
ATOM     63  C   UNL A   1      38.193  33.463  34.881  1.00  0.00     0.031 C 
ATOM     64  C   UNL A   1      40.128  32.476  36.076  1.00  0.00     0.037 A 
BRANCH  51  65
ATOM     65  C   UNL A   1      44.874  28.560  35.419  1.00  0.00     0.058 A 
ATOM     66  C   UNL A   1      46.167  29.105  35.386  1.00  0.00     0.135 A 
ATOM     67  C   UNL A   1      44.697  27.338  36.090  1.00  0.00     0.135 A 
ATOM     68  F   UNL A   1      46.398  30.259  34.738  1.00  0.00    -0.206 F 
ATOM     69  C   UNL A   1      47.247  28.455  35.974  1.00  0.00     0.059 A 
ATOM     70  C   UNL A   1      45.757  26.686  36.713  1.00  0.00     0.059 A 
ATOM     71  F   UNL A   1      43.484  26.767  36.146  1.00  0.00    -0.206 F 
ATOM     72  C   UNL A   1      47.031  27.246  36.638  1.00  0.00     0.060 A 
BRANCH  72  73
ATOM     73  S   UNL A   1      48.440  26.419  37.404  1.00  0.00     0.124 S 
ATOM     74  O   UNL A   1      49.094  27.530  38.090  1.00  0.00    -0.237 OA
ATOM     75  O   UNL A   1      47.791  25.437  38.267  1.00  0.00    -0.237 OA
ATOM     76  O   UNL A   1      49.171  25.867  36.268  1.00  0.00    -0.744 OA
ENDBRANCH  72  73
ENDBRANCH  51  65
BRANCH  52  77
ATOM     77  C   UNL A   1      37.045  32.827  30.862  1.00  0.00     0.058 A 
ATOM     78  C   UNL A   1      37.177  33.903  29.972  1.00  0.00     0.135 A 
ATOM     79  C   UNL A   1      35.749  32.350  31.117  1.00  0.00     0.135 A 
ATOM     80  F   UNL A   1      38.392  34.406  29.705  1.00  0.00    -0.206 F 
ATOM     81  C   UNL A   1      36.071  34.492  29.367  1.00  0.00     0.059 A 
ATOM     82  C   UNL A   1      34.628  32.903  30.503  1.00  0.00     0.059 A 
ATOM     83  F   UNL A   1      35.563  31.319  31.956  1.00  0.00    -0.206 F 
ATOM     84  C   UNL A   1      34.800  33.980  29.635  1.00  0.00     0.060 A 
BRANCH  84  85
ATOM     85  S   UNL A   1      33.376  34.717  28.802  1.00  0.00     0.124 S 
ATOM     86  O   UNL A   1      33.021  33.674  27.848  1.00  0.00    -0.237 OA
ATOM     87  O   UNL A   1      32.446  34.915  29.910  1.00  0.00    -0.237 OA
ATOM     88  O   UNL A   1      33.922  35.942  28.226  1.00  0.00    -0.744 OA
ENDBRANCH  84  85
ENDBRANCH  52  77
BRANCH  64  89
ATOM     89  C   UNL A   1      39.744  33.277  37.293  1.00  0.00     0.058 A 
ATOM     90  C   UNL A   1      38.738  32.853  38.175  1.00  0.00     0.135 A 
ATOM     91  C   UNL A   1      40.440  34.455  37.612  1.00  0.00     0.135 A 
ATOM     92  F   UNL A   1      38.038  31.737  37.916  1.00  0.00    -0.206 F 
ATOM     93  C   UNL A   1      38.417  33.582  39.315  1.00  0.00     0.059 A 
ATOM     94  C   UNL A   1      40.160  35.181  38.765  1.00  0.00     0.059 A 
ATOM     95  F   UNL A   1      41.421  34.899  36.812  1.00  0.00    -0.206 F 
ATOM     96  C   UNL A   1      39.137  34.744  39.604  1.00  0.00     0.060 A 
BRANCH  96  97
ATOM     97  S   UNL A   1      38.733  35.660  41.107  1.00  0.00     0.124 S 
ATOM     98  O   UNL A   1      37.488  35.018  41.516  1.00  0.00    -0.237 OA
ATOM     99  O   UNL A   1      39.891  35.396  41.954  1.00  0.00    -0.237 OA
ATOM    100  O   UNL A   1      38.604  37.038  40.641  1.00  0.00    -0.744 OA
ENDBRANCH  96  97
ENDBRANCH  64  89
ENDBRANCH  38  39
ENDBRANCH  31  33
ENDBRANCH  30  31
ENDBRANCH  29  30
ENDBRANCH  28  29
ENDBRANCH  27  28
ENDBRANCH  26  27
ENDBRANCH  25  26
ENDBRANCH   1  25
TORSDOF 26
ENDMDL
