MODEL 1
REMARK VINA RESULT:      -7.2      0.000      0.000
REMARK SMILES CC[NH2+]C(C)(C)C(=O)NC[C@@H]1CC[C@H](C(=O)OCCOCCOCCOCCOC(=O)c2ccc(-c3c4nc(c(-c5c(F)cc(S(=O)(=O)[O-])cc5F)c5ccc([nH]5)c(-c5c(F)cc(S(=O)(=O)[O-])cc5F)c5nc(c(-c6c(F)cc(S(=O)(=O)[O-])cc6F)c6ccc3[nH]6)C=C5)C=C4)cc2)O1
REMARK SMILES IDX 22 1 21 2 20 3 19 4 18 5 17 6 15 7 16 8 14 9 11 10 12 11
REMARK SMILES IDX 98 12 13 13 10 14 9 15 7 16 8 17 4 19 5 20 6 21 3 22 2 25
REMARK SMILES IDX 1 26 23 27 24 28 25 29 26 30 27 31 28 32 29 33 30 34 31 35
REMARK SMILES IDX 32 36 33 37 97 38 34 39 96 40 35 41 36 42 37 43 90 44 38 45
REMARK SMILES IDX 95 46 89 47 91 48 39 49 94 50 88 51 87 52 40 54 74 55 53 56
REMARK SMILES IDX 73 57 54 58 57 59 72 60 92 61 55 62 56 63 71 65 93 66 58 67
REMARK SMILES IDX 41 68 42 69 51 70 43 71 44 72 50 73 52 74 45 75 46 76 47 77
REMARK SMILES IDX 48 78 49 79 75 80 76 81 85 82 77 83 78 84 84 85 86 86 79 87
REMARK SMILES IDX 80 88 81 89 82 90 83 91 59 92 60 93 69 94 61 95 62 96 68 97
REMARK SMILES IDX 70 98 63 99 64 100 65 101 66 102 67 103
REMARK H PARENT 9 18 3 23 3 24 91 53 57 64
REMARK Flexibility Score: inf
ROOT
ATOM      1  C   UNL A   1      47.521  26.070  33.847  1.00  0.00     0.188 C 
ENDROOT
BRANCH   1   2
ATOM      2  C   UNL A   1      49.007  25.688  33.869  1.00  0.00     0.188 C 
BRANCH   2   3
ATOM      3  O   UNL A   1      49.644  25.415  35.107  1.00  0.00    -0.376 OA
BRANCH   3   4
ATOM      4  C   UNL A   1      49.990  24.068  35.423  1.00  0.00     0.202 C 
BRANCH   4   5
ATOM      5  C   UNL A   1      50.163  23.041  34.295  1.00  0.00     0.261 C 
BRANCH   5   6
ATOM      6  O   UNL A   1      51.420  22.323  34.329  1.00  0.00    -0.461 OA
BRANCH   6   7
ATOM      7  C   UNL A   1      51.610  21.368  33.391  1.00  0.00     0.335 C 
ATOM      8  O   UNL A   1      51.691  21.616  32.190  1.00  0.00    -0.249 OA
BRANCH   7   9
ATOM      9  C   UNL A   1      51.773  19.926  33.935  1.00  0.00     0.228 C 
ATOM     10  C   UNL A   1      50.730  19.317  35.957  1.00  0.00     0.138 C 
ATOM     11  C   UNL A   1      52.197  19.555  36.257  1.00  0.00     0.037 C 
ATOM     12  O   UNL A   1      50.537  19.500  34.539  1.00  0.00    -0.361 OA
ATOM     13  C   UNL A   1      52.849  19.492  34.913  1.00  0.00     0.047 C 
BRANCH  10  14
ATOM     14  C   UNL A   1      49.769  20.234  36.731  1.00  0.00     0.148 C 
BRANCH  14  15
ATOM     15  N   UNL A   1      50.424  21.041  37.743  1.00  0.00    -0.348 N 
ATOM     16  C   UNL A   1      50.348  21.034  39.108  1.00  0.00     0.280 C 
ATOM     17  O   UNL A   1      50.827  22.040  39.645  1.00  0.00    -0.268 OA
ATOM     18  H   UNL A   1      51.036  21.721  37.380  1.00  0.00     0.163 HD
BRANCH  16  19
ATOM     19  C   UNL A   1      49.671  19.864  39.912  1.00  0.00     0.169 C 
ATOM     20  C   UNL A   1      50.457  18.546  39.832  1.00  0.00     0.090 C 
ATOM     21  C   UNL A   1      48.241  19.657  39.422  1.00  0.00     0.090 C 
BRANCH  19  22
ATOM     22  N   UNL A   1      49.477  20.248  41.333  1.00  0.00    -0.334 N 
ATOM     23  H   UNL A   1      50.033  21.083  41.516  1.00  0.00     0.347 HD
ATOM     24  H   UNL A   1      48.476  20.400  41.458  1.00  0.00     0.347 HD
BRANCH  22  25
ATOM     25  C   UNL A   1      49.864  19.223  42.297  1.00  0.00     0.257 C 
ATOM     26  C   UNL A   1      50.992  19.781  43.131  1.00  0.00     0.071 C 
ENDBRANCH  22  25
ENDBRANCH  19  22
ENDBRANCH  16  19
ENDBRANCH  14  15
ENDBRANCH  10  14
ENDBRANCH   7   9
ENDBRANCH   6   7
ENDBRANCH   5   6
ENDBRANCH   4   5
ENDBRANCH   3   4
ENDBRANCH   2   3
ENDBRANCH   1   2
BRANCH   1  27
ATOM     27  O   UNL A   1      46.667  25.139  33.208  1.00  0.00    -0.377 OA
BRANCH  27  28
ATOM     28  C   UNL A   1      46.104  24.082  33.981  1.00  0.00     0.188 C 
BRANCH  28  29
ATOM     29  C   UNL A   1      45.810  24.340  35.471  1.00  0.00     0.188 C 
BRANCH  29  30
ATOM     30  O   UNL A   1      46.672  23.647  36.362  1.00  0.00    -0.376 OA
BRANCH  30  31
ATOM     31  C   UNL A   1      46.830  24.134  37.687  1.00  0.00     0.202 C 
BRANCH  31  32
ATOM     32  C   UNL A   1      47.776  25.325  37.934  1.00  0.00     0.261 C 
BRANCH  32  33
ATOM     33  O   UNL A   1      47.314  26.350  38.829  1.00  0.00    -0.460 OA
BRANCH  33  34
ATOM     34  C   UNL A   1      47.443  27.634  38.446  1.00  0.00     0.338 C 
ATOM     35  O   UNL A   1      48.353  28.397  38.736  1.00  0.00    -0.246 OA
BRANCH  34  36
ATOM     36  C   UNL A   1      46.399  27.928  37.445  1.00  0.00     0.060 A 
ATOM     37  C   UNL A   1      46.663  28.882  36.454  1.00  0.00     0.016 A 
ATOM     38  C   UNL A   1      45.151  27.304  37.509  1.00  0.00     0.016 A 
ATOM     39  C   UNL A   1      45.658  29.263  35.565  1.00  0.00     0.010 A 
ATOM     40  C   UNL A   1      44.140  27.698  36.626  1.00  0.00     0.010 A 
ATOM     41  C   UNL A   1      44.374  28.715  35.683  1.00  0.00    -0.014 A 
BRANCH  41  42
ATOM     42  C   UNL A   1      43.241  29.366  34.978  1.00  0.00     0.031 A 
ATOM     43  C   UNL A   1      42.881  28.879  33.598  1.00  0.00     0.074 A 
ATOM     44  C   UNL A   1      42.498  30.325  35.559  1.00  0.00     0.049 A 
ATOM     45  N   UNL A   1      41.947  29.300  32.785  1.00  0.00    -0.248 NA
ATOM     46  C   UNL A   1      43.678  27.759  33.068  1.00  0.00     0.031 C 
ATOM     47  C   UNL A   1      42.687  30.839  36.914  1.00  0.00     0.029 A 
ATOM     48  N   UNL A   1      41.426  31.036  35.075  1.00  0.00    -0.354 N 
ATOM     49  C   UNL A   1      42.046  28.504  31.649  1.00  0.00     0.074 A 
ATOM     50  C   UNL A   1      43.156  27.599  31.862  1.00  0.00     0.031 C 
ATOM     51  C   UNL A   1      41.770  31.796  37.143  1.00  0.00     0.029 A 
ATOM     52  C   UNL A   1      40.972  32.002  35.940  1.00  0.00     0.049 A 
ATOM     53  H   UNL A   1      41.023  30.869  34.192  1.00  0.00     0.167 HD
ATOM     54  C   UNL A   1      41.275  28.515  30.536  1.00  0.00     0.037 A 
ATOM     55  C   UNL A   1      40.045  32.966  35.770  1.00  0.00     0.037 A 
ATOM     56  C   UNL A   1      40.171  29.416  30.328  1.00  0.00     0.049 A 
ATOM     57  C   UNL A   1      39.268  33.027  34.488  1.00  0.00     0.074 A 
ATOM     58  C   UNL A   1      39.311  29.485  29.246  1.00  0.00     0.029 A 
ATOM     59  N   UNL A   1      39.784  30.415  31.209  1.00  0.00    -0.354 N 
ATOM     60  N   UNL A   1      39.357  32.257  33.433  1.00  0.00    -0.248 NA
ATOM     61  C   UNL A   1      38.244  34.076  34.388  1.00  0.00     0.031 C 
ATOM     62  C   UNL A   1      38.447  30.567  29.441  1.00  0.00     0.029 A 
ATOM     63  C   UNL A   1      38.721  31.128  30.677  1.00  0.00     0.049 A 
ATOM     64  H   UNL A   1      40.202  30.593  32.082  1.00  0.00     0.167 HD
ATOM     65  C   UNL A   1      38.380  32.707  32.554  1.00  0.00     0.074 A 
ATOM     66  C   UNL A   1      37.709  33.814  33.204  1.00  0.00     0.031 C 
ATOM     67  C   UNL A   1      38.059  32.234  31.325  1.00  0.00     0.037 A 
BRANCH  54  68
ATOM     68  C   UNL A   1      41.624  27.547  29.439  1.00  0.00     0.058 A 
ATOM     69  C   UNL A   1      40.791  26.469  29.100  1.00  0.00     0.135 A 
ATOM     70  C   UNL A   1      42.806  27.716  28.700  1.00  0.00     0.135 A 
ATOM     71  F   UNL A   1      39.657  26.248  29.785  1.00  0.00    -0.206 F 
ATOM     72  C   UNL A   1      41.133  25.575  28.091  1.00  0.00     0.059 A 
ATOM     73  C   UNL A   1      43.152  26.854  27.664  1.00  0.00     0.059 A 
ATOM     74  F   UNL A   1      43.641  28.729  28.981  1.00  0.00    -0.206 F 
ATOM     75  C   UNL A   1      42.317  25.775  27.379  1.00  0.00     0.060 A 
BRANCH  75  76
ATOM     76  S   UNL A   1      42.750  24.603  26.077  1.00  0.00     0.124 S 
ATOM     77  O   UNL A   1      42.527  25.404  24.878  1.00  0.00    -0.237 OA
ATOM     78  O   UNL A   1      44.143  24.296  26.385  1.00  0.00    -0.237 OA
ATOM     79  O   UNL A   1      41.809  23.504  26.281  1.00  0.00    -0.744 OA
ENDBRANCH  75  76
ENDBRANCH  54  68
BRANCH  55  80
ATOM     80  C   UNL A   1      39.821  33.993  36.819  1.00  0.00     0.058 A 
ATOM     81  C   UNL A   1      39.029  33.733  37.945  1.00  0.00     0.135 A 
ATOM     82  C   UNL A   1      40.374  35.274  36.686  1.00  0.00     0.135 A 
ATOM     83  F   UNL A   1      38.440  32.536  38.089  1.00  0.00    -0.206 F 
ATOM     84  C   UNL A   1      38.817  34.700  38.924  1.00  0.00     0.059 A 
ATOM     85  C   UNL A   1      40.169  36.260  37.645  1.00  0.00     0.059 A 
ATOM     86  F   UNL A   1      41.152  35.565  35.631  1.00  0.00    -0.206 F 
ATOM     87  C   UNL A   1      39.408  35.956  38.775  1.00  0.00     0.060 A 
BRANCH  87  88
ATOM     88  S   UNL A   1      39.305  37.136  40.141  1.00  0.00     0.124 S 
ATOM     89  O   UNL A   1      38.512  36.395  41.114  1.00  0.00    -0.237 OA
ATOM     90  O   UNL A   1      40.710  37.338  40.483  1.00  0.00    -0.237 OA
ATOM     91  O   UNL A   1      38.651  38.292  39.536  1.00  0.00    -0.744 OA
ENDBRANCH  87  88
ENDBRANCH  55  80
BRANCH  67  92
ATOM     92  C   UNL A   1      36.902  32.880  30.616  1.00  0.00     0.058 A 
ATOM     93  C   UNL A   1      37.083  33.898  29.668  1.00  0.00     0.135 A 
ATOM     94  C   UNL A   1      35.590  32.443  30.868  1.00  0.00     0.135 A 
ATOM     95  F   UNL A   1      38.313  34.361  29.400  1.00  0.00    -0.206 F 
ATOM     96  C   UNL A   1      36.002  34.479  29.012  1.00  0.00     0.059 A 
ATOM     97  C   UNL A   1      34.498  32.986  30.200  1.00  0.00     0.059 A 
ATOM     98  F   UNL A   1      35.361  31.468  31.762  1.00  0.00    -0.206 F 
ATOM     99  C   UNL A   1      34.714  34.013  29.282  1.00  0.00     0.060 A 
BRANCH  99 100
ATOM    100  S   UNL A   1      33.324  34.752  28.400  1.00  0.00     0.124 S 
ATOM    101  O   UNL A   1      34.009  35.573  27.405  1.00  0.00    -0.237 OA
ATOM    102  O   UNL A   1      32.625  33.580  27.883  1.00  0.00    -0.237 OA
ATOM    103  O   UNL A   1      32.614  35.491  29.440  1.00  0.00    -0.744 OA
ENDBRANCH  99 100
ENDBRANCH  67  92
ENDBRANCH  41  42
ENDBRANCH  34  36
ENDBRANCH  33  34
ENDBRANCH  32  33
ENDBRANCH  31  32
ENDBRANCH  30  31
ENDBRANCH  29  30
ENDBRANCH  28  29
ENDBRANCH  27  28
ENDBRANCH   1  27
TORSDOF 28
ENDMDL
MODEL 2
REMARK VINA RESULT:      -7.1     11.309     19.813
REMARK SMILES CC[NH2+]C(C)(C)C(=O)NC[C@@H]1CC[C@H](C(=O)OCCOCCOCCOCCOC(=O)c2ccc(-c3c4nc(c(-c5c(F)cc(S(=O)(=O)[O-])cc5F)c5ccc([nH]5)c(-c5c(F)cc(S(=O)(=O)[O-])cc5F)c5nc(c(-c6c(F)cc(S(=O)(=O)[O-])cc6F)c6ccc3[nH]6)C=C5)C=C4)cc2)O1
REMARK SMILES IDX 22 1 21 2 20 3 19 4 18 5 17 6 15 7 16 8 14 9 11 10 12 11
REMARK SMILES IDX 98 12 13 13 10 14 9 15 7 16 8 17 4 19 5 20 6 21 3 22 2 25
REMARK SMILES IDX 1 26 23 27 24 28 25 29 26 30 27 31 28 32 29 33 30 34 31 35
REMARK SMILES IDX 32 36 33 37 97 38 34 39 96 40 35 41 36 42 37 43 90 44 38 45
REMARK SMILES IDX 95 46 89 47 91 48 39 49 94 50 88 51 87 52 40 54 74 55 53 56
REMARK SMILES IDX 73 57 54 58 57 59 72 60 92 61 55 62 56 63 71 65 93 66 58 67
REMARK SMILES IDX 41 68 42 69 51 70 43 71 44 72 50 73 52 74 45 75 46 76 47 77
REMARK SMILES IDX 48 78 49 79 75 80 76 81 85 82 77 83 78 84 84 85 86 86 79 87
REMARK SMILES IDX 80 88 81 89 82 90 83 91 59 92 60 93 69 94 61 95 62 96 68 97
REMARK SMILES IDX 70 98 63 99 64 100 65 101 66 102 67 103
REMARK H PARENT 9 18 3 23 3 24 91 53 57 64
REMARK Flexibility Score: inf
ROOT
ATOM      1  C   UNL A   1      45.679  43.822  28.310  1.00  0.00     0.188 C 
ENDROOT
BRANCH   1   2
ATOM      2  C   UNL A   1      46.523  44.420  27.176  1.00  0.00     0.188 C 
BRANCH   2   3
ATOM      3  O   UNL A   1      45.951  45.386  26.309  1.00  0.00    -0.376 OA
BRANCH   3   4
ATOM      4  C   UNL A   1      45.593  44.998  24.984  1.00  0.00     0.202 C 
BRANCH   4   5
ATOM      5  C   UNL A   1      45.627  43.514  24.589  1.00  0.00     0.261 C 
BRANCH   5   6
ATOM      6  O   UNL A   1      44.582  43.118  23.668  1.00  0.00    -0.461 OA
BRANCH   6   7
ATOM      7  C   UNL A   1      43.501  42.497  24.193  1.00  0.00     0.335 C 
ATOM      8  O   UNL A   1      43.343  42.336  25.401  1.00  0.00    -0.249 OA
BRANCH   7   9
ATOM      9  C   UNL A   1      42.435  42.039  23.165  1.00  0.00     0.228 C 
ATOM     10  C   UNL A   1      42.634  42.688  20.910  1.00  0.00     0.138 C 
ATOM     11  C   UNL A   1      41.584  43.577  21.546  1.00  0.00     0.037 C 
ATOM     12  O   UNL A   1      43.076  41.746  21.909  1.00  0.00    -0.361 OA
ATOM     13  C   UNL A   1      41.202  42.842  22.790  1.00  0.00     0.047 C 
BRANCH  10  14
ATOM     14  C   UNL A   1      43.847  43.445  20.344  1.00  0.00     0.148 C 
BRANCH  14  15
ATOM     15  N   UNL A   1      45.083  42.689  20.399  1.00  0.00    -0.348 N 
ATOM     16  C   UNL A   1      46.384  43.046  20.179  1.00  0.00     0.280 C 
ATOM     17  O   UNL A   1      47.153  42.088  20.040  1.00  0.00    -0.268 OA
ATOM     18  H   UNL A   1      44.963  41.742  20.639  1.00  0.00     0.163 HD
BRANCH  16  19
ATOM     19  C   UNL A   1      46.843  44.546  20.072  1.00  0.00     0.169 C 
ATOM     20  C   UNL A   1      48.371  44.706  20.025  1.00  0.00     0.090 C 
ATOM     21  C   UNL A   1      46.264  45.351  21.232  1.00  0.00     0.090 C 
BRANCH  19  22
ATOM     22  N   UNL A   1      46.233  45.197  18.885  1.00  0.00    -0.334 N 
ATOM     23  H   UNL A   1      46.094  44.486  18.168  1.00  0.00     0.347 HD
ATOM     24  H   UNL A   1      45.361  45.620  19.204  1.00  0.00     0.347 HD
BRANCH  22  25
ATOM     25  C   UNL A   1      47.028  46.276  18.310  1.00  0.00     0.257 C 
ATOM     26  C   UNL A   1      47.091  46.053  16.818  1.00  0.00     0.071 C 
ENDBRANCH  22  25
ENDBRANCH  19  22
ENDBRANCH  16  19
ENDBRANCH  14  15
ENDBRANCH  10  14
ENDBRANCH   7   9
ENDBRANCH   6   7
ENDBRANCH   5   6
ENDBRANCH   4   5
ENDBRANCH   3   4
ENDBRANCH   2   3
ENDBRANCH   1   2
BRANCH   1  27
ATOM     27  O   UNL A   1      45.292  42.473  28.128  1.00  0.00    -0.377 OA
BRANCH  27  28
ATOM     28  C   UNL A   1      44.485  41.850  29.125  1.00  0.00     0.188 C 
BRANCH  28  29
ATOM     29  C   UNL A   1      43.832  40.494  28.797  1.00  0.00     0.188 C 
BRANCH  29  30
ATOM     30  O   UNL A   1      42.455  40.579  28.460  1.00  0.00    -0.376 OA
BRANCH  30  31
ATOM     31  C   UNL A   1      41.776  39.404  28.036  1.00  0.00     0.202 C 
BRANCH  31  32
ATOM     32  C   UNL A   1      42.466  38.470  27.024  1.00  0.00     0.261 C 
BRANCH  32  33
ATOM     33  O   UNL A   1      41.761  37.274  26.657  1.00  0.00    -0.460 OA
BRANCH  33  34
ATOM     34  C   UNL A   1      41.911  36.183  27.432  1.00  0.00     0.338 C 
ATOM     35  O   UNL A   1      41.052  35.649  28.119  1.00  0.00    -0.246 OA
BRANCH  34  36
ATOM     36  C   UNL A   1      43.245  35.607  27.171  1.00  0.00     0.060 A 
ATOM     37  C   UNL A   1      43.495  35.026  25.921  1.00  0.00     0.016 A 
ATOM     38  C   UNL A   1      44.226  35.596  28.164  1.00  0.00     0.016 A 
ATOM     39  C   UNL A   1      44.705  34.374  25.684  1.00  0.00     0.010 A 
ATOM     40  C   UNL A   1      45.433  34.930  27.929  1.00  0.00     0.010 A 
ATOM     41  C   UNL A   1      45.657  34.272  26.706  1.00  0.00    -0.014 A 
BRANCH  41  42
ATOM     42  C   UNL A   1      46.769  33.297  26.565  1.00  0.00     0.031 A 
ATOM     43  C   UNL A   1      48.164  33.826  26.350  1.00  0.00     0.074 A 
ATOM     44  C   UNL A   1      46.572  31.972  26.688  1.00  0.00     0.049 A 
ATOM     45  N   UNL A   1      49.284  33.173  26.185  1.00  0.00    -0.248 NA
ATOM     46  C   UNL A   1      48.313  35.292  26.326  1.00  0.00     0.031 C 
ATOM     47  C   UNL A   1      45.292  31.327  26.970  1.00  0.00     0.029 A 
ATOM     48  N   UNL A   1      47.462  30.928  26.591  1.00  0.00    -0.354 N 
ATOM     49  C   UNL A   1      50.269  34.143  26.033  1.00  0.00     0.074 A 
ATOM     50  C   UNL A   1      49.608  35.429  26.087  1.00  0.00     0.031 C 
ATOM     51  C   UNL A   1      45.479  29.996  27.007  1.00  0.00     0.029 A 
ATOM     52  C   UNL A   1      46.871  29.692  26.695  1.00  0.00     0.049 A 
ATOM     53  H   UNL A   1      48.429  31.055  26.459  1.00  0.00     0.167 HD
ATOM     54  C   UNL A   1      51.604  33.979  25.876  1.00  0.00     0.037 A 
ATOM     55  C   UNL A   1      47.384  28.458  26.522  1.00  0.00     0.037 A 
ATOM     56  C   UNL A   1      52.259  32.697  25.824  1.00  0.00     0.049 A 
ATOM     57  C   UNL A   1      48.850  28.297  26.249  1.00  0.00     0.074 A 
ATOM     58  C   UNL A   1      53.610  32.427  25.698  1.00  0.00     0.029 A 
ATOM     59  N   UNL A   1      51.612  31.471  25.877  1.00  0.00    -0.354 N 
ATOM     60  N   UNL A   1      49.772  29.220  26.128  1.00  0.00    -0.248 NA
ATOM     61  C   UNL A   1      49.348  26.921  26.113  1.00  0.00     0.031 C 
ATOM     62  C   UNL A   1      53.774  31.042  25.607  1.00  0.00     0.029 A 
ATOM     63  C   UNL A   1      52.534  30.444  25.749  1.00  0.00     0.049 A 
ATOM     64  H   UNL A   1      50.641  31.348  25.988  1.00  0.00     0.167 HD
ATOM     65  C   UNL A   1      50.966  28.536  25.934  1.00  0.00     0.074 A 
ATOM     66  C   UNL A   1      50.649  27.123  25.959  1.00  0.00     0.031 C 
ATOM     67  C   UNL A   1      52.214  29.038  25.767  1.00  0.00     0.037 A 
BRANCH  54  68
ATOM     68  C   UNL A   1      52.443  35.217  25.712  1.00  0.00     0.058 A 
ATOM     69  C   UNL A   1      53.043  35.864  26.803  1.00  0.00     0.135 A 
ATOM     70  C   UNL A   1      52.665  35.752  24.432  1.00  0.00     0.135 A 
ATOM     71  F   UNL A   1      52.849  35.407  28.051  1.00  0.00    -0.206 F 
ATOM     72  C   UNL A   1      53.805  37.016  26.636  1.00  0.00     0.059 A 
ATOM     73  C   UNL A   1      53.452  36.883  24.238  1.00  0.00     0.059 A 
ATOM     74  F   UNL A   1      52.114  35.175  23.352  1.00  0.00    -0.206 F 
ATOM     75  C   UNL A   1      54.003  37.518  25.349  1.00  0.00     0.060 A 
BRANCH  75  76
ATOM     76  S   UNL A   1      54.990  39.016  25.150  1.00  0.00     0.124 S 
ATOM     77  O   UNL A   1      55.728  39.048  26.408  1.00  0.00    -0.237 OA
ATOM     78  O   UNL A   1      55.778  38.713  23.960  1.00  0.00    -0.237 OA
ATOM     79  O   UNL A   1      53.988  40.065  24.984  1.00  0.00    -0.744 OA
ENDBRANCH  75  76
ENDBRANCH  54  68
BRANCH  55  80
ATOM     80  C   UNL A   1      46.503  27.262  26.553  1.00  0.00     0.058 A 
ATOM     81  C   UNL A   1      46.303  26.527  27.729  1.00  0.00     0.135 A 
ATOM     82  C   UNL A   1      45.874  26.814  25.383  1.00  0.00     0.135 A 
ATOM     83  F   UNL A   1      46.925  26.890  28.861  1.00  0.00    -0.206 F 
ATOM     84  C   UNL A   1      45.481  25.404  27.754  1.00  0.00     0.059 A 
ATOM     85  C   UNL A   1      45.056  25.690  25.380  1.00  0.00     0.059 A 
ATOM     86  F   UNL A   1      46.025  27.494  24.236  1.00  0.00    -0.206 F 
ATOM     87  C   UNL A   1      44.846  25.003  26.577  1.00  0.00     0.060 A 
BRANCH  87  88
ATOM     88  S   UNL A   1      43.620  23.676  26.656  1.00  0.00     0.124 S 
ATOM     89  O   UNL A   1      42.800  23.958  25.485  1.00  0.00    -0.237 OA
ATOM     90  O   UNL A   1      44.454  22.479  26.579  1.00  0.00    -0.237 OA
ATOM     91  O   UNL A   1      42.978  23.892  27.950  1.00  0.00    -0.744 OA
ENDBRANCH  87  88
ENDBRANCH  55  80
BRANCH  67  92
ATOM     92  C   UNL A   1      53.342  28.054  25.642  1.00  0.00     0.058 A 
ATOM     93  C   UNL A   1      53.727  27.514  24.405  1.00  0.00     0.135 A 
ATOM     94  C   UNL A   1      54.074  27.674  26.780  1.00  0.00     0.135 A 
ATOM     95  F   UNL A   1      53.054  27.833  23.289  1.00  0.00    -0.206 F 
ATOM     96  C   UNL A   1      54.782  26.612  24.304  1.00  0.00     0.059 A 
ATOM     97  C   UNL A   1      55.153  26.800  26.697  1.00  0.00     0.059 A 
ATOM     98  F   UNL A   1      53.752  28.164  27.987  1.00  0.00    -0.206 F 
ATOM     99  C   UNL A   1      55.491  26.264  25.455  1.00  0.00     0.060 A 
BRANCH  99 100
ATOM    100  S   UNL A   1      56.877  25.120  25.305  1.00  0.00     0.124 S 
ATOM    101  O   UNL A   1      57.621  25.395  26.531  1.00  0.00    -0.237 OA
ATOM    102  O   UNL A   1      56.208  23.825  25.247  1.00  0.00    -0.237 OA
ATOM    103  O   UNL A   1      57.532  25.537  24.068  1.00  0.00    -0.744 OA
ENDBRANCH  99 100
ENDBRANCH  67  92
ENDBRANCH  41  42
ENDBRANCH  34  36
ENDBRANCH  33  34
ENDBRANCH  32  33
ENDBRANCH  31  32
ENDBRANCH  30  31
ENDBRANCH  29  30
ENDBRANCH  28  29
ENDBRANCH  27  28
ENDBRANCH   1  27
TORSDOF 28
ENDMDL
MODEL 3
REMARK VINA RESULT:      -6.7      9.248     15.123
REMARK SMILES CC[NH2+]C(C)(C)C(=O)NC[C@@H]1CC[C@H](C(=O)OCCOCCOCCOCCOC(=O)c2ccc(-c3c4nc(c(-c5c(F)cc(S(=O)(=O)[O-])cc5F)c5ccc([nH]5)c(-c5c(F)cc(S(=O)(=O)[O-])cc5F)c5nc(c(-c6c(F)cc(S(=O)(=O)[O-])cc6F)c6ccc3[nH]6)C=C5)C=C4)cc2)O1
REMARK SMILES IDX 22 1 21 2 20 3 19 4 18 5 17 6 15 7 16 8 14 9 11 10 12 11
REMARK SMILES IDX 98 12 13 13 10 14 9 15 7 16 8 17 4 19 5 20 6 21 3 22 2 25
REMARK SMILES IDX 1 26 23 27 24 28 25 29 26 30 27 31 28 32 29 33 30 34 31 35
REMARK SMILES IDX 32 36 33 37 97 38 34 39 96 40 35 41 36 42 37 43 90 44 38 45
REMARK SMILES IDX 95 46 89 47 91 48 39 49 94 50 88 51 87 52 40 54 74 55 53 56
REMARK SMILES IDX 73 57 54 58 57 59 72 60 92 61 55 62 56 63 71 65 93 66 58 67
REMARK SMILES IDX 41 68 42 69 51 70 43 71 44 72 50 73 52 74 45 75 46 76 47 77
REMARK SMILES IDX 48 78 49 79 75 80 76 81 85 82 77 83 78 84 84 85 86 86 79 87
REMARK SMILES IDX 80 88 81 89 82 90 83 91 59 92 60 93 69 94 61 95 62 96 68 97
REMARK SMILES IDX 70 98 63 99 64 100 65 101 66 102 67 103
REMARK H PARENT 9 18 3 23 3 24 91 53 57 64
REMARK Flexibility Score: inf
ROOT
ATOM      1  C   UNL A   1      40.407  25.300  27.364  1.00  0.00     0.188 C 
ENDROOT
BRANCH   1   2
ATOM      2  C   UNL A   1      39.095  24.574  27.038  1.00  0.00     0.188 C 
BRANCH   2   3
ATOM      3  O   UNL A   1      39.131  23.237  26.564  1.00  0.00    -0.376 OA
BRANCH   3   4
ATOM      4  C   UNL A   1      37.918  22.629  26.124  1.00  0.00     0.202 C 
BRANCH   4   5
ATOM      5  C   UNL A   1      37.971  21.443  25.149  1.00  0.00     0.261 C 
BRANCH   5   6
ATOM      6  O   UNL A   1      36.672  20.947  24.744  1.00  0.00    -0.461 OA
BRANCH   6   7
ATOM      7  C   UNL A   1      35.776  21.858  24.300  1.00  0.00     0.335 C 
ATOM      8  O   UNL A   1      36.045  22.701  23.447  1.00  0.00    -0.249 OA
BRANCH   7   9
ATOM      9  C   UNL A   1      34.353  21.738  24.903  1.00  0.00     0.228 C 
ATOM     10  C   UNL A   1      33.231  23.675  25.636  1.00  0.00     0.138 C 
ATOM     11  C   UNL A   1      33.769  22.970  26.866  1.00  0.00     0.037 C 
ATOM     12  O   UNL A   1      33.562  22.868  24.487  1.00  0.00    -0.361 OA
ATOM     13  C   UNL A   1      34.057  21.584  26.383  1.00  0.00     0.047 C 
BRANCH  10  14
ATOM     14  C   UNL A   1      33.770  25.101  25.437  1.00  0.00     0.148 C 
BRANCH  14  15
ATOM     15  N   UNL A   1      34.052  25.429  24.053  1.00  0.00    -0.348 N 
ATOM     16  C   UNL A   1      33.248  25.851  23.031  1.00  0.00     0.280 C 
ATOM     17  O   UNL A   1      33.768  25.767  21.913  1.00  0.00    -0.268 OA
ATOM     18  H   UNL A   1      34.999  25.329  23.802  1.00  0.00     0.163 HD
BRANCH  16  19
ATOM     19  C   UNL A   1      31.777  26.354  23.265  1.00  0.00     0.169 C 
ATOM     20  C   UNL A   1      30.810  25.227  23.661  1.00  0.00     0.090 C 
ATOM     21  C   UNL A   1      31.268  27.071  22.017  1.00  0.00     0.090 C 
BRANCH  19  22
ATOM     22  N   UNL A   1      31.747  27.426  24.292  1.00  0.00    -0.334 N 
ATOM     23  H   UNL A   1      30.776  27.584  24.560  1.00  0.00     0.347 HD
ATOM     24  H   UNL A   1      32.328  27.102  25.066  1.00  0.00     0.347 HD
BRANCH  22  25
ATOM     25  C   UNL A   1      32.312  28.699  23.856  1.00  0.00     0.257 C 
ATOM     26  C   UNL A   1      33.110  29.263  25.007  1.00  0.00     0.071 C 
ENDBRANCH  22  25
ENDBRANCH  19  22
ENDBRANCH  16  19
ENDBRANCH  14  15
ENDBRANCH  10  14
ENDBRANCH   7   9
ENDBRANCH   6   7
ENDBRANCH   5   6
ENDBRANCH   4   5
ENDBRANCH   3   4
ENDBRANCH   2   3
ENDBRANCH   1   2
BRANCH   1  27
ATOM     27  O   UNL A   1      41.456  24.472  27.831  1.00  0.00    -0.377 OA
BRANCH  27  28
ATOM     28  C   UNL A   1      42.583  24.249  26.986  1.00  0.00     0.188 C 
BRANCH  28  29
ATOM     29  C   UNL A   1      42.923  25.313  25.924  1.00  0.00     0.188 C 
BRANCH  29  30
ATOM     30  O   UNL A   1      43.134  26.613  26.452  1.00  0.00    -0.376 OA
BRANCH  30  31
ATOM     31  C   UNL A   1      44.270  26.849  27.273  1.00  0.00     0.202 C 
BRANCH  31  32
ATOM     32  C   UNL A   1      44.488  28.260  27.854  1.00  0.00     0.261 C 
BRANCH  32  33
ATOM     33  O   UNL A   1      44.220  29.370  26.983  1.00  0.00    -0.460 OA
BRANCH  33  34
ATOM     34  C   UNL A   1      45.268  30.041  26.468  1.00  0.00     0.338 C 
ATOM     35  O   UNL A   1      46.048  29.639  25.616  1.00  0.00    -0.246 OA
BRANCH  34  36
ATOM     36  C   UNL A   1      45.215  31.433  26.956  1.00  0.00     0.060 A 
ATOM     37  C   UNL A   1      46.296  32.283  26.692  1.00  0.00     0.016 A 
ATOM     38  C   UNL A   1      44.129  31.885  27.710  1.00  0.00     0.016 A 
ATOM     39  C   UNL A   1      46.326  33.566  27.236  1.00  0.00     0.010 A 
ATOM     40  C   UNL A   1      44.167  33.167  28.267  1.00  0.00     0.010 A 
ATOM     41  C   UNL A   1      45.288  33.995  28.074  1.00  0.00    -0.014 A 
BRANCH  41  42
ATOM     42  C   UNL A   1      45.489  35.203  28.916  1.00  0.00     0.031 A 
ATOM     43  C   UNL A   1      45.098  36.543  28.349  1.00  0.00     0.074 A 
ATOM     44  C   UNL A   1      45.945  35.121  30.178  1.00  0.00     0.049 A 
ATOM     45  N   UNL A   1      45.194  37.732  28.886  1.00  0.00    -0.248 NA
ATOM     46  C   UNL A   1      44.513  36.540  26.997  1.00  0.00     0.031 C 
ATOM     47  C   UNL A   1      46.290  33.886  30.878  1.00  0.00     0.029 A 
ATOM     48  N   UNL A   1      46.193  36.111  31.100  1.00  0.00    -0.354 N 
ATOM     49  C   UNL A   1      44.688  38.617  27.940  1.00  0.00     0.074 A 
ATOM     50  C   UNL A   1      44.322  37.832  26.780  1.00  0.00     0.031 C 
ATOM     51  C   UNL A   1      46.721  34.196  32.113  1.00  0.00     0.029 A 
ATOM     52  C   UNL A   1      46.738  35.646  32.272  1.00  0.00     0.049 A 
ATOM     53  H   UNL A   1      46.000  37.062  30.934  1.00  0.00     0.167 HD
ATOM     54  C   UNL A   1      44.530  39.958  28.033  1.00  0.00     0.037 A 
ATOM     55  C   UNL A   1      47.229  36.311  33.336  1.00  0.00     0.037 A 
ATOM     56  C   UNL A   1      44.894  40.736  29.189  1.00  0.00     0.049 A 
ATOM     57  C   UNL A   1      47.137  37.808  33.379  1.00  0.00     0.074 A 
ATOM     58  C   UNL A   1      44.745  42.097  29.390  1.00  0.00     0.029 A 
ATOM     59  N   UNL A   1      45.495  40.228  30.331  1.00  0.00    -0.354 N 
ATOM     60  N   UNL A   1      46.638  38.629  32.488  1.00  0.00    -0.248 NA
ATOM     61  C   UNL A   1      47.653  38.466  34.588  1.00  0.00     0.031 C 
ATOM     62  C   UNL A   1      45.315  42.422  30.625  1.00  0.00     0.029 A 
ATOM     63  C   UNL A   1      45.756  41.255  31.225  1.00  0.00     0.049 A 
ATOM     64  H   UNL A   1      45.706  39.279  30.485  1.00  0.00     0.167 HD
ATOM     65  C   UNL A   1      46.751  39.898  33.042  1.00  0.00     0.074 A 
ATOM     66  C   UNL A   1      47.361  39.735  34.346  1.00  0.00     0.031 C 
ATOM     67  C   UNL A   1      46.368  41.089  32.519  1.00  0.00     0.037 A 
BRANCH  54  68
ATOM     68  C   UNL A   1      43.971  40.677  26.835  1.00  0.00     0.058 A 
ATOM     69  C   UNL A   1      44.789  41.378  25.935  1.00  0.00     0.135 A 
ATOM     70  C   UNL A   1      42.591  40.643  26.574  1.00  0.00     0.135 A 
ATOM     71  F   UNL A   1      46.113  41.458  26.145  1.00  0.00    -0.206 F 
ATOM     72  C   UNL A   1      44.256  42.048  24.839  1.00  0.00     0.059 A 
ATOM     73  C   UNL A   1      42.041  41.278  25.465  1.00  0.00     0.059 A 
ATOM     74  F   UNL A   1      41.761  39.989  27.402  1.00  0.00    -0.206 F 
ATOM     75  C   UNL A   1      42.880  41.993  24.612  1.00  0.00     0.060 A 
BRANCH  75  76
ATOM     76  S   UNL A   1      42.203  42.872  23.189  1.00  0.00     0.124 S 
ATOM     77  O   UNL A   1      42.753  44.209  23.384  1.00  0.00    -0.237 OA
ATOM     78  O   UNL A   1      42.753  42.117  22.067  1.00  0.00    -0.237 OA
ATOM     79  O   UNL A   1      40.759  42.756  23.371  1.00  0.00    -0.744 OA
ENDBRANCH  75  76
ENDBRANCH  54  68
BRANCH  55  80
ATOM     80  C   UNL A   1      47.900  35.581  34.441  1.00  0.00     0.058 A 
ATOM     81  C   UNL A   1      47.198  35.161  35.578  1.00  0.00     0.135 A 
ATOM     82  C   UNL A   1      49.278  35.325  34.388  1.00  0.00     0.135 A 
ATOM     83  F   UNL A   1      45.888  35.427  35.694  1.00  0.00    -0.206 F 
ATOM     84  C   UNL A   1      47.831  34.480  36.615  1.00  0.00     0.059 A 
ATOM     85  C   UNL A   1      49.935  34.656  35.415  1.00  0.00     0.059 A 
ATOM     86  F   UNL A   1      49.990  35.697  33.313  1.00  0.00    -0.206 F 
ATOM     87  C   UNL A   1      49.198  34.216  36.515  1.00  0.00     0.060 A 
BRANCH  87  88
ATOM     88  S   UNL A   1      49.973  33.155  37.758  1.00  0.00     0.124 S 
ATOM     89  O   UNL A   1      48.863  32.295  38.148  1.00  0.00    -0.237 OA
ATOM     90  O   UNL A   1      51.041  32.514  36.996  1.00  0.00    -0.237 OA
ATOM     91  O   UNL A   1      50.429  34.104  38.770  1.00  0.00    -0.744 OA
ENDBRANCH  87  88
ENDBRANCH  55  80
BRANCH  67  92
ATOM     92  C   UNL A   1      46.554  42.310  33.376  1.00  0.00     0.058 A 
ATOM     93  C   UNL A   1      45.490  42.900  34.074  1.00  0.00     0.135 A 
ATOM     94  C   UNL A   1      47.832  42.876  33.526  1.00  0.00     0.135 A 
ATOM     95  F   UNL A   1      44.248  42.407  33.956  1.00  0.00    -0.206 F 
ATOM     96  C   UNL A   1      45.680  44.025  34.872  1.00  0.00     0.059 A 
ATOM     97  C   UNL A   1      48.051  43.979  34.344  1.00  0.00     0.059 A 
ATOM     98  F   UNL A   1      48.886  42.349  32.883  1.00  0.00    -0.206 F 
ATOM     99  C   UNL A   1      46.965  44.554  35.003  1.00  0.00     0.060 A 
BRANCH  99 100
ATOM    100  S   UNL A   1      47.204  45.991  36.068  1.00  0.00     0.124 S 
ATOM    101  O   UNL A   1      47.383  45.365  37.374  1.00  0.00    -0.237 OA
ATOM    102  O   UNL A   1      48.394  46.611  35.493  1.00  0.00    -0.237 OA
ATOM    103  O   UNL A   1      45.967  46.749  35.900  1.00  0.00    -0.744 OA
ENDBRANCH  99 100
ENDBRANCH  67  92
ENDBRANCH  41  42
ENDBRANCH  34  36
ENDBRANCH  33  34
ENDBRANCH  32  33
ENDBRANCH  31  32
ENDBRANCH  30  31
ENDBRANCH  29  30
ENDBRANCH  28  29
ENDBRANCH  27  28
ENDBRANCH   1  27
TORSDOF 28
ENDMDL
