MODEL 1
REMARK VINA RESULT:      -8.1      0.000      0.000
REMARK SMILES Cn1ccc(NS(=O)(=O)c2cc(C(=O)OCCOCCOCCOCCOC(=O)c3ccc(-c4c5nc(c(-c6c(F)cc(S(=O)(=O)[O-])cc6F)c6ccc([nH]6)c(-c6c(F)cc(S(=O)(=O)[O-])cc6F)c6nc(c(-c7c(F)cc(S(=O)(=O)[O-])cc7F)c7ccc4[nH]7)C=C6)C=C5)cc3)ccc2F)n1
REMARK SMILES IDX 21 1 20 2 19 3 18 4 17 5 16 6 15 7 13 8 14 9 12 10 10 11
REMARK SMILES IDX 11 12 98 13 97 14 99 15 96 16 7 17 8 18 9 19 6 20 5 22 1 23
REMARK SMILES IDX 2 24 3 25 100 26 4 27 22 28 23 29 24 30 25 31 26 32 27 33
REMARK SMILES IDX 28 34 29 35 30 36 31 37 95 38 32 39 94 40 33 41 34 42 35 43
REMARK SMILES IDX 88 44 36 45 93 46 87 47 89 48 37 49 92 50 86 51 85 52 38 54
REMARK SMILES IDX 72 55 51 56 71 57 52 58 55 59 70 60 90 61 53 62 54 63 69 65
REMARK SMILES IDX 91 66 56 67 39 68 40 69 49 70 41 71 42 72 48 73 50 74 43 75
REMARK SMILES IDX 44 76 45 77 46 78 47 79 73 80 74 81 83 82 75 83 76 84 82 85
REMARK SMILES IDX 84 86 77 87 78 88 79 89 80 90 81 91 57 92 58 93 67 94 59 95
REMARK SMILES IDX 60 96 66 97 68 98 61 99 62 100 63 101 64 102 65 103
REMARK H PARENT 6 21 89 53 55 64
REMARK Flexibility Score: inf
ROOT
ATOM      1  O   UNL A   1      39.281  27.305  28.954  1.00  0.00    -0.377 OA
ENDROOT
BRANCH   1   2
ATOM      2  C   UNL A   1      40.007  26.239  28.364  1.00  0.00     0.188 C 
BRANCH   2   3
ATOM      3  C   UNL A   1      39.280  24.927  28.009  1.00  0.00     0.188 C 
BRANCH   3   4
ATOM      4  O   UNL A   1      39.651  24.353  26.768  1.00  0.00    -0.376 OA
BRANCH   4   5
ATOM      5  C   UNL A   1      39.469  22.962  26.568  1.00  0.00     0.202 C 
BRANCH   5   6
ATOM      6  C   UNL A   1      38.183  22.432  25.911  1.00  0.00     0.261 C 
BRANCH   6   7
ATOM      7  O   UNL A   1      37.093  23.364  25.824  1.00  0.00    -0.460 OA
BRANCH   7   8
ATOM      8  C   UNL A   1      36.470  23.448  24.628  1.00  0.00     0.338 C 
ATOM      9  O   UNL A   1      36.831  22.937  23.583  1.00  0.00    -0.246 OA
BRANCH   8  10
ATOM     10  C   UNL A   1      35.118  24.022  24.840  1.00  0.00     0.061 A 
ATOM     11  C   UNL A   1      33.253  25.192  23.794  1.00  0.00     0.124 A 
ATOM     12  C   UNL A   1      34.562  24.719  23.761  1.00  0.00     0.041 A 
ATOM     13  C   UNL A   1      32.548  25.083  24.990  1.00  0.00     0.143 A 
ATOM     14  C   UNL A   1      33.112  24.434  26.100  1.00  0.00     0.041 A 
ATOM     15  F   UNL A   1      31.348  25.653  25.155  1.00  0.00    -0.205 F 
ATOM     16  C   UNL A   1      34.389  23.867  26.020  1.00  0.00     0.019 A 
BRANCH  11  17
ATOM     17  S   UNL A   1      32.588  26.115  22.443  1.00  0.00     0.266 S 
ATOM     18  O   UNL A   1      31.403  25.423  21.983  1.00  0.00    -0.201 OA
ATOM     19  O   UNL A   1      33.679  26.358  21.514  1.00  0.00    -0.201 OA
BRANCH  17  20
ATOM     20  N   UNL A   1      32.179  27.679  22.870  1.00  0.00    -0.262 N 
ATOM     21  H   UNL A   1      32.937  28.224  23.185  1.00  0.00     0.182 HD
BRANCH  20  22
ATOM     22  C   UNL A   1      30.968  28.346  22.860  1.00  0.00     0.161 A 
ATOM     23  C   UNL A   1      28.775  30.599  21.353  1.00  0.00     0.173 C 
ATOM     24  N   UNL A   1      29.398  29.609  22.198  1.00  0.00    -0.274 N 
ATOM     25  C   UNL A   1      28.766  28.669  22.953  1.00  0.00     0.110 A 
ATOM     26  N   UNL A   1      30.730  29.447  22.161  1.00  0.00    -0.155 NA
ATOM     27  C   UNL A   1      29.764  27.832  23.401  1.00  0.00     0.069 A 
ENDBRANCH  20  22
ENDBRANCH  17  20
ENDBRANCH  11  17
ENDBRANCH   8  10
ENDBRANCH   7   8
ENDBRANCH   6   7
ENDBRANCH   5   6
ENDBRANCH   4   5
ENDBRANCH   3   4
ENDBRANCH   2   3
ENDBRANCH   1   2
BRANCH   1  28
ATOM     28  C   UNL A   1      38.603  28.245  28.127  1.00  0.00     0.188 C 
BRANCH  28  29
ATOM     29  C   UNL A   1      37.550  29.217  28.713  1.00  0.00     0.188 C 
BRANCH  29  30
ATOM     30  O   UNL A   1      36.772  29.905  27.745  1.00  0.00    -0.376 OA
BRANCH  30  31
ATOM     31  C   UNL A   1      35.371  29.700  27.774  1.00  0.00     0.202 C 
BRANCH  31  32
ATOM     32  C   UNL A   1      34.481  30.911  27.457  1.00  0.00     0.261 C 
BRANCH  32  33
ATOM     33  O   UNL A   1      35.124  32.193  27.481  1.00  0.00    -0.460 OA
BRANCH  33  34
ATOM     34  C   UNL A   1      34.833  33.017  28.509  1.00  0.00     0.338 C 
ATOM     35  O   UNL A   1      33.751  33.537  28.748  1.00  0.00    -0.246 OA
BRANCH  34  36
ATOM     36  C   UNL A   1      35.995  33.014  29.422  1.00  0.00     0.060 A 
ATOM     37  C   UNL A   1      37.102  33.820  29.122  1.00  0.00     0.016 A 
ATOM     38  C   UNL A   1      35.967  32.261  30.600  1.00  0.00     0.016 A 
ATOM     39  C   UNL A   1      38.195  33.857  29.990  1.00  0.00     0.010 A 
ATOM     40  C   UNL A   1      37.074  32.276  31.452  1.00  0.00     0.010 A 
ATOM     41  C   UNL A   1      38.204  33.051  31.136  1.00  0.00    -0.014 A 
BRANCH  41  42
ATOM     42  C   UNL A   1      39.468  32.841  31.882  1.00  0.00     0.031 A 
ATOM     43  C   UNL A   1      40.495  31.924  31.274  1.00  0.00     0.074 A 
ATOM     44  C   UNL A   1      39.710  33.451  33.057  1.00  0.00     0.049 A 
ATOM     45  N   UNL A   1      41.640  31.523  31.758  1.00  0.00    -0.248 NA
ATOM     46  C   UNL A   1      40.185  31.386  29.937  1.00  0.00     0.031 C 
ATOM     47  C   UNL A   1      38.814  34.395  33.720  1.00  0.00     0.029 A 
ATOM     48  N   UNL A   1      40.786  33.355  33.904  1.00  0.00    -0.354 N 
ATOM     49  C   UNL A   1      42.185  30.688  30.790  1.00  0.00     0.074 A 
ATOM     50  C   UNL A   1      41.235  30.612  29.704  1.00  0.00     0.031 C 
ATOM     51  C   UNL A   1      39.373  34.785  34.881  1.00  0.00     0.029 A 
ATOM     52  C   UNL A   1      40.648  34.090  35.059  1.00  0.00     0.049 A 
ATOM     53  H   UNL A   1      41.582  32.811  33.705  1.00  0.00     0.167 HD
ATOM     54  C   UNL A   1      43.377  30.051  30.802  1.00  0.00     0.037 A 
ATOM     55  C   UNL A   1      41.449  34.171  36.142  1.00  0.00     0.037 A 
ATOM     56  C   UNL A   1      44.320  30.132  31.885  1.00  0.00     0.049 A 
ATOM     57  C   UNL A   1      42.737  33.382  36.169  1.00  0.00     0.074 A 
ATOM     58  C   UNL A   1      45.560  29.528  31.987  1.00  0.00     0.029 A 
ATOM     59  N   UNL A   1      44.128  30.857  33.052  1.00  0.00    -0.354 N 
ATOM     60  N   UNL A   1      43.248  32.604  35.243  1.00  0.00    -0.248 NA
ATOM     61  C   UNL A   1      43.557  33.479  37.386  1.00  0.00     0.031 C 
ATOM     62  C   UNL A   1      46.095  29.842  33.239  1.00  0.00     0.029 A 
ATOM     63  C   UNL A   1      45.217  30.694  33.890  1.00  0.00     0.049 A 
ATOM     64  H   UNL A   1      43.336  31.405  33.253  1.00  0.00     0.167 HD
ATOM     65  C   UNL A   1      44.458  32.145  35.754  1.00  0.00     0.074 A 
ATOM     66  C   UNL A   1      44.610  32.740  37.065  1.00  0.00     0.031 C 
ATOM     67  C   UNL A   1      45.362  31.306  35.189  1.00  0.00     0.037 A 
BRANCH  54  68
ATOM     68  C   UNL A   1      43.738  29.201  29.617  1.00  0.00     0.058 A 
ATOM     69  C   UNL A   1      44.313  29.780  28.476  1.00  0.00     0.135 A 
ATOM     70  C   UNL A   1      43.433  27.831  29.576  1.00  0.00     0.135 A 
ATOM     71  F   UNL A   1      44.638  31.083  28.468  1.00  0.00    -0.206 F 
ATOM     72  C   UNL A   1      44.542  29.040  27.322  1.00  0.00     0.059 A 
ATOM     73  C   UNL A   1      43.679  27.064  28.442  1.00  0.00     0.059 A 
ATOM     74  F   UNL A   1      42.909  27.223  30.652  1.00  0.00    -0.206 F 
ATOM     75  C   UNL A   1      44.214  27.682  27.312  1.00  0.00     0.060 A 
BRANCH  75  76
ATOM     76  S   UNL A   1      44.507  26.740  25.801  1.00  0.00     0.124 S 
ATOM     77  O   UNL A   1      43.159  26.305  25.452  1.00  0.00    -0.237 OA
ATOM     78  O   UNL A   1      45.099  27.747  24.925  1.00  0.00    -0.237 OA
ATOM     79  O   UNL A   1      45.417  25.683  26.232  1.00  0.00    -0.744 OA
ENDBRANCH  75  76
ENDBRANCH  54  68
BRANCH  55  80
ATOM     80  C   UNL A   1      41.058  35.022  37.301  1.00  0.00     0.058 A 
ATOM     81  C   UNL A   1      40.162  34.557  38.276  1.00  0.00     0.135 A 
ATOM     82  C   UNL A   1      41.576  36.317  37.459  1.00  0.00     0.135 A 
ATOM     83  F   UNL A   1      39.634  33.327  38.175  1.00  0.00    -0.206 F 
ATOM     84  C   UNL A   1      39.775  35.351  39.350  1.00  0.00     0.059 A 
ATOM     85  C   UNL A   1      41.228  37.120  38.542  1.00  0.00     0.059 A 
ATOM     86  F   UNL A   1      42.452  36.801  36.565  1.00  0.00    -0.206 F 
ATOM     87  C   UNL A   1      40.313  36.633  39.475  1.00  0.00     0.060 A 
BRANCH  87  88
ATOM     88  S   UNL A   1      39.795  37.646  40.876  1.00  0.00     0.124 S 
ATOM     89  O   UNL A   1      40.011  36.730  41.992  1.00  0.00    -0.237 OA
ATOM     90  O   UNL A   1      40.716  38.775  40.794  1.00  0.00    -0.237 OA
ATOM     91  O   UNL A   1      38.400  37.951  40.576  1.00  0.00    -0.744 OA
ENDBRANCH  87  88
ENDBRANCH  55  80
BRANCH  67  92
ATOM     92  C   UNL A   1      46.620  30.996  35.955  1.00  0.00     0.058 A 
ATOM     93  C   UNL A   1      47.776  31.772  35.763  1.00  0.00     0.135 A 
ATOM     94  C   UNL A   1      46.715  29.878  36.796  1.00  0.00     0.135 A 
ATOM     95  F   UNL A   1      47.745  32.848  34.961  1.00  0.00    -0.206 F 
ATOM     96  C   UNL A   1      48.987  31.433  36.357  1.00  0.00     0.059 A 
ATOM     97  C   UNL A   1      47.910  29.539  37.426  1.00  0.00     0.059 A 
ATOM     98  F   UNL A   1      45.639  29.107  37.019  1.00  0.00    -0.206 F 
ATOM     99  C   UNL A   1      49.045  30.312  37.186  1.00  0.00     0.060 A 
BRANCH  99 100
ATOM    100  S   UNL A   1      50.625  29.892  37.951  1.00  0.00     0.124 S 
ATOM    101  O   UNL A   1      51.502  30.927  37.413  1.00  0.00    -0.237 OA
ATOM    102  O   UNL A   1      50.315  29.999  39.373  1.00  0.00    -0.237 OA
ATOM    103  O   UNL A   1      50.885  28.539  37.472  1.00  0.00    -0.744 OA
ENDBRANCH  99 100
ENDBRANCH  67  92
ENDBRANCH  41  42
ENDBRANCH  34  36
ENDBRANCH  33  34
ENDBRANCH  32  33
ENDBRANCH  31  32
ENDBRANCH  30  31
ENDBRANCH  29  30
ENDBRANCH  28  29
ENDBRANCH   1  28
TORSDOF 26
ENDMDL
MODEL 2
REMARK VINA RESULT:      -8.0      0.665      7.980
REMARK SMILES Cn1ccc(NS(=O)(=O)c2cc(C(=O)OCCOCCOCCOCCOC(=O)c3ccc(-c4c5nc(c(-c6c(F)cc(S(=O)(=O)[O-])cc6F)c6ccc([nH]6)c(-c6c(F)cc(S(=O)(=O)[O-])cc6F)c6nc(c(-c7c(F)cc(S(=O)(=O)[O-])cc7F)c7ccc4[nH]7)C=C6)C=C5)cc3)ccc2F)n1
REMARK SMILES IDX 21 1 20 2 19 3 18 4 17 5 16 6 15 7 13 8 14 9 12 10 10 11
REMARK SMILES IDX 11 12 98 13 97 14 99 15 96 16 7 17 8 18 9 19 6 20 5 22 1 23
REMARK SMILES IDX 2 24 3 25 100 26 4 27 22 28 23 29 24 30 25 31 26 32 27 33
REMARK SMILES IDX 28 34 29 35 30 36 31 37 95 38 32 39 94 40 33 41 34 42 35 43
REMARK SMILES IDX 88 44 36 45 93 46 87 47 89 48 37 49 92 50 86 51 85 52 38 54
REMARK SMILES IDX 72 55 51 56 71 57 52 58 55 59 70 60 90 61 53 62 54 63 69 65
REMARK SMILES IDX 91 66 56 67 39 68 40 69 49 70 41 71 42 72 48 73 50 74 43 75
REMARK SMILES IDX 44 76 45 77 46 78 47 79 73 80 74 81 83 82 75 83 76 84 82 85
REMARK SMILES IDX 84 86 77 87 78 88 79 89 80 90 81 91 57 92 58 93 67 94 59 95
REMARK SMILES IDX 60 96 66 97 68 98 61 99 62 100 63 101 64 102 65 103
REMARK H PARENT 6 21 89 53 55 64
REMARK Flexibility Score: inf
ROOT
ATOM      1  O   UNL A   1      39.238  27.173  28.919  1.00  0.00    -0.377 OA
ENDROOT
BRANCH   1   2
ATOM      2  C   UNL A   1      40.021  26.131  28.361  1.00  0.00     0.188 C 
BRANCH   2   3
ATOM      3  C   UNL A   1      39.364  24.776  28.033  1.00  0.00     0.188 C 
BRANCH   3   4
ATOM      4  O   UNL A   1      39.728  24.219  26.782  1.00  0.00    -0.376 OA
BRANCH   4   5
ATOM      5  C   UNL A   1      39.586  22.824  26.579  1.00  0.00     0.202 C 
BRANCH   5   6
ATOM      6  C   UNL A   1      38.300  22.254  25.956  1.00  0.00     0.261 C 
BRANCH   6   7
ATOM      7  O   UNL A   1      37.192  23.163  25.866  1.00  0.00    -0.460 OA
BRANCH   7   8
ATOM      8  C   UNL A   1      36.563  23.225  24.671  1.00  0.00     0.338 C 
ATOM      9  O   UNL A   1      36.942  22.732  23.624  1.00  0.00    -0.246 OA
BRANCH   8  10
ATOM     10  C   UNL A   1      35.189  23.743  24.887  1.00  0.00     0.061 A 
ATOM     11  C   UNL A   1      33.292  24.876  23.859  1.00  0.00     0.124 A 
ATOM     12  C   UNL A   1      34.617  24.452  23.823  1.00  0.00     0.041 A 
ATOM     13  C   UNL A   1      32.581  24.706  25.044  1.00  0.00     0.143 A 
ATOM     14  C   UNL A   1      33.159  24.046  26.139  1.00  0.00     0.041 A 
ATOM     15  F   UNL A   1      31.360  25.227  25.215  1.00  0.00    -0.205 F 
ATOM     16  C   UNL A   1      34.457  23.528  26.055  1.00  0.00     0.019 A 
BRANCH  11  17
ATOM     17  S   UNL A   1      32.605  25.815  22.529  1.00  0.00     0.266 S 
ATOM     18  O   UNL A   1      31.365  25.177  22.140  1.00  0.00    -0.201 OA
ATOM     19  O   UNL A   1      33.658  25.990  21.543  1.00  0.00    -0.201 OA
BRANCH  17  20
ATOM     20  N   UNL A   1      32.297  27.403  22.952  1.00  0.00    -0.262 N 
ATOM     21  H   UNL A   1      33.089  27.902  23.255  1.00  0.00     0.182 HD
BRANCH  20  22
ATOM     22  C   UNL A   1      31.128  28.140  22.954  1.00  0.00     0.161 A 
ATOM     23  C   UNL A   1      29.087  30.565  21.500  1.00  0.00     0.173 C 
ATOM     24  N   UNL A   1      29.643  29.516  22.320  1.00  0.00    -0.274 N 
ATOM     25  C   UNL A   1      28.948  28.593  23.042  1.00  0.00     0.110 A 
ATOM     26  N   UNL A   1      30.962  29.275  22.287  1.00  0.00    -0.155 NA
ATOM     27  C   UNL A   1      29.890  27.684  23.471  1.00  0.00     0.069 A 
ENDBRANCH  20  22
ENDBRANCH  17  20
ENDBRANCH  11  17
ENDBRANCH   8  10
ENDBRANCH   7   8
ENDBRANCH   6   7
ENDBRANCH   5   6
ENDBRANCH   4   5
ENDBRANCH   3   4
ENDBRANCH   2   3
ENDBRANCH   1   2
BRANCH   1  28
ATOM     28  C   UNL A   1      38.504  28.044  28.065  1.00  0.00     0.188 C 
BRANCH  28  29
ATOM     29  C   UNL A   1      37.472  29.047  28.637  1.00  0.00     0.188 C 
BRANCH  29  30
ATOM     30  O   UNL A   1      36.754  29.784  27.659  1.00  0.00    -0.376 OA
BRANCH  30  31
ATOM     31  C   UNL A   1      35.341  29.672  27.672  1.00  0.00     0.202 C 
BRANCH  31  32
ATOM     32  C   UNL A   1      34.538  30.958  27.424  1.00  0.00     0.261 C 
BRANCH  32  33
ATOM     33  O   UNL A   1      35.267  32.190  27.521  1.00  0.00    -0.460 OA
BRANCH  33  34
ATOM     34  C   UNL A   1      35.070  32.944  28.622  1.00  0.00     0.338 C 
ATOM     35  O   UNL A   1      34.035  33.512  28.946  1.00  0.00    -0.246 OA
BRANCH  34  36
ATOM     36  C   UNL A   1      36.262  32.795  29.481  1.00  0.00     0.060 A 
ATOM     37  C   UNL A   1      37.398  33.575  29.218  1.00  0.00     0.016 A 
ATOM     38  C   UNL A   1      36.239  31.929  30.578  1.00  0.00     0.016 A 
ATOM     39  C   UNL A   1      38.522  33.472  30.039  1.00  0.00     0.010 A 
ATOM     40  C   UNL A   1      37.375  31.805  31.381  1.00  0.00     0.010 A 
ATOM     41  C   UNL A   1      38.531  32.555  31.098  1.00  0.00    -0.014 A 
BRANCH  41  42
ATOM     42  C   UNL A   1      39.809  32.211  31.766  1.00  0.00     0.031 A 
ATOM     43  C   UNL A   1      40.088  32.837  33.106  1.00  0.00     0.074 A 
ATOM     44  C   UNL A   1      40.694  31.361  31.213  1.00  0.00     0.049 A 
ATOM     45  N   UNL A   1      41.156  32.755  33.854  1.00  0.00    -0.248 NA
ATOM     46  C   UNL A   1      39.015  33.670  33.678  1.00  0.00     0.031 C 
ATOM     47  C   UNL A   1      40.514  30.657  29.946  1.00  0.00     0.029 A 
ATOM     48  N   UNL A   1      41.930  30.954  31.652  1.00  0.00    -0.354 N 
ATOM     49  C   UNL A   1      40.885  33.523  34.980  1.00  0.00     0.074 A 
ATOM     50  C   UNL A   1      39.568  34.091  34.806  1.00  0.00     0.031 C 
ATOM     51  C   UNL A   1      41.608  29.912  29.702  1.00  0.00     0.029 A 
ATOM     52  C   UNL A   1      42.579  30.114  30.777  1.00  0.00     0.049 A 
ATOM     53  H   UNL A   1      42.317  31.237  32.512  1.00  0.00     0.167 HD
ATOM     54  C   UNL A   1      41.662  33.727  36.067  1.00  0.00     0.037 A 
ATOM     55  C   UNL A   1      43.822  29.592  30.829  1.00  0.00     0.037 A 
ATOM     56  C   UNL A   1      42.972  33.158  36.236  1.00  0.00     0.049 A 
ATOM     57  C   UNL A   1      44.705  29.904  32.014  1.00  0.00     0.074 A 
ATOM     58  C   UNL A   1      43.836  33.301  37.307  1.00  0.00     0.029 A 
ATOM     59  N   UNL A   1      43.609  32.343  35.311  1.00  0.00    -0.354 N 
ATOM     60  N   UNL A   1      44.435  30.623  33.078  1.00  0.00    -0.248 NA
ATOM     61  C   UNL A   1      46.063  29.336  32.006  1.00  0.00     0.031 C 
ATOM     62  C   UNL A   1      45.017  32.618  37.007  1.00  0.00     0.029 A 
ATOM     63  C   UNL A   1      44.865  31.997  35.777  1.00  0.00     0.049 A 
ATOM     64  H   UNL A   1      43.224  32.055  34.453  1.00  0.00     0.167 HD
ATOM     65  C   UNL A   1      45.573  30.569  33.876  1.00  0.00     0.074 A 
ATOM     66  C   UNL A   1      46.533  29.739  33.179  1.00  0.00     0.031 C 
ATOM     67  C   UNL A   1      45.805  31.155  35.078  1.00  0.00     0.037 A 
BRANCH  54  68
ATOM     68  C   UNL A   1      41.130  34.608  37.162  1.00  0.00     0.058 A 
ATOM     69  C   UNL A   1      40.277  34.083  38.144  1.00  0.00     0.135 A 
ATOM     70  C   UNL A   1      41.394  35.986  37.190  1.00  0.00     0.135 A 
ATOM     71  F   UNL A   1      40.004  32.768  38.172  1.00  0.00    -0.206 F 
ATOM     72  C   UNL A   1      39.674  34.898  39.094  1.00  0.00     0.059 A 
ATOM     73  C   UNL A   1      40.823  36.817  38.148  1.00  0.00     0.059 A 
ATOM     74  F   UNL A   1      42.228  36.533  36.291  1.00  0.00    -0.206 F 
ATOM     75  C   UNL A   1      39.948  36.267  39.083  1.00  0.00     0.060 A 
BRANCH  75  76
ATOM     76  S   UNL A   1      39.145  37.313  40.317  1.00  0.00     0.124 S 
ATOM     77  O   UNL A   1      38.341  36.346  41.054  1.00  0.00    -0.237 OA
ATOM     78  O   UNL A   1      40.290  37.870  41.033  1.00  0.00    -0.237 OA
ATOM     79  O   UNL A   1      38.395  38.271  39.511  1.00  0.00    -0.744 OA
ENDBRANCH  75  76
ENDBRANCH  54  68
BRANCH  55  80
ATOM     80  C   UNL A   1      44.317  28.725  29.722  1.00  0.00     0.058 A 
ATOM     81  C   UNL A   1      44.982  29.270  28.613  1.00  0.00     0.135 A 
ATOM     82  C   UNL A   1      44.140  27.333  29.754  1.00  0.00     0.135 A 
ATOM     83  F   UNL A   1      45.179  30.595  28.528  1.00  0.00    -0.206 F 
ATOM     84  C   UNL A   1      45.430  28.473  27.565  1.00  0.00     0.059 A 
ATOM     85  C   UNL A   1      44.607  26.510  28.733  1.00  0.00     0.059 A 
ATOM     86  F   UNL A   1      43.530  26.761  30.803  1.00  0.00    -0.206 F 
ATOM     87  C   UNL A   1      45.237  27.092  27.634  1.00  0.00     0.060 A 
BRANCH  87  88
ATOM     88  S   UNL A   1      45.826  26.076  26.262  1.00  0.00     0.124 S 
ATOM     89  O   UNL A   1      47.215  26.509  26.156  1.00  0.00    -0.237 OA
ATOM     90  O   UNL A   1      45.619  24.725  26.772  1.00  0.00    -0.237 OA
ATOM     91  O   UNL A   1      44.960  26.468  25.155  1.00  0.00    -0.744 OA
ENDBRANCH  87  88
ENDBRANCH  55  80
BRANCH  67  92
ATOM     92  C   UNL A   1      47.128  30.902  35.749  1.00  0.00     0.058 A 
ATOM     93  C   UNL A   1      47.274  29.832  36.647  1.00  0.00     0.135 A 
ATOM     94  C   UNL A   1      48.216  31.773  35.585  1.00  0.00     0.135 A 
ATOM     95  F   UNL A   1      46.263  28.974  36.850  1.00  0.00    -0.206 F 
ATOM     96  C   UNL A   1      48.443  29.650  37.379  1.00  0.00     0.059 A 
ATOM     97  C   UNL A   1      49.408  31.590  36.284  1.00  0.00     0.059 A 
ATOM     98  F   UNL A   1      48.132  32.807  34.734  1.00  0.00    -0.206 F 
ATOM     99  C   UNL A   1      49.504  30.537  37.192  1.00  0.00     0.060 A 
BRANCH  99 100
ATOM    100  S   UNL A   1      51.014  30.281  38.148  1.00  0.00     0.124 S 
ATOM    101  O   UNL A   1      50.664  29.117  38.956  1.00  0.00    -0.237 OA
ATOM    102  O   UNL A   1      52.005  30.052  37.101  1.00  0.00    -0.237 OA
ATOM    103  O   UNL A   1      51.166  31.532  38.883  1.00  0.00    -0.744 OA
ENDBRANCH  99 100
ENDBRANCH  67  92
ENDBRANCH  41  42
ENDBRANCH  34  36
ENDBRANCH  33  34
ENDBRANCH  32  33
ENDBRANCH  31  32
ENDBRANCH  30  31
ENDBRANCH  29  30
ENDBRANCH  28  29
ENDBRANCH   1  28
TORSDOF 26
ENDMDL
MODEL 3
REMARK VINA RESULT:      -7.7      4.892     12.454
REMARK SMILES Cn1ccc(NS(=O)(=O)c2cc(C(=O)OCCOCCOCCOCCOC(=O)c3ccc(-c4c5nc(c(-c6c(F)cc(S(=O)(=O)[O-])cc6F)c6ccc([nH]6)c(-c6c(F)cc(S(=O)(=O)[O-])cc6F)c6nc(c(-c7c(F)cc(S(=O)(=O)[O-])cc7F)c7ccc4[nH]7)C=C6)C=C5)cc3)ccc2F)n1
REMARK SMILES IDX 21 1 20 2 19 3 18 4 17 5 16 6 15 7 13 8 14 9 12 10 10 11
REMARK SMILES IDX 11 12 98 13 97 14 99 15 96 16 7 17 8 18 9 19 6 20 5 22 1 23
REMARK SMILES IDX 2 24 3 25 100 26 4 27 22 28 23 29 24 30 25 31 26 32 27 33
REMARK SMILES IDX 28 34 29 35 30 36 31 37 95 38 32 39 94 40 33 41 34 42 35 43
REMARK SMILES IDX 88 44 36 45 93 46 87 47 89 48 37 49 92 50 86 51 85 52 38 54
REMARK SMILES IDX 72 55 51 56 71 57 52 58 55 59 70 60 90 61 53 62 54 63 69 65
REMARK SMILES IDX 91 66 56 67 39 68 40 69 49 70 41 71 42 72 48 73 50 74 43 75
REMARK SMILES IDX 44 76 45 77 46 78 47 79 73 80 74 81 83 82 75 83 76 84 82 85
REMARK SMILES IDX 84 86 77 87 78 88 79 89 80 90 81 91 57 92 58 93 67 94 59 95
REMARK SMILES IDX 60 96 66 97 68 98 61 99 62 100 63 101 64 102 65 103
REMARK H PARENT 6 21 89 53 55 64
REMARK Flexibility Score: inf
ROOT
ATOM      1  O   UNL A   1      48.600  28.338  27.527  1.00  0.00    -0.377 OA
ENDROOT
BRANCH   1   2
ATOM      2  C   UNL A   1      49.591  28.618  28.502  1.00  0.00     0.188 C 
BRANCH   2   3
ATOM      3  C   UNL A   1      49.839  27.615  29.646  1.00  0.00     0.188 C 
BRANCH   3   4
ATOM      4  O   UNL A   1      50.013  28.196  30.926  1.00  0.00    -0.376 OA
BRANCH   4   5
ATOM      5  C   UNL A   1      49.434  27.566  32.055  1.00  0.00     0.202 C 
BRANCH   5   6
ATOM      6  C   UNL A   1      49.894  26.162  32.486  1.00  0.00     0.261 C 
BRANCH   6   7
ATOM      7  O   UNL A   1      48.852  25.246  32.856  1.00  0.00    -0.460 OA
BRANCH   7   8
ATOM      8  C   UNL A   1      48.896  24.767  34.119  1.00  0.00     0.338 C 
ATOM      9  O   UNL A   1      49.810  24.896  34.914  1.00  0.00    -0.246 OA
BRANCH   8  10
ATOM     10  C   UNL A   1      47.538  24.300  34.494  1.00  0.00     0.061 A 
ATOM     11  C   UNL A   1      46.237  22.451  35.405  1.00  0.00     0.124 A 
ATOM     12  C   UNL A   1      47.431  22.967  34.909  1.00  0.00     0.041 A 
ATOM     13  C   UNL A   1      45.102  23.255  35.346  1.00  0.00     0.143 A 
ATOM     14  C   UNL A   1      45.182  24.577  34.882  1.00  0.00     0.041 A 
ATOM     15  F   UNL A   1      43.887  22.782  35.652  1.00  0.00    -0.205 F 
ATOM     16  C   UNL A   1      46.410  25.120  34.486  1.00  0.00     0.019 A 
BRANCH  11  17
ATOM     17  S   UNL A   1      46.109  20.752  35.872  1.00  0.00     0.266 S 
ATOM     18  O   UNL A   1      45.202  20.112  34.942  1.00  0.00    -0.201 OA
ATOM     19  O   UNL A   1      45.811  20.723  37.295  1.00  0.00    -0.201 OA
BRANCH  17  20
ATOM     20  N   UNL A   1      47.581  19.960  35.838  1.00  0.00    -0.262 N 
ATOM     21  H   UNL A   1      47.582  19.089  36.297  1.00  0.00     0.182 HD
BRANCH  20  22
ATOM     22  C   UNL A   1      48.796  20.309  35.281  1.00  0.00     0.161 A 
ATOM     23  C   UNL A   1      52.124  21.279  35.662  1.00  0.00     0.173 C 
ATOM     24  N   UNL A   1      50.841  20.858  35.152  1.00  0.00    -0.274 N 
ATOM     25  C   UNL A   1      50.606  20.194  33.987  1.00  0.00     0.110 A 
ATOM     26  N   UNL A   1      49.750  20.966  35.926  1.00  0.00    -0.155 NA
ATOM     27  C   UNL A   1      49.280  19.825  34.040  1.00  0.00     0.069 A 
ENDBRANCH  20  22
ENDBRANCH  17  20
ENDBRANCH  11  17
ENDBRANCH   8  10
ENDBRANCH   7   8
ENDBRANCH   6   7
ENDBRANCH   5   6
ENDBRANCH   4   5
ENDBRANCH   3   4
ENDBRANCH   2   3
ENDBRANCH   1   2
BRANCH   1  28
ATOM     28  C   UNL A   1      48.180  26.996  27.306  1.00  0.00     0.188 C 
BRANCH  28  29
ATOM     29  C   UNL A   1      46.680  26.615  27.297  1.00  0.00     0.188 C 
BRANCH  29  30
ATOM     30  O   UNL A   1      46.217  26.052  26.079  1.00  0.00    -0.376 OA
BRANCH  30  31
ATOM     31  C   UNL A   1      45.239  25.030  26.168  1.00  0.00     0.202 C 
BRANCH  31  32
ATOM     32  C   UNL A   1      44.067  25.099  25.178  1.00  0.00     0.261 C 
BRANCH  32  33
ATOM     33  O   UNL A   1      43.297  26.309  25.189  1.00  0.00    -0.460 OA
BRANCH  33  34
ATOM     34  C   UNL A   1      42.021  26.232  25.619  1.00  0.00     0.338 C 
ATOM     35  O   UNL A   1      41.103  25.623  25.086  1.00  0.00    -0.246 OA
BRANCH  34  36
ATOM     36  C   UNL A   1      41.970  26.837  26.966  1.00  0.00     0.060 A 
ATOM     37  C   UNL A   1      41.121  26.282  27.935  1.00  0.00     0.016 A 
ATOM     38  C   UNL A   1      42.799  27.915  27.288  1.00  0.00     0.016 A 
ATOM     39  C   UNL A   1      41.085  26.820  29.223  1.00  0.00     0.010 A 
ATOM     40  C   UNL A   1      42.739  28.471  28.568  1.00  0.00     0.010 A 
ATOM     41  C   UNL A   1      41.861  27.944  29.532  1.00  0.00    -0.014 A 
BRANCH  41  42
ATOM     42  C   UNL A   1      41.595  28.706  30.775  1.00  0.00     0.031 A 
ATOM     43  C   UNL A   1      40.455  29.689  30.763  1.00  0.00     0.074 A 
ATOM     44  C   UNL A   1      42.329  28.528  31.889  1.00  0.00     0.049 A 
ATOM     45  N   UNL A   1      40.067  30.522  31.692  1.00  0.00    -0.248 NA
ATOM     46  C   UNL A   1      39.643  29.737  29.534  1.00  0.00     0.031 C 
ATOM     47  C   UNL A   1      43.425  27.573  32.037  1.00  0.00     0.029 A 
ATOM     48  N   UNL A   1      42.264  29.157  33.108  1.00  0.00    -0.354 N 
ATOM     49  C   UNL A   1      38.972  31.192  31.161  1.00  0.00     0.074 A 
ATOM     50  C   UNL A   1      38.774  30.696  29.819  1.00  0.00     0.031 C 
ATOM     51  C   UNL A   1      43.939  27.687  33.276  1.00  0.00     0.029 A 
ATOM     52  C   UNL A   1      43.232  28.747  33.995  1.00  0.00     0.049 A 
ATOM     53  H   UNL A   1      41.587  29.838  33.327  1.00  0.00     0.167 HD
ATOM     54  C   UNL A   1      38.195  32.131  31.746  1.00  0.00     0.037 A 
ATOM     55  C   UNL A   1      43.527  29.195  35.233  1.00  0.00     0.037 A 
ATOM     56  C   UNL A   1      38.396  32.620  33.083  1.00  0.00     0.049 A 
ATOM     57  C   UNL A   1      42.697  30.305  35.834  1.00  0.00     0.074 A 
ATOM     58  C   UNL A   1      37.656  33.567  33.768  1.00  0.00     0.029 A 
ATOM     59  N   UNL A   1      39.409  32.207  33.936  1.00  0.00    -0.354 N 
ATOM     60  N   UNL A   1      41.656  30.925  35.326  1.00  0.00    -0.248 NA
ATOM     61  C   UNL A   1      43.080  30.780  37.172  1.00  0.00     0.031 C 
ATOM     62  C   UNL A   1      38.254  33.768  35.015  1.00  0.00     0.029 A 
ATOM     63  C   UNL A   1      39.329  32.900  35.131  1.00  0.00     0.049 A 
ATOM     64  H   UNL A   1      40.085  31.525  33.722  1.00  0.00     0.167 HD
ATOM     65  C   UNL A   1      41.246  31.838  36.293  1.00  0.00     0.074 A 
ATOM     66  C   UNL A   1      42.141  31.683  37.420  1.00  0.00     0.031 C 
ATOM     67  C   UNL A   1      40.219  32.724  36.253  1.00  0.00     0.037 A 
BRANCH  54  68
ATOM     68  C   UNL A   1      37.057  32.704  30.950  1.00  0.00     0.058 A 
ATOM     69  C   UNL A   1      35.781  32.125  31.018  1.00  0.00     0.135 A 
ATOM     70  C   UNL A   1      37.248  33.769  30.056  1.00  0.00     0.135 A 
ATOM     71  F   UNL A   1      35.539  31.114  31.868  1.00  0.00    -0.206 F 
ATOM     72  C   UNL A   1      34.742  32.557  30.201  1.00  0.00     0.059 A 
ATOM     73  C   UNL A   1      36.217  34.236  29.248  1.00  0.00     0.059 A 
ATOM     74  F   UNL A   1      38.442  34.377  29.975  1.00  0.00    -0.206 F 
ATOM     75  C   UNL A   1      34.972  33.609  29.313  1.00  0.00     0.060 A 
BRANCH  75  76
ATOM     76  S   UNL A   1      33.616  34.149  28.251  1.00  0.00     0.124 S 
ATOM     77  O   UNL A   1      34.321  34.911  27.227  1.00  0.00    -0.237 OA
ATOM     78  O   UNL A   1      33.045  32.876  27.819  1.00  0.00    -0.237 OA
ATOM     79  O   UNL A   1      32.773  34.932  29.150  1.00  0.00    -0.744 OA
ENDBRANCH  75  76
ENDBRANCH  54  68
BRANCH  55  80
ATOM     80  C   UNL A   1      44.665  28.605  35.992  1.00  0.00     0.058 A 
ATOM     81  C   UNL A   1      45.970  29.104  35.851  1.00  0.00     0.135 A 
ATOM     82  C   UNL A   1      44.472  27.534  36.877  1.00  0.00     0.135 A 
ATOM     83  F   UNL A   1      46.215  30.127  35.017  1.00  0.00    -0.206 F 
ATOM     84  C   UNL A   1      47.043  28.548  36.539  1.00  0.00     0.059 A 
ATOM     85  C   UNL A   1      45.524  26.980  37.601  1.00  0.00     0.059 A 
ATOM     86  F   UNL A   1      43.240  27.035  37.064  1.00  0.00    -0.206 F 
ATOM     87  C   UNL A   1      46.810  27.484  37.412  1.00  0.00     0.060 A 
BRANCH  87  88
ATOM     88  S   UNL A   1      48.218  26.776  38.294  1.00  0.00     0.124 S 
ATOM     89  O   UNL A   1      49.299  27.661  37.872  1.00  0.00    -0.237 OA
ATOM     90  O   UNL A   1      47.801  26.903  39.686  1.00  0.00    -0.237 OA
ATOM     91  O   UNL A   1      48.287  25.412  37.781  1.00  0.00    -0.744 OA
ENDBRANCH  87  88
ENDBRANCH  55  80
BRANCH  67  92
ATOM     92  C   UNL A   1      39.972  33.581  37.464  1.00  0.00     0.058 A 
ATOM     93  C   UNL A   1      39.022  33.194  38.424  1.00  0.00     0.135 A 
ATOM     94  C   UNL A   1      40.593  34.829  37.625  1.00  0.00     0.135 A 
ATOM     95  F   UNL A   1      38.390  32.014  38.315  1.00  0.00    -0.206 F 
ATOM     96  C   UNL A   1      38.679  34.024  39.486  1.00  0.00     0.059 A 
ATOM     97  C   UNL A   1      40.287  35.663  38.699  1.00  0.00     0.059 A 
ATOM     98  F   UNL A   1      41.513  35.244  36.740  1.00  0.00    -0.206 F 
ATOM     99  C   UNL A   1      39.315  35.259  39.613  1.00  0.00     0.060 A 
BRANCH  99 100
ATOM    100  S   UNL A   1      38.858  36.320  41.000  1.00  0.00     0.124 S 
ATOM    101  O   UNL A   1      37.675  35.643  41.519  1.00  0.00    -0.237 OA
ATOM    102  O   UNL A   1      40.049  36.254  41.842  1.00  0.00    -0.237 OA
ATOM    103  O   UNL A   1      38.614  37.614  40.370  1.00  0.00    -0.744 OA
ENDBRANCH  99 100
ENDBRANCH  67  92
ENDBRANCH  41  42
ENDBRANCH  34  36
ENDBRANCH  33  34
ENDBRANCH  32  33
ENDBRANCH  31  32
ENDBRANCH  30  31
ENDBRANCH  29  30
ENDBRANCH  28  29
ENDBRANCH   1  28
TORSDOF 26
ENDMDL
