MODEL 1
REMARK VINA RESULT:     -10.8      0.000      0.000
REMARK SMILES O=C(NC1(C(=O)OCCOCCOCCOCCOC(=O)c2ccc(-c3c4nc(c(-c5c(F)cc(S(=O)(=O)[O-])cc5F)c5ccc([nH]5)c(-c5c(F)cc(S(=O)(=O)[O-])cc5F)c5nc(c(-c6c(F)cc(S(=O)(=O)[O-])cc6F)c6ccc3[nH]6)C=C5)C=C4)cc2)Cc2ccccc2C1)OCC1c2ccccc2-c2ccccc21
REMARK SMILES IDX 12 1 11 2 10 3 9 4 8 5 7 6 5 7 6 8 4 9 88 10 95 11 89 12
REMARK SMILES IDX 94 13 90 14 93 15 91 16 92 17 3 18 1 19 2 20 96 22 97 23
REMARK SMILES IDX 98 24 99 25 110 26 100 27 104 28 105 29 109 30 101 31 103 32
REMARK SMILES IDX 106 33 108 34 102 35 107 36 13 37 14 38 15 39 16 40 17 41
REMARK SMILES IDX 18 42 19 43 20 44 21 45 22 46 23 47 87 48 24 49 86 50 25 51
REMARK SMILES IDX 26 52 27 53 80 54 28 55 85 56 79 57 81 58 29 59 84 60 78 61
REMARK SMILES IDX 77 62 30 64 64 65 43 66 63 67 44 68 47 69 62 70 82 71 45 72
REMARK SMILES IDX 46 73 61 75 83 76 48 77 31 78 32 79 41 80 33 81 34 82 40 83
REMARK SMILES IDX 42 84 35 85 36 86 37 87 38 88 39 89 65 90 66 91 75 92 67 93
REMARK SMILES IDX 68 94 74 95 76 96 69 97 70 98 71 99 72 100 73 101 49 102
REMARK SMILES IDX 50 103 59 104 51 105 52 106 58 107 60 108 53 109 54 110
REMARK SMILES IDX 55 111 56 112 57 113
REMARK H PARENT 3 21 81 63 47 74
REMARK Flexibility Score: inf
ROOT
ATOM      1  C   UNL A   1      32.987  33.160  27.919  1.00  0.00     0.188 C 
ENDROOT
BRANCH   1   2
ATOM      2  C   UNL A   1      33.993  31.987  27.987  1.00  0.00     0.188 C 
BRANCH   2   3
ATOM      3  O   UNL A   1      33.737  30.948  27.036  1.00  0.00    -0.376 OA
BRANCH   3   4
ATOM      4  C   UNL A   1      34.386  29.709  27.341  1.00  0.00     0.202 C 
BRANCH   4   5
ATOM      5  C   UNL A   1      33.500  28.477  27.078  1.00  0.00     0.261 C 
BRANCH   5   6
ATOM      6  O   UNL A   1      32.622  28.600  25.953  1.00  0.00    -0.461 OA
BRANCH   6   7
ATOM      7  C   UNL A   1      33.011  28.093  24.760  1.00  0.00     0.332 C 
ATOM      8  O   UNL A   1      34.133  27.649  24.535  1.00  0.00    -0.249 OA
BRANCH   7   9
ATOM      9  C   UNL A   1      31.878  28.160  23.709  1.00  0.00     0.149 C 
ATOM     10  C   UNL A   1      31.347  29.645  23.643  1.00  0.00     0.076 C 
ATOM     11  C   UNL A   1      30.613  27.377  24.102  1.00  0.00     0.076 C 
ATOM     12  C   UNL A   1      29.861  29.494  23.429  1.00  0.00    -0.042 A 
ATOM     13  C   UNL A   1      29.491  28.163  23.536  1.00  0.00    -0.042 A 
ATOM     14  C   UNL A   1      28.876  30.447  23.249  1.00  0.00     0.004 A 
ATOM     15  C   UNL A   1      28.200  27.711  23.318  1.00  0.00     0.004 A 
ATOM     16  C   UNL A   1      27.545  30.022  23.098  1.00  0.00     0.000 A 
ATOM     17  C   UNL A   1      27.215  28.658  23.087  1.00  0.00     0.000 A 
BRANCH   9  18
ATOM     18  N   UNL A   1      32.480  27.752  22.403  1.00  0.00    -0.305 N 
ATOM     19  O   UNL A   1      33.428  26.382  20.870  1.00  0.00    -0.225 OA
ATOM     20  C   UNL A   1      32.831  26.518  21.939  1.00  0.00     0.408 C 
ATOM     21  H   UNL A   1      32.653  28.494  21.778  1.00  0.00     0.168 HD
BRANCH  20  22
ATOM     22  O   UNL A   1      32.505  25.477  22.733  1.00  0.00    -0.449 OA
BRANCH  22  23
ATOM     23  C   UNL A   1      33.485  24.415  22.787  1.00  0.00     0.248 C 
BRANCH  23  24
ATOM     24  C   UNL A   1      34.086  24.224  24.215  1.00  0.00     0.088 C 
ATOM     25  C   UNL A   1      35.239  23.213  24.313  1.00  0.00    -0.029 A 
ATOM     26  C   UNL A   1      33.205  23.722  25.363  1.00  0.00    -0.029 A 
ATOM     27  C   UNL A   1      36.293  22.981  23.447  1.00  0.00     0.005 A 
ATOM     28  C   UNL A   1      35.097  22.427  25.486  1.00  0.00    -0.014 A 
ATOM     29  C   UNL A   1      33.874  22.784  26.153  1.00  0.00    -0.014 A 
ATOM     30  C   UNL A   1      31.919  24.071  25.701  1.00  0.00     0.005 A 
ATOM     31  C   UNL A   1      37.183  21.942  23.755  1.00  0.00     0.000 A 
ATOM     32  C   UNL A   1      35.977  21.405  25.793  1.00  0.00     0.009 A 
ATOM     33  C   UNL A   1      33.312  22.301  27.328  1.00  0.00     0.009 A 
ATOM     34  C   UNL A   1      31.344  23.595  26.884  1.00  0.00     0.000 A 
ATOM     35  C   UNL A   1      37.026  21.162  24.913  1.00  0.00     0.001 A 
ATOM     36  C   UNL A   1      32.050  22.737  27.716  1.00  0.00     0.001 A 
ENDBRANCH  23  24
ENDBRANCH  22  23
ENDBRANCH  20  22
ENDBRANCH   9  18
ENDBRANCH   7   9
ENDBRANCH   6   7
ENDBRANCH   5   6
ENDBRANCH   4   5
ENDBRANCH   3   4
ENDBRANCH   2   3
ENDBRANCH   1   2
BRANCH   1  37
ATOM     37  O   UNL A   1      33.464  34.488  27.741  1.00  0.00    -0.377 OA
BRANCH  37  38
ATOM     38  C   UNL A   1      33.986  35.225  28.841  1.00  0.00     0.188 C 
BRANCH  38  39
ATOM     39  C   UNL A   1      33.035  35.926  29.804  1.00  0.00     0.188 C 
BRANCH  39  40
ATOM     40  O   UNL A   1      33.526  36.754  30.848  1.00  0.00    -0.376 OA
BRANCH  40  41
ATOM     41  C   UNL A   1      33.664  36.215  32.152  1.00  0.00     0.202 C 
BRANCH  41  42
ATOM     42  C   UNL A   1      33.082  34.812  32.378  1.00  0.00     0.261 C 
BRANCH  42  43
ATOM     43  O   UNL A   1      33.876  33.730  31.860  1.00  0.00    -0.460 OA
BRANCH  43  44
ATOM     44  C   UNL A   1      34.688  33.141  32.769  1.00  0.00     0.338 C 
ATOM     45  O   UNL A   1      34.549  33.153  33.986  1.00  0.00    -0.246 OA
BRANCH  44  46
ATOM     46  C   UNL A   1      35.806  32.416  32.125  1.00  0.00     0.060 A 
ATOM     47  C   UNL A   1      36.613  31.613  32.940  1.00  0.00     0.016 A 
ATOM     48  C   UNL A   1      36.185  32.672  30.804  1.00  0.00     0.016 A 
ATOM     49  C   UNL A   1      37.831  31.119  32.460  1.00  0.00     0.010 A 
ATOM     50  C   UNL A   1      37.413  32.183  30.327  1.00  0.00     0.010 A 
ATOM     51  C   UNL A   1      38.267  31.448  31.169  1.00  0.00    -0.014 A 
BRANCH  51  52
ATOM     52  C   UNL A   1      39.694  31.220  30.794  1.00  0.00     0.031 A 
ATOM     53  C   UNL A   1      40.690  32.320  31.053  1.00  0.00     0.074 A 
ATOM     54  C   UNL A   1      40.127  30.056  30.276  1.00  0.00     0.049 A 
ATOM     55  N   UNL A   1      41.971  32.358  30.791  1.00  0.00    -0.248 NA
ATOM     56  C   UNL A   1      40.172  33.536  31.699  1.00  0.00     0.031 C 
ATOM     57  C   UNL A   1      39.291  28.890  30.031  1.00  0.00     0.029 A 
ATOM     58  N   UNL A   1      41.375  29.660  29.859  1.00  0.00    -0.354 N 
ATOM     59  C   UNL A   1      42.412  33.597  31.238  1.00  0.00     0.074 A 
ATOM     60  C   UNL A   1      41.257  34.292  31.764  1.00  0.00     0.031 C 
ATOM     61  C   UNL A   1      40.035  27.911  29.489  1.00  0.00     0.029 A 
ATOM     62  C   UNL A   1      41.405  28.391  29.326  1.00  0.00     0.049 A 
ATOM     63  H   UNL A   1      42.174  30.230  29.934  1.00  0.00     0.167 HD
ATOM     64  C   UNL A   1      43.665  34.111  31.218  1.00  0.00     0.037 A 
ATOM     65  C   UNL A   1      42.415  27.700  28.757  1.00  0.00     0.037 A 
ATOM     66  C   UNL A   1      44.817  33.428  30.691  1.00  0.00     0.049 A 
ATOM     67  C   UNL A   1      43.784  28.325  28.670  1.00  0.00     0.074 A 
ATOM     68  C   UNL A   1      46.128  33.872  30.632  1.00  0.00     0.029 A 
ATOM     69  N   UNL A   1      44.800  32.162  30.124  1.00  0.00    -0.354 N 
ATOM     70  N   UNL A   1      44.187  29.493  29.109  1.00  0.00    -0.248 NA
ATOM     71  C   UNL A   1      44.838  27.537  28.011  1.00  0.00     0.031 C 
ATOM     72  C   UNL A   1      46.893  32.895  29.986  1.00  0.00     0.029 A 
ATOM     73  C   UNL A   1      46.071  31.821  29.690  1.00  0.00     0.049 A 
ATOM     74  H   UNL A   1      44.003  31.591  30.043  1.00  0.00     0.167 HD
ATOM     75  C   UNL A   1      45.543  29.568  28.807  1.00  0.00     0.074 A 
ATOM     76  C   UNL A   1      45.896  28.325  28.155  1.00  0.00     0.031 C 
ATOM     77  C   UNL A   1      46.417  30.576  29.051  1.00  0.00     0.037 A 
BRANCH  64  78
ATOM     78  C   UNL A   1      43.849  35.500  31.758  1.00  0.00     0.058 A 
ATOM     79  C   UNL A   1      43.799  36.629  30.925  1.00  0.00     0.135 A 
ATOM     80  C   UNL A   1      44.054  35.707  33.132  1.00  0.00     0.135 A 
ATOM     81  F   UNL A   1      43.625  36.485  29.601  1.00  0.00    -0.206 F 
ATOM     82  C   UNL A   1      43.973  37.913  31.432  1.00  0.00     0.059 A 
ATOM     83  C   UNL A   1      44.205  36.983  33.664  1.00  0.00     0.059 A 
ATOM     84  F   UNL A   1      44.112  34.660  33.971  1.00  0.00    -0.206 F 
ATOM     85  C   UNL A   1      44.176  38.078  32.803  1.00  0.00     0.060 A 
BRANCH  85  86
ATOM     86  S   UNL A   1      44.399  39.750  33.447  1.00  0.00     0.124 S 
ATOM     87  O   UNL A   1      45.174  40.373  32.378  1.00  0.00    -0.237 OA
ATOM     88  O   UNL A   1      43.024  40.217  33.587  1.00  0.00    -0.237 OA
ATOM     89  O   UNL A   1      45.118  39.538  34.700  1.00  0.00    -0.744 OA
ENDBRANCH  85  86
ENDBRANCH  64  78
BRANCH  65  90
ATOM     90  C   UNL A   1      42.173  26.340  28.199  1.00  0.00     0.058 A 
ATOM     91  C   UNL A   1      42.635  25.191  28.856  1.00  0.00     0.135 A 
ATOM     92  C   UNL A   1      41.497  26.167  26.981  1.00  0.00     0.135 A 
ATOM     93  F   UNL A   1      43.301  25.303  30.015  1.00  0.00    -0.206 F 
ATOM     94  C   UNL A   1      42.453  23.919  28.319  1.00  0.00     0.059 A 
ATOM     95  C   UNL A   1      41.280  24.905  26.436  1.00  0.00     0.059 A 
ATOM     96  F   UNL A   1      41.029  27.234  26.314  1.00  0.00    -0.206 F 
ATOM     97  C   UNL A   1      41.772  23.787  27.108  1.00  0.00     0.060 A 
BRANCH  97  98
ATOM     98  S   UNL A   1      41.505  22.131  26.438  1.00  0.00     0.124 S 
ATOM     99  O   UNL A   1      40.082  22.168  26.120  1.00  0.00    -0.237 OA
ATOM    100  O   UNL A   1      42.414  22.113  25.295  1.00  0.00    -0.237 OA
ATOM    101  O   UNL A   1      41.884  21.256  27.544  1.00  0.00    -0.744 OA
ENDBRANCH  97  98
ENDBRANCH  65  90
BRANCH  77 102
ATOM    102  C   UNL A   1      47.853  30.371  28.650  1.00  0.00     0.058 A 
ATOM    103  C   UNL A   1      48.761  29.689  29.474  1.00  0.00     0.135 A 
ATOM    104  C   UNL A   1      48.309  30.809  27.395  1.00  0.00     0.135 A 
ATOM    105  F   UNL A   1      48.380  29.254  30.685  1.00  0.00    -0.206 F 
ATOM    106  C   UNL A   1      50.076  29.463  29.076  1.00  0.00     0.059 A 
ATOM    107  C   UNL A   1      49.611  30.571  26.966  1.00  0.00     0.059 A 
ATOM    108  F   UNL A   1      47.479  31.458  26.563  1.00  0.00    -0.206 F 
ATOM    109  C   UNL A   1      50.491  29.906  27.818  1.00  0.00     0.060 A 
BRANCH 109 110
ATOM    110  S   UNL A   1      52.188  29.573  27.296  1.00  0.00     0.124 S 
ATOM    111  O   UNL A   1      52.153  28.129  27.089  1.00  0.00    -0.237 OA
ATOM    112  O   UNL A   1      52.308  30.383  26.088  1.00  0.00    -0.237 OA
ATOM    113  O   UNL A   1      52.988  30.026  28.430  1.00  0.00    -0.744 OA
ENDBRANCH 109 110
ENDBRANCH  77 102
ENDBRANCH  51  52
ENDBRANCH  44  46
ENDBRANCH  43  44
ENDBRANCH  42  43
ENDBRANCH  41  42
ENDBRANCH  40  41
ENDBRANCH  39  40
ENDBRANCH  38  39
ENDBRANCH  37  38
ENDBRANCH   1  37
TORSDOF 27
ENDMDL
MODEL 2
REMARK VINA RESULT:     -10.7      0.637      2.054
REMARK SMILES O=C(NC1(C(=O)OCCOCCOCCOCCOC(=O)c2ccc(-c3c4nc(c(-c5c(F)cc(S(=O)(=O)[O-])cc5F)c5ccc([nH]5)c(-c5c(F)cc(S(=O)(=O)[O-])cc5F)c5nc(c(-c6c(F)cc(S(=O)(=O)[O-])cc6F)c6ccc3[nH]6)C=C5)C=C4)cc2)Cc2ccccc2C1)OCC1c2ccccc2-c2ccccc21
REMARK SMILES IDX 12 1 11 2 10 3 9 4 8 5 7 6 5 7 6 8 4 9 88 10 95 11 89 12
REMARK SMILES IDX 94 13 90 14 93 15 91 16 92 17 3 18 1 19 2 20 96 22 97 23
REMARK SMILES IDX 98 24 99 25 110 26 100 27 104 28 105 29 109 30 101 31 103 32
REMARK SMILES IDX 106 33 108 34 102 35 107 36 13 37 14 38 15 39 16 40 17 41
REMARK SMILES IDX 18 42 19 43 20 44 21 45 22 46 23 47 87 48 24 49 86 50 25 51
REMARK SMILES IDX 26 52 27 53 80 54 28 55 85 56 79 57 81 58 29 59 84 60 78 61
REMARK SMILES IDX 77 62 30 64 64 65 43 66 63 67 44 68 47 69 62 70 82 71 45 72
REMARK SMILES IDX 46 73 61 75 83 76 48 77 31 78 32 79 41 80 33 81 34 82 40 83
REMARK SMILES IDX 42 84 35 85 36 86 37 87 38 88 39 89 65 90 66 91 75 92 67 93
REMARK SMILES IDX 68 94 74 95 76 96 69 97 70 98 71 99 72 100 73 101 49 102
REMARK SMILES IDX 50 103 59 104 51 105 52 106 58 107 60 108 53 109 54 110
REMARK SMILES IDX 55 111 56 112 57 113
REMARK H PARENT 3 21 81 63 47 74
REMARK Flexibility Score: inf
ROOT
ATOM      1  C   UNL A   1      32.746  32.499  27.748  1.00  0.00     0.188 C 
ENDROOT
BRANCH   1   2
ATOM      2  C   UNL A   1      33.876  31.451  27.877  1.00  0.00     0.188 C 
BRANCH   2   3
ATOM      3  O   UNL A   1      33.986  30.576  26.749  1.00  0.00    -0.376 OA
BRANCH   3   4
ATOM      4  C   UNL A   1      34.631  29.332  27.040  1.00  0.00     0.202 C 
BRANCH   4   5
ATOM      5  C   UNL A   1      33.757  28.104  26.723  1.00  0.00     0.261 C 
BRANCH   5   6
ATOM      6  O   UNL A   1      32.784  28.311  25.694  1.00  0.00    -0.461 OA
BRANCH   6   7
ATOM      7  C   UNL A   1      33.155  28.158  24.402  1.00  0.00     0.332 C 
ATOM      8  O   UNL A   1      34.321  28.130  24.020  1.00  0.00    -0.249 OA
BRANCH   7   9
ATOM      9  C   UNL A   1      31.932  28.044  23.461  1.00  0.00     0.149 C 
ATOM     10  C   UNL A   1      31.378  29.497  23.186  1.00  0.00     0.076 C 
ATOM     11  C   UNL A   1      30.717  27.345  24.097  1.00  0.00     0.076 C 
ATOM     12  C   UNL A   1      29.881  29.316  23.135  1.00  0.00    -0.042 A 
ATOM     13  C   UNL A   1      29.539  28.024  23.505  1.00  0.00    -0.042 A 
ATOM     14  C   UNL A   1      28.872  30.226  22.882  1.00  0.00     0.004 A 
ATOM     15  C   UNL A   1      28.239  27.546  23.486  1.00  0.00     0.004 A 
ATOM     16  C   UNL A   1      27.539  29.784  22.927  1.00  0.00     0.000 A 
ATOM     17  C   UNL A   1      27.226  28.441  23.183  1.00  0.00     0.000 A 
BRANCH   9  18
ATOM     18  N   UNL A   1      32.421  27.413  22.197  1.00  0.00    -0.305 N 
ATOM     19  O   UNL A   1      33.215  25.784  20.840  1.00  0.00    -0.225 OA
ATOM     20  C   UNL A   1      32.706  26.109  21.914  1.00  0.00     0.408 C 
ATOM     21  H   UNL A   1      32.560  28.039  21.449  1.00  0.00     0.168 HD
BRANCH  20  22
ATOM     22  O   UNL A   1      32.422  25.220  22.888  1.00  0.00    -0.449 OA
BRANCH  22  23
ATOM     23  C   UNL A   1      32.277  23.850  22.447  1.00  0.00     0.248 C 
BRANCH  23  24
ATOM     24  C   UNL A   1      32.930  22.831  23.432  1.00  0.00     0.088 C 
ATOM     25  C   UNL A   1      32.372  22.849  24.864  1.00  0.00    -0.029 A 
ATOM     26  C   UNL A   1      34.429  22.906  23.739  1.00  0.00    -0.029 A 
ATOM     27  C   UNL A   1      31.068  22.991  25.307  1.00  0.00     0.005 A 
ATOM     28  C   UNL A   1      33.432  22.727  25.800  1.00  0.00    -0.014 A 
ATOM     29  C   UNL A   1      34.687  22.707  25.098  1.00  0.00    -0.014 A 
ATOM     30  C   UNL A   1      35.490  23.116  22.892  1.00  0.00     0.005 A 
ATOM     31  C   UNL A   1      30.844  23.034  26.690  1.00  0.00     0.000 A 
ATOM     32  C   UNL A   1      33.210  22.764  27.165  1.00  0.00     0.009 A 
ATOM     33  C   UNL A   1      35.986  22.597  25.575  1.00  0.00     0.009 A 
ATOM     34  C   UNL A   1      36.803  23.003  23.359  1.00  0.00     0.000 A 
ATOM     35  C   UNL A   1      31.902  22.924  27.609  1.00  0.00     0.001 A 
ATOM     36  C   UNL A   1      37.055  22.710  24.693  1.00  0.00     0.001 A 
ENDBRANCH  23  24
ENDBRANCH  22  23
ENDBRANCH  20  22
ENDBRANCH   9  18
ENDBRANCH   7   9
ENDBRANCH   6   7
ENDBRANCH   5   6
ENDBRANCH   4   5
ENDBRANCH   3   4
ENDBRANCH   2   3
ENDBRANCH   1   2
BRANCH   1  37
ATOM     37  O   UNL A   1      33.073  33.878  27.630  1.00  0.00    -0.377 OA
BRANCH  37  38
ATOM     38  C   UNL A   1      33.766  34.551  28.676  1.00  0.00     0.188 C 
BRANCH  38  39
ATOM     39  C   UNL A   1      32.990  35.394  29.681  1.00  0.00     0.188 C 
BRANCH  39  40
ATOM     40  O   UNL A   1      33.651  36.327  30.523  1.00  0.00    -0.376 OA
BRANCH  40  41
ATOM     41  C   UNL A   1      33.795  36.033  31.903  1.00  0.00     0.202 C 
BRANCH  41  42
ATOM     42  C   UNL A   1      33.223  34.691  32.380  1.00  0.00     0.261 C 
BRANCH  42  43
ATOM     43  O   UNL A   1      33.928  33.525  31.917  1.00  0.00    -0.460 OA
BRANCH  43  44
ATOM     44  C   UNL A   1      34.802  33.003  32.810  1.00  0.00     0.338 C 
ATOM     45  O   UNL A   1      34.700  33.032  34.030  1.00  0.00    -0.246 OA
BRANCH  44  46
ATOM     46  C   UNL A   1      35.941  32.334  32.143  1.00  0.00     0.060 A 
ATOM     47  C   UNL A   1      36.820  31.596  32.945  1.00  0.00     0.016 A 
ATOM     48  C   UNL A   1      36.264  32.588  30.807  1.00  0.00     0.016 A 
ATOM     49  C   UNL A   1      38.049  31.167  32.436  1.00  0.00     0.010 A 
ATOM     50  C   UNL A   1      37.503  32.165  30.299  1.00  0.00     0.010 A 
ATOM     51  C   UNL A   1      38.425  31.497  31.126  1.00  0.00    -0.014 A 
BRANCH  51  52
ATOM     52  C   UNL A   1      39.851  31.347  30.710  1.00  0.00     0.031 A 
ATOM     53  C   UNL A   1      40.797  32.493  30.960  1.00  0.00     0.074 A 
ATOM     54  C   UNL A   1      40.329  30.214  30.163  1.00  0.00     0.049 A 
ATOM     55  N   UNL A   1      42.067  32.599  30.664  1.00  0.00    -0.248 NA
ATOM     56  C   UNL A   1      40.236  33.672  31.637  1.00  0.00     0.031 C 
ATOM     57  C   UNL A   1      39.546  29.010  29.923  1.00  0.00     0.029 A 
ATOM     58  N   UNL A   1      41.583  29.888  29.707  1.00  0.00    -0.354 N 
ATOM     59  C   UNL A   1      42.457  33.853  31.118  1.00  0.00     0.074 A 
ATOM     60  C   UNL A   1      41.283  34.482  31.685  1.00  0.00     0.031 C 
ATOM     61  C   UNL A   1      40.324  28.078  29.347  1.00  0.00     0.029 A 
ATOM     62  C   UNL A   1      41.663  28.629  29.155  1.00  0.00     0.049 A 
ATOM     63  H   UNL A   1      42.354  30.497  29.770  1.00  0.00     0.167 HD
ATOM     64  C   UNL A   1      43.682  34.430  31.073  1.00  0.00     0.037 A 
ATOM     65  C   UNL A   1      42.691  27.999  28.549  1.00  0.00     0.037 A 
ATOM     66  C   UNL A   1      44.852  33.815  30.505  1.00  0.00     0.049 A 
ATOM     67  C   UNL A   1      44.024  28.694  28.435  1.00  0.00     0.074 A 
ATOM     68  C   UNL A   1      46.136  34.326  30.417  1.00  0.00     0.029 A 
ATOM     69  N   UNL A   1      44.883  32.557  29.919  1.00  0.00    -0.354 N 
ATOM     70  N   UNL A   1      44.378  29.875  28.881  1.00  0.00    -0.248 NA
ATOM     71  C   UNL A   1      45.098  27.970  27.737  1.00  0.00     0.031 C 
ATOM     72  C   UNL A   1      46.932  33.398  29.738  1.00  0.00     0.029 A 
ATOM     73  C   UNL A   1      46.157  32.287  29.447  1.00  0.00     0.049 A 
ATOM     74  H   UNL A   1      44.114  31.948  29.851  1.00  0.00     0.167 HD
ATOM     75  C   UNL A   1      45.721  30.023  28.544  1.00  0.00     0.074 A 
ATOM     76  C   UNL A   1      46.118  28.808  27.864  1.00  0.00     0.031 C 
ATOM     77  C   UNL A   1      46.549  31.070  28.780  1.00  0.00     0.037 A 
BRANCH  64  78
ATOM     78  C   UNL A   1      43.809  35.820  31.628  1.00  0.00     0.058 A 
ATOM     79  C   UNL A   1      43.933  36.056  33.006  1.00  0.00     0.135 A 
ATOM     80  C   UNL A   1      43.831  36.929  30.768  1.00  0.00     0.135 A 
ATOM     81  F   UNL A   1      43.898  35.031  33.874  1.00  0.00    -0.206 F 
ATOM     82  C   UNL A   1      44.048  37.346  33.514  1.00  0.00     0.059 A 
ATOM     83  C   UNL A   1      43.971  38.226  31.251  1.00  0.00     0.059 A 
ATOM     84  F   UNL A   1      43.714  36.757  29.441  1.00  0.00    -0.206 F 
ATOM     85  C   UNL A   1      44.065  38.424  32.628  1.00  0.00     0.060 A 
BRANCH  85  86
ATOM     86  S   UNL A   1      44.215  40.093  33.300  1.00  0.00     0.124 S 
ATOM     87  O   UNL A   1      44.880  39.835  34.573  1.00  0.00    -0.237 OA
ATOM     88  O   UNL A   1      45.024  40.765  32.288  1.00  0.00    -0.237 OA
ATOM     89  O   UNL A   1      42.831  40.547  33.396  1.00  0.00    -0.744 OA
ENDBRANCH  85  86
ENDBRANCH  64  78
BRANCH  65  90
ATOM     90  C   UNL A   1      42.503  26.636  27.977  1.00  0.00     0.058 A 
ATOM     91  C   UNL A   1      42.705  25.486  28.754  1.00  0.00     0.135 A 
ATOM     92  C   UNL A   1      42.143  26.459  26.631  1.00  0.00     0.135 A 
ATOM     93  F   UNL A   1      43.065  25.602  30.041  1.00  0.00    -0.206 F 
ATOM     94  C   UNL A   1      42.575  24.209  28.215  1.00  0.00     0.059 A 
ATOM     95  C   UNL A   1      41.983  25.193  26.077  1.00  0.00     0.059 A 
ATOM     96  F   UNL A   1      41.932  27.526  25.845  1.00  0.00    -0.206 F 
ATOM     97  C   UNL A   1      42.212  24.073  26.875  1.00  0.00     0.060 A 
BRANCH  97  98
ATOM     98  S   UNL A   1      42.008  22.412  26.194  1.00  0.00     0.124 S 
ATOM     99  O   UNL A   1      40.555  22.291  26.145  1.00  0.00    -0.237 OA
ATOM    100  O   UNL A   1      42.683  22.524  24.905  1.00  0.00    -0.237 OA
ATOM    101  O   UNL A   1      42.680  21.563  27.173  1.00  0.00    -0.744 OA
ENDBRANCH  97  98
ENDBRANCH  65  90
BRANCH  77 102
ATOM    102  C   UNL A   1      47.981  30.945  28.338  1.00  0.00     0.058 A 
ATOM    103  C   UNL A   1      48.471  31.624  27.212  1.00  0.00     0.135 A 
ATOM    104  C   UNL A   1      48.892  30.184  29.091  1.00  0.00     0.135 A 
ATOM    105  F   UNL A   1      47.643  32.360  26.455  1.00  0.00    -0.206 F 
ATOM    106  C   UNL A   1      49.809  31.540  26.836  1.00  0.00     0.059 A 
ATOM    107  C   UNL A   1      50.239  30.107  28.748  1.00  0.00     0.059 A 
ATOM    108  F   UNL A   1      48.480  29.523  30.183  1.00  0.00    -0.206 F 
ATOM    109  C   UNL A   1      50.686  30.780  27.612  1.00  0.00     0.060 A 
BRANCH 109 110
ATOM    110  S   UNL A   1      52.428  30.710  27.138  1.00  0.00     0.124 S 
ATOM    111  O   UNL A   1      52.466  31.650  26.023  1.00  0.00    -0.237 OA
ATOM    112  O   UNL A   1      53.102  31.146  28.358  1.00  0.00    -0.237 OA
ATOM    113  O   UNL A   1      52.628  29.308  26.785  1.00  0.00    -0.744 OA
ENDBRANCH 109 110
ENDBRANCH  77 102
ENDBRANCH  51  52
ENDBRANCH  44  46
ENDBRANCH  43  44
ENDBRANCH  42  43
ENDBRANCH  41  42
ENDBRANCH  40  41
ENDBRANCH  39  40
ENDBRANCH  38  39
ENDBRANCH  37  38
ENDBRANCH   1  37
TORSDOF 27
ENDMDL
MODEL 3
REMARK VINA RESULT:     -10.7      1.435      2.009
REMARK SMILES O=C(NC1(C(=O)OCCOCCOCCOCCOC(=O)c2ccc(-c3c4nc(c(-c5c(F)cc(S(=O)(=O)[O-])cc5F)c5ccc([nH]5)c(-c5c(F)cc(S(=O)(=O)[O-])cc5F)c5nc(c(-c6c(F)cc(S(=O)(=O)[O-])cc6F)c6ccc3[nH]6)C=C5)C=C4)cc2)Cc2ccccc2C1)OCC1c2ccccc2-c2ccccc21
REMARK SMILES IDX 12 1 11 2 10 3 9 4 8 5 7 6 5 7 6 8 4 9 88 10 95 11 89 12
REMARK SMILES IDX 94 13 90 14 93 15 91 16 92 17 3 18 1 19 2 20 96 22 97 23
REMARK SMILES IDX 98 24 99 25 110 26 100 27 104 28 105 29 109 30 101 31 103 32
REMARK SMILES IDX 106 33 108 34 102 35 107 36 13 37 14 38 15 39 16 40 17 41
REMARK SMILES IDX 18 42 19 43 20 44 21 45 22 46 23 47 87 48 24 49 86 50 25 51
REMARK SMILES IDX 26 52 27 53 80 54 28 55 85 56 79 57 81 58 29 59 84 60 78 61
REMARK SMILES IDX 77 62 30 64 64 65 43 66 63 67 44 68 47 69 62 70 82 71 45 72
REMARK SMILES IDX 46 73 61 75 83 76 48 77 31 78 32 79 41 80 33 81 34 82 40 83
REMARK SMILES IDX 42 84 35 85 36 86 37 87 38 88 39 89 65 90 66 91 75 92 67 93
REMARK SMILES IDX 68 94 74 95 76 96 69 97 70 98 71 99 72 100 73 101 49 102
REMARK SMILES IDX 50 103 59 104 51 105 52 106 58 107 60 108 53 109 54 110
REMARK SMILES IDX 55 111 56 112 57 113
REMARK H PARENT 3 21 81 63 47 74
REMARK Flexibility Score: inf
ROOT
ATOM      1  C   UNL A   1      32.785  32.676  27.709  1.00  0.00     0.188 C 
ENDROOT
BRANCH   1   2
ATOM      2  C   UNL A   1      33.867  31.616  28.021  1.00  0.00     0.188 C 
BRANCH   2   3
ATOM      3  O   UNL A   1      34.255  30.833  26.887  1.00  0.00    -0.376 OA
BRANCH   3   4
ATOM      4  C   UNL A   1      34.623  29.487  27.210  1.00  0.00     0.202 C 
BRANCH   4   5
ATOM      5  C   UNL A   1      33.424  28.520  27.245  1.00  0.00     0.261 C 
BRANCH   5   6
ATOM      6  O   UNL A   1      32.561  28.595  26.105  1.00  0.00    -0.461 OA
BRANCH   6   7
ATOM      7  C   UNL A   1      33.032  28.198  24.900  1.00  0.00     0.332 C 
ATOM      8  O   UNL A   1      34.214  27.965  24.667  1.00  0.00    -0.249 OA
BRANCH   7   9
ATOM      9  C   UNL A   1      31.903  28.094  23.847  1.00  0.00     0.149 C 
ATOM     10  C   UNL A   1      31.379  29.550  23.534  1.00  0.00     0.076 C 
ATOM     11  C   UNL A   1      30.634  27.391  24.358  1.00  0.00     0.076 C 
ATOM     12  C   UNL A   1      29.893  29.371  23.340  1.00  0.00    -0.042 A 
ATOM     13  C   UNL A   1      29.517  28.076  23.664  1.00  0.00    -0.042 A 
ATOM     14  C   UNL A   1      28.913  30.284  23.000  1.00  0.00     0.004 A 
ATOM     15  C   UNL A   1      28.225  27.599  23.518  1.00  0.00     0.004 A 
ATOM     16  C   UNL A   1      27.581  29.844  22.915  1.00  0.00     0.000 A 
ATOM     17  C   UNL A   1      27.245  28.498  23.128  1.00  0.00     0.000 A 
BRANCH   9  18
ATOM     18  N   UNL A   1      32.510  27.474  22.629  1.00  0.00    -0.305 N 
ATOM     19  O   UNL A   1      33.484  25.875  21.357  1.00  0.00    -0.225 OA
ATOM     20  C   UNL A   1      32.888  26.185  22.390  1.00  0.00     0.408 C 
ATOM     21  H   UNL A   1      32.661  28.096  21.880  1.00  0.00     0.168 HD
BRANCH  20  22
ATOM     22  O   UNL A   1      32.593  25.296  23.360  1.00  0.00    -0.449 OA
BRANCH  22  23
ATOM     23  C   UNL A   1      32.318  23.952  22.900  1.00  0.00     0.248 C 
BRANCH  23  24
ATOM     24  C   UNL A   1      33.539  22.997  23.074  1.00  0.00     0.088 C 
ATOM     25  C   UNL A   1      33.190  21.521  23.324  1.00  0.00    -0.029 A 
ATOM     26  C   UNL A   1      34.539  23.221  24.213  1.00  0.00    -0.029 A 
ATOM     27  C   UNL A   1      32.197  20.736  22.764  1.00  0.00     0.005 A 
ATOM     28  C   UNL A   1      34.048  20.980  24.317  1.00  0.00    -0.014 A 
ATOM     29  C   UNL A   1      34.910  22.017  24.817  1.00  0.00    -0.014 A 
ATOM     30  C   UNL A   1      35.096  24.389  24.676  1.00  0.00     0.005 A 
ATOM     31  C   UNL A   1      32.061  19.419  23.224  1.00  0.00     0.000 A 
ATOM     32  C   UNL A   1      33.917  19.679  24.768  1.00  0.00     0.009 A 
ATOM     33  C   UNL A   1      35.910  21.974  25.780  1.00  0.00     0.009 A 
ATOM     34  C   UNL A   1      36.107  24.358  25.641  1.00  0.00     0.000 A 
ATOM     35  C   UNL A   1      32.909  18.896  24.216  1.00  0.00     0.001 A 
ATOM     36  C   UNL A   1      36.540  23.150  26.170  1.00  0.00     0.001 A 
ENDBRANCH  23  24
ENDBRANCH  22  23
ENDBRANCH  20  22
ENDBRANCH   9  18
ENDBRANCH   7   9
ENDBRANCH   6   7
ENDBRANCH   5   6
ENDBRANCH   4   5
ENDBRANCH   3   4
ENDBRANCH   2   3
ENDBRANCH   1   2
BRANCH   1  37
ATOM     37  O   UNL A   1      33.131  34.055  27.700  1.00  0.00    -0.377 OA
BRANCH  37  38
ATOM     38  C   UNL A   1      33.797  34.643  28.812  1.00  0.00     0.188 C 
BRANCH  38  39
ATOM     39  C   UNL A   1      32.991  35.382  29.875  1.00  0.00     0.188 C 
BRANCH  39  40
ATOM     40  O   UNL A   1      33.618  36.284  30.776  1.00  0.00    -0.376 OA
BRANCH  40  41
ATOM     41  C   UNL A   1      33.868  35.868  32.108  1.00  0.00     0.202 C 
BRANCH  41  42
ATOM     42  C   UNL A   1      33.458  34.434  32.466  1.00  0.00     0.261 C 
BRANCH  42  43
ATOM     43  O   UNL A   1      34.253  33.400  31.858  1.00  0.00    -0.460 OA
BRANCH  43  44
ATOM     44  C   UNL A   1      35.022  32.697  32.723  1.00  0.00     0.338 C 
ATOM     45  O   UNL A   1      34.924  32.690  33.943  1.00  0.00    -0.246 OA
BRANCH  44  46
ATOM     46  C   UNL A   1      36.029  31.870  32.022  1.00  0.00     0.060 A 
ATOM     47  C   UNL A   1      36.854  31.052  32.803  1.00  0.00     0.016 A 
ATOM     48  C   UNL A   1      36.303  32.041  30.661  1.00  0.00     0.016 A 
ATOM     49  C   UNL A   1      37.990  30.456  32.245  1.00  0.00     0.010 A 
ATOM     50  C   UNL A   1      37.450  31.450  30.104  1.00  0.00     0.010 A 
ATOM     51  C   UNL A   1      38.328  30.697  30.905  1.00  0.00    -0.014 A 
BRANCH  51  52
ATOM     52  C   UNL A   1      39.698  30.357  30.420  1.00  0.00     0.031 A 
ATOM     53  C   UNL A   1      40.771  31.413  30.496  1.00  0.00     0.074 A 
ATOM     54  C   UNL A   1      40.019  29.133  29.961  1.00  0.00     0.049 A 
ATOM     55  N   UNL A   1      42.021  31.354  30.114  1.00  0.00    -0.248 NA
ATOM     56  C   UNL A   1      40.381  32.703  31.085  1.00  0.00     0.031 C 
ATOM     57  C   UNL A   1      39.103  28.004  29.890  1.00  0.00     0.029 A 
ATOM     58  N   UNL A   1      41.198  28.633  29.464  1.00  0.00    -0.354 N 
ATOM     59  C   UNL A   1      42.567  32.595  30.416  1.00  0.00     0.074 A 
ATOM     60  C   UNL A   1      41.506  33.396  30.988  1.00  0.00     0.031 C 
ATOM     61  C   UNL A   1      39.739  26.944  29.363  1.00  0.00     0.029 A 
ATOM     62  C   UNL A   1      41.111  27.327  29.036  1.00  0.00     0.049 A 
ATOM     63  H   UNL A   1      42.029  29.159  29.418  1.00  0.00     0.167 HD
ATOM     64  C   UNL A   1      43.837  33.031  30.239  1.00  0.00     0.037 A 
ATOM     65  C   UNL A   1      42.024  26.537  28.434  1.00  0.00     0.037 A 
ATOM     66  C   UNL A   1      44.896  32.242  29.664  1.00  0.00     0.049 A 
ATOM     67  C   UNL A   1      43.408  27.070  28.170  1.00  0.00     0.074 A 
ATOM     68  C   UNL A   1      46.215  32.602  29.448  1.00  0.00     0.029 A 
ATOM     69  N   UNL A   1      44.758  30.940  29.206  1.00  0.00    -0.354 N 
ATOM     70  N   UNL A   1      43.911  28.243  28.473  1.00  0.00    -0.248 NA
ATOM     71  C   UNL A   1      44.351  26.173  27.483  1.00  0.00     0.031 C 
ATOM     72  C   UNL A   1      46.863  31.535  28.817  1.00  0.00     0.029 A 
ATOM     73  C   UNL A   1      45.961  30.492  28.686  1.00  0.00     0.049 A 
ATOM     74  H   UNL A   1      43.928  30.413  29.246  1.00  0.00     0.167 HD
ATOM     75  C   UNL A   1      45.234  28.214  28.042  1.00  0.00     0.074 A 
ATOM     76  C   UNL A   1      45.458  26.906  27.463  1.00  0.00     0.031 C 
ATOM     77  C   UNL A   1      46.179  29.183  28.121  1.00  0.00     0.037 A 
BRANCH  64  78
ATOM     78  C   UNL A   1      44.144  34.444  30.644  1.00  0.00     0.058 A 
ATOM     79  C   UNL A   1      44.565  34.765  31.944  1.00  0.00     0.135 A 
ATOM     80  C   UNL A   1      44.037  35.488  29.712  1.00  0.00     0.135 A 
ATOM     81  F   UNL A   1      44.664  33.805  32.878  1.00  0.00    -0.206 F 
ATOM     82  C   UNL A   1      44.844  36.076  32.313  1.00  0.00     0.059 A 
ATOM     83  C   UNL A   1      44.336  36.803  30.052  1.00  0.00     0.059 A 
ATOM     84  F   UNL A   1      43.636  35.235  28.456  1.00  0.00    -0.206 F 
ATOM     85  C   UNL A   1      44.726  37.088  31.359  1.00  0.00     0.060 A 
BRANCH  85  86
ATOM     86  S   UNL A   1      45.092  38.786  31.852  1.00  0.00     0.124 S 
ATOM     87  O   UNL A   1      44.885  38.722  33.295  1.00  0.00    -0.237 OA
ATOM     88  O   UNL A   1      46.476  38.946  31.417  1.00  0.00    -0.237 OA
ATOM     89  O   UNL A   1      44.111  39.574  31.112  1.00  0.00    -0.744 OA
ENDBRANCH  85  86
ENDBRANCH  64  78
BRANCH  65  90
ATOM     90  C   UNL A   1      41.658  25.155  28.013  1.00  0.00     0.058 A 
ATOM     91  C   UNL A   1      42.155  24.032  28.691  1.00  0.00     0.135 A 
ATOM     92  C   UNL A   1      40.825  24.931  26.905  1.00  0.00     0.135 A 
ATOM     93  F   UNL A   1      42.968  24.192  29.746  1.00  0.00    -0.206 F 
ATOM     94  C   UNL A   1      41.856  22.737  28.277  1.00  0.00     0.059 A 
ATOM     95  C   UNL A   1      40.491  23.647  26.488  1.00  0.00     0.059 A 
ATOM     96  F   UNL A   1      40.318  25.971  26.225  1.00  0.00    -0.206 F 
ATOM     97  C   UNL A   1      41.020  22.555  27.174  1.00  0.00     0.060 A 
BRANCH  97  98
ATOM     98  S   UNL A   1      40.604  20.872  26.667  1.00  0.00     0.124 S 
ATOM     99  O   UNL A   1      39.306  21.068  26.032  1.00  0.00    -0.237 OA
ATOM    100  O   UNL A   1      41.709  20.540  25.773  1.00  0.00    -0.237 OA
ATOM    101  O   UNL A   1      40.587  20.137  27.929  1.00  0.00    -0.744 OA
ENDBRANCH  97  98
ENDBRANCH  65  90
BRANCH  77 102
ATOM    102  C   UNL A   1      47.556  28.864  27.608  1.00  0.00     0.058 A 
ATOM    103  C   UNL A   1      48.607  28.521  28.472  1.00  0.00     0.135 A 
ATOM    104  C   UNL A   1      47.811  28.839  26.226  1.00  0.00     0.135 A 
ATOM    105  F   UNL A   1      48.421  28.535  29.801  1.00  0.00    -0.206 F 
ATOM    106  C   UNL A   1      49.867  28.182  27.986  1.00  0.00     0.059 A 
ATOM    107  C   UNL A   1      49.055  28.478  25.717  1.00  0.00     0.059 A 
ATOM    108  F   UNL A   1      46.838  29.148  25.354  1.00  0.00    -0.206 F 
ATOM    109  C   UNL A   1      50.080  28.161  26.606  1.00  0.00     0.060 A 
BRANCH 109 110
ATOM    110  S   UNL A   1      51.707  27.680  25.985  1.00  0.00     0.124 S 
ATOM    111  O   UNL A   1      51.458  26.315  25.534  1.00  0.00    -0.237 OA
ATOM    112  O   UNL A   1      51.943  28.663  24.932  1.00  0.00    -0.237 OA
ATOM    113  O   UNL A   1      52.569  27.807  27.156  1.00  0.00    -0.744 OA
ENDBRANCH 109 110
ENDBRANCH  77 102
ENDBRANCH  51  52
ENDBRANCH  44  46
ENDBRANCH  43  44
ENDBRANCH  42  43
ENDBRANCH  41  42
ENDBRANCH  40  41
ENDBRANCH  39  40
ENDBRANCH  38  39
ENDBRANCH  37  38
ENDBRANCH   1  37
TORSDOF 27
ENDMDL
