MODEL 1
REMARK VINA RESULT:     -10.9      0.000      0.000
REMARK SMILES Cc1c(NC(=O)c2ccc(Br)cc2N)cccc1C(=O)OCCOCCOCCOCCOC(=O)c1ccc(-c2c3nc(c(-c4c(F)cc(S(=O)(=O)[O-])cc4F)c4ccc([nH]4)c(-c4c(F)cc(S(=O)(=O)[O-])cc4F)c4nc(c(-c5c(F)cc(S(=O)(=O)[O-])cc5F)c5ccc2[nH]5)C=C4)C=C3)cc1
REMARK SMILES IDX 27 1 26 2 25 3 24 4 23 5 22 6 21 7 19 8 20 9 18 10 1 11 2 12
REMARK SMILES IDX 3 13 15 14 17 15 16 16 4 17 5 18 6 20 7 21 8 22 13 23 9 24
REMARK SMILES IDX 12 25 10 26 11 27 14 28 28 31 29 32 30 33 31 34 32 35 33 36
REMARK SMILES IDX 34 37 35 38 36 39 37 40 101 41 38 42 100 43 39 44 40 45
REMARK SMILES IDX 41 46 94 47 42 48 99 49 93 50 95 51 43 52 98 53 92 54 91 55
REMARK SMILES IDX 44 57 78 58 57 59 77 60 58 61 61 62 76 63 96 64 59 65 60 66
REMARK SMILES IDX 75 68 97 69 62 70 45 71 46 72 55 73 47 74 48 75 54 76 56 77
REMARK SMILES IDX 49 78 50 79 51 80 52 81 53 82 79 83 80 84 89 85 81 86 82 87
REMARK SMILES IDX 88 88 90 89 83 90 84 91 85 92 86 93 87 94 63 95 64 96 73 97
REMARK SMILES IDX 65 98 66 99 72 100 74 101 67 102 68 103 69 104 70 105 71 106
REMARK H PARENT 4 19 14 29 14 30 95 56 61 67
REMARK Flexibility Score: inf
ROOT
ATOM      1  O   UNL A   1      34.433  15.860  24.585  1.00  0.00    -0.377 OA
ENDROOT
BRANCH   1   2
ATOM      2  C   UNL A   1      33.171  15.979  25.216  1.00  0.00     0.188 C 
BRANCH   2   3
ATOM      3  C   UNL A   1      32.280  17.202  24.958  1.00  0.00     0.188 C 
BRANCH   3   4
ATOM      4  O   UNL A   1      32.495  18.416  25.650  1.00  0.00    -0.376 OA
BRANCH   4   5
ATOM      5  C   UNL A   1      32.131  19.587  24.930  1.00  0.00     0.202 C 
BRANCH   5   6
ATOM      6  C   UNL A   1      33.255  20.474  24.435  1.00  0.00     0.261 C 
BRANCH   6   7
ATOM      7  O   UNL A   1      32.687  21.593  23.773  1.00  0.00    -0.460 OA
BRANCH   7   8
ATOM      8  C   UNL A   1      33.359  22.733  23.968  1.00  0.00     0.338 C 
ATOM      9  O   UNL A   1      34.540  22.927  23.786  1.00  0.00    -0.246 OA
BRANCH   8  10
ATOM     10  C   UNL A   1      32.381  23.835  24.117  1.00  0.00     0.065 A 
ATOM     11  C   UNL A   1      32.946  25.231  22.015  1.00  0.00     0.047 C 
ATOM     12  C   UNL A   1      32.093  24.880  23.209  1.00  0.00    -0.013 A 
ATOM     13  C   UNL A   1      30.986  25.700  23.500  1.00  0.00     0.045 A 
ATOM     14  C   UNL A   1      30.306  25.553  24.719  1.00  0.00     0.026 A 
ATOM     15  C   UNL A   1      31.768  23.801  25.381  1.00  0.00     0.016 A 
ATOM     16  C   UNL A   1      30.748  24.672  25.694  1.00  0.00     0.003 A 
BRANCH  13  17
ATOM     17  N   UNL A   1      30.572  26.654  22.539  1.00  0.00    -0.322 N 
ATOM     18  C   UNL A   1      30.631  28.030  22.586  1.00  0.00     0.257 C 
ATOM     19  H   UNL A   1      30.184  26.279  21.716  1.00  0.00     0.170 HD
ATOM     20  O   UNL A   1      29.973  28.721  21.811  1.00  0.00    -0.269 OA
BRANCH  18  21
ATOM     21  C   UNL A   1      31.526  28.687  23.568  1.00  0.00     0.063 A 
ATOM     22  C   UNL A   1      30.937  29.084  24.776  1.00  0.00     0.017 A 
ATOM     23  C   UNL A   1      32.919  28.790  23.366  1.00  0.00     0.045 A 
ATOM     24  C   UNL A   1      31.741  29.526  25.824  1.00  0.00     0.016 A 
ATOM     25  C   UNL A   1      33.705  29.245  24.429  1.00  0.00     0.042 A 
ATOM     26  C   UNL A   1      33.122  29.585  25.650  1.00  0.00     0.020 A 
ATOM     27  Br  UNL A   1      34.222  30.132  27.087  1.00  0.00    -0.051 Br
BRANCH  23  28
ATOM     28  N   UNL A   1      33.531  28.563  22.141  1.00  0.00    -0.398 N 
ATOM     29  H   UNL A   1      33.706  29.316  21.532  1.00  0.00     0.156 HD
ATOM     30  H   UNL A   1      33.789  27.648  21.883  1.00  0.00     0.156 HD
ENDBRANCH  23  28
ENDBRANCH  18  21
ENDBRANCH  13  17
ENDBRANCH   8  10
ENDBRANCH   7   8
ENDBRANCH   6   7
ENDBRANCH   5   6
ENDBRANCH   4   5
ENDBRANCH   3   4
ENDBRANCH   2   3
ENDBRANCH   1   2
BRANCH   1  31
ATOM     31  C   UNL A   1      35.495  16.709  25.037  1.00  0.00     0.188 C 
BRANCH  31  32
ATOM     32  C   UNL A   1      35.573  18.131  24.508  1.00  0.00     0.188 C 
BRANCH  32  33
ATOM     33  O   UNL A   1      36.804  18.677  24.986  1.00  0.00    -0.376 OA
BRANCH  33  34
ATOM     34  C   UNL A   1      36.906  20.088  24.991  1.00  0.00     0.202 C 
BRANCH  34  35
ATOM     35  C   UNL A   1      38.329  20.606  25.203  1.00  0.00     0.261 C 
BRANCH  35  36
ATOM     36  O   UNL A   1      38.356  21.917  25.825  1.00  0.00    -0.460 OA
BRANCH  36  37
ATOM     37  C   UNL A   1      39.321  22.213  26.750  1.00  0.00     0.338 C 
ATOM     38  O   UNL A   1      40.060  21.367  27.229  1.00  0.00    -0.246 OA
BRANCH  37  39
ATOM     39  C   UNL A   1      39.584  23.674  26.873  1.00  0.00     0.060 A 
ATOM     40  C   UNL A   1      40.087  24.455  25.822  1.00  0.00     0.016 A 
ATOM     41  C   UNL A   1      39.338  24.285  28.085  1.00  0.00     0.016 A 
ATOM     42  C   UNL A   1      40.552  25.770  26.049  1.00  0.00     0.010 A 
ATOM     43  C   UNL A   1      39.831  25.554  28.313  1.00  0.00     0.010 A 
ATOM     44  C   UNL A   1      40.502  26.304  27.332  1.00  0.00    -0.014 A 
BRANCH  44  45
ATOM     45  C   UNL A   1      41.166  27.543  27.814  1.00  0.00     0.031 A 
ATOM     46  C   UNL A   1      40.295  28.725  28.179  1.00  0.00     0.074 A 
ATOM     47  C   UNL A   1      42.438  27.461  28.294  1.00  0.00     0.049 A 
ATOM     48  N   UNL A   1      40.673  29.750  28.860  1.00  0.00    -0.248 NA
ATOM     49  C   UNL A   1      38.865  28.810  27.869  1.00  0.00     0.031 C 
ATOM     50  C   UNL A   1      43.048  28.303  29.327  1.00  0.00     0.029 A 
ATOM     51  N   UNL A   1      43.459  26.554  28.068  1.00  0.00    -0.354 N 
ATOM     52  C   UNL A   1      39.564  30.412  29.363  1.00  0.00     0.074 A 
ATOM     53  C   UNL A   1      38.461  29.822  28.652  1.00  0.00     0.031 C 
ATOM     54  C   UNL A   1      44.319  27.951  29.566  1.00  0.00     0.029 A 
ATOM     55  C   UNL A   1      44.686  27.068  28.494  1.00  0.00     0.049 A 
ATOM     56  H   UNL A   1      43.336  25.665  27.660  1.00  0.00     0.167 HD
ATOM     57  C   UNL A   1      39.737  31.297  30.399  1.00  0.00     0.037 A 
ATOM     58  C   UNL A   1      45.655  27.424  27.599  1.00  0.00     0.037 A 
ATOM     59  C   UNL A   1      41.181  31.542  30.630  1.00  0.00     0.049 A 
ATOM     60  C   UNL A   1      45.742  28.961  27.570  1.00  0.00     0.074 A 
ATOM     61  C   UNL A   1      42.030  31.459  31.721  1.00  0.00     0.029 A 
ATOM     62  N   UNL A   1      42.016  31.773  29.531  1.00  0.00    -0.354 N 
ATOM     63  N   UNL A   1      44.695  29.753  27.725  1.00  0.00    -0.248 NA
ATOM     64  C   UNL A   1      47.003  29.687  27.756  1.00  0.00     0.031 C 
ATOM     65  C   UNL A   1      43.374  31.431  31.230  1.00  0.00     0.029 A 
ATOM     66  C   UNL A   1      43.351  31.600  29.848  1.00  0.00     0.049 A 
ATOM     67  H   UNL A   1      41.692  32.030  28.637  1.00  0.00     0.167 HD
ATOM     68  C   UNL A   1      45.115  30.970  28.215  1.00  0.00     0.074 A 
ATOM     69  C   UNL A   1      46.570  30.898  28.154  1.00  0.00     0.031 C 
ATOM     70  C   UNL A   1      44.381  31.929  28.869  1.00  0.00     0.037 A 
BRANCH  57  71
ATOM     71  C   UNL A   1      38.646  31.855  31.340  1.00  0.00     0.058 A 
ATOM     72  C   UNL A   1      37.804  32.915  30.915  1.00  0.00     0.135 A 
ATOM     73  C   UNL A   1      38.423  31.471  32.685  1.00  0.00     0.135 A 
ATOM     74  F   UNL A   1      37.868  33.390  29.663  1.00  0.00    -0.206 F 
ATOM     75  C   UNL A   1      36.852  33.540  31.738  1.00  0.00     0.059 A 
ATOM     76  C   UNL A   1      37.440  32.051  33.514  1.00  0.00     0.059 A 
ATOM     77  F   UNL A   1      39.173  30.537  33.283  1.00  0.00    -0.206 F 
ATOM     78  C   UNL A   1      36.665  33.098  33.038  1.00  0.00     0.060 A 
BRANCH  78  79
ATOM     79  S   UNL A   1      35.386  33.873  34.058  1.00  0.00     0.124 S 
ATOM     80  O   UNL A   1      35.608  35.293  33.810  1.00  0.00    -0.237 OA
ATOM     81  O   UNL A   1      34.157  33.317  33.498  1.00  0.00    -0.237 OA
ATOM     82  O   UNL A   1      35.706  33.421  35.410  1.00  0.00    -0.744 OA
ENDBRANCH  78  79
ENDBRANCH  57  71
BRANCH  58  83
ATOM     83  C   UNL A   1      45.861  26.322  26.599  1.00  0.00     0.058 A 
ATOM     84  C   UNL A   1      46.339  25.120  27.183  1.00  0.00     0.135 A 
ATOM     85  C   UNL A   1      44.992  26.172  25.501  1.00  0.00     0.135 A 
ATOM     86  F   UNL A   1      47.200  25.181  28.213  1.00  0.00    -0.206 F 
ATOM     87  C   UNL A   1      45.777  23.875  26.893  1.00  0.00     0.059 A 
ATOM     88  C   UNL A   1      44.425  24.921  25.185  1.00  0.00     0.059 A 
ATOM     89  F   UNL A   1      44.500  27.255  24.882  1.00  0.00    -0.206 F 
ATOM     90  C   UNL A   1      44.767  23.796  25.941  1.00  0.00     0.060 A 
BRANCH  90  91
ATOM     91  S   UNL A   1      43.760  22.282  25.899  1.00  0.00     0.124 S 
ATOM     92  O   UNL A   1      42.775  22.596  24.873  1.00  0.00    -0.237 OA
ATOM     93  O   UNL A   1      44.748  21.262  25.550  1.00  0.00    -0.237 OA
ATOM     94  O   UNL A   1      43.248  22.189  27.259  1.00  0.00    -0.744 OA
ENDBRANCH  90  91
ENDBRANCH  58  83
BRANCH  70  95
ATOM     95  C   UNL A   1      44.584  33.395  28.548  1.00  0.00     0.058 A 
ATOM     96  C   UNL A   1      45.234  34.271  29.432  1.00  0.00     0.135 A 
ATOM     97  C   UNL A   1      44.327  33.910  27.249  1.00  0.00     0.135 A 
ATOM     98  F   UNL A   1      45.622  33.883  30.655  1.00  0.00    -0.206 F 
ATOM     99  C   UNL A   1      45.547  35.576  29.081  1.00  0.00     0.059 A 
ATOM    100  C   UNL A   1      44.692  35.191  26.860  1.00  0.00     0.059 A 
ATOM    101  F   UNL A   1      43.737  33.181  26.291  1.00  0.00    -0.206 F 
ATOM    102  C   UNL A   1      45.271  36.027  27.797  1.00  0.00     0.060 A 
BRANCH 102 103
ATOM    103  S   UNL A   1      45.681  37.720  27.372  1.00  0.00     0.124 S 
ATOM    104  O   UNL A   1      44.378  38.228  26.955  1.00  0.00    -0.237 OA
ATOM    105  O   UNL A   1      46.190  38.246  28.636  1.00  0.00    -0.237 OA
ATOM    106  O   UNL A   1      46.674  37.577  26.313  1.00  0.00    -0.744 OA
ENDBRANCH 102 103
ENDBRANCH  70  95
ENDBRANCH  44  45
ENDBRANCH  37  39
ENDBRANCH  36  37
ENDBRANCH  35  36
ENDBRANCH  34  35
ENDBRANCH  33  34
ENDBRANCH  32  33
ENDBRANCH  31  32
ENDBRANCH   1  31
TORSDOF 26
ENDMDL
MODEL 2
REMARK VINA RESULT:     -10.5      4.689     11.784
REMARK SMILES Cc1c(NC(=O)c2ccc(Br)cc2N)cccc1C(=O)OCCOCCOCCOCCOC(=O)c1ccc(-c2c3nc(c(-c4c(F)cc(S(=O)(=O)[O-])cc4F)c4ccc([nH]4)c(-c4c(F)cc(S(=O)(=O)[O-])cc4F)c4nc(c(-c5c(F)cc(S(=O)(=O)[O-])cc5F)c5ccc2[nH]5)C=C4)C=C3)cc1
REMARK SMILES IDX 27 1 26 2 25 3 24 4 23 5 22 6 21 7 19 8 20 9 18 10 1 11 2 12
REMARK SMILES IDX 3 13 15 14 17 15 16 16 4 17 5 18 6 20 7 21 8 22 13 23 9 24
REMARK SMILES IDX 12 25 10 26 11 27 14 28 28 31 29 32 30 33 31 34 32 35 33 36
REMARK SMILES IDX 34 37 35 38 36 39 37 40 101 41 38 42 100 43 39 44 40 45
REMARK SMILES IDX 41 46 94 47 42 48 99 49 93 50 95 51 43 52 98 53 92 54 91 55
REMARK SMILES IDX 44 57 78 58 57 59 77 60 58 61 61 62 76 63 96 64 59 65 60 66
REMARK SMILES IDX 75 68 97 69 62 70 45 71 46 72 55 73 47 74 48 75 54 76 56 77
REMARK SMILES IDX 49 78 50 79 51 80 52 81 53 82 79 83 80 84 89 85 81 86 82 87
REMARK SMILES IDX 88 88 90 89 83 90 84 91 85 92 86 93 87 94 63 95 64 96 73 97
REMARK SMILES IDX 65 98 66 99 72 100 74 101 67 102 68 103 69 104 70 105 71 106
REMARK H PARENT 4 19 14 29 14 30 95 56 61 67
REMARK Flexibility Score: inf
ROOT
ATOM      1  O   UNL A   1      35.073  34.348  28.151  1.00  0.00    -0.377 OA
ENDROOT
BRANCH   1   2
ATOM      2  C   UNL A   1      35.437  32.982  28.103  1.00  0.00     0.188 C 
BRANCH   2   3
ATOM      3  C   UNL A   1      34.364  31.889  27.990  1.00  0.00     0.188 C 
BRANCH   3   4
ATOM      4  O   UNL A   1      34.649  30.652  27.365  1.00  0.00    -0.376 OA
BRANCH   4   5
ATOM      5  C   UNL A   1      33.531  29.787  27.215  1.00  0.00     0.202 C 
BRANCH   5   6
ATOM      6  C   UNL A   1      32.900  29.702  25.841  1.00  0.00     0.261 C 
BRANCH   6   7
ATOM      7  O   UNL A   1      32.407  28.385  25.653  1.00  0.00    -0.460 OA
BRANCH   7   8
ATOM      8  C   UNL A   1      31.527  28.277  24.652  1.00  0.00     0.338 C 
ATOM      9  O   UNL A   1      30.668  29.073  24.343  1.00  0.00    -0.246 OA
BRANCH   8  10
ATOM     10  C   UNL A   1      31.972  27.191  23.749  1.00  0.00     0.065 A 
ATOM     11  C   UNL A   1      31.076  25.134  25.035  1.00  0.00     0.047 C 
ATOM     12  C   UNL A   1      31.680  25.810  23.829  1.00  0.00    -0.013 A 
ATOM     13  C   UNL A   1      32.070  25.004  22.741  1.00  0.00     0.045 A 
ATOM     14  C   UNL A   1      32.841  25.553  21.704  1.00  0.00     0.026 A 
ATOM     15  C   UNL A   1      32.853  27.677  22.769  1.00  0.00     0.016 A 
ATOM     16  C   UNL A   1      33.308  26.857  21.760  1.00  0.00     0.003 A 
BRANCH  13  17
ATOM     17  N   UNL A   1      31.658  23.650  22.712  1.00  0.00    -0.322 N 
ATOM     18  C   UNL A   1      32.374  22.509  23.000  1.00  0.00     0.257 C 
ATOM     19  H   UNL A   1      30.722  23.502  22.447  1.00  0.00     0.170 HD
ATOM     20  O   UNL A   1      31.971  21.402  22.651  1.00  0.00    -0.269 OA
BRANCH  18  21
ATOM     21  C   UNL A   1      33.637  22.616  23.768  1.00  0.00     0.063 A 
ATOM     22  C   UNL A   1      34.768  23.028  23.050  1.00  0.00     0.017 A 
ATOM     23  C   UNL A   1      33.682  22.447  25.168  1.00  0.00     0.045 A 
ATOM     24  C   UNL A   1      35.941  23.343  23.731  1.00  0.00     0.016 A 
ATOM     25  C   UNL A   1      34.874  22.760  25.830  1.00  0.00     0.042 A 
ATOM     26  C   UNL A   1      35.981  23.226  25.119  1.00  0.00     0.020 A 
ATOM     27  Br  UNL A   1      37.554  23.704  26.053  1.00  0.00    -0.051 Br
BRANCH  23  28
ATOM     28  N   UNL A   1      32.645  21.891  25.904  1.00  0.00    -0.398 N 
ATOM     29  H   UNL A   1      32.113  21.154  25.525  1.00  0.00     0.156 HD
ATOM     30  H   UNL A   1      32.441  22.234  26.804  1.00  0.00     0.156 HD
ENDBRANCH  23  28
ENDBRANCH  18  21
ENDBRANCH  13  17
ENDBRANCH   8  10
ENDBRANCH   7   8
ENDBRANCH   6   7
ENDBRANCH   5   6
ENDBRANCH   4   5
ENDBRANCH   3   4
ENDBRANCH   2   3
ENDBRANCH   1   2
BRANCH   1  31
ATOM     31  C   UNL A   1      33.865  34.699  28.839  1.00  0.00     0.188 C 
BRANCH  31  32
ATOM     32  C   UNL A   1      33.153  35.987  28.458  1.00  0.00     0.188 C 
BRANCH  32  33
ATOM     33  O   UNL A   1      32.614  36.527  29.667  1.00  0.00    -0.376 OA
BRANCH  33  34
ATOM     34  C   UNL A   1      33.303  37.629  30.225  1.00  0.00     0.202 C 
BRANCH  34  35
ATOM     35  C   UNL A   1      33.412  37.583  31.750  1.00  0.00     0.261 C 
BRANCH  35  36
ATOM     36  O   UNL A   1      34.277  36.513  32.214  1.00  0.00    -0.460 OA
BRANCH  36  37
ATOM     37  C   UNL A   1      33.737  35.306  32.570  1.00  0.00     0.338 C 
ATOM     38  O   UNL A   1      32.533  35.099  32.586  1.00  0.00    -0.246 OA
BRANCH  37  39
ATOM     39  C   UNL A   1      34.743  34.211  32.628  1.00  0.00     0.060 A 
ATOM     40  C   UNL A   1      34.616  33.094  33.468  1.00  0.00     0.016 A 
ATOM     41  C   UNL A   1      35.866  34.308  31.831  1.00  0.00     0.016 A 
ATOM     42  C   UNL A   1      35.700  32.211  33.676  1.00  0.00     0.010 A 
ATOM     43  C   UNL A   1      36.935  33.468  32.068  1.00  0.00     0.010 A 
ATOM     44  C   UNL A   1      36.909  32.445  33.030  1.00  0.00    -0.014 A 
BRANCH  44  45
ATOM     45  C   UNL A   1      38.216  31.796  33.312  1.00  0.00     0.031 A 
ATOM     46  C   UNL A   1      38.605  30.586  32.493  1.00  0.00     0.074 A 
ATOM     47  C   UNL A   1      39.172  32.508  33.973  1.00  0.00     0.049 A 
ATOM     48  N   UNL A   1      39.789  30.084  32.415  1.00  0.00    -0.248 NA
ATOM     49  C   UNL A   1      37.684  29.873  31.604  1.00  0.00     0.031 C 
ATOM     50  C   UNL A   1      40.625  32.373  33.834  1.00  0.00     0.029 A 
ATOM     51  N   UNL A   1      39.096  33.586  34.837  1.00  0.00    -0.354 N 
ATOM     52  C   UNL A   1      39.883  29.281  31.290  1.00  0.00     0.074 A 
ATOM     53  C   UNL A   1      38.517  29.129  30.861  1.00  0.00     0.031 C 
ATOM     54  C   UNL A   1      41.280  33.231  34.629  1.00  0.00     0.029 A 
ATOM     55  C   UNL A   1      40.294  33.749  35.536  1.00  0.00     0.049 A 
ATOM     56  H   UNL A   1      38.303  34.160  34.944  1.00  0.00     0.167 HD
ATOM     57  C   UNL A   1      41.129  28.950  30.817  1.00  0.00     0.037 A 
ATOM     58  C   UNL A   1      40.375  33.488  36.876  1.00  0.00     0.037 A 
ATOM     59  C   UNL A   1      42.172  29.356  31.790  1.00  0.00     0.049 A 
ATOM     60  C   UNL A   1      41.180  32.189  37.064  1.00  0.00     0.074 A 
ATOM     61  C   UNL A   1      43.321  30.125  31.734  1.00  0.00     0.029 A 
ATOM     62  N   UNL A   1      41.979  29.080  33.149  1.00  0.00    -0.354 N 
ATOM     63  N   UNL A   1      41.135  31.174  36.218  1.00  0.00    -0.248 NA
ATOM     64  C   UNL A   1      42.339  32.098  37.959  1.00  0.00     0.031 C 
ATOM     65  C   UNL A   1      43.681  30.475  33.075  1.00  0.00     0.029 A 
ATOM     66  C   UNL A   1      42.811  29.835  33.954  1.00  0.00     0.049 A 
ATOM     67  H   UNL A   1      41.329  28.424  33.491  1.00  0.00     0.167 HD
ATOM     68  C   UNL A   1      42.307  30.456  36.307  1.00  0.00     0.074 A 
ATOM     69  C   UNL A   1      42.996  31.037  37.455  1.00  0.00     0.031 C 
ATOM     70  C   UNL A   1      42.852  29.590  35.392  1.00  0.00     0.037 A 
BRANCH  57  71
ATOM     71  C   UNL A   1      41.478  28.396  29.417  1.00  0.00     0.058 A 
ATOM     72  C   UNL A   1      42.421  27.346  29.275  1.00  0.00     0.135 A 
ATOM     73  C   UNL A   1      41.007  28.895  28.178  1.00  0.00     0.135 A 
ATOM     74  F   UNL A   1      42.955  26.745  30.348  1.00  0.00    -0.206 F 
ATOM     75  C   UNL A   1      42.862  26.849  28.037  1.00  0.00     0.059 A 
ATOM     76  C   UNL A   1      41.399  28.379  26.925  1.00  0.00     0.059 A 
ATOM     77  F   UNL A   1      40.169  29.935  28.112  1.00  0.00    -0.206 F 
ATOM     78  C   UNL A   1      42.340  27.362  26.860  1.00  0.00     0.060 A 
BRANCH  78  79
ATOM     79  S   UNL A   1      42.874  26.661  25.278  1.00  0.00     0.124 S 
ATOM     80  O   UNL A   1      41.915  25.580  25.078  1.00  0.00    -0.237 OA
ATOM     81  O   UNL A   1      42.745  27.798  24.371  1.00  0.00    -0.237 OA
ATOM     82  O   UNL A   1      44.246  26.234  25.539  1.00  0.00    -0.744 OA
ENDBRANCH  78  79
ENDBRANCH  57  71
BRANCH  58  83
ATOM     83  C   UNL A   1      39.242  34.159  37.599  1.00  0.00     0.058 A 
ATOM     84  C   UNL A   1      38.289  33.242  38.114  1.00  0.00     0.135 A 
ATOM     85  C   UNL A   1      39.461  35.319  38.367  1.00  0.00     0.135 A 
ATOM     86  F   UNL A   1      37.998  32.129  37.419  1.00  0.00    -0.206 F 
ATOM     87  C   UNL A   1      37.806  33.324  39.422  1.00  0.00     0.059 A 
ATOM     88  C   UNL A   1      38.972  35.424  39.684  1.00  0.00     0.059 A 
ATOM     89  F   UNL A   1      40.339  36.243  37.950  1.00  0.00    -0.206 F 
ATOM     90  C   UNL A   1      38.212  34.383  40.225  1.00  0.00     0.060 A 
BRANCH  90  91
ATOM     91  S   UNL A   1      37.943  34.237  42.018  1.00  0.00     0.124 S 
ATOM     92  O   UNL A   1      36.723  33.443  42.082  1.00  0.00    -0.237 OA
ATOM     93  O   UNL A   1      39.166  33.570  42.462  1.00  0.00    -0.237 OA
ATOM     94  O   UNL A   1      37.819  35.622  42.446  1.00  0.00    -0.744 OA
ENDBRANCH  90  91
ENDBRANCH  58  83
BRANCH  70  95
ATOM     95  C   UNL A   1      43.484  28.292  35.851  1.00  0.00     0.058 A 
ATOM     96  C   UNL A   1      42.716  27.190  36.259  1.00  0.00     0.135 A 
ATOM     97  C   UNL A   1      44.872  28.045  35.682  1.00  0.00     0.135 A 
ATOM     98  F   UNL A   1      41.381  27.258  36.364  1.00  0.00    -0.206 F 
ATOM     99  C   UNL A   1      43.284  25.957  36.542  1.00  0.00     0.059 A 
ATOM    100  C   UNL A   1      45.449  26.802  35.898  1.00  0.00     0.059 A 
ATOM    101  F   UNL A   1      45.726  28.994  35.271  1.00  0.00    -0.206 F 
ATOM    102  C   UNL A   1      44.649  25.773  36.362  1.00  0.00     0.060 A 
BRANCH 102 103
ATOM    103  S   UNL A   1      45.360  24.171  36.741  1.00  0.00     0.124 S 
ATOM    104  O   UNL A   1      45.187  24.123  38.188  1.00  0.00    -0.237 OA
ATOM    105  O   UNL A   1      44.513  23.264  35.972  1.00  0.00    -0.237 OA
ATOM    106  O   UNL A   1      46.736  24.287  36.270  1.00  0.00    -0.744 OA
ENDBRANCH 102 103
ENDBRANCH  70  95
ENDBRANCH  44  45
ENDBRANCH  37  39
ENDBRANCH  36  37
ENDBRANCH  35  36
ENDBRANCH  34  35
ENDBRANCH  33  34
ENDBRANCH  32  33
ENDBRANCH  31  32
ENDBRANCH   1  31
TORSDOF 26
ENDMDL
MODEL 3
REMARK VINA RESULT:      -9.9      1.533      2.169
REMARK SMILES Cc1c(NC(=O)c2ccc(Br)cc2N)cccc1C(=O)OCCOCCOCCOCCOC(=O)c1ccc(-c2c3nc(c(-c4c(F)cc(S(=O)(=O)[O-])cc4F)c4ccc([nH]4)c(-c4c(F)cc(S(=O)(=O)[O-])cc4F)c4nc(c(-c5c(F)cc(S(=O)(=O)[O-])cc5F)c5ccc2[nH]5)C=C4)C=C3)cc1
REMARK SMILES IDX 27 1 26 2 25 3 24 4 23 5 22 6 21 7 19 8 20 9 18 10 1 11 2 12
REMARK SMILES IDX 3 13 15 14 17 15 16 16 4 17 5 18 6 20 7 21 8 22 13 23 9 24
REMARK SMILES IDX 12 25 10 26 11 27 14 28 28 31 29 32 30 33 31 34 32 35 33 36
REMARK SMILES IDX 34 37 35 38 36 39 37 40 101 41 38 42 100 43 39 44 40 45
REMARK SMILES IDX 41 46 94 47 42 48 99 49 93 50 95 51 43 52 98 53 92 54 91 55
REMARK SMILES IDX 44 57 78 58 57 59 77 60 58 61 61 62 76 63 96 64 59 65 60 66
REMARK SMILES IDX 75 68 97 69 62 70 45 71 46 72 55 73 47 74 48 75 54 76 56 77
REMARK SMILES IDX 49 78 50 79 51 80 52 81 53 82 79 83 80 84 89 85 81 86 82 87
REMARK SMILES IDX 88 88 90 89 83 90 84 91 85 92 86 93 87 94 63 95 64 96 73 97
REMARK SMILES IDX 65 98 66 99 72 100 74 101 67 102 68 103 69 104 70 105 71 106
REMARK H PARENT 4 19 14 29 14 30 95 56 61 67
REMARK Flexibility Score: inf
ROOT
ATOM      1  O   UNL A   1      35.387  18.322  24.232  1.00  0.00    -0.377 OA
ENDROOT
BRANCH   1   2
ATOM      2  C   UNL A   1      34.435  17.405  24.737  1.00  0.00     0.188 C 
BRANCH   2   3
ATOM      3  C   UNL A   1      32.937  17.598  24.458  1.00  0.00     0.188 C 
BRANCH   3   4
ATOM      4  O   UNL A   1      32.157  18.472  25.251  1.00  0.00    -0.376 OA
BRANCH   4   5
ATOM      5  C   UNL A   1      32.904  19.356  26.077  1.00  0.00     0.202 C 
BRANCH   5   6
ATOM      6  C   UNL A   1      33.255  20.713  25.502  1.00  0.00     0.261 C 
BRANCH   6   7
ATOM      7  O   UNL A   1      32.090  21.266  24.911  1.00  0.00    -0.460 OA
BRANCH   7   8
ATOM      8  C   UNL A   1      32.199  21.467  23.593  1.00  0.00     0.338 C 
ATOM      9  O   UNL A   1      32.155  20.630  22.719  1.00  0.00    -0.246 OA
BRANCH   8  10
ATOM     10  C   UNL A   1      32.039  22.914  23.324  1.00  0.00     0.065 A 
ATOM     11  C   UNL A   1      34.489  23.553  22.801  1.00  0.00     0.047 C 
ATOM     12  C   UNL A   1      33.007  23.830  22.852  1.00  0.00    -0.013 A 
ATOM     13  C   UNL A   1      32.559  25.118  22.497  1.00  0.00     0.045 A 
ATOM     14  C   UNL A   1      31.229  25.490  22.749  1.00  0.00     0.026 A 
ATOM     15  C   UNL A   1      30.756  23.358  23.685  1.00  0.00     0.016 A 
ATOM     16  C   UNL A   1      30.355  24.649  23.421  1.00  0.00     0.003 A 
BRANCH  13  17
ATOM     17  N   UNL A   1      33.466  26.009  21.876  1.00  0.00    -0.322 N 
ATOM     18  C   UNL A   1      33.651  27.359  22.083  1.00  0.00     0.257 C 
ATOM     19  H   UNL A   1      34.050  25.606  21.195  1.00  0.00     0.170 HD
ATOM     20  O   UNL A   1      34.265  28.048  21.271  1.00  0.00    -0.269 OA
BRANCH  18  21
ATOM     21  C   UNL A   1      33.126  27.984  23.320  1.00  0.00     0.063 A 
ATOM     22  C   UNL A   1      33.752  27.612  24.518  1.00  0.00     0.017 A 
ATOM     23  C   UNL A   1      32.146  28.999  23.293  1.00  0.00     0.045 A 
ATOM     24  C   UNL A   1      33.455  28.296  25.694  1.00  0.00     0.016 A 
ATOM     25  C   UNL A   1      31.857  29.666  24.488  1.00  0.00     0.042 A 
ATOM     26  C   UNL A   1      32.523  29.332  25.668  1.00  0.00     0.020 A 
ATOM     27  Br  UNL A   1      32.157  30.300  27.250  1.00  0.00    -0.051 Br
BRANCH  23  28
ATOM     28  N   UNL A   1      31.385  29.295  22.170  1.00  0.00    -0.398 N 
ATOM     29  H   UNL A   1      30.823  30.103  22.156  1.00  0.00     0.156 HD
ATOM     30  H   UNL A   1      31.408  28.696  21.389  1.00  0.00     0.156 HD
ENDBRANCH  23  28
ENDBRANCH  18  21
ENDBRANCH  13  17
ENDBRANCH   8  10
ENDBRANCH   7   8
ENDBRANCH   6   7
ENDBRANCH   5   6
ENDBRANCH   4   5
ENDBRANCH   3   4
ENDBRANCH   2   3
ENDBRANCH   1   2
BRANCH   1  31
ATOM     31  C   UNL A   1      36.575  18.552  25.001  1.00  0.00     0.188 C 
BRANCH  31  32
ATOM     32  C   UNL A   1      37.202  19.936  24.986  1.00  0.00     0.188 C 
BRANCH  32  33
ATOM     33  O   UNL A   1      38.576  19.766  25.337  1.00  0.00    -0.376 OA
BRANCH  33  34
ATOM     34  C   UNL A   1      39.186  20.839  26.027  1.00  0.00     0.202 C 
BRANCH  34  35
ATOM     35  C   UNL A   1      40.709  20.880  25.886  1.00  0.00     0.261 C 
BRANCH  35  36
ATOM     36  O   UNL A   1      41.246  22.218  26.054  1.00  0.00    -0.460 OA
BRANCH  36  37
ATOM     37  C   UNL A   1      41.624  22.649  27.298  1.00  0.00     0.338 C 
ATOM     38  O   UNL A   1      42.236  21.944  28.085  1.00  0.00    -0.246 OA
BRANCH  37  39
ATOM     39  C   UNL A   1      41.494  24.123  27.469  1.00  0.00     0.060 A 
ATOM     40  C   UNL A   1      41.365  25.013  26.392  1.00  0.00     0.016 A 
ATOM     41  C   UNL A   1      41.523  24.640  28.748  1.00  0.00     0.016 A 
ATOM     42  C   UNL A   1      41.495  26.408  26.580  1.00  0.00     0.010 A 
ATOM     43  C   UNL A   1      41.691  25.999  28.922  1.00  0.00     0.010 A 
ATOM     44  C   UNL A   1      41.744  26.909  27.853  1.00  0.00    -0.014 A 
BRANCH  44  45
ATOM     45  C   UNL A   1      42.161  28.291  28.206  1.00  0.00     0.031 A 
ATOM     46  C   UNL A   1      41.082  29.305  28.517  1.00  0.00     0.074 A 
ATOM     47  C   UNL A   1      43.438  28.502  28.632  1.00  0.00     0.049 A 
ATOM     48  N   UNL A   1      41.268  30.439  29.099  1.00  0.00    -0.248 NA
ATOM     49  C   UNL A   1      39.656  29.080  28.268  1.00  0.00     0.031 C 
ATOM     50  C   UNL A   1      43.897  29.533  29.567  1.00  0.00     0.029 A 
ATOM     51  N   UNL A   1      44.612  27.798  28.430  1.00  0.00    -0.354 N 
ATOM     52  C   UNL A   1      40.065  30.910  29.599  1.00  0.00     0.074 A 
ATOM     53  C   UNL A   1      39.081  30.055  28.988  1.00  0.00     0.031 C 
ATOM     54  C   UNL A   1      45.219  29.459  29.774  1.00  0.00     0.029 A 
ATOM     55  C   UNL A   1      45.723  28.578  28.759  1.00  0.00     0.049 A 
ATOM     56  H   UNL A   1      44.657  26.871  28.099  1.00  0.00     0.167 HD
ATOM     57  C   UNL A   1      40.087  31.896  30.554  1.00  0.00     0.037 A 
ATOM     58  C   UNL A   1      46.575  29.040  27.795  1.00  0.00     0.037 A 
ATOM     59  C   UNL A   1      41.459  32.440  30.699  1.00  0.00     0.049 A 
ATOM     60  C   UNL A   1      46.352  30.556  27.643  1.00  0.00     0.074 A 
ATOM     61  C   UNL A   1      42.339  32.619  31.753  1.00  0.00     0.029 A 
ATOM     62  N   UNL A   1      42.198  32.737  29.548  1.00  0.00    -0.354 N 
ATOM     63  N   UNL A   1      45.173  31.136  27.784  1.00  0.00    -0.248 NA
ATOM     64  C   UNL A   1      47.448  31.529  27.714  1.00  0.00     0.031 C 
ATOM     65  C   UNL A   1      43.647  32.815  31.204  1.00  0.00     0.029 A 
ATOM     66  C   UNL A   1      43.549  32.857  29.816  1.00  0.00     0.049 A 
ATOM     67  H   UNL A   1      41.803  32.847  28.653  1.00  0.00     0.167 HD
ATOM     68  C   UNL A   1      45.355  32.449  28.158  1.00  0.00     0.074 A 
ATOM     69  C   UNL A   1      46.793  32.660  28.035  1.00  0.00     0.031 C 
ATOM     70  C   UNL A   1      44.464  33.297  28.768  1.00  0.00     0.037 A 
BRANCH  57  71
ATOM     71  C   UNL A   1      38.934  32.307  31.498  1.00  0.00     0.058 A 
ATOM     72  C   UNL A   1      38.385  33.614  31.434  1.00  0.00     0.135 A 
ATOM     73  C   UNL A   1      38.382  31.519  32.537  1.00  0.00     0.135 A 
ATOM     74  F   UNL A   1      38.780  34.486  30.497  1.00  0.00    -0.206 F 
ATOM     75  C   UNL A   1      37.401  34.095  32.314  1.00  0.00     0.059 A 
ATOM     76  C   UNL A   1      37.360  31.965  33.401  1.00  0.00     0.059 A 
ATOM     77  F   UNL A   1      38.829  30.285  32.797  1.00  0.00    -0.206 F 
ATOM     78  C   UNL A   1      36.882  33.263  33.294  1.00  0.00     0.060 A 
BRANCH  78  79
ATOM     79  S   UNL A   1      35.568  33.884  34.374  1.00  0.00     0.124 S 
ATOM     80  O   UNL A   1      36.102  33.609  35.703  1.00  0.00    -0.237 OA
ATOM     81  O   UNL A   1      35.495  35.294  34.000  1.00  0.00    -0.237 OA
ATOM     82  O   UNL A   1      34.406  33.085  33.993  1.00  0.00    -0.744 OA
ENDBRANCH  78  79
ENDBRANCH  57  71
BRANCH  58  83
ATOM     83  C   UNL A   1      46.967  27.919  26.875  1.00  0.00     0.058 A 
ATOM     84  C   UNL A   1      47.554  26.819  27.555  1.00  0.00     0.135 A 
ATOM     85  C   UNL A   1      46.185  27.602  25.748  1.00  0.00     0.135 A 
ATOM     86  F   UNL A   1      48.343  27.043  28.619  1.00  0.00    -0.206 F 
ATOM     87  C   UNL A   1      47.164  25.500  27.315  1.00  0.00     0.059 A 
ATOM     88  C   UNL A   1      45.792  26.275  25.483  1.00  0.00     0.059 A 
ATOM     89  F   UNL A   1      45.601  28.580  25.041  1.00  0.00    -0.206 F 
ATOM     90  C   UNL A   1      46.225  25.244  26.322  1.00  0.00     0.060 A 
BRANCH  90  91
ATOM     91  S   UNL A   1      45.412  23.617  26.324  1.00  0.00     0.124 S 
ATOM     92  O   UNL A   1      44.999  23.482  27.714  1.00  0.00    -0.237 OA
ATOM     93  O   UNL A   1      44.338  23.806  25.351  1.00  0.00    -0.237 OA
ATOM     94  O   UNL A   1      46.472  22.719  25.889  1.00  0.00    -0.744 OA
ENDBRANCH  90  91
ENDBRANCH  58  83
BRANCH  70  95
ATOM     95  C   UNL A   1      44.360  34.742  28.325  1.00  0.00     0.058 A 
ATOM     96  C   UNL A   1      43.610  35.128  27.203  1.00  0.00     0.135 A 
ATOM     97  C   UNL A   1      44.829  35.802  29.146  1.00  0.00     0.135 A 
ATOM     98  F   UNL A   1      43.026  34.229  26.399  1.00  0.00    -0.206 F 
ATOM     99  C   UNL A   1      43.395  36.460  26.881  1.00  0.00     0.059 A 
ATOM    100  C   UNL A   1      44.569  37.138  28.875  1.00  0.00     0.059 A 
ATOM    101  F   UNL A   1      45.536  35.586  30.265  1.00  0.00    -0.206 F 
ATOM    102  C   UNL A   1      43.880  37.456  27.719  1.00  0.00     0.060 A 
BRANCH 102 103
ATOM    103  S   UNL A   1      43.594  39.170  27.275  1.00  0.00     0.124 S 
ATOM    104  O   UNL A   1      44.811  39.473  26.530  1.00  0.00    -0.237 OA
ATOM    105  O   UNL A   1      42.370  39.088  26.483  1.00  0.00    -0.237 OA
ATOM    106  O   UNL A   1      43.457  39.839  28.564  1.00  0.00    -0.744 OA
ENDBRANCH 102 103
ENDBRANCH  70  95
ENDBRANCH  44  45
ENDBRANCH  37  39
ENDBRANCH  36  37
ENDBRANCH  35  36
ENDBRANCH  34  35
ENDBRANCH  33  34
ENDBRANCH  32  33
ENDBRANCH  31  32
ENDBRANCH   1  31
TORSDOF 26
ENDMDL
