MODEL 1
REMARK VINA RESULT:      -9.0      0.000      0.000
REMARK SMILES Cc1ccc2nc(C(=O)OCCOCCOCCOCCOC(=O)c3ccc(-c4c5nc(c(-c6c(F)cc(S(=O)(=O)[O-])cc6F)c6ccc([nH]6)c(-c6c(F)cc(S(=O)(=O)[O-])cc6F)c6nc(c(-c7c(F)cc(S(=O)(=O)[O-])cc7F)c7ccc4[nH]7)C=C6)C=C5)cc3)cc(N3CCOCC3)c2c1
REMARK SMILES IDX 17 1 16 2 15 3 14 4 13 5 12 6 11 7 10 8 8 9 9 10 7 11 1 12
REMARK SMILES IDX 2 13 3 14 100 15 4 16 99 17 5 18 92 19 6 20 91 21 93 22
REMARK SMILES IDX 94 23 98 24 95 25 97 26 96 27 18 28 19 29 20 30 21 31 22 32
REMARK SMILES IDX 23 33 24 34 25 35 26 36 90 37 27 38 89 39 28 40 29 41 30 42
REMARK SMILES IDX 83 43 31 44 88 45 82 46 84 47 32 48 87 49 81 50 80 51 33 53
REMARK SMILES IDX 67 54 46 55 66 56 47 57 50 58 65 59 85 60 48 61 49 62 64 64
REMARK SMILES IDX 86 65 51 66 34 67 35 68 44 69 36 70 37 71 43 72 45 73 38 74
REMARK SMILES IDX 39 75 40 76 41 77 42 78 68 79 69 80 78 81 70 82 71 83 77 84
REMARK SMILES IDX 79 85 72 86 73 87 74 88 75 89 76 90 52 91 53 92 62 93 54 94
REMARK SMILES IDX 55 95 61 96 63 97 56 98 57 99 58 100 59 101 60 102
REMARK H PARENT 84 52 50 63
REMARK Flexibility Score: inf
ROOT
ATOM      1  C   UNL A   1      47.045  39.556  25.302  1.00  0.00     0.188 C 
ENDROOT
BRANCH   1   2
ATOM      2  O   UNL A   1      47.049  40.870  24.744  1.00  0.00    -0.377 OA
BRANCH   2   3
ATOM      3  C   UNL A   1      46.610  41.973  25.521  1.00  0.00     0.188 C 
BRANCH   3   4
ATOM      4  C   UNL A   1      46.315  43.300  24.793  1.00  0.00     0.188 C 
BRANCH   4   5
ATOM      5  O   UNL A   1      45.028  43.346  24.203  1.00  0.00    -0.376 OA
BRANCH   5   6
ATOM      6  C   UNL A   1      43.879  43.176  25.010  1.00  0.00     0.202 C 
BRANCH   6   7
ATOM      7  C   UNL A   1      42.779  42.178  24.607  1.00  0.00     0.261 C 
BRANCH   7   8
ATOM      8  O   UNL A   1      42.789  41.732  23.247  1.00  0.00    -0.459 OA
BRANCH   8   9
ATOM      9  C   UNL A   1      42.063  42.455  22.366  1.00  0.00     0.357 C 
ATOM     10  O   UNL A   1      40.883  42.744  22.472  1.00  0.00    -0.244 OA
BRANCH   9  11
ATOM     11  C   UNL A   1      42.996  42.999  21.332  1.00  0.00     0.151 A 
ATOM     12  C   UNL A   1      48.371  45.003  18.459  1.00  0.00     0.044 C 
ATOM     13  C   UNL A   1      47.263  44.240  19.118  1.00  0.00    -0.050 A 
ATOM     14  C   UNL A   1      47.512  43.136  19.923  1.00  0.00     0.005 A 
ATOM     15  C   UNL A   1      45.940  44.669  18.966  1.00  0.00     0.016 A 
ATOM     16  C   UNL A   1      46.464  42.551  20.638  1.00  0.00     0.029 A 
ATOM     17  C   UNL A   1      44.855  44.044  19.628  1.00  0.00     0.024 A 
ATOM     18  C   UNL A   1      45.163  43.025  20.554  1.00  0.00     0.073 A 
ATOM     19  C   UNL A   1      43.490  44.432  19.469  1.00  0.00     0.049 A 
ATOM     20  N   UNL A   1      44.260  42.516  21.396  1.00  0.00    -0.241 NA
ATOM     21  C   UNL A   1      42.560  43.894  20.365  1.00  0.00     0.062 A 
BRANCH  19  22
ATOM     22  N   UNL A   1      43.094  45.337  18.491  1.00  0.00    -0.366 N 
ATOM     23  C   UNL A   1      41.739  45.289  17.907  1.00  0.00     0.145 C 
ATOM     24  C   UNL A   1      43.729  46.655  18.330  1.00  0.00     0.145 C 
ATOM     25  C   UNL A   1      41.841  45.663  16.417  1.00  0.00     0.181 C 
ATOM     26  C   UNL A   1      43.753  47.001  16.829  1.00  0.00     0.181 C 
ATOM     27  O   UNL A   1      42.440  46.959  16.240  1.00  0.00    -0.378 OA
ENDBRANCH  19  22
ENDBRANCH   9  11
ENDBRANCH   8   9
ENDBRANCH   7   8
ENDBRANCH   6   7
ENDBRANCH   5   6
ENDBRANCH   4   5
ENDBRANCH   3   4
ENDBRANCH   2   3
ENDBRANCH   1   2
BRANCH   1  28
ATOM     28  C   UNL A   1      46.042  39.117  26.399  1.00  0.00     0.188 C 
BRANCH  28  29
ATOM     29  O   UNL A   1      44.681  39.388  26.109  1.00  0.00    -0.376 OA
BRANCH  29  30
ATOM     30  C   UNL A   1      43.752  39.325  27.173  1.00  0.00     0.202 C 
BRANCH  30  31
ATOM     31  C   UNL A   1      42.418  38.620  26.891  1.00  0.00     0.261 C 
BRANCH  31  32
ATOM     32  O   UNL A   1      42.504  37.279  26.388  1.00  0.00    -0.460 OA
BRANCH  32  33
ATOM     33  C   UNL A   1      41.975  36.296  27.148  1.00  0.00     0.338 C 
ATOM     34  O   UNL A   1      40.876  36.292  27.681  1.00  0.00    -0.246 OA
BRANCH  33  35
ATOM     35  C   UNL A   1      42.885  35.136  27.073  1.00  0.00     0.060 A 
ATOM     36  C   UNL A   1      43.235  34.460  28.251  1.00  0.00     0.016 A 
ATOM     37  C   UNL A   1      43.378  34.709  25.838  1.00  0.00     0.016 A 
ATOM     38  C   UNL A   1      44.109  33.372  28.196  1.00  0.00     0.010 A 
ATOM     39  C   UNL A   1      44.267  33.633  25.788  1.00  0.00     0.010 A 
ATOM     40  C   UNL A   1      44.663  32.981  26.970  1.00  0.00    -0.014 A 
BRANCH  40  41
ATOM     41  C   UNL A   1      45.798  32.026  26.940  1.00  0.00     0.031 A 
ATOM     42  C   UNL A   1      47.194  32.582  26.873  1.00  0.00     0.074 A 
ATOM     43  C   UNL A   1      45.598  30.696  26.979  1.00  0.00     0.049 A 
ATOM     44  N   UNL A   1      48.336  31.953  26.775  1.00  0.00    -0.248 NA
ATOM     45  C   UNL A   1      47.315  34.048  26.915  1.00  0.00     0.031 C 
ATOM     46  C   UNL A   1      44.297  30.038  27.086  1.00  0.00     0.029 A 
ATOM     47  N   UNL A   1      46.497  29.660  26.922  1.00  0.00    -0.354 N 
ATOM     48  C   UNL A   1      49.309  32.945  26.734  1.00  0.00     0.074 A 
ATOM     49  C   UNL A   1      48.621  34.216  26.783  1.00  0.00     0.031 C 
ATOM     50  C   UNL A   1      44.482  28.706  27.074  1.00  0.00     0.029 A 
ATOM     51  C   UNL A   1      45.908  28.418  26.923  1.00  0.00     0.049 A 
ATOM     52  H   UNL A   1      47.472  29.793  26.885  1.00  0.00     0.167 HD
ATOM     53  C   UNL A   1      50.655  32.808  26.670  1.00  0.00     0.037 A 
ATOM     54  C   UNL A   1      46.457  27.193  26.789  1.00  0.00     0.037 A 
ATOM     55  C   UNL A   1      51.332  31.539  26.615  1.00  0.00     0.049 A 
ATOM     56  C   UNL A   1      47.952  27.064  26.642  1.00  0.00     0.074 A 
ATOM     57  C   UNL A   1      52.692  31.291  26.566  1.00  0.00     0.029 A 
ATOM     58  N   UNL A   1      50.699  30.304  26.586  1.00  0.00    -0.354 N 
ATOM     59  N   UNL A   1      48.865  28.008  26.631  1.00  0.00    -0.248 NA
ATOM     60  C   UNL A   1      48.493  25.706  26.491  1.00  0.00     0.031 C 
ATOM     61  C   UNL A   1      52.880  29.910  26.444  1.00  0.00     0.029 A 
ATOM     62  C   UNL A   1      51.640  29.291  26.487  1.00  0.00     0.049 A 
ATOM     63  H   UNL A   1      49.725  30.168  26.629  1.00  0.00     0.167 HD
ATOM     64  C   UNL A   1      50.088  27.355  26.503  1.00  0.00     0.074 A 
ATOM     65  C   UNL A   1      49.798  25.937  26.451  1.00  0.00     0.031 C 
ATOM     66  C   UNL A   1      51.338  27.881  26.440  1.00  0.00     0.037 A 
BRANCH  53  67
ATOM     67  C   UNL A   1      51.479  34.067  26.620  1.00  0.00     0.058 A 
ATOM     68  C   UNL A   1      52.022  34.650  27.776  1.00  0.00     0.135 A 
ATOM     69  C   UNL A   1      51.743  34.692  25.390  1.00  0.00     0.135 A 
ATOM     70  F   UNL A   1      51.786  34.107  28.982  1.00  0.00    -0.206 F 
ATOM     71  C   UNL A   1      52.764  35.827  27.720  1.00  0.00     0.059 A 
ATOM     72  C   UNL A   1      52.510  35.850  25.306  1.00  0.00     0.059 A 
ATOM     73  F   UNL A   1      51.249  34.181  24.251  1.00  0.00    -0.206 F 
ATOM     74  C   UNL A   1      53.001  36.419  26.480  1.00  0.00     0.060 A 
BRANCH  74  75
ATOM     75  S   UNL A   1      53.958  37.949  26.425  1.00  0.00     0.124 S 
ATOM     76  O   UNL A   1      54.740  37.760  25.207  1.00  0.00    -0.237 OA
ATOM     77  O   UNL A   1      52.914  38.967  26.356  1.00  0.00    -0.237 OA
ATOM     78  O   UNL A   1      54.719  37.920  27.670  1.00  0.00    -0.744 OA
ENDBRANCH  74  75
ENDBRANCH  53  67
BRANCH  54  79
ATOM     79  C   UNL A   1      45.584  25.986  26.783  1.00  0.00     0.058 A 
ATOM     80  C   UNL A   1      45.251  25.336  25.587  1.00  0.00     0.135 A 
ATOM     81  C   UNL A   1      45.071  25.455  27.978  1.00  0.00     0.135 A 
ATOM     82  F   UNL A   1      45.702  25.813  24.416  1.00  0.00    -0.206 F 
ATOM     83  C   UNL A   1      44.439  24.206  25.571  1.00  0.00     0.059 A 
ATOM     84  C   UNL A   1      44.281  24.310  27.991  1.00  0.00     0.059 A 
ATOM     85  F   UNL A   1      45.363  26.035  29.153  1.00  0.00    -0.206 F 
ATOM     86  C   UNL A   1      43.965  23.696  26.781  1.00  0.00     0.060 A 
BRANCH  86  87
ATOM     87  S   UNL A   1      42.969  22.188  26.753  1.00  0.00     0.124 S 
ATOM     88  O   UNL A   1      43.814  21.291  25.975  1.00  0.00    -0.237 OA
ATOM     89  O   UNL A   1      42.846  21.880  28.174  1.00  0.00    -0.237 OA
ATOM     90  O   UNL A   1      41.733  22.615  26.103  1.00  0.00    -0.744 OA
ENDBRANCH  86  87
ENDBRANCH  54  79
BRANCH  66  91
ATOM     91  C   UNL A   1      52.497  26.922  26.347  1.00  0.00     0.058 A 
ATOM     92  C   UNL A   1      52.965  26.437  25.116  1.00  0.00     0.135 A 
ATOM     93  C   UNL A   1      53.188  26.531  27.508  1.00  0.00     0.135 A 
ATOM     94  F   UNL A   1      52.342  26.775  23.976  1.00  0.00    -0.206 F 
ATOM     95  C   UNL A   1      54.058  25.580  25.040  1.00  0.00     0.059 A 
ATOM     96  C   UNL A   1      54.302  25.701  27.453  1.00  0.00     0.059 A 
ATOM     97  F   UNL A   1      52.791  26.974  28.712  1.00  0.00    -0.206 F 
ATOM     98  C   UNL A   1      54.723  25.219  26.214  1.00  0.00     0.060 A 
BRANCH  98  99
ATOM     99  S   UNL A   1      56.160  24.132  26.097  1.00  0.00     0.124 S 
ATOM    100  O   UNL A   1      56.710  24.511  24.800  1.00  0.00    -0.237 OA
ATOM    101  O   UNL A   1      56.946  24.530  27.260  1.00  0.00    -0.237 OA
ATOM    102  O   UNL A   1      55.581  22.794  26.167  1.00  0.00    -0.744 OA
ENDBRANCH  98  99
ENDBRANCH  66  91
ENDBRANCH  40  41
ENDBRANCH  33  35
ENDBRANCH  32  33
ENDBRANCH  31  32
ENDBRANCH  30  31
ENDBRANCH  29  30
ENDBRANCH  28  29
ENDBRANCH   1  28
TORSDOF 24
ENDMDL
MODEL 2
REMARK VINA RESULT:      -8.3     13.174     18.175
REMARK SMILES Cc1ccc2nc(C(=O)OCCOCCOCCOCCOC(=O)c3ccc(-c4c5nc(c(-c6c(F)cc(S(=O)(=O)[O-])cc6F)c6ccc([nH]6)c(-c6c(F)cc(S(=O)(=O)[O-])cc6F)c6nc(c(-c7c(F)cc(S(=O)(=O)[O-])cc7F)c7ccc4[nH]7)C=C6)C=C5)cc3)cc(N3CCOCC3)c2c1
REMARK SMILES IDX 17 1 16 2 15 3 14 4 13 5 12 6 11 7 10 8 8 9 9 10 7 11 1 12
REMARK SMILES IDX 2 13 3 14 100 15 4 16 99 17 5 18 92 19 6 20 91 21 93 22
REMARK SMILES IDX 94 23 98 24 95 25 97 26 96 27 18 28 19 29 20 30 21 31 22 32
REMARK SMILES IDX 23 33 24 34 25 35 26 36 90 37 27 38 89 39 28 40 29 41 30 42
REMARK SMILES IDX 83 43 31 44 88 45 82 46 84 47 32 48 87 49 81 50 80 51 33 53
REMARK SMILES IDX 67 54 46 55 66 56 47 57 50 58 65 59 85 60 48 61 49 62 64 64
REMARK SMILES IDX 86 65 51 66 34 67 35 68 44 69 36 70 37 71 43 72 45 73 38 74
REMARK SMILES IDX 39 75 40 76 41 77 42 78 68 79 69 80 78 81 70 82 71 83 77 84
REMARK SMILES IDX 79 85 72 86 73 87 74 88 75 89 76 90 52 91 53 92 62 93 54 94
REMARK SMILES IDX 55 95 61 96 63 97 56 98 57 99 58 100 59 101 60 102
REMARK H PARENT 84 52 50 63
REMARK Flexibility Score: inf
ROOT
ATOM      1  C   UNL A   1      36.331  31.634  44.356  1.00  0.00     0.188 C 
ENDROOT
BRANCH   1   2
ATOM      2  O   UNL A   1      35.075  31.390  43.720  1.00  0.00    -0.377 OA
BRANCH   2   3
ATOM      3  C   UNL A   1      34.458  32.412  42.954  1.00  0.00     0.188 C 
BRANCH   3   4
ATOM      4  C   UNL A   1      34.850  32.539  41.467  1.00  0.00     0.188 C 
BRANCH   4   5
ATOM      5  O   UNL A   1      34.006  33.408  40.733  1.00  0.00    -0.376 OA
BRANCH   5   6
ATOM      6  C   UNL A   1      32.805  33.878  41.314  1.00  0.00     0.202 C 
BRANCH   6   7
ATOM      7  C   UNL A   1      32.176  35.204  40.850  1.00  0.00     0.261 C 
BRANCH   7   8
ATOM      8  O   UNL A   1      32.052  36.231  41.839  1.00  0.00    -0.459 OA
BRANCH   8   9
ATOM      9  C   UNL A   1      30.832  36.393  42.396  1.00  0.00     0.357 C 
ATOM     10  O   UNL A   1      29.876  35.647  42.262  1.00  0.00    -0.244 OA
BRANCH   9  11
ATOM     11  C   UNL A   1      30.906  37.538  43.353  1.00  0.00     0.151 A 
ATOM     12  C   UNL A   1      29.350  42.860  46.582  1.00  0.00     0.044 C 
ATOM     13  C   UNL A   1      29.458  41.487  45.992  1.00  0.00    -0.050 A 
ATOM     14  C   UNL A   1      28.339  40.695  45.772  1.00  0.00     0.005 A 
ATOM     15  C   UNL A   1      30.709  40.997  45.601  1.00  0.00     0.016 A 
ATOM     16  C   UNL A   1      28.471  39.489  45.080  1.00  0.00     0.029 A 
ATOM     17  C   UNL A   1      30.870  39.744  44.962  1.00  0.00     0.024 A 
ATOM     18  C   UNL A   1      29.699  39.037  44.619  1.00  0.00     0.073 A 
ATOM     19  C   UNL A   1      32.133  39.196  44.583  1.00  0.00     0.049 A 
ATOM     20  N   UNL A   1      29.708  37.963  43.826  1.00  0.00    -0.241 NA
ATOM     21  C   UNL A   1      32.123  38.076  43.745  1.00  0.00     0.062 A 
BRANCH  19  22
ATOM     22  N   UNL A   1      33.333  39.767  44.990  1.00  0.00    -0.366 N 
ATOM     23  C   UNL A   1      34.239  39.065  45.921  1.00  0.00     0.145 C 
ATOM     24  C   UNL A   1      34.027  40.797  44.201  1.00  0.00     0.145 C 
ATOM     25  C   UNL A   1      34.890  40.111  46.845  1.00  0.00     0.181 C 
ATOM     26  C   UNL A   1      34.704  41.780  45.174  1.00  0.00     0.181 C 
ATOM     27  O   UNL A   1      35.592  41.114  46.090  1.00  0.00    -0.378 OA
ENDBRANCH  19  22
ENDBRANCH   9  11
ENDBRANCH   8   9
ENDBRANCH   7   8
ENDBRANCH   6   7
ENDBRANCH   5   6
ENDBRANCH   4   5
ENDBRANCH   3   4
ENDBRANCH   2   3
ENDBRANCH   1   2
BRANCH   1  28
ATOM     28  C   UNL A   1      37.011  33.026  44.356  1.00  0.00     0.188 C 
BRANCH  28  29
ATOM     29  O   UNL A   1      38.426  32.999  44.267  1.00  0.00    -0.376 OA
BRANCH  29  30
ATOM     30  C   UNL A   1      39.051  33.916  43.389  1.00  0.00     0.202 C 
BRANCH  30  31
ATOM     31  C   UNL A   1      38.274  35.196  43.052  1.00  0.00     0.261 C 
BRANCH  31  32
ATOM     32  O   UNL A   1      37.779  35.301  41.709  1.00  0.00    -0.460 OA
BRANCH  32  33
ATOM     33  C   UNL A   1      38.479  36.070  40.848  1.00  0.00     0.338 C 
ATOM     34  O   UNL A   1      38.787  37.242  40.995  1.00  0.00    -0.246 OA
BRANCH  33  35
ATOM     35  C   UNL A   1      38.973  35.192  39.769  1.00  0.00     0.060 A 
ATOM     36  C   UNL A   1      39.911  35.691  38.853  1.00  0.00     0.016 A 
ATOM     37  C   UNL A   1      38.523  33.874  39.674  1.00  0.00     0.016 A 
ATOM     38  C   UNL A   1      40.374  34.877  37.818  1.00  0.00     0.010 A 
ATOM     39  C   UNL A   1      38.973  33.068  38.626  1.00  0.00     0.010 A 
ATOM     40  C   UNL A   1      39.875  33.576  37.673  1.00  0.00    -0.014 A 
BRANCH  40  41
ATOM     41  C   UNL A   1      40.138  32.814  36.428  1.00  0.00     0.031 A 
ATOM     42  C   UNL A   1      41.353  31.928  36.378  1.00  0.00     0.074 A 
ATOM     43  C   UNL A   1      39.316  32.899  35.366  1.00  0.00     0.049 A 
ATOM     44  N   UNL A   1      41.824  31.217  35.388  1.00  0.00    -0.248 NA
ATOM     45  C   UNL A   1      42.146  31.838  37.615  1.00  0.00     0.031 C 
ATOM     46  C   UNL A   1      38.089  33.690  35.307  1.00  0.00     0.029 A 
ATOM     47  N   UNL A   1      39.402  32.316  34.126  1.00  0.00    -0.354 N 
ATOM     48  C   UNL A   1      42.972  30.604  35.877  1.00  0.00     0.074 A 
ATOM     49  C   UNL A   1      43.144  31.054  37.241  1.00  0.00     0.031 C 
ATOM     50  C   UNL A   1      37.542  33.553  34.086  1.00  0.00     0.029 A 
ATOM     51  C   UNL A   1      38.398  32.694  33.267  1.00  0.00     0.049 A 
ATOM     52  H   UNL A   1      40.116  31.686  33.875  1.00  0.00     0.167 HD
ATOM     53  C   UNL A   1      43.803  29.738  35.249  1.00  0.00     0.037 A 
ATOM     54  C   UNL A   1      38.208  32.401  31.964  1.00  0.00     0.037 A 
ATOM     55  C   UNL A   1      43.628  29.300  33.889  1.00  0.00     0.049 A 
ATOM     56  C   UNL A   1      39.187  31.495  31.260  1.00  0.00     0.074 A 
ATOM     57  C   UNL A   1      44.402  28.412  33.165  1.00  0.00     0.029 A 
ATOM     58  N   UNL A   1      42.616  29.730  33.042  1.00  0.00    -0.354 N 
ATOM     59  N   UNL A   1      40.255  30.901  31.740  1.00  0.00    -0.248 NA
ATOM     60  C   UNL A   1      38.935  31.219  29.839  1.00  0.00     0.031 C 
ATOM     61  C   UNL A   1      43.897  28.352  31.862  1.00  0.00     0.029 A 
ATOM     62  C   UNL A   1      42.765  29.150  31.793  1.00  0.00     0.049 A 
ATOM     63  H   UNL A   1      41.897  30.355  33.292  1.00  0.00     0.167 HD
ATOM     64  C   UNL A   1      40.784  30.157  30.688  1.00  0.00     0.074 A 
ATOM     65  C   UNL A   1      39.912  30.368  29.552  1.00  0.00     0.031 C 
ATOM     66  C   UNL A   1      41.887  29.366  30.668  1.00  0.00     0.037 A 
BRANCH  53  67
ATOM     67  C   UNL A   1      44.996  29.238  36.020  1.00  0.00     0.058 A 
ATOM     68  C   UNL A   1      44.936  28.087  36.821  1.00  0.00     0.135 A 
ATOM     69  C   UNL A   1      46.224  29.916  35.942  1.00  0.00     0.135 A 
ATOM     70  F   UNL A   1      43.784  27.409  36.948  1.00  0.00    -0.206 F 
ATOM     71  C   UNL A   1      46.039  27.646  37.546  1.00  0.00     0.059 A 
ATOM     72  C   UNL A   1      47.348  29.475  36.632  1.00  0.00     0.059 A 
ATOM     73  F   UNL A   1      46.339  31.024  35.194  1.00  0.00    -0.206 F 
ATOM     74  C   UNL A   1      47.241  28.349  37.446  1.00  0.00     0.060 A 
BRANCH  74  75
ATOM     75  S   UNL A   1      48.660  27.769  38.400  1.00  0.00     0.124 S 
ATOM     76  O   UNL A   1      49.391  29.012  38.619  1.00  0.00    -0.237 OA
ATOM     77  O   UNL A   1      48.025  27.190  39.580  1.00  0.00    -0.237 OA
ATOM     78  O   UNL A   1      49.303  26.812  37.505  1.00  0.00    -0.744 OA
ENDBRANCH  74  75
ENDBRANCH  53  67
BRANCH  54  79
ATOM     79  C   UNL A   1      37.044  32.976  31.236  1.00  0.00     0.058 A 
ATOM     80  C   UNL A   1      37.186  34.098  30.407  1.00  0.00     0.135 A 
ATOM     81  C   UNL A   1      35.764  32.410  31.351  1.00  0.00     0.135 A 
ATOM     82  F   UNL A   1      38.385  34.687  30.276  1.00  0.00    -0.206 F 
ATOM     83  C   UNL A   1      36.105  34.642  29.721  1.00  0.00     0.059 A 
ATOM     84  C   UNL A   1      34.672  32.917  30.654  1.00  0.00     0.059 A 
ATOM     85  F   UNL A   1      35.571  31.332  32.128  1.00  0.00    -0.206 F 
ATOM     86  C   UNL A   1      34.852  34.038  29.845  1.00  0.00     0.060 A 
BRANCH  86  87
ATOM     87  S   UNL A   1      33.470  34.710  28.894  1.00  0.00     0.124 S 
ATOM     88  O   UNL A   1      32.497  34.987  29.944  1.00  0.00    -0.237 OA
ATOM     89  O   UNL A   1      34.077  35.875  28.259  1.00  0.00    -0.237 OA
ATOM     90  O   UNL A   1      33.126  33.619  27.986  1.00  0.00    -0.744 OA
ENDBRANCH  86  87
ENDBRANCH  54  79
BRANCH  66  91
ATOM     91  C   UNL A   1      42.199  28.634  29.388  1.00  0.00     0.058 A 
ATOM     92  C   UNL A   1      41.483  27.495  28.988  1.00  0.00     0.135 A 
ATOM     93  C   UNL A   1      43.193  29.119  28.519  1.00  0.00     0.135 A 
ATOM     94  F   UNL A   1      40.527  26.987  29.780  1.00  0.00    -0.206 F 
ATOM     95  C   UNL A   1      41.757  26.848  27.788  1.00  0.00     0.059 A 
ATOM     96  C   UNL A   1      43.461  28.506  27.299  1.00  0.00     0.059 A 
ATOM     97  F   UNL A   1      43.901  30.212  28.844  1.00  0.00    -0.206 F 
ATOM     98  C   UNL A   1      42.746  27.363  26.947  1.00  0.00     0.060 A 
BRANCH  98  99
ATOM     99  S   UNL A   1      43.068  26.532  25.377  1.00  0.00     0.124 S 
ATOM    100  O   UNL A   1      44.494  26.240  25.486  1.00  0.00    -0.237 OA
ATOM    101  O   UNL A   1      42.178  25.378  25.448  1.00  0.00    -0.237 OA
ATOM    102  O   UNL A   1      42.707  27.535  24.380  1.00  0.00    -0.744 OA
ENDBRANCH  98  99
ENDBRANCH  66  91
ENDBRANCH  40  41
ENDBRANCH  33  35
ENDBRANCH  32  33
ENDBRANCH  31  32
ENDBRANCH  30  31
ENDBRANCH  29  30
ENDBRANCH  28  29
ENDBRANCH   1  28
TORSDOF 24
ENDMDL
MODEL 3
REMARK VINA RESULT:      -8.3      1.372      2.146
REMARK SMILES Cc1ccc2nc(C(=O)OCCOCCOCCOCCOC(=O)c3ccc(-c4c5nc(c(-c6c(F)cc(S(=O)(=O)[O-])cc6F)c6ccc([nH]6)c(-c6c(F)cc(S(=O)(=O)[O-])cc6F)c6nc(c(-c7c(F)cc(S(=O)(=O)[O-])cc7F)c7ccc4[nH]7)C=C6)C=C5)cc3)cc(N3CCOCC3)c2c1
REMARK SMILES IDX 17 1 16 2 15 3 14 4 13 5 12 6 11 7 10 8 8 9 9 10 7 11 1 12
REMARK SMILES IDX 2 13 3 14 100 15 4 16 99 17 5 18 92 19 6 20 91 21 93 22
REMARK SMILES IDX 94 23 98 24 95 25 97 26 96 27 18 28 19 29 20 30 21 31 22 32
REMARK SMILES IDX 23 33 24 34 25 35 26 36 90 37 27 38 89 39 28 40 29 41 30 42
REMARK SMILES IDX 83 43 31 44 88 45 82 46 84 47 32 48 87 49 81 50 80 51 33 53
REMARK SMILES IDX 67 54 46 55 66 56 47 57 50 58 65 59 85 60 48 61 49 62 64 64
REMARK SMILES IDX 86 65 51 66 34 67 35 68 44 69 36 70 37 71 43 72 45 73 38 74
REMARK SMILES IDX 39 75 40 76 41 77 42 78 68 79 69 80 78 81 70 82 71 83 77 84
REMARK SMILES IDX 79 85 72 86 73 87 74 88 75 89 76 90 52 91 53 92 62 93 54 94
REMARK SMILES IDX 55 95 61 96 63 97 56 98 57 99 58 100 59 101 60 102
REMARK H PARENT 84 52 50 63
REMARK Flexibility Score: inf
ROOT
ATOM      1  C   UNL A   1      47.290  39.165  26.183  1.00  0.00     0.188 C 
ENDROOT
BRANCH   1   2
ATOM      2  O   UNL A   1      47.678  40.530  26.341  1.00  0.00    -0.377 OA
BRANCH   2   3
ATOM      3  C   UNL A   1      47.510  41.175  27.594  1.00  0.00     0.188 C 
BRANCH   3   4
ATOM      4  C   UNL A   1      47.933  42.654  27.709  1.00  0.00     0.188 C 
BRANCH   4   5
ATOM      5  O   UNL A   1      46.928  43.562  27.294  1.00  0.00    -0.376 OA
BRANCH   5   6
ATOM      6  C   UNL A   1      45.565  43.242  27.496  1.00  0.00     0.202 C 
BRANCH   6   7
ATOM      7  C   UNL A   1      44.646  42.935  26.300  1.00  0.00     0.261 C 
BRANCH   7   8
ATOM      8  O   UNL A   1      45.058  43.451  25.030  1.00  0.00    -0.459 OA
BRANCH   8   9
ATOM      9  C   UNL A   1      45.171  42.560  24.020  1.00  0.00     0.357 C 
ATOM     10  O   UNL A   1      45.326  41.356  24.139  1.00  0.00    -0.244 OA
BRANCH   9  11
ATOM     11  C   UNL A   1      44.888  43.272  22.737  1.00  0.00     0.151 A 
ATOM     12  C   UNL A   1      43.061  44.383  16.688  1.00  0.00     0.044 C 
ATOM     13  C   UNL A   1      43.166  44.067  18.149  1.00  0.00    -0.050 A 
ATOM     14  C   UNL A   1      42.323  43.149  18.762  1.00  0.00     0.005 A 
ATOM     15  C   UNL A   1      44.169  44.668  18.918  1.00  0.00     0.016 A 
ATOM     16  C   UNL A   1      42.556  42.773  20.087  1.00  0.00     0.029 A 
ATOM     17  C   UNL A   1      44.376  44.350  20.282  1.00  0.00     0.024 A 
ATOM     18  C   UNL A   1      43.601  43.306  20.829  1.00  0.00     0.073 A 
ATOM     19  C   UNL A   1      45.364  44.969  21.106  1.00  0.00     0.049 A 
ATOM     20  N   UNL A   1      43.851  42.769  22.025  1.00  0.00    -0.241 NA
ATOM     21  C   UNL A   1      45.619  44.387  22.353  1.00  0.00     0.062 A 
BRANCH  19  22
ATOM     22  N   UNL A   1      46.081  46.082  20.683  1.00  0.00    -0.366 N 
ATOM     23  C   UNL A   1      45.469  47.426  20.665  1.00  0.00     0.145 C 
ATOM     24  C   UNL A   1      47.551  46.135  20.714  1.00  0.00     0.145 C 
ATOM     25  C   UNL A   1      46.011  48.188  19.442  1.00  0.00     0.181 C 
ATOM     26  C   UNL A   1      48.033  46.955  19.502  1.00  0.00     0.181 C 
ATOM     27  O   UNL A   1      47.446  48.269  19.467  1.00  0.00    -0.378 OA
ENDBRANCH  19  22
ENDBRANCH   9  11
ENDBRANCH   8   9
ENDBRANCH   7   8
ENDBRANCH   6   7
ENDBRANCH   5   6
ENDBRANCH   4   5
ENDBRANCH   3   4
ENDBRANCH   2   3
ENDBRANCH   1   2
BRANCH   1  28
ATOM     28  C   UNL A   1      46.070  38.552  26.916  1.00  0.00     0.188 C 
BRANCH  28  29
ATOM     29  O   UNL A   1      44.809  39.036  26.487  1.00  0.00    -0.376 OA
BRANCH  29  30
ATOM     30  C   UNL A   1      43.717  38.922  27.379  1.00  0.00     0.202 C 
BRANCH  30  31
ATOM     31  C   UNL A   1      42.418  38.330  26.816  1.00  0.00     0.261 C 
BRANCH  31  32
ATOM     32  O   UNL A   1      42.472  36.955  26.409  1.00  0.00    -0.460 OA
BRANCH  32  33
ATOM     33  C   UNL A   1      42.094  36.026  27.312  1.00  0.00     0.338 C 
ATOM     34  O   UNL A   1      41.078  36.031  27.989  1.00  0.00    -0.246 OA
BRANCH  33  35
ATOM     35  C   UNL A   1      43.038  34.895  27.209  1.00  0.00     0.060 A 
ATOM     36  C   UNL A   1      43.345  34.149  28.356  1.00  0.00     0.016 A 
ATOM     37  C   UNL A   1      43.606  34.564  25.977  1.00  0.00     0.016 A 
ATOM     38  C   UNL A   1      44.249  33.088  28.276  1.00  0.00     0.010 A 
ATOM     39  C   UNL A   1      44.524  33.515  25.903  1.00  0.00     0.010 A 
ATOM     40  C   UNL A   1      44.876  32.793  27.058  1.00  0.00    -0.014 A 
BRANCH  40  41
ATOM     41  C   UNL A   1      46.036  31.869  27.026  1.00  0.00     0.031 A 
ATOM     42  C   UNL A   1      47.419  32.462  27.038  1.00  0.00     0.074 A 
ATOM     43  C   UNL A   1      45.870  30.534  26.993  1.00  0.00     0.049 A 
ATOM     44  N   UNL A   1      48.580  31.867  26.953  1.00  0.00    -0.248 NA
ATOM     45  C   UNL A   1      47.499  33.927  27.155  1.00  0.00     0.031 C 
ATOM     46  C   UNL A   1      44.584  29.840  27.018  1.00  0.00     0.029 A 
ATOM     47  N   UNL A   1      46.798  29.524  26.920  1.00  0.00    -0.354 N 
ATOM     48  C   UNL A   1      49.527  32.884  26.997  1.00  0.00     0.074 A 
ATOM     49  C   UNL A   1      48.804  34.134  27.081  1.00  0.00     0.031 C 
ATOM     50  C   UNL A   1      44.804  28.515  26.950  1.00  0.00     0.029 A 
ATOM     51  C   UNL A   1      46.242  28.270  26.839  1.00  0.00     0.049 A 
ATOM     52  H   UNL A   1      47.769  29.684  26.927  1.00  0.00     0.167 HD
ATOM     53  C   UNL A   1      50.878  32.783  26.977  1.00  0.00     0.037 A 
ATOM     54  C   UNL A   1      46.827  27.067  26.668  1.00  0.00     0.037 A 
ATOM     55  C   UNL A   1      51.589  31.535  26.887  1.00  0.00     0.049 A 
ATOM     56  C   UNL A   1      48.330  26.982  26.571  1.00  0.00     0.074 A 
ATOM     57  C   UNL A   1      52.956  31.323  26.878  1.00  0.00     0.029 A 
ATOM     58  N   UNL A   1      50.991  30.288  26.775  1.00  0.00    -0.354 N 
ATOM     59  N   UNL A   1      49.218  27.948  26.640  1.00  0.00    -0.248 NA
ATOM     60  C   UNL A   1      48.912  25.647  26.376  1.00  0.00     0.031 C 
ATOM     61  C   UNL A   1      53.185  29.955  26.697  1.00  0.00     0.029 A 
ATOM     62  C   UNL A   1      51.961  29.305  26.663  1.00  0.00     0.049 A 
ATOM     63  H   UNL A   1      50.019  30.126  26.774  1.00  0.00     0.167 HD
ATOM     64  C   UNL A   1      50.462  27.332  26.527  1.00  0.00     0.074 A 
ATOM     65  C   UNL A   1      50.211  25.912  26.397  1.00  0.00     0.031 C 
ATOM     66  C   UNL A   1      51.698  27.891  26.537  1.00  0.00     0.037 A 
BRANCH  53  67
ATOM     67  C   UNL A   1      51.669  34.063  27.018  1.00  0.00     0.058 A 
ATOM     68  C   UNL A   1      52.107  34.631  28.226  1.00  0.00     0.135 A 
ATOM     69  C   UNL A   1      52.009  34.724  25.826  1.00  0.00     0.135 A 
ATOM     70  F   UNL A   1      51.795  34.053  29.397  1.00  0.00    -0.206 F 
ATOM     71  C   UNL A   1      52.819  35.826  28.253  1.00  0.00     0.059 A 
ATOM     72  C   UNL A   1      52.748  35.903  25.828  1.00  0.00     0.059 A 
ATOM     73  F   UNL A   1      51.616  34.230  24.642  1.00  0.00    -0.206 F 
ATOM     74  C   UNL A   1      53.134  36.455  27.048  1.00  0.00     0.060 A 
BRANCH  74  75
ATOM     75  S   UNL A   1      54.051  38.009  27.102  1.00  0.00     0.124 S 
ATOM     76  O   UNL A   1      54.228  38.193  28.539  1.00  0.00    -0.237 OA
ATOM     77  O   UNL A   1      55.260  37.683  26.351  1.00  0.00    -0.237 OA
ATOM     78  O   UNL A   1      53.151  38.959  26.454  1.00  0.00    -0.744 OA
ENDBRANCH  74  75
ENDBRANCH  53  67
BRANCH  54  79
ATOM     79  C   UNL A   1      45.988  25.840  26.571  1.00  0.00     0.058 A 
ATOM     80  C   UNL A   1      45.351  25.489  25.373  1.00  0.00     0.135 A 
ATOM     81  C   UNL A   1      45.813  24.991  27.676  1.00  0.00     0.135 A 
ATOM     82  F   UNL A   1      45.473  26.275  24.292  1.00  0.00    -0.206 F 
ATOM     83  C   UNL A   1      44.566  24.344  25.272  1.00  0.00     0.059 A 
ATOM     84  C   UNL A   1      45.057  23.827  27.592  1.00  0.00     0.059 A 
ATOM     85  F   UNL A   1      46.405  25.278  28.846  1.00  0.00    -0.206 F 
ATOM     86  C   UNL A   1      44.433  23.514  26.386  1.00  0.00     0.060 A 
BRANCH  86  87
ATOM     87  S   UNL A   1      43.470  21.994  26.223  1.00  0.00     0.124 S 
ATOM     88  O   UNL A   1      42.510  22.363  25.189  1.00  0.00    -0.237 OA
ATOM     89  O   UNL A   1      44.491  21.028  25.833  1.00  0.00    -0.237 OA
ATOM     90  O   UNL A   1      42.915  21.803  27.560  1.00  0.00    -0.744 OA
ENDBRANCH  86  87
ENDBRANCH  54  79
BRANCH  66  91
ATOM     91  C   UNL A   1      52.885  26.967  26.442  1.00  0.00     0.058 A 
ATOM     92  C   UNL A   1      53.488  26.653  25.214  1.00  0.00     0.135 A 
ATOM     93  C   UNL A   1      53.465  26.437  27.608  1.00  0.00     0.135 A 
ATOM     94  F   UNL A   1      52.974  27.128  24.069  1.00  0.00    -0.206 F 
ATOM     95  C   UNL A   1      54.604  25.826  25.142  1.00  0.00     0.059 A 
ATOM     96  C   UNL A   1      54.600  25.634  27.563  1.00  0.00     0.059 A 
ATOM     97  F   UNL A   1      52.937  26.713  28.812  1.00  0.00    -0.206 F 
ATOM     98  C   UNL A   1      55.156  25.324  26.323  1.00  0.00     0.060 A 
BRANCH  98  99
ATOM     99  S   UNL A   1      56.625  24.279  26.217  1.00  0.00     0.124 S 
ATOM    100  O   UNL A   1      56.216  23.117  27.000  1.00  0.00    -0.237 OA
ATOM    101  O   UNL A   1      56.749  24.063  24.779  1.00  0.00    -0.237 OA
ATOM    102  O   UNL A   1      57.672  25.102  26.815  1.00  0.00    -0.744 OA
ENDBRANCH  98  99
ENDBRANCH  66  91
ENDBRANCH  40  41
ENDBRANCH  33  35
ENDBRANCH  32  33
ENDBRANCH  31  32
ENDBRANCH  30  31
ENDBRANCH  29  30
ENDBRANCH  28  29
ENDBRANCH   1  28
TORSDOF 24
ENDMDL
