MODEL 1
REMARK VINA RESULT:      -9.8      0.000      0.000
REMARK SMILES C[C@H](C(=O)OCCOCCOCCOCCOC(=O)c1ccc(-c2c3nc(c(-c4c(F)cc(S(=O)(=O)[O-])cc4F)c4ccc([nH]4)c(-c4c(F)cc(S(=O)(=O)[O-])cc4F)c4nc(c(-c5c(F)cc(S(=O)(=O)[O-])cc5F)c5ccc2[nH]5)C=C4)C=C3)cc1)c1ccc2c(c1)OCCO2
REMARK SMILES IDX 12 1 11 2 10 3 9 4 8 5 7 6 6 7 5 8 3 9 4 10 2 11 1 12 86 13
REMARK SMILES IDX 87 14 91 15 88 16 90 17 89 18 92 19 95 20 93 21 94 22 13 23
REMARK SMILES IDX 14 24 15 25 16 26 17 27 18 28 19 29 20 30 21 31 85 32 22 33
REMARK SMILES IDX 84 34 23 35 24 36 25 37 78 38 26 39 83 40 77 41 79 42 27 43
REMARK SMILES IDX 82 44 76 45 75 46 28 48 62 49 41 50 61 51 42 52 45 53 60 54
REMARK SMILES IDX 80 55 43 56 44 57 59 59 81 60 46 61 29 62 30 63 39 64 31 65
REMARK SMILES IDX 32 66 38 67 40 68 33 69 34 70 35 71 36 72 37 73 63 74 64 75
REMARK SMILES IDX 73 76 65 77 66 78 72 79 74 80 67 81 68 82 69 83 70 84 71 85
REMARK SMILES IDX 47 86 48 87 57 88 49 89 50 90 56 91 58 92 51 93 52 94 53 95
REMARK SMILES IDX 54 96 55 97
REMARK H PARENT 79 47 45 58
REMARK Flexibility Score: inf
ROOT
ATOM      1  C   UNL A   1      39.031  20.286  25.593  1.00  0.00     0.188 C 
ENDROOT
BRANCH   1   2
ATOM      2  O   UNL A   1      38.168  21.397  25.640  1.00  0.00    -0.377 OA
BRANCH   2   3
ATOM      3  C   UNL A   1      38.595  22.731  25.783  1.00  0.00     0.188 C 
BRANCH   3   4
ATOM      4  C   UNL A   1      37.737  23.848  26.343  1.00  0.00     0.188 C 
BRANCH   4   5
ATOM      5  O   UNL A   1      36.360  23.755  26.090  1.00  0.00    -0.376 OA
BRANCH   5   6
ATOM      6  C   UNL A   1      35.772  24.067  24.842  1.00  0.00     0.202 C 
BRANCH   6   7
ATOM      7  C   UNL A   1      34.265  24.126  24.535  1.00  0.00     0.261 C 
BRANCH   7   8
ATOM      8  O   UNL A   1      33.334  24.358  25.611  1.00  0.00    -0.463 OA
BRANCH   8   9
ATOM      9  C   UNL A   1      32.747  23.219  26.086  1.00  0.00     0.313 C 
ATOM     10  O   UNL A   1      31.616  23.202  26.576  1.00  0.00    -0.252 OA
BRANCH   9  11
ATOM     11  C   UNL A   1      33.491  21.902  25.895  1.00  0.00     0.126 C 
ATOM     12  C   UNL A   1      33.992  21.435  27.282  1.00  0.00     0.025 C 
BRANCH  11  13
ATOM     13  C   UNL A   1      32.864  20.725  25.160  1.00  0.00    -0.030 A 
ATOM     14  C   UNL A   1      32.536  20.815  23.796  1.00  0.00     0.009 A 
ATOM     15  C   UNL A   1      32.888  19.454  25.723  1.00  0.00     0.055 A 
ATOM     16  C   UNL A   1      32.403  19.655  23.013  1.00  0.00     0.051 A 
ATOM     17  C   UNL A   1      32.792  18.302  24.963  1.00  0.00     0.161 A 
ATOM     18  C   UNL A   1      32.627  18.410  23.592  1.00  0.00     0.161 A 
ATOM     19  O   UNL A   1      33.041  17.131  25.622  1.00  0.00    -0.486 OA
ATOM     20  O   UNL A   1      32.848  17.323  22.780  1.00  0.00    -0.486 OA
ATOM     21  C   UNL A   1      33.497  16.081  24.768  1.00  0.00     0.271 C 
ATOM     22  C   UNL A   1      33.914  16.571  23.386  1.00  0.00     0.271 C 
ENDBRANCH  11  13
ENDBRANCH   9  11
ENDBRANCH   8   9
ENDBRANCH   7   8
ENDBRANCH   6   7
ENDBRANCH   5   6
ENDBRANCH   4   5
ENDBRANCH   3   4
ENDBRANCH   2   3
ENDBRANCH   1   2
BRANCH   1  23
ATOM     23  C   UNL A   1      40.308  20.458  26.419  1.00  0.00     0.188 C 
BRANCH  23  24
ATOM     24  O   UNL A   1      41.567  20.470  25.747  1.00  0.00    -0.376 OA
BRANCH  24  25
ATOM     25  C   UNL A   1      42.686  21.101  26.357  1.00  0.00     0.202 C 
BRANCH  25  26
ATOM     26  C   UNL A   1      43.081  22.502  25.887  1.00  0.00     0.261 C 
BRANCH  26  27
ATOM     27  O   UNL A   1      42.064  23.497  26.070  1.00  0.00    -0.460 OA
BRANCH  27  28
ATOM     28  C   UNL A   1      42.455  24.759  25.774  1.00  0.00     0.338 C 
ATOM     29  O   UNL A   1      43.154  25.114  24.841  1.00  0.00    -0.246 OA
BRANCH  28  30
ATOM     30  C   UNL A   1      41.808  25.729  26.676  1.00  0.00     0.060 A 
ATOM     31  C   UNL A   1      42.329  27.027  26.700  1.00  0.00     0.016 A 
ATOM     32  C   UNL A   1      40.829  25.337  27.591  1.00  0.00     0.016 A 
ATOM     33  C   UNL A   1      41.915  27.926  27.677  1.00  0.00     0.010 A 
ATOM     34  C   UNL A   1      40.427  26.238  28.586  1.00  0.00     0.010 A 
ATOM     35  C   UNL A   1      41.004  27.518  28.660  1.00  0.00    -0.014 A 
BRANCH  35  36
ATOM     36  C   UNL A   1      40.831  28.370  29.861  1.00  0.00     0.031 A 
ATOM     37  C   UNL A   1      41.768  28.175  31.025  1.00  0.00     0.074 A 
ATOM     38  C   UNL A   1      39.913  29.351  29.887  1.00  0.00     0.049 A 
ATOM     39  N   UNL A   1      41.817  28.809  32.167  1.00  0.00    -0.248 NA
ATOM     40  C   UNL A   1      42.791  27.125  30.876  1.00  0.00     0.031 C 
ATOM     41  C   UNL A   1      38.995  29.676  28.795  1.00  0.00     0.029 A 
ATOM     42  N   UNL A   1      39.607  30.262  30.867  1.00  0.00    -0.354 N 
ATOM     43  C   UNL A   1      42.867  28.236  32.875  1.00  0.00     0.074 A 
ATOM     44  C   UNL A   1      43.413  27.184  32.044  1.00  0.00     0.031 C 
ATOM     45  C   UNL A   1      38.223  30.710  29.170  1.00  0.00     0.029 A 
ATOM     46  C   UNL A   1      38.568  31.098  30.536  1.00  0.00     0.049 A 
ATOM     47  H   UNL A   1      40.085  30.309  31.726  1.00  0.00     0.167 HD
ATOM     48  C   UNL A   1      43.337  28.560  34.102  1.00  0.00     0.037 A 
ATOM     49  C   UNL A   1      37.955  32.054  31.264  1.00  0.00     0.037 A 
ATOM     50  C   UNL A   1      42.788  29.609  34.921  1.00  0.00     0.049 A 
ATOM     51  C   UNL A   1      38.443  32.341  32.660  1.00  0.00     0.074 A 
ATOM     52  C   UNL A   1      43.201  30.027  36.175  1.00  0.00     0.029 A 
ATOM     53  N   UNL A   1      41.703  30.400  34.574  1.00  0.00    -0.354 N 
ATOM     54  N   UNL A   1      39.447  31.803  33.313  1.00  0.00    -0.248 NA
ATOM     55  C   UNL A   1      37.717  33.369  33.422  1.00  0.00     0.031 C 
ATOM     56  C   UNL A   1      42.329  31.029  36.610  1.00  0.00     0.029 A 
ATOM     57  C   UNL A   1      41.411  31.281  35.603  1.00  0.00     0.049 A 
ATOM     58  H   UNL A   1      41.212  30.343  33.723  1.00  0.00     0.167 HD
ATOM     59  C   UNL A   1      39.492  32.446  34.546  1.00  0.00     0.074 A 
ATOM     60  C   UNL A   1      38.420  33.421  34.545  1.00  0.00     0.031 C 
ATOM     61  C   UNL A   1      40.344  32.253  35.583  1.00  0.00     0.037 A 
BRANCH  48  62
ATOM     62  C   UNL A   1      44.476  27.746  34.653  1.00  0.00     0.058 A 
ATOM     63  C   UNL A   1      44.269  26.527  35.319  1.00  0.00     0.135 A 
ATOM     64  C   UNL A   1      45.801  28.178  34.483  1.00  0.00     0.135 A 
ATOM     65  F   UNL A   1      43.022  26.074  35.527  1.00  0.00    -0.206 F 
ATOM     66  C   UNL A   1      45.332  25.779  35.817  1.00  0.00     0.059 A 
ATOM     67  C   UNL A   1      46.881  27.434  34.947  1.00  0.00     0.059 A 
ATOM     68  F   UNL A   1      46.059  29.338  33.856  1.00  0.00    -0.206 F 
ATOM     69  C   UNL A   1      46.635  26.241  35.625  1.00  0.00     0.060 A 
BRANCH  69  70
ATOM     70  S   UNL A   1      48.004  25.257  36.270  1.00  0.00     0.124 S 
ATOM     71  O   UNL A   1      48.038  24.147  35.324  1.00  0.00    -0.237 OA
ATOM     72  O   UNL A   1      49.123  26.190  36.192  1.00  0.00    -0.237 OA
ATOM     73  O   UNL A   1      47.570  24.915  37.621  1.00  0.00    -0.744 OA
ENDBRANCH  69  70
ENDBRANCH  48  62
BRANCH  49  74
ATOM     74  C   UNL A   1      36.799  32.797  30.694  1.00  0.00     0.058 A 
ATOM     75  C   UNL A   1      35.484  32.516  31.094  1.00  0.00     0.135 A 
ATOM     76  C   UNL A   1      36.986  33.801  29.730  1.00  0.00     0.135 A 
ATOM     77  F   UNL A   1      35.250  31.558  32.004  1.00  0.00    -0.206 F 
ATOM     78  C   UNL A   1      34.396  33.193  30.552  1.00  0.00     0.059 A 
ATOM     79  C   UNL A   1      35.918  34.509  29.193  1.00  0.00     0.059 A 
ATOM     80  F   UNL A   1      38.224  34.112  29.316  1.00  0.00    -0.206 F 
ATOM     81  C   UNL A   1      34.624  34.192  29.603  1.00  0.00     0.060 A 
BRANCH  81  82
ATOM     82  S   UNL A   1      33.209  35.097  28.941  1.00  0.00     0.124 S 
ATOM     83  O   UNL A   1      33.861  36.218  28.275  1.00  0.00    -0.237 OA
ATOM     84  O   UNL A   1      32.594  34.104  28.066  1.00  0.00    -0.237 OA
ATOM     85  O   UNL A   1      32.437  35.432  30.134  1.00  0.00    -0.744 OA
ENDBRANCH  81  82
ENDBRANCH  49  74
BRANCH  61  86
ATOM     86  C   UNL A   1      40.184  33.134  36.793  1.00  0.00     0.058 A 
ATOM     87  C   UNL A   1      39.187  32.904  37.753  1.00  0.00     0.135 A 
ATOM     88  C   UNL A   1      41.080  34.193  37.022  1.00  0.00     0.135 A 
ATOM     89  F   UNL A   1      38.301  31.909  37.582  1.00  0.00    -0.206 F 
ATOM     90  C   UNL A   1      39.069  33.703  38.886  1.00  0.00     0.059 A 
ATOM     91  C   UNL A   1      40.999  34.986  38.161  1.00  0.00     0.059 A 
ATOM     92  F   UNL A   1      42.060  34.451  36.142  1.00  0.00    -0.206 F 
ATOM     93  C   UNL A   1      39.982  34.742  39.082  1.00  0.00     0.060 A 
BRANCH  93  94
ATOM     94  S   UNL A   1      39.838  35.751  40.573  1.00  0.00     0.124 S 
ATOM     95  O   UNL A   1      41.222  36.163  40.782  1.00  0.00    -0.237 OA
ATOM     96  O   UNL A   1      38.919  36.803  40.151  1.00  0.00    -0.237 OA
ATOM     97  O   UNL A   1      39.304  34.821  41.564  1.00  0.00    -0.744 OA
ENDBRANCH  93  94
ENDBRANCH  61  86
ENDBRANCH  35  36
ENDBRANCH  28  30
ENDBRANCH  27  28
ENDBRANCH  26  27
ENDBRANCH  25  26
ENDBRANCH  24  25
ENDBRANCH  23  24
ENDBRANCH   1  23
TORSDOF 24
ENDMDL
MODEL 2
REMARK VINA RESULT:      -9.3      1.178      8.206
REMARK SMILES C[C@H](C(=O)OCCOCCOCCOCCOC(=O)c1ccc(-c2c3nc(c(-c4c(F)cc(S(=O)(=O)[O-])cc4F)c4ccc([nH]4)c(-c4c(F)cc(S(=O)(=O)[O-])cc4F)c4nc(c(-c5c(F)cc(S(=O)(=O)[O-])cc5F)c5ccc2[nH]5)C=C4)C=C3)cc1)c1ccc2c(c1)OCCO2
REMARK SMILES IDX 12 1 11 2 10 3 9 4 8 5 7 6 6 7 5 8 3 9 4 10 2 11 1 12 86 13
REMARK SMILES IDX 87 14 91 15 88 16 90 17 89 18 92 19 95 20 93 21 94 22 13 23
REMARK SMILES IDX 14 24 15 25 16 26 17 27 18 28 19 29 20 30 21 31 85 32 22 33
REMARK SMILES IDX 84 34 23 35 24 36 25 37 78 38 26 39 83 40 77 41 79 42 27 43
REMARK SMILES IDX 82 44 76 45 75 46 28 48 62 49 41 50 61 51 42 52 45 53 60 54
REMARK SMILES IDX 80 55 43 56 44 57 59 59 81 60 46 61 29 62 30 63 39 64 31 65
REMARK SMILES IDX 32 66 38 67 40 68 33 69 34 70 35 71 36 72 37 73 63 74 64 75
REMARK SMILES IDX 73 76 65 77 66 78 72 79 74 80 67 81 68 82 69 83 70 84 71 85
REMARK SMILES IDX 47 86 48 87 57 88 49 89 50 90 56 91 58 92 51 93 52 94 53 95
REMARK SMILES IDX 54 96 55 97
REMARK H PARENT 79 47 45 58
REMARK Flexibility Score: inf
ROOT
ATOM      1  C   UNL A   1      37.648  21.692  25.123  1.00  0.00     0.188 C 
ENDROOT
BRANCH   1   2
ATOM      2  O   UNL A   1      36.999  22.912  24.861  1.00  0.00    -0.377 OA
BRANCH   2   3
ATOM      3  C   UNL A   1      36.005  23.478  25.684  1.00  0.00     0.188 C 
BRANCH   3   4
ATOM      4  C   UNL A   1      35.360  24.828  25.439  1.00  0.00     0.188 C 
BRANCH   4   5
ATOM      5  O   UNL A   1      34.158  24.816  24.715  1.00  0.00    -0.376 OA
BRANCH   5   6
ATOM      6  C   UNL A   1      34.088  24.585  23.320  1.00  0.00     0.202 C 
BRANCH   6   7
ATOM      7  C   UNL A   1      33.107  23.642  22.601  1.00  0.00     0.261 C 
BRANCH   7   8
ATOM      8  O   UNL A   1      31.800  23.420  23.166  1.00  0.00    -0.463 OA
BRANCH   8   9
ATOM      9  C   UNL A   1      31.825  23.004  24.467  1.00  0.00     0.313 C 
ATOM     10  O   UNL A   1      31.083  23.468  25.335  1.00  0.00    -0.252 OA
BRANCH   9  11
ATOM     11  C   UNL A   1      32.740  21.837  24.822  1.00  0.00     0.126 C 
ATOM     12  C   UNL A   1      32.976  21.867  26.351  1.00  0.00     0.025 C 
BRANCH  11  13
ATOM     13  C   UNL A   1      32.428  20.411  24.387  1.00  0.00    -0.030 A 
ATOM     14  C   UNL A   1      32.322  20.077  23.026  1.00  0.00     0.009 A 
ATOM     15  C   UNL A   1      32.548  19.360  25.290  1.00  0.00     0.055 A 
ATOM     16  C   UNL A   1      32.497  18.749  22.598  1.00  0.00     0.051 A 
ATOM     17  C   UNL A   1      32.754  18.053  24.885  1.00  0.00     0.161 A 
ATOM     18  C   UNL A   1      32.805  17.764  23.532  1.00  0.00     0.161 A 
ATOM     19  O   UNL A   1      33.063  17.164  25.878  1.00  0.00    -0.486 OA
ATOM     20  O   UNL A   1      33.319  16.566  23.098  1.00  0.00    -0.486 OA
ATOM     21  C   UNL A   1      33.806  16.035  25.421  1.00  0.00     0.271 C 
ATOM     22  C   UNL A   1      34.370  16.216  24.016  1.00  0.00     0.271 C 
ENDBRANCH  11  13
ENDBRANCH   9  11
ENDBRANCH   8   9
ENDBRANCH   7   8
ENDBRANCH   6   7
ENDBRANCH   5   6
ENDBRANCH   4   5
ENDBRANCH   3   4
ENDBRANCH   2   3
ENDBRANCH   1   2
BRANCH   1  23
ATOM     23  C   UNL A   1      38.792  21.804  26.134  1.00  0.00     0.188 C 
BRANCH  23  24
ATOM     24  O   UNL A   1      40.127  21.554  25.694  1.00  0.00    -0.376 OA
BRANCH  24  25
ATOM     25  C   UNL A   1      41.147  21.288  26.648  1.00  0.00     0.202 C 
BRANCH  25  26
ATOM     26  C   UNL A   1      42.151  22.395  26.973  1.00  0.00     0.261 C 
BRANCH  26  27
ATOM     27  O   UNL A   1      41.691  23.720  26.673  1.00  0.00    -0.460 OA
BRANCH  27  28
ATOM     28  C   UNL A   1      42.618  24.691  26.854  1.00  0.00     0.338 C 
ATOM     29  O   UNL A   1      43.730  24.748  26.360  1.00  0.00    -0.246 OA
BRANCH  28  30
ATOM     30  C   UNL A   1      42.063  25.796  27.657  1.00  0.00     0.060 A 
ATOM     31  C   UNL A   1      42.870  26.924  27.835  1.00  0.00     0.016 A 
ATOM     32  C   UNL A   1      40.859  25.664  28.351  1.00  0.00     0.016 A 
ATOM     33  C   UNL A   1      42.504  27.904  28.753  1.00  0.00     0.010 A 
ATOM     34  C   UNL A   1      40.502  26.642  29.289  1.00  0.00     0.010 A 
ATOM     35  C   UNL A   1      41.348  27.740  29.526  1.00  0.00    -0.014 A 
BRANCH  35  36
ATOM     36  C   UNL A   1      41.156  28.615  30.707  1.00  0.00     0.031 A 
ATOM     37  C   UNL A   1      40.043  29.630  30.679  1.00  0.00     0.074 A 
ATOM     38  C   UNL A   1      41.902  28.456  31.814  1.00  0.00     0.049 A 
ATOM     39  N   UNL A   1      39.677  30.486  31.597  1.00  0.00    -0.248 NA
ATOM     40  C   UNL A   1      39.229  29.680  29.452  1.00  0.00     0.031 C 
ATOM     41  C   UNL A   1      42.964  27.464  31.980  1.00  0.00     0.029 A 
ATOM     42  N   UNL A   1      41.874  29.124  33.013  1.00  0.00    -0.354 N 
ATOM     43  C   UNL A   1      38.598  31.181  31.060  1.00  0.00     0.074 A 
ATOM     44  C   UNL A   1      38.384  30.662  29.725  1.00  0.00     0.031 C 
ATOM     45  C   UNL A   1      43.491  27.594  33.210  1.00  0.00     0.029 A 
ATOM     46  C   UNL A   1      42.828  28.697  33.903  1.00  0.00     0.049 A 
ATOM     47  H   UNL A   1      41.231  29.843  33.213  1.00  0.00     0.167 HD
ATOM     48  C   UNL A   1      37.852  32.156  31.629  1.00  0.00     0.037 A 
ATOM     49  C   UNL A   1      43.142  29.159  35.131  1.00  0.00     0.037 A 
ATOM     50  C   UNL A   1      38.071  32.663  32.958  1.00  0.00     0.049 A 
ATOM     51  C   UNL A   1      42.348  30.301  35.711  1.00  0.00     0.074 A 
ATOM     52  C   UNL A   1      37.361  33.642  33.633  1.00  0.00     0.029 A 
ATOM     53  N   UNL A   1      39.081  32.242  33.811  1.00  0.00    -0.354 N 
ATOM     54  N   UNL A   1      41.321  30.939  35.200  1.00  0.00    -0.248 NA
ATOM     55  C   UNL A   1      42.755  30.788  37.038  1.00  0.00     0.031 C 
ATOM     56  C   UNL A   1      37.978  33.853  34.870  1.00  0.00     0.029 A 
ATOM     57  C   UNL A   1      39.034  32.963  34.993  1.00  0.00     0.049 A 
ATOM     58  H   UNL A   1      39.735  31.536  33.606  1.00  0.00     0.167 HD
ATOM     59  C   UNL A   1      40.940  31.879  36.153  1.00  0.00     0.074 A 
ATOM     60  C   UNL A   1      41.842  31.719  37.276  1.00  0.00     0.031 C 
ATOM     61  C   UNL A   1      39.934  32.787  36.107  1.00  0.00     0.037 A 
BRANCH  48  62
ATOM     62  C   UNL A   1      36.753  32.767  30.803  1.00  0.00     0.058 A 
ATOM     63  C   UNL A   1      36.999  33.789  29.873  1.00  0.00     0.135 A 
ATOM     64  C   UNL A   1      35.434  32.298  30.922  1.00  0.00     0.135 A 
ATOM     65  F   UNL A   1      38.237  34.289  29.730  1.00  0.00    -0.206 F 
ATOM     66  C   UNL A   1      35.975  34.342  29.109  1.00  0.00     0.059 A 
ATOM     67  C   UNL A   1      34.399  32.815  30.150  1.00  0.00     0.059 A 
ATOM     68  F   UNL A   1      35.140  31.324  31.798  1.00  0.00    -0.206 F 
ATOM     69  C   UNL A   1      34.677  33.847  29.254  1.00  0.00     0.060 A 
BRANCH  69  70
ATOM     70  S   UNL A   1      33.361  34.568  28.252  1.00  0.00     0.124 S 
ATOM     71  O   UNL A   1      32.560  35.247  29.266  1.00  0.00    -0.237 OA
ATOM     72  O   UNL A   1      34.101  35.437  27.343  1.00  0.00    -0.237 OA
ATOM     73  O   UNL A   1      32.731  33.407  27.631  1.00  0.00    -0.744 OA
ENDBRANCH  69  70
ENDBRANCH  48  62
BRANCH  49  74
ATOM     74  C   UNL A   1      44.271  28.554  35.888  1.00  0.00     0.058 A 
ATOM     75  C   UNL A   1      44.058  27.517  36.808  1.00  0.00     0.135 A 
ATOM     76  C   UNL A   1      45.588  29.007  35.710  1.00  0.00     0.135 A 
ATOM     77  F   UNL A   1      42.816  27.056  37.024  1.00  0.00    -0.206 F 
ATOM     78  C   UNL A   1      45.106  26.959  37.534  1.00  0.00     0.059 A 
ATOM     79  C   UNL A   1      46.655  28.447  36.403  1.00  0.00     0.059 A 
ATOM     80  F   UNL A   1      45.848  29.993  34.837  1.00  0.00    -0.206 F 
ATOM     81  C   UNL A   1      46.404  27.429  37.321  1.00  0.00     0.060 A 
BRANCH  81  82
ATOM     82  S   UNL A   1      47.762  26.665  38.233  1.00  0.00     0.124 S 
ATOM     83  O   UNL A   1      47.314  26.817  39.611  1.00  0.00    -0.237 OA
ATOM     84  O   UNL A   1      47.757  25.305  37.705  1.00  0.00    -0.237 OA
ATOM     85  O   UNL A   1      48.917  27.472  37.851  1.00  0.00    -0.744 OA
ENDBRANCH  81  82
ENDBRANCH  49  74
BRANCH  61  86
ATOM     86  C   UNL A   1      39.722  33.658  37.316  1.00  0.00     0.058 A 
ATOM     87  C   UNL A   1      40.295  34.935  37.421  1.00  0.00     0.135 A 
ATOM     88  C   UNL A   1      38.886  33.229  38.361  1.00  0.00     0.135 A 
ATOM     89  F   UNL A   1      41.106  35.393  36.455  1.00  0.00    -0.206 F 
ATOM     90  C   UNL A   1      40.065  35.746  38.528  1.00  0.00     0.059 A 
ATOM     91  C   UNL A   1      38.619  34.034  39.463  1.00  0.00     0.059 A 
ATOM     92  F   UNL A   1      38.303  32.021  38.307  1.00  0.00    -0.206 F 
ATOM     93  C   UNL A   1      39.224  35.288  39.544  1.00  0.00     0.060 A 
BRANCH  93  94
ATOM     94  S   UNL A   1      38.907  36.364  40.958  1.00  0.00     0.124 S 
ATOM     95  O   UNL A   1      37.795  35.677  41.607  1.00  0.00    -0.237 OA
ATOM     96  O   UNL A   1      40.180  36.326  41.671  1.00  0.00    -0.237 OA
ATOM     97  O   UNL A   1      38.578  37.647  40.344  1.00  0.00    -0.744 OA
ENDBRANCH  93  94
ENDBRANCH  61  86
ENDBRANCH  35  36
ENDBRANCH  28  30
ENDBRANCH  27  28
ENDBRANCH  26  27
ENDBRANCH  25  26
ENDBRANCH  24  25
ENDBRANCH  23  24
ENDBRANCH   1  23
TORSDOF 24
ENDMDL
MODEL 3
REMARK VINA RESULT:      -9.2      4.811      6.831
REMARK SMILES C[C@H](C(=O)OCCOCCOCCOCCOC(=O)c1ccc(-c2c3nc(c(-c4c(F)cc(S(=O)(=O)[O-])cc4F)c4ccc([nH]4)c(-c4c(F)cc(S(=O)(=O)[O-])cc4F)c4nc(c(-c5c(F)cc(S(=O)(=O)[O-])cc5F)c5ccc2[nH]5)C=C4)C=C3)cc1)c1ccc2c(c1)OCCO2
REMARK SMILES IDX 12 1 11 2 10 3 9 4 8 5 7 6 6 7 5 8 3 9 4 10 2 11 1 12 86 13
REMARK SMILES IDX 87 14 91 15 88 16 90 17 89 18 92 19 95 20 93 21 94 22 13 23
REMARK SMILES IDX 14 24 15 25 16 26 17 27 18 28 19 29 20 30 21 31 85 32 22 33
REMARK SMILES IDX 84 34 23 35 24 36 25 37 78 38 26 39 83 40 77 41 79 42 27 43
REMARK SMILES IDX 82 44 76 45 75 46 28 48 62 49 41 50 61 51 42 52 45 53 60 54
REMARK SMILES IDX 80 55 43 56 44 57 59 59 81 60 46 61 29 62 30 63 39 64 31 65
REMARK SMILES IDX 32 66 38 67 40 68 33 69 34 70 35 71 36 72 37 73 63 74 64 75
REMARK SMILES IDX 73 76 65 77 66 78 72 79 74 80 67 81 68 82 69 83 70 84 71 85
REMARK SMILES IDX 47 86 48 87 57 88 49 89 50 90 56 91 58 92 51 93 52 94 53 95
REMARK SMILES IDX 54 96 55 97
REMARK H PARENT 79 47 45 58
REMARK Flexibility Score: inf
ROOT
ATOM      1  C   UNL A   1      35.044  18.259  24.624  1.00  0.00     0.188 C 
ENDROOT
BRANCH   1   2
ATOM      2  O   UNL A   1      33.867  18.954  24.956  1.00  0.00    -0.377 OA
BRANCH   2   3
ATOM      3  C   UNL A   1      32.594  18.662  24.427  1.00  0.00     0.188 C 
BRANCH   3   4
ATOM      4  C   UNL A   1      32.239  18.749  22.955  1.00  0.00     0.188 C 
BRANCH   4   5
ATOM      5  O   UNL A   1      32.121  20.043  22.425  1.00  0.00    -0.376 OA
BRANCH   5   6
ATOM      6  C   UNL A   1      32.173  21.218  23.211  1.00  0.00     0.202 C 
BRANCH   6   7
ATOM      7  C   UNL A   1      33.188  22.367  23.065  1.00  0.00     0.261 C 
BRANCH   7   8
ATOM      8  O   UNL A   1      32.851  23.675  23.569  1.00  0.00    -0.463 OA
BRANCH   8   9
ATOM      9  C   UNL A   1      32.788  24.638  22.601  1.00  0.00     0.313 C 
ATOM     10  O   UNL A   1      33.623  24.738  21.700  1.00  0.00    -0.252 OA
BRANCH   9  11
ATOM     11  C   UNL A   1      31.568  25.552  22.585  1.00  0.00     0.126 C 
ATOM     12  C   UNL A   1      30.450  24.864  23.403  1.00  0.00     0.025 C 
BRANCH  11  13
ATOM     13  C   UNL A   1      31.659  27.019  22.986  1.00  0.00    -0.030 A 
ATOM     14  C   UNL A   1      30.525  27.849  22.954  1.00  0.00     0.009 A 
ATOM     15  C   UNL A   1      32.769  27.489  23.678  1.00  0.00     0.055 A 
ATOM     16  C   UNL A   1      30.474  29.021  23.728  1.00  0.00     0.051 A 
ATOM     17  C   UNL A   1      32.725  28.622  24.471  1.00  0.00     0.161 A 
ATOM     18  C   UNL A   1      31.546  29.344  24.554  1.00  0.00     0.161 A 
ATOM     19  O   UNL A   1      33.824  28.844  25.254  1.00  0.00    -0.486 OA
ATOM     20  O   UNL A   1      31.367  30.265  25.557  1.00  0.00    -0.486 OA
ATOM     21  C   UNL A   1      33.547  29.618  26.421  1.00  0.00     0.271 C 
ATOM     22  C   UNL A   1      32.056  29.752  26.711  1.00  0.00     0.271 C 
ENDBRANCH  11  13
ENDBRANCH   9  11
ENDBRANCH   8   9
ENDBRANCH   7   8
ENDBRANCH   6   7
ENDBRANCH   5   6
ENDBRANCH   4   5
ENDBRANCH   3   4
ENDBRANCH   2   3
ENDBRANCH   1   2
BRANCH   1  23
ATOM     23  C   UNL A   1      36.311  19.115  24.699  1.00  0.00     0.188 C 
BRANCH  23  24
ATOM     24  O   UNL A   1      36.207  20.458  25.173  1.00  0.00    -0.376 OA
BRANCH  24  25
ATOM     25  C   UNL A   1      36.766  21.521  24.410  1.00  0.00     0.202 C 
BRANCH  25  26
ATOM     26  C   UNL A   1      37.473  22.658  25.149  1.00  0.00     0.261 C 
BRANCH  26  27
ATOM     27  O   UNL A   1      38.178  22.249  26.330  1.00  0.00    -0.460 OA
BRANCH  27  28
ATOM     28  C   UNL A   1      39.470  22.652  26.379  1.00  0.00     0.338 C 
ATOM     29  O   UNL A   1      40.449  22.033  26.003  1.00  0.00    -0.246 OA
BRANCH  28  30
ATOM     30  C   UNL A   1      39.561  24.047  26.847  1.00  0.00     0.060 A 
ATOM     31  C   UNL A   1      40.094  24.986  25.958  1.00  0.00     0.016 A 
ATOM     32  C   UNL A   1      39.286  24.395  28.171  1.00  0.00     0.016 A 
ATOM     33  C   UNL A   1      40.411  26.266  26.404  1.00  0.00     0.010 A 
ATOM     34  C   UNL A   1      39.623  25.678  28.623  1.00  0.00     0.010 A 
ATOM     35  C   UNL A   1      40.231  26.600  27.752  1.00  0.00    -0.014 A 
BRANCH  35  36
ATOM     36  C   UNL A   1      40.869  27.835  28.267  1.00  0.00     0.031 A 
ATOM     37  C   UNL A   1      42.366  27.973  28.158  1.00  0.00     0.074 A 
ATOM     38  C   UNL A   1      40.128  28.849  28.746  1.00  0.00     0.049 A 
ATOM     39  N   UNL A   1      43.138  28.963  28.523  1.00  0.00    -0.248 NA
ATOM     40  C   UNL A   1      43.087  26.841  27.549  1.00  0.00     0.031 C 
ATOM     41  C   UNL A   1      38.668  28.855  28.839  1.00  0.00     0.029 A 
ATOM     42  N   UNL A   1      40.503  30.074  29.238  1.00  0.00    -0.354 N 
ATOM     43  C   UNL A   1      44.432  28.575  28.196  1.00  0.00     0.074 A 
ATOM     44  C   UNL A   1      44.345  27.248  27.626  1.00  0.00     0.031 C 
ATOM     45  C   UNL A   1      38.272  30.028  29.364  1.00  0.00     0.029 A 
ATOM     46  C   UNL A   1      39.448  30.838  29.674  1.00  0.00     0.049 A 
ATOM     47  H   UNL A   1      41.439  30.375  29.276  1.00  0.00     0.167 HD
ATOM     48  C   UNL A   1      45.586  29.265  28.352  1.00  0.00     0.037 A 
ATOM     49  C   UNL A   1      39.438  32.047  30.273  1.00  0.00     0.037 A 
ATOM     50  C   UNL A   1      45.663  30.586  28.919  1.00  0.00     0.049 A 
ATOM     51  C   UNL A   1      40.744  32.760  30.511  1.00  0.00     0.074 A 
ATOM     52  C   UNL A   1      46.783  31.378  29.108  1.00  0.00     0.029 A 
ATOM     53  N   UNL A   1      44.578  31.307  29.398  1.00  0.00    -0.354 N 
ATOM     54  N   UNL A   1      41.960  32.391  30.183  1.00  0.00    -0.248 NA
ATOM     55  C   UNL A   1      40.678  34.059  31.198  1.00  0.00     0.031 C 
ATOM     56  C   UNL A   1      46.383  32.552  29.754  1.00  0.00     0.029 A 
ATOM     57  C   UNL A   1      45.007  32.521  29.911  1.00  0.00     0.049 A 
ATOM     58  H   UNL A   1      43.643  31.002  29.376  1.00  0.00     0.167 HD
ATOM     59  C   UNL A   1      42.799  33.422  30.596  1.00  0.00     0.074 A 
ATOM     60  C   UNL A   1      41.949  34.435  31.189  1.00  0.00     0.031 C 
ATOM     61  C   UNL A   1      44.147  33.524  30.491  1.00  0.00     0.037 A 
BRANCH  48  62
ATOM     62  C   UNL A   1      46.866  28.589  27.941  1.00  0.00     0.058 A 
ATOM     63  C   UNL A   1      47.617  27.808  28.833  1.00  0.00     0.135 A 
ATOM     64  C   UNL A   1      47.332  28.700  26.621  1.00  0.00     0.135 A 
ATOM     65  F   UNL A   1      47.230  27.682  30.113  1.00  0.00    -0.206 F 
ATOM     66  C   UNL A   1      48.796  27.181  28.439  1.00  0.00     0.059 A 
ATOM     67  C   UNL A   1      48.492  28.060  26.195  1.00  0.00     0.059 A 
ATOM     68  F   UNL A   1      46.655  29.437  25.725  1.00  0.00    -0.206 F 
ATOM     69  C   UNL A   1      49.224  27.313  27.116  1.00  0.00     0.060 A 
BRANCH  69  70
ATOM     70  S   UNL A   1      50.751  26.488  26.617  1.00  0.00     0.124 S 
ATOM     71  O   UNL A   1      50.542  25.144  27.144  1.00  0.00    -0.237 OA
ATOM     72  O   UNL A   1      50.711  26.612  25.163  1.00  0.00    -0.237 OA
ATOM     73  O   UNL A   1      51.791  27.267  27.282  1.00  0.00    -0.744 OA
ENDBRANCH  69  70
ENDBRANCH  48  62
BRANCH  49  74
ATOM     74  C   UNL A   1      38.150  32.651  30.708  1.00  0.00     0.058 A 
ATOM     75  C   UNL A   1      37.684  32.505  32.023  1.00  0.00     0.135 A 
ATOM     76  C   UNL A   1      37.354  33.384  29.813  1.00  0.00     0.135 A 
ATOM     77  F   UNL A   1      38.401  31.803  32.914  1.00  0.00    -0.206 F 
ATOM     78  C   UNL A   1      36.472  33.050  32.432  1.00  0.00     0.059 A 
ATOM     79  C   UNL A   1      36.152  33.962  30.205  1.00  0.00     0.059 A 
ATOM     80  F   UNL A   1      37.757  33.560  28.545  1.00  0.00    -0.206 F 
ATOM     81  C   UNL A   1      35.713  33.782  31.516  1.00  0.00     0.060 A 
BRANCH  81  82
ATOM     82  S   UNL A   1      34.165  34.526  32.070  1.00  0.00     0.124 S 
ATOM     83  O   UNL A   1      33.590  33.450  32.868  1.00  0.00    -0.237 OA
ATOM     84  O   UNL A   1      34.635  35.691  32.813  1.00  0.00    -0.237 OA
ATOM     85  O   UNL A   1      33.471  34.828  30.821  1.00  0.00    -0.744 OA
ENDBRANCH  81  82
ENDBRANCH  49  74
BRANCH  61  86
ATOM     86  C   UNL A   1      44.793  34.789  30.991  1.00  0.00     0.058 A 
ATOM     87  C   UNL A   1      45.281  34.906  32.301  1.00  0.00     0.135 A 
ATOM     88  C   UNL A   1      44.976  35.881  30.125  1.00  0.00     0.135 A 
ATOM     89  F   UNL A   1      45.129  33.895  33.172  1.00  0.00    -0.206 F 
ATOM     90  C   UNL A   1      45.907  36.067  32.743  1.00  0.00     0.059 A 
ATOM     91  C   UNL A   1      45.625  37.040  30.536  1.00  0.00     0.059 A 
ATOM     92  F   UNL A   1      44.539  35.819  28.857  1.00  0.00    -0.206 F 
ATOM     93  C   UNL A   1      46.077  37.129  31.852  1.00  0.00     0.060 A 
BRANCH  93  94
ATOM     94  S   UNL A   1      46.921  38.617  32.428  1.00  0.00     0.124 S 
ATOM     95  O   UNL A   1      47.247  39.276  31.167  1.00  0.00    -0.237 OA
ATOM     96  O   UNL A   1      45.894  39.266  33.237  1.00  0.00    -0.237 OA
ATOM     97  O   UNL A   1      48.061  38.095  33.175  1.00  0.00    -0.744 OA
ENDBRANCH  93  94
ENDBRANCH  61  86
ENDBRANCH  35  36
ENDBRANCH  28  30
ENDBRANCH  27  28
ENDBRANCH  26  27
ENDBRANCH  25  26
ENDBRANCH  24  25
ENDBRANCH  23  24
ENDBRANCH   1  23
TORSDOF 24
ENDMDL
