MODEL 1
REMARK VINA RESULT:     -10.1      0.000      0.000
REMARK SMILES CC(=O)NCCc1c[nH]c2ccc(C(=O)OCCOCCOCCOCCOC(=O)c3ccc(-c4c5nc(c(-c6c(F)cc(S(=O)(=O)[O-])cc6F)c6ccc([nH]6)c(-c6c(F)cc(S(=O)(=O)[O-])cc6F)c6nc(c(-c7c(F)cc(S(=O)(=O)[O-])cc7F)c7ccc4[nH]7)C=C6)C=C5)cc3)cc12
REMARK SMILES IDX 22 1 21 2 20 3 19 4 18 5 17 6 16 7 14 8 15 9 13 10 7 11 8 12
REMARK SMILES IDX 98 13 9 14 10 15 97 16 11 18 12 19 6 20 5 21 4 22 1 23 2 24
REMARK SMILES IDX 3 25 23 27 24 28 25 29 26 30 27 31 28 32 29 33 30 34 31 35
REMARK SMILES IDX 32 36 96 37 33 38 95 39 34 40 35 41 36 42 89 43 37 44 94 45
REMARK SMILES IDX 88 46 90 47 38 48 93 49 87 50 86 51 39 53 73 54 52 55 72 56
REMARK SMILES IDX 53 57 56 58 71 59 91 60 54 61 55 62 70 64 92 65 57 66 40 67
REMARK SMILES IDX 41 68 50 69 42 70 43 71 49 72 51 73 44 74 45 75 46 76 47 77
REMARK SMILES IDX 48 78 74 79 75 80 84 81 76 82 77 83 83 84 85 85 78 86 79 87
REMARK SMILES IDX 80 88 81 89 82 90 58 91 59 92 68 93 60 94 61 95 67 96 69 97
REMARK SMILES IDX 62 98 63 99 64 100 65 101 66 102
REMARK H PARENT 9 17 4 26 90 52 56 63
REMARK Flexibility Score: inf
ROOT
ATOM      1  O   UNL A   1      35.098  23.968  25.554  1.00  0.00    -0.377 OA
ENDROOT
BRANCH   1   2
ATOM      2  C   UNL A   1      34.484  24.155  24.286  1.00  0.00     0.188 C 
BRANCH   2   3
ATOM      3  C   UNL A   1      33.864  25.520  23.912  1.00  0.00     0.188 C 
BRANCH   3   4
ATOM      4  O   UNL A   1      34.223  26.585  24.776  1.00  0.00    -0.376 OA
BRANCH   4   5
ATOM      5  C   UNL A   1      33.592  26.669  26.041  1.00  0.00     0.202 C 
BRANCH   5   6
ATOM      6  C   UNL A   1      32.098  26.322  26.136  1.00  0.00     0.261 C 
BRANCH   6   7
ATOM      7  O   UNL A   1      31.788  25.098  26.814  1.00  0.00    -0.460 OA
BRANCH   7   8
ATOM      8  C   UNL A   1      30.651  24.481  26.432  1.00  0.00     0.338 C 
ATOM      9  O   UNL A   1      29.520  24.741  26.799  1.00  0.00    -0.246 OA
BRANCH   8  10
ATOM     10  C   UNL A   1      30.962  23.555  25.320  1.00  0.00     0.060 A 
ATOM     11  C   UNL A   1      32.542  20.132  24.629  1.00  0.00    -0.021 A 
ATOM     12  C   UNL A   1      32.748  19.812  23.299  1.00  0.00     0.087 A 
ATOM     13  C   UNL A   1      31.929  21.429  24.642  1.00  0.00     0.003 A 
ATOM     14  N   UNL A   1      32.226  20.814  22.523  1.00  0.00    -0.361 N 
ATOM     15  C   UNL A   1      31.703  21.808  23.318  1.00  0.00     0.046 A 
ATOM     16  C   UNL A   1      31.532  22.318  25.658  1.00  0.00     0.026 A 
ATOM     17  H   UNL A   1      32.226  20.823  21.539  1.00  0.00     0.166 HD
ATOM     18  C   UNL A   1      31.052  22.999  22.964  1.00  0.00     0.027 A 
ATOM     19  C   UNL A   1      30.682  23.874  23.993  1.00  0.00     0.018 A 
BRANCH  11  20
ATOM     20  C   UNL A   1      32.872  19.262  25.810  1.00  0.00     0.059 C 
BRANCH  20  21
ATOM     21  C   UNL A   1      32.515  17.780  25.642  1.00  0.00     0.120 C 
BRANCH  21  22
ATOM     22  N   UNL A   1      33.644  16.890  25.858  1.00  0.00    -0.356 N 
ATOM     23  C   UNL A   1      34.171  16.468  23.490  1.00  0.00     0.114 C 
ATOM     24  C   UNL A   1      34.383  16.194  24.950  1.00  0.00     0.216 C 
ATOM     25  O   UNL A   1      35.214  15.375  25.335  1.00  0.00    -0.275 OA
ATOM     26  H   UNL A   1      33.914  16.773  26.799  1.00  0.00     0.163 HD
ENDBRANCH  21  22
ENDBRANCH  20  21
ENDBRANCH  11  20
ENDBRANCH   8  10
ENDBRANCH   7   8
ENDBRANCH   6   7
ENDBRANCH   5   6
ENDBRANCH   4   5
ENDBRANCH   3   4
ENDBRANCH   2   3
ENDBRANCH   1   2
BRANCH   1  27
ATOM     27  C   UNL A   1      35.574  22.681  25.933  1.00  0.00     0.188 C 
BRANCH  27  28
ATOM     28  C   UNL A   1      36.897  22.128  25.357  1.00  0.00     0.188 C 
BRANCH  28  29
ATOM     29  O   UNL A   1      38.069  22.667  25.947  1.00  0.00    -0.376 OA
BRANCH  29  30
ATOM     30  C   UNL A   1      39.162  21.788  26.145  1.00  0.00     0.202 C 
BRANCH  30  31
ATOM     31  C   UNL A   1      40.512  22.408  26.533  1.00  0.00     0.261 C 
BRANCH  31  32
ATOM     32  O   UNL A   1      40.626  23.833  26.392  1.00  0.00    -0.460 OA
BRANCH  32  33
ATOM     33  C   UNL A   1      41.783  24.407  26.786  1.00  0.00     0.338 C 
ATOM     34  O   UNL A   1      42.906  24.153  26.379  1.00  0.00    -0.246 OA
BRANCH  33  35
ATOM     35  C   UNL A   1      41.436  25.542  27.666  1.00  0.00     0.060 A 
ATOM     36  C   UNL A   1      42.239  26.690  27.657  1.00  0.00     0.016 A 
ATOM     37  C   UNL A   1      40.306  25.474  28.484  1.00  0.00     0.016 A 
ATOM     38  C   UNL A   1      41.930  27.765  28.493  1.00  0.00     0.010 A 
ATOM     39  C   UNL A   1      40.011  26.540  29.337  1.00  0.00     0.010 A 
ATOM     40  C   UNL A   1      40.840  27.676  29.370  1.00  0.00    -0.014 A 
BRANCH  40  41
ATOM     41  C   UNL A   1      40.683  28.671  30.458  1.00  0.00     0.031 A 
ATOM     42  C   UNL A   1      41.584  28.557  31.659  1.00  0.00     0.074 A 
ATOM     43  C   UNL A   1      39.774  29.660  30.383  1.00  0.00     0.049 A 
ATOM     44  N   UNL A   1      41.598  29.262  32.758  1.00  0.00    -0.248 NA
ATOM     45  C   UNL A   1      42.604  27.496  31.611  1.00  0.00     0.031 C 
ATOM     46  C   UNL A   1      38.873  29.897  29.257  1.00  0.00     0.029 A 
ATOM     47  N   UNL A   1      39.452  30.643  31.286  1.00  0.00    -0.354 N 
ATOM     48  C   UNL A   1      42.617  28.726  33.537  1.00  0.00     0.074 A 
ATOM     49  C   UNL A   1      43.178  27.617  32.799  1.00  0.00     0.031 C 
ATOM     50  C   UNL A   1      38.088  30.951  29.543  1.00  0.00     0.029 A 
ATOM     51  C   UNL A   1      38.406  31.440  30.884  1.00  0.00     0.049 A 
ATOM     52  H   UNL A   1      39.926  30.767  32.140  1.00  0.00     0.167 HD
ATOM     53  C   UNL A   1      43.051  29.127  34.756  1.00  0.00     0.037 A 
ATOM     54  C   UNL A   1      37.763  32.429  31.537  1.00  0.00     0.037 A 
ATOM     55  C   UNL A   1      42.485  30.231  35.485  1.00  0.00     0.049 A 
ATOM     56  C   UNL A   1      38.218  32.814  32.924  1.00  0.00     0.074 A 
ATOM     57  C   UNL A   1      42.865  30.731  36.718  1.00  0.00     0.029 A 
ATOM     58  N   UNL A   1      41.412  30.999  35.056  1.00  0.00    -0.354 N 
ATOM     59  N   UNL A   1      39.199  32.318  33.641  1.00  0.00    -0.248 NA
ATOM     60  C   UNL A   1      37.481  33.899  33.590  1.00  0.00     0.031 C 
ATOM     61  C   UNL A   1      41.983  31.760  37.062  1.00  0.00     0.029 A 
ATOM     62  C   UNL A   1      41.097  31.949  36.014  1.00  0.00     0.049 A 
ATOM     63  H   UNL A   1      40.944  30.886  34.198  1.00  0.00     0.167 HD
ATOM     64  C   UNL A   1      39.217  33.050  34.824  1.00  0.00     0.074 A 
ATOM     65  C   UNL A   1      38.155  34.028  34.724  1.00  0.00     0.031 C 
ATOM     66  C   UNL A   1      40.040  32.925  35.896  1.00  0.00     0.037 A 
BRANCH  53  67
ATOM     67  C   UNL A   1      44.170  28.347  35.390  1.00  0.00     0.058 A 
ATOM     68  C   UNL A   1      43.928  27.292  36.284  1.00  0.00     0.135 A 
ATOM     69  C   UNL A   1      45.507  28.644  35.076  1.00  0.00     0.135 A 
ATOM     70  F   UNL A   1      42.672  26.978  36.637  1.00  0.00    -0.206 F 
ATOM     71  C   UNL A   1      44.971  26.576  36.863  1.00  0.00     0.059 A 
ATOM     72  C   UNL A   1      46.565  27.919  35.618  1.00  0.00     0.059 A 
ATOM     73  F   UNL A   1      45.797  29.646  34.232  1.00  0.00    -0.206 F 
ATOM     74  C   UNL A   1      46.286  26.895  36.522  1.00  0.00     0.060 A 
BRANCH  74  75
ATOM     75  S   UNL A   1      47.627  25.950  37.275  1.00  0.00     0.124 S 
ATOM     76  O   UNL A   1      48.227  25.314  36.106  1.00  0.00    -0.237 OA
ATOM     77  O   UNL A   1      48.426  26.995  37.908  1.00  0.00    -0.237 OA
ATOM     78  O   UNL A   1      46.937  25.049  38.193  1.00  0.00    -0.744 OA
ENDBRANCH  74  75
ENDBRANCH  53  67
BRANCH  54  79
ATOM     79  C   UNL A   1      36.608  33.117  30.897  1.00  0.00     0.058 A 
ATOM     80  C   UNL A   1      36.783  33.949  29.781  1.00  0.00     0.135 A 
ATOM     81  C   UNL A   1      35.304  32.960  31.392  1.00  0.00     0.135 A 
ATOM     82  F   UNL A   1      38.011  34.146  29.278  1.00  0.00    -0.206 F 
ATOM     83  C   UNL A   1      35.712  34.610  29.188  1.00  0.00     0.059 A 
ATOM     84  C   UNL A   1      34.213  33.586  30.798  1.00  0.00     0.059 A 
ATOM     85  F   UNL A   1      35.078  32.171  32.454  1.00  0.00    -0.206 F 
ATOM     86  C   UNL A   1      34.429  34.417  29.701  1.00  0.00     0.060 A 
BRANCH  86  87
ATOM     87  S   UNL A   1      33.039  35.238  28.889  1.00  0.00     0.124 S 
ATOM     88  O   UNL A   1      32.163  35.520  30.020  1.00  0.00    -0.237 OA
ATOM     89  O   UNL A   1      33.685  36.395  28.277  1.00  0.00    -0.237 OA
ATOM     90  O   UNL A   1      32.554  34.231  27.951  1.00  0.00    -0.744 OA
ENDBRANCH  86  87
ENDBRANCH  54  79
BRANCH  66  91
ATOM     91  C   UNL A   1      39.861  33.897  37.034  1.00  0.00     0.058 A 
ATOM     92  C   UNL A   1      39.103  33.580  38.172  1.00  0.00     0.135 A 
ATOM     93  C   UNL A   1      40.508  35.144  37.007  1.00  0.00     0.135 A 
ATOM     94  F   UNL A   1      38.460  32.404  38.250  1.00  0.00    -0.206 F 
ATOM     95  C   UNL A   1      38.971  34.474  39.230  1.00  0.00     0.059 A 
ATOM     96  C   UNL A   1      40.417  36.040  38.067  1.00  0.00     0.059 A 
ATOM     97  F   UNL A   1      41.257  35.496  35.949  1.00  0.00    -0.206 F 
ATOM     98  C   UNL A   1      39.635  35.702  39.170  1.00  0.00     0.060 A 
BRANCH  98  99
ATOM     99  S   UNL A   1      39.479  36.839  40.564  1.00  0.00     0.124 S 
ATOM    100  O   UNL A   1      38.579  36.103  41.445  1.00  0.00    -0.237 OA
ATOM    101  O   UNL A   1      40.860  36.958  41.023  1.00  0.00    -0.237 OA
ATOM    102  O   UNL A   1      38.920  38.044  39.959  1.00  0.00    -0.744 OA
ENDBRANCH  98  99
ENDBRANCH  66  91
ENDBRANCH  40  41
ENDBRANCH  33  35
ENDBRANCH  32  33
ENDBRANCH  31  32
ENDBRANCH  30  31
ENDBRANCH  29  30
ENDBRANCH  28  29
ENDBRANCH  27  28
ENDBRANCH   1  27
TORSDOF 26
ENDMDL
MODEL 2
REMARK VINA RESULT:      -9.9      1.369      2.205
REMARK SMILES CC(=O)NCCc1c[nH]c2ccc(C(=O)OCCOCCOCCOCCOC(=O)c3ccc(-c4c5nc(c(-c6c(F)cc(S(=O)(=O)[O-])cc6F)c6ccc([nH]6)c(-c6c(F)cc(S(=O)(=O)[O-])cc6F)c6nc(c(-c7c(F)cc(S(=O)(=O)[O-])cc7F)c7ccc4[nH]7)C=C6)C=C5)cc3)cc12
REMARK SMILES IDX 22 1 21 2 20 3 19 4 18 5 17 6 16 7 14 8 15 9 13 10 7 11 8 12
REMARK SMILES IDX 98 13 9 14 10 15 97 16 11 18 12 19 6 20 5 21 4 22 1 23 2 24
REMARK SMILES IDX 3 25 23 27 24 28 25 29 26 30 27 31 28 32 29 33 30 34 31 35
REMARK SMILES IDX 32 36 96 37 33 38 95 39 34 40 35 41 36 42 89 43 37 44 94 45
REMARK SMILES IDX 88 46 90 47 38 48 93 49 87 50 86 51 39 53 73 54 52 55 72 56
REMARK SMILES IDX 53 57 56 58 71 59 91 60 54 61 55 62 70 64 92 65 57 66 40 67
REMARK SMILES IDX 41 68 50 69 42 70 43 71 49 72 51 73 44 74 45 75 46 76 47 77
REMARK SMILES IDX 48 78 74 79 75 80 84 81 76 82 77 83 83 84 85 85 78 86 79 87
REMARK SMILES IDX 80 88 81 89 82 90 58 91 59 92 68 93 60 94 61 95 67 96 69 97
REMARK SMILES IDX 62 98 63 99 64 100 65 101 66 102
REMARK H PARENT 9 17 4 26 90 52 56 63
REMARK Flexibility Score: inf
ROOT
ATOM      1  O   UNL A   1      35.366  24.796  25.654  1.00  0.00    -0.377 OA
ENDROOT
BRANCH   1   2
ATOM      2  C   UNL A   1      34.312  25.552  25.074  1.00  0.00     0.188 C 
BRANCH   2   3
ATOM      3  C   UNL A   1      33.957  26.949  25.630  1.00  0.00     0.188 C 
BRANCH   3   4
ATOM      4  O   UNL A   1      33.681  27.924  24.639  1.00  0.00    -0.376 OA
BRANCH   4   5
ATOM      5  C   UNL A   1      32.935  29.070  25.009  1.00  0.00     0.202 C 
BRANCH   5   6
ATOM      6  C   UNL A   1      31.453  29.137  24.606  1.00  0.00     0.261 C 
BRANCH   6   7
ATOM      7  O   UNL A   1      30.690  27.949  24.854  1.00  0.00    -0.460 OA
BRANCH   7   8
ATOM      8  C   UNL A   1      29.991  27.466  23.807  1.00  0.00     0.338 C 
ATOM      9  O   UNL A   1      28.936  27.893  23.374  1.00  0.00    -0.246 OA
BRANCH   8  10
ATOM     10  C   UNL A   1      30.809  26.444  23.118  1.00  0.00     0.060 A 
ATOM     11  C   UNL A   1      32.164  22.887  23.572  1.00  0.00    -0.021 A 
ATOM     12  C   UNL A   1      33.083  22.460  22.631  1.00  0.00     0.087 A 
ATOM     13  C   UNL A   1      31.786  24.218  23.191  1.00  0.00     0.003 A 
ATOM     14  N   UNL A   1      33.216  23.434  21.677  1.00  0.00    -0.361 N 
ATOM     15  C   UNL A   1      32.422  24.513  21.984  1.00  0.00     0.046 A 
ATOM     16  C   UNL A   1      30.951  25.201  23.754  1.00  0.00     0.026 A 
ATOM     17  H   UNL A   1      33.799  23.371  20.885  1.00  0.00     0.166 HD
ATOM     18  C   UNL A   1      32.219  25.715  21.288  1.00  0.00     0.027 A 
ATOM     19  C   UNL A   1      31.398  26.683  21.878  1.00  0.00     0.018 A 
BRANCH  11  20
ATOM     20  C   UNL A   1      31.648  22.086  24.736  1.00  0.00     0.059 C 
BRANCH  20  21
ATOM     21  C   UNL A   1      32.732  21.417  25.591  1.00  0.00     0.120 C 
BRANCH  21  22
ATOM     22  N   UNL A   1      32.424  20.038  25.931  1.00  0.00    -0.356 N 
ATOM     23  C   UNL A   1      33.454  18.988  23.955  1.00  0.00     0.114 C 
ATOM     24  C   UNL A   1      32.637  18.902  25.211  1.00  0.00     0.216 C 
ATOM     25  O   UNL A   1      32.177  17.832  25.604  1.00  0.00    -0.275 OA
ATOM     26  H   UNL A   1      32.001  19.906  26.812  1.00  0.00     0.163 HD
ENDBRANCH  21  22
ENDBRANCH  20  21
ENDBRANCH  11  20
ENDBRANCH   8  10
ENDBRANCH   7   8
ENDBRANCH   6   7
ENDBRANCH   5   6
ENDBRANCH   4   5
ENDBRANCH   3   4
ENDBRANCH   2   3
ENDBRANCH   1   2
BRANCH   1  27
ATOM     27  C   UNL A   1      35.566  23.440  25.269  1.00  0.00     0.188 C 
BRANCH  27  28
ATOM     28  C   UNL A   1      36.969  22.935  24.860  1.00  0.00     0.188 C 
BRANCH  28  29
ATOM     29  O   UNL A   1      37.561  22.030  25.778  1.00  0.00    -0.376 OA
BRANCH  29  30
ATOM     30  C   UNL A   1      38.976  21.969  25.812  1.00  0.00     0.202 C 
BRANCH  30  31
ATOM     31  C   UNL A   1      39.709  22.966  26.721  1.00  0.00     0.261 C 
BRANCH  31  32
ATOM     32  O   UNL A   1      39.372  24.353  26.554  1.00  0.00    -0.460 OA
BRANCH  32  33
ATOM     33  C   UNL A   1      40.387  25.222  26.366  1.00  0.00     0.338 C 
ATOM     34  O   UNL A   1      41.033  25.389  25.343  1.00  0.00    -0.246 OA
BRANCH  33  35
ATOM     35  C   UNL A   1      40.460  26.084  27.564  1.00  0.00     0.060 A 
ATOM     36  C   UNL A   1      39.474  25.972  28.554  1.00  0.00     0.016 A 
ATOM     37  C   UNL A   1      41.516  26.986  27.715  1.00  0.00     0.016 A 
ATOM     38  C   UNL A   1      39.524  26.789  29.685  1.00  0.00     0.010 A 
ATOM     39  C   UNL A   1      41.552  27.818  28.836  1.00  0.00     0.010 A 
ATOM     40  C   UNL A   1      40.539  27.747  29.810  1.00  0.00    -0.014 A 
BRANCH  40  41
ATOM     41  C   UNL A   1      40.434  28.806  30.841  1.00  0.00     0.031 A 
ATOM     42  C   UNL A   1      41.341  28.721  32.040  1.00  0.00     0.074 A 
ATOM     43  C   UNL A   1      39.565  29.826  30.720  1.00  0.00     0.049 A 
ATOM     44  N   UNL A   1      41.395  29.486  33.098  1.00  0.00    -0.248 NA
ATOM     45  C   UNL A   1      42.316  27.619  32.043  1.00  0.00     0.031 C 
ATOM     46  C   UNL A   1      38.662  30.037  29.589  1.00  0.00     0.029 A 
ATOM     47  N   UNL A   1      39.292  30.870  31.568  1.00  0.00    -0.354 N 
ATOM     48  C   UNL A   1      42.399  28.952  33.897  1.00  0.00     0.074 A 
ATOM     49  C   UNL A   1      42.907  27.781  33.217  1.00  0.00     0.031 C 
ATOM     50  C   UNL A   1      37.924  31.137  29.822  1.00  0.00     0.029 A 
ATOM     51  C   UNL A   1      38.275  31.685  31.132  1.00  0.00     0.049 A 
ATOM     52  H   UNL A   1      39.779  31.021  32.411  1.00  0.00     0.167 HD
ATOM     53  C   UNL A   1      42.863  29.402  35.088  1.00  0.00     0.037 A 
ATOM     54  C   UNL A   1      37.679  32.735  31.734  1.00  0.00     0.037 A 
ATOM     55  C   UNL A   1      42.349  30.566  35.760  1.00  0.00     0.049 A 
ATOM     56  C   UNL A   1      38.164  33.177  33.093  1.00  0.00     0.074 A 
ATOM     57  C   UNL A   1      42.761  31.117  36.959  1.00  0.00     0.029 A 
ATOM     58  N   UNL A   1      41.304  31.353  35.297  1.00  0.00    -0.354 N 
ATOM     59  N   UNL A   1      39.132  32.681  33.828  1.00  0.00    -0.248 NA
ATOM     60  C   UNL A   1      37.478  34.326  33.704  1.00  0.00     0.031 C 
ATOM     61  C   UNL A   1      41.926  32.199  37.253  1.00  0.00     0.029 A 
ATOM     62  C   UNL A   1      41.037  32.367  36.203  1.00  0.00     0.049 A 
ATOM     63  H   UNL A   1      40.822  31.211  34.450  1.00  0.00     0.167 HD
ATOM     64  C   UNL A   1      39.191  33.476  34.970  1.00  0.00     0.074 A 
ATOM     65  C   UNL A   1      38.169  34.490  34.823  1.00  0.00     0.031 C 
ATOM     66  C   UNL A   1      40.020  33.376  36.040  1.00  0.00     0.037 A 
BRANCH  53  67
ATOM     67  C   UNL A   1      43.956  28.612  35.755  1.00  0.00     0.058 A 
ATOM     68  C   UNL A   1      43.678  27.553  36.634  1.00  0.00     0.135 A 
ATOM     69  C   UNL A   1      45.304  28.904  35.489  1.00  0.00     0.135 A 
ATOM     70  F   UNL A   1      42.409  27.244  36.942  1.00  0.00    -0.206 F 
ATOM     71  C   UNL A   1      44.698  26.828  37.244  1.00  0.00     0.059 A 
ATOM     72  C   UNL A   1      46.339  28.172  36.063  1.00  0.00     0.059 A 
ATOM     73  F   UNL A   1      45.627  29.909  34.661  1.00  0.00    -0.206 F 
ATOM     74  C   UNL A   1      46.024  27.144  36.950  1.00  0.00     0.060 A 
BRANCH  74  75
ATOM     75  S   UNL A   1      47.335  26.188  37.743  1.00  0.00     0.124 S 
ATOM     76  O   UNL A   1      46.563  25.245  38.546  1.00  0.00    -0.237 OA
ATOM     77  O   UNL A   1      48.038  25.618  36.598  1.00  0.00    -0.237 OA
ATOM     78  O   UNL A   1      48.080  27.190  38.498  1.00  0.00    -0.744 OA
ENDBRANCH  74  75
ENDBRANCH  53  67
BRANCH  54  79
ATOM     79  C   UNL A   1      36.547  33.433  31.066  1.00  0.00     0.058 A 
ATOM     80  C   UNL A   1      35.243  33.364  31.581  1.00  0.00     0.135 A 
ATOM     81  C   UNL A   1      36.744  34.181  29.895  1.00  0.00     0.135 A 
ATOM     82  F   UNL A   1      34.998  32.649  32.690  1.00  0.00    -0.206 F 
ATOM     83  C   UNL A   1      34.175  33.999  30.954  1.00  0.00     0.059 A 
ATOM     84  C   UNL A   1      35.698  34.850  29.266  1.00  0.00     0.059 A 
ATOM     85  F   UNL A   1      37.971  34.285  29.361  1.00  0.00    -0.206 F 
ATOM     86  C   UNL A   1      34.414  34.744  29.799  1.00  0.00     0.060 A 
BRANCH  86  87
ATOM     87  S   UNL A   1      33.030  35.608  29.023  1.00  0.00     0.124 S 
ATOM     88  O   UNL A   1      32.278  36.062  30.186  1.00  0.00    -0.237 OA
ATOM     89  O   UNL A   1      33.711  36.646  28.256  1.00  0.00    -0.237 OA
ATOM     90  O   UNL A   1      32.390  34.567  28.224  1.00  0.00    -0.744 OA
ENDBRANCH  86  87
ENDBRANCH  54  79
BRANCH  66  91
ATOM     91  C   UNL A   1      39.892  34.416  37.123  1.00  0.00     0.058 A 
ATOM     92  C   UNL A   1      40.537  35.660  37.042  1.00  0.00     0.135 A 
ATOM     93  C   UNL A   1      39.061  34.182  38.233  1.00  0.00     0.135 A 
ATOM     94  F   UNL A   1      41.345  35.936  36.006  1.00  0.00    -0.206 F 
ATOM     95  C   UNL A   1      40.385  36.624  38.035  1.00  0.00     0.059 A 
ATOM     96  C   UNL A   1      38.869  35.144  39.220  1.00  0.00     0.059 A 
ATOM     97  F   UNL A   1      38.409  33.015  38.357  1.00  0.00    -0.206 F 
ATOM     98  C   UNL A   1      39.545  36.358  39.118  1.00  0.00     0.060 A 
BRANCH  98  99
ATOM     99  S   UNL A   1      39.333  37.631  40.382  1.00  0.00     0.124 S 
ATOM    100  O   UNL A   1      40.669  38.214  40.439  1.00  0.00    -0.237 OA
ATOM    101  O   UNL A   1      38.296  38.477  39.800  1.00  0.00    -0.237 OA
ATOM    102  O   UNL A   1      38.928  36.874  41.562  1.00  0.00    -0.744 OA
ENDBRANCH  98  99
ENDBRANCH  66  91
ENDBRANCH  40  41
ENDBRANCH  33  35
ENDBRANCH  32  33
ENDBRANCH  31  32
ENDBRANCH  30  31
ENDBRANCH  29  30
ENDBRANCH  28  29
ENDBRANCH  27  28
ENDBRANCH   1  27
TORSDOF 26
ENDMDL
MODEL 3
REMARK VINA RESULT:      -9.2      6.395     11.410
REMARK SMILES CC(=O)NCCc1c[nH]c2ccc(C(=O)OCCOCCOCCOCCOC(=O)c3ccc(-c4c5nc(c(-c6c(F)cc(S(=O)(=O)[O-])cc6F)c6ccc([nH]6)c(-c6c(F)cc(S(=O)(=O)[O-])cc6F)c6nc(c(-c7c(F)cc(S(=O)(=O)[O-])cc7F)c7ccc4[nH]7)C=C6)C=C5)cc3)cc12
REMARK SMILES IDX 22 1 21 2 20 3 19 4 18 5 17 6 16 7 14 8 15 9 13 10 7 11 8 12
REMARK SMILES IDX 98 13 9 14 10 15 97 16 11 18 12 19 6 20 5 21 4 22 1 23 2 24
REMARK SMILES IDX 3 25 23 27 24 28 25 29 26 30 27 31 28 32 29 33 30 34 31 35
REMARK SMILES IDX 32 36 96 37 33 38 95 39 34 40 35 41 36 42 89 43 37 44 94 45
REMARK SMILES IDX 88 46 90 47 38 48 93 49 87 50 86 51 39 53 73 54 52 55 72 56
REMARK SMILES IDX 53 57 56 58 71 59 91 60 54 61 55 62 70 64 92 65 57 66 40 67
REMARK SMILES IDX 41 68 50 69 42 70 43 71 49 72 51 73 44 74 45 75 46 76 47 77
REMARK SMILES IDX 48 78 74 79 75 80 84 81 76 82 77 83 83 84 85 85 78 86 79 87
REMARK SMILES IDX 80 88 81 89 82 90 58 91 59 92 68 93 60 94 61 95 67 96 69 97
REMARK SMILES IDX 62 98 63 99 64 100 65 101 66 102
REMARK H PARENT 9 17 4 26 90 52 56 63
REMARK Flexibility Score: inf
ROOT
ATOM      1  O   UNL A   1      35.472  33.303  27.710  1.00  0.00    -0.377 OA
ENDROOT
BRANCH   1   2
ATOM      2  C   UNL A   1      35.668  31.933  28.034  1.00  0.00     0.188 C 
BRANCH   2   3
ATOM      3  C   UNL A   1      34.616  30.877  27.627  1.00  0.00     0.188 C 
BRANCH   3   4
ATOM      4  O   UNL A   1      33.418  31.415  27.095  1.00  0.00    -0.376 OA
BRANCH   4   5
ATOM      5  C   UNL A   1      32.329  30.539  26.865  1.00  0.00     0.202 C 
BRANCH   5   6
ATOM      6  C   UNL A   1      32.477  29.460  25.780  1.00  0.00     0.261 C 
BRANCH   6   7
ATOM      7  O   UNL A   1      31.361  28.572  25.633  1.00  0.00    -0.460 OA
BRANCH   7   8
ATOM      8  C   UNL A   1      31.397  27.448  26.376  1.00  0.00     0.338 C 
ATOM      9  O   UNL A   1      31.387  27.376  27.592  1.00  0.00    -0.246 OA
BRANCH   8  10
ATOM     10  C   UNL A   1      31.242  26.280  25.482  1.00  0.00     0.060 A 
ATOM     11  C   UNL A   1      32.672  22.780  24.854  1.00  0.00    -0.021 A 
ATOM     12  C   UNL A   1      32.253  22.148  23.698  1.00  0.00     0.087 A 
ATOM     13  C   UNL A   1      31.999  24.046  24.889  1.00  0.00     0.003 A 
ATOM     14  N   UNL A   1      31.316  22.937  23.084  1.00  0.00    -0.361 N 
ATOM     15  C   UNL A   1      31.128  24.097  23.799  1.00  0.00     0.046 A 
ATOM     16  C   UNL A   1      32.038  25.156  25.752  1.00  0.00     0.026 A 
ATOM     17  H   UNL A   1      30.846  22.709  22.249  1.00  0.00     0.166 HD
ATOM     18  C   UNL A   1      30.258  25.172  23.566  1.00  0.00     0.027 A 
ATOM     19  C   UNL A   1      30.329  26.272  24.429  1.00  0.00     0.018 A 
BRANCH  11  20
ATOM     20  C   UNL A   1      33.620  22.218  25.877  1.00  0.00     0.059 C 
BRANCH  20  21
ATOM     21  C   UNL A   1      34.892  23.045  26.105  1.00  0.00     0.120 C 
BRANCH  21  22
ATOM     22  N   UNL A   1      36.102  22.239  26.142  1.00  0.00    -0.356 N 
ATOM     23  C   UNL A   1      36.946  22.835  23.906  1.00  0.00     0.114 C 
ATOM     24  C   UNL A   1      37.027  22.024  25.166  1.00  0.00     0.216 C 
ATOM     25  O   UNL A   1      37.915  21.191  25.336  1.00  0.00    -0.275 OA
ATOM     26  H   UNL A   1      36.277  21.782  26.997  1.00  0.00     0.163 HD
ENDBRANCH  21  22
ENDBRANCH  20  21
ENDBRANCH  11  20
ENDBRANCH   8  10
ENDBRANCH   7   8
ENDBRANCH   6   7
ENDBRANCH   5   6
ENDBRANCH   4   5
ENDBRANCH   3   4
ENDBRANCH   2   3
ENDBRANCH   1   2
BRANCH   1  27
ATOM     27  C   UNL A   1      34.701  34.135  28.570  1.00  0.00     0.188 C 
BRANCH  27  28
ATOM     28  C   UNL A   1      34.995  34.191  30.087  1.00  0.00     0.188 C 
BRANCH  28  29
ATOM     29  O   UNL A   1      36.017  33.308  30.522  1.00  0.00    -0.376 OA
BRANCH  29  30
ATOM     30  C   UNL A   1      35.767  32.550  31.692  1.00  0.00     0.202 C 
BRANCH  30  31
ATOM     31  C   UNL A   1      36.965  31.866  32.365  1.00  0.00     0.261 C 
BRANCH  31  32
ATOM     32  O   UNL A   1      36.927  30.432  32.437  1.00  0.00    -0.460 OA
BRANCH  32  33
ATOM     33  C   UNL A   1      36.893  29.751  31.272  1.00  0.00     0.338 C 
ATOM     34  O   UNL A   1      35.903  29.335  30.690  1.00  0.00    -0.246 OA
BRANCH  33  35
ATOM     35  C   UNL A   1      38.262  29.757  30.716  1.00  0.00     0.060 A 
ATOM     36  C   UNL A   1      38.450  30.018  29.352  1.00  0.00     0.016 A 
ATOM     37  C   UNL A   1      39.358  29.526  31.550  1.00  0.00     0.016 A 
ATOM     38  C   UNL A   1      39.737  30.015  28.811  1.00  0.00     0.010 A 
ATOM     39  C   UNL A   1      40.643  29.501  31.003  1.00  0.00     0.010 A 
ATOM     40  C   UNL A   1      40.836  29.711  29.626  1.00  0.00    -0.014 A 
BRANCH  40  41
ATOM     41  C   UNL A   1      42.152  29.414  29.012  1.00  0.00     0.031 A 
ATOM     42  C   UNL A   1      42.418  28.006  28.552  1.00  0.00     0.074 A 
ATOM     43  C   UNL A   1      43.088  30.368  28.855  1.00  0.00     0.049 A 
ATOM     44  N   UNL A   1      43.505  27.487  28.045  1.00  0.00    -0.248 NA
ATOM     45  C   UNL A   1      41.304  27.054  28.687  1.00  0.00     0.031 C 
ATOM     46  C   UNL A   1      42.934  31.773  29.226  1.00  0.00     0.029 A 
ATOM     47  N   UNL A   1      44.363  30.289  28.352  1.00  0.00    -0.354 N 
ATOM     48  C   UNL A   1      43.211  26.149  27.813  1.00  0.00     0.074 A 
ATOM     49  C   UNL A   1      41.855  25.927  28.261  1.00  0.00     0.031 C 
ATOM     50  C   UNL A   1      44.079  32.423  28.950  1.00  0.00     0.029 A 
ATOM     51  C   UNL A   1      45.057  31.474  28.419  1.00  0.00     0.049 A 
ATOM     52  H   UNL A   1      44.745  29.462  27.978  1.00  0.00     0.167 HD
ATOM     53  C   UNL A   1      43.999  25.192  27.266  1.00  0.00     0.037 A 
ATOM     54  C   UNL A   1      46.340  31.752  28.112  1.00  0.00     0.037 A 
ATOM     55  C   UNL A   1      45.350  25.421  26.825  1.00  0.00     0.049 A 
ATOM     56  C   UNL A   1      47.223  30.654  27.570  1.00  0.00     0.074 A 
ATOM     57  C   UNL A   1      46.226  24.525  26.241  1.00  0.00     0.029 A 
ATOM     58  N   UNL A   1      46.025  26.629  26.930  1.00  0.00    -0.354 N 
ATOM     59  N   UNL A   1      46.927  29.398  27.329  1.00  0.00    -0.248 NA
ATOM     60  C   UNL A   1      48.614  31.012  27.253  1.00  0.00     0.031 C 
ATOM     61  C   UNL A   1      47.450  25.172  26.049  1.00  0.00     0.029 A 
ATOM     62  C   UNL A   1      47.317  26.492  26.449  1.00  0.00     0.049 A 
ATOM     63  H   UNL A   1      45.643  27.460  27.293  1.00  0.00     0.167 HD
ATOM     64  C   UNL A   1      48.082  28.826  26.804  1.00  0.00     0.074 A 
ATOM     65  C   UNL A   1      49.078  29.875  26.753  1.00  0.00     0.031 C 
ATOM     66  C   UNL A   1      48.297  27.549  26.397  1.00  0.00     0.037 A 
BRANCH  53  67
ATOM     67  C   UNL A   1      43.431  23.804  27.147  1.00  0.00     0.058 A 
ATOM     68  C   UNL A   1      43.271  22.968  28.264  1.00  0.00     0.135 A 
ATOM     69  C   UNL A   1      43.016  23.314  25.898  1.00  0.00     0.135 A 
ATOM     70  F   UNL A   1      43.671  23.376  29.478  1.00  0.00    -0.206 F 
ATOM     71  C   UNL A   1      42.743  21.686  28.142  1.00  0.00     0.059 A 
ATOM     72  C   UNL A   1      42.455  22.048  25.759  1.00  0.00     0.059 A 
ATOM     73  F   UNL A   1      43.150  24.068  24.797  1.00  0.00    -0.206 F 
ATOM     74  C   UNL A   1      42.335  21.236  26.886  1.00  0.00     0.060 A 
BRANCH  74  75
ATOM     75  S   UNL A   1      41.643  19.574  26.747  1.00  0.00     0.124 S 
ATOM     76  O   UNL A   1      40.251  19.807  27.118  1.00  0.00    -0.237 OA
ATOM     77  O   UNL A   1      41.881  19.256  25.343  1.00  0.00    -0.237 OA
ATOM     78  O   UNL A   1      42.424  18.797  27.705  1.00  0.00    -0.744 OA
ENDBRANCH  74  75
ENDBRANCH  53  67
BRANCH  54  79
ATOM     79  C   UNL A   1      46.878  33.124  28.324  1.00  0.00     0.058 A 
ATOM     80  C   UNL A   1      46.817  34.094  27.311  1.00  0.00     0.135 A 
ATOM     81  C   UNL A   1      47.468  33.493  29.543  1.00  0.00     0.135 A 
ATOM     82  F   UNL A   1      46.278  33.789  26.122  1.00  0.00    -0.206 F 
ATOM     83  C   UNL A   1      47.333  35.374  27.494  1.00  0.00     0.059 A 
ATOM     84  C   UNL A   1      47.963  34.775  29.761  1.00  0.00     0.059 A 
ATOM     85  F   UNL A   1      47.547  32.606  30.547  1.00  0.00    -0.206 F 
ATOM     86  C   UNL A   1      47.899  35.706  28.726  1.00  0.00     0.060 A 
BRANCH  86  87
ATOM     87  S   UNL A   1      48.518  37.386  28.970  1.00  0.00     0.124 S 
ATOM     88  O   UNL A   1      49.531  37.180  29.998  1.00  0.00    -0.237 OA
ATOM     89  O   UNL A   1      49.015  37.723  27.640  1.00  0.00    -0.237 OA
ATOM     90  O   UNL A   1      47.330  38.123  29.392  1.00  0.00    -0.744 OA
ENDBRANCH  86  87
ENDBRANCH  54  79
BRANCH  66  91
ATOM     91  C   UNL A   1      49.649  27.218  25.817  1.00  0.00     0.058 A 
ATOM     92  C   UNL A   1      49.933  27.377  24.452  1.00  0.00     0.135 A 
ATOM     93  C   UNL A   1      50.692  26.788  26.656  1.00  0.00     0.135 A 
ATOM     94  F   UNL A   1      48.973  27.781  23.604  1.00  0.00    -0.206 F 
ATOM     95  C   UNL A   1      51.194  27.097  23.934  1.00  0.00     0.059 A 
ATOM     96  C   UNL A   1      51.969  26.535  26.165  1.00  0.00     0.059 A 
ATOM     97  F   UNL A   1      50.481  26.631  27.972  1.00  0.00    -0.206 F 
ATOM     98  C   UNL A   1      52.207  26.680  24.801  1.00  0.00     0.060 A 
BRANCH  98  99
ATOM     99  S   UNL A   1      53.847  26.351  24.119  1.00  0.00     0.124 S 
ATOM    100  O   UNL A   1      54.465  25.584  25.195  1.00  0.00    -0.237 OA
ATOM    101  O   UNL A   1      53.534  25.603  22.905  1.00  0.00    -0.237 OA
ATOM    102  O   UNL A   1      54.399  27.684  23.902  1.00  0.00    -0.744 OA
ENDBRANCH  98  99
ENDBRANCH  66  91
ENDBRANCH  40  41
ENDBRANCH  33  35
ENDBRANCH  32  33
ENDBRANCH  31  32
ENDBRANCH  30  31
ENDBRANCH  29  30
ENDBRANCH  28  29
ENDBRANCH  27  28
ENDBRANCH   1  27
TORSDOF 26
ENDMDL
