MODEL 1
REMARK VINA RESULT:      -9.4      0.000      0.000
REMARK SMILES CN(C(=O)CC(=O)OCCOCCOCCOCCOC(=O)c1ccc(-c2c3nc(c(-c4c(F)cc(S(=O)(=O)[O-])cc4F)c4ccc([nH]4)c(-c4c(F)cc(S(=O)(=O)[O-])cc4F)c4nc(c(-c5c(F)cc(S(=O)(=O)[O-])cc5F)c5ccc2[nH]5)C=C4)C=C3)cc1)C1CCC(C)(C)CC1
REMARK SMILES IDX 14 1 13 2 12 3 11 4 10 5 9 6 8 7 6 8 7 9 5 10 3 11 4 12 2 13
REMARK SMILES IDX 1 14 89 15 90 16 96 17 91 18 95 19 92 20 93 21 94 22 15 23
REMARK SMILES IDX 16 24 17 25 18 26 19 27 20 28 21 29 22 30 23 31 24 32 88 33
REMARK SMILES IDX 25 34 87 35 26 36 27 37 28 38 81 39 29 40 86 41 80 42 82 43
REMARK SMILES IDX 30 44 85 45 79 46 78 47 31 49 65 50 44 51 64 52 45 53 48 54
REMARK SMILES IDX 63 55 83 56 46 57 47 58 62 60 84 61 49 62 32 63 33 64 42 65
REMARK SMILES IDX 34 66 35 67 41 68 43 69 36 70 37 71 38 72 39 73 40 74 66 75
REMARK SMILES IDX 67 76 76 77 68 78 69 79 75 80 77 81 70 82 71 83 72 84 73 85
REMARK SMILES IDX 74 86 50 87 51 88 60 89 52 90 53 91 59 92 61 93 54 94 55 95
REMARK SMILES IDX 56 96 57 97 58 98
REMARK H PARENT 82 48 48 59
REMARK Flexibility Score: inf
ROOT
ATOM      1  O   UNL A   1      41.784  21.698  27.292  1.00  0.00    -0.377 OA
ENDROOT
BRANCH   1   2
ATOM      2  C   UNL A   1      40.380  21.581  27.408  1.00  0.00     0.188 C 
BRANCH   2   3
ATOM      3  C   UNL A   1      39.611  21.467  26.075  1.00  0.00     0.188 C 
BRANCH   3   4
ATOM      4  O   UNL A   1      38.682  22.455  25.650  1.00  0.00    -0.376 OA
BRANCH   4   5
ATOM      5  C   UNL A   1      37.301  22.256  25.898  1.00  0.00     0.202 C 
BRANCH   5   6
ATOM      6  C   UNL A   1      36.286  22.897  24.930  1.00  0.00     0.261 C 
BRANCH   6   7
ATOM      7  O   UNL A   1      34.883  22.728  25.242  1.00  0.00    -0.463 OA
BRANCH   7   8
ATOM      8  C   UNL A   1      34.184  21.857  24.478  1.00  0.00     0.315 C 
ATOM      9  O   UNL A   1      34.259  20.635  24.594  1.00  0.00    -0.252 OA
BRANCH   8  10
ATOM     10  C   UNL A   1      33.328  22.471  23.400  1.00  0.00     0.222 C 
BRANCH  10  11
ATOM     11  C   UNL A   1      33.259  23.978  23.210  1.00  0.00     0.233 C 
ATOM     12  O   UNL A   1      34.116  24.527  22.510  1.00  0.00    -0.274 OA
BRANCH  11  13
ATOM     13  N   UNL A   1      32.170  24.708  23.739  1.00  0.00    -0.342 N 
ATOM     14  C   UNL A   1      31.057  25.155  22.912  1.00  0.00     0.147 C 
BRANCH  13  15
ATOM     15  C   UNL A   1      32.133  24.977  25.219  1.00  0.00     0.084 C 
ATOM     16  C   UNL A   1      33.321  25.787  25.770  1.00  0.00     0.025 C 
ATOM     17  C   UNL A   1      30.820  25.555  25.764  1.00  0.00     0.025 C 
ATOM     18  C   UNL A   1      33.211  27.311  25.648  1.00  0.00     0.008 C 
ATOM     19  C   UNL A   1      30.670  27.069  25.627  1.00  0.00     0.008 C 
ATOM     20  C   UNL A   1      31.864  27.921  26.086  1.00  0.00    -0.035 C 
ATOM     21  C   UNL A   1      31.723  29.322  25.445  1.00  0.00     0.011 C 
ATOM     22  C   UNL A   1      31.812  28.104  27.614  1.00  0.00     0.011 C 
ENDBRANCH  13  15
ENDBRANCH  11  13
ENDBRANCH  10  11
ENDBRANCH   8  10
ENDBRANCH   7   8
ENDBRANCH   6   7
ENDBRANCH   5   6
ENDBRANCH   4   5
ENDBRANCH   3   4
ENDBRANCH   2   3
ENDBRANCH   1   2
BRANCH   1  23
ATOM     23  C   UNL A   1      42.364  20.905  26.271  1.00  0.00     0.188 C 
BRANCH  23  24
ATOM     24  C   UNL A   1      43.767  21.363  25.840  1.00  0.00     0.188 C 
BRANCH  24  25
ATOM     25  O   UNL A   1      43.788  22.027  24.577  1.00  0.00    -0.376 OA
BRANCH  25  26
ATOM     26  C   UNL A   1      43.395  23.394  24.559  1.00  0.00     0.202 C 
BRANCH  26  27
ATOM     27  C   UNL A   1      43.575  24.121  25.893  1.00  0.00     0.261 C 
BRANCH  27  28
ATOM     28  O   UNL A   1      43.434  25.543  25.854  1.00  0.00    -0.460 OA
BRANCH  28  29
ATOM     29  C   UNL A   1      42.187  26.012  26.046  1.00  0.00     0.338 C 
ATOM     30  O   UNL A   1      41.213  25.804  25.336  1.00  0.00    -0.246 OA
BRANCH  29  31
ATOM     31  C   UNL A   1      42.135  26.610  27.389  1.00  0.00     0.060 A 
ATOM     32  C   UNL A   1      41.063  26.249  28.211  1.00  0.00     0.016 A 
ATOM     33  C   UNL A   1      43.126  27.488  27.846  1.00  0.00     0.016 A 
ATOM     34  C   UNL A   1      40.938  26.816  29.471  1.00  0.00     0.010 A 
ATOM     35  C   UNL A   1      42.985  28.079  29.106  1.00  0.00     0.010 A 
ATOM     36  C   UNL A   1      41.858  27.785  29.892  1.00  0.00    -0.014 A 
BRANCH  36  37
ATOM     37  C   UNL A   1      41.438  28.675  30.997  1.00  0.00     0.031 A 
ATOM     38  C   UNL A   1      42.291  28.685  32.239  1.00  0.00     0.074 A 
ATOM     39  C   UNL A   1      40.430  29.551  30.842  1.00  0.00     0.049 A 
ATOM     40  N   UNL A   1      42.225  29.459  33.287  1.00  0.00    -0.248 NA
ATOM     41  C   UNL A   1      43.378  27.690  32.296  1.00  0.00     0.031 C 
ATOM     42  C   UNL A   1      39.580  29.659  29.657  1.00  0.00     0.029 A 
ATOM     43  N   UNL A   1      39.970  30.533  31.680  1.00  0.00    -0.354 N 
ATOM     44  C   UNL A   1      43.262  29.052  34.120  1.00  0.00     0.074 A 
ATOM     45  C   UNL A   1      43.915  27.935  33.480  1.00  0.00     0.031 C 
ATOM     46  C   UNL A   1      38.701  30.660  29.843  1.00  0.00     0.029 A 
ATOM     47  C   UNL A   1      38.916  31.249  31.164  1.00  0.00     0.049 A 
ATOM     48  H   UNL A   1      40.357  30.708  32.568  1.00  0.00     0.167 HD
ATOM     49  C   UNL A   1      43.645  29.575  35.308  1.00  0.00     0.037 A 
ATOM     50  C   UNL A   1      38.209  32.261  31.706  1.00  0.00     0.037 A 
ATOM     51  C   UNL A   1      42.981  30.683  35.937  1.00  0.00     0.049 A 
ATOM     52  C   UNL A   1      38.611  32.782  33.063  1.00  0.00     0.074 A 
ATOM     53  C   UNL A   1      43.276  31.293  37.143  1.00  0.00     0.029 A 
ATOM     54  N   UNL A   1      41.881  31.346  35.409  1.00  0.00    -0.354 N 
ATOM     55  N   UNL A   1      39.602  32.398  33.836  1.00  0.00    -0.248 NA
ATOM     56  C   UNL A   1      37.812  33.882  33.615  1.00  0.00     0.031 C 
ATOM     57  C   UNL A   1      42.318  32.286  37.372  1.00  0.00     0.029 A 
ATOM     58  C   UNL A   1      41.470  32.342  36.276  1.00  0.00     0.049 A 
ATOM     59  H   UNL A   1      41.457  31.137  34.546  1.00  0.00     0.167 HD
ATOM     60  C   UNL A   1      39.564  33.231  34.949  1.00  0.00     0.074 A 
ATOM     61  C   UNL A   1      38.459  34.147  34.742  1.00  0.00     0.031 C 
ATOM     62  C   UNL A   1      40.370  33.246  36.041  1.00  0.00     0.037 A 
BRANCH  49  63
ATOM     63  C   UNL A   1      44.805  28.926  36.012  1.00  0.00     0.058 A 
ATOM     64  C   UNL A   1      46.128  29.366  35.833  1.00  0.00     0.135 A 
ATOM     65  C   UNL A   1      44.589  27.851  36.889  1.00  0.00     0.135 A 
ATOM     66  F   UNL A   1      46.398  30.371  34.984  1.00  0.00    -0.206 F 
ATOM     67  C   UNL A   1      47.194  28.749  36.480  1.00  0.00     0.059 A 
ATOM     68  C   UNL A   1      45.636  27.239  37.569  1.00  0.00     0.059 A 
ATOM     69  F   UNL A   1      43.347  27.382  37.088  1.00  0.00    -0.206 F 
ATOM     70  C   UNL A   1      46.938  27.686  37.348  1.00  0.00     0.060 A 
BRANCH  70  71
ATOM     71  S   UNL A   1      48.331  26.902  38.187  1.00  0.00     0.124 S 
ATOM     72  O   UNL A   1      48.254  25.540  37.668  1.00  0.00    -0.237 OA
ATOM     73  O   UNL A   1      49.462  27.696  37.718  1.00  0.00    -0.237 OA
ATOM     74  O   UNL A   1      48.005  27.054  39.602  1.00  0.00    -0.744 OA
ENDBRANCH  70  71
ENDBRANCH  49  63
BRANCH  50  75
ATOM     75  C   UNL A   1      37.052  32.841  30.970  1.00  0.00     0.058 A 
ATOM     76  C   UNL A   1      35.744  32.379  31.175  1.00  0.00     0.135 A 
ATOM     77  C   UNL A   1      37.238  33.873  30.037  1.00  0.00     0.135 A 
ATOM     78  F   UNL A   1      35.511  31.387  32.049  1.00  0.00    -0.206 F 
ATOM     79  C   UNL A   1      34.664  32.907  30.472  1.00  0.00     0.059 A 
ATOM     80  C   UNL A   1      36.172  34.437  29.342  1.00  0.00     0.059 A 
ATOM     81  F   UNL A   1      38.468  34.358  29.807  1.00  0.00    -0.206 F 
ATOM     82  C   UNL A   1      34.888  33.939  29.560  1.00  0.00     0.060 A 
BRANCH  82  83
ATOM     83  S   UNL A   1      33.476  34.645  28.683  1.00  0.00     0.124 S 
ATOM     84  O   UNL A   1      32.596  35.011  29.788  1.00  0.00    -0.237 OA
ATOM     85  O   UNL A   1      34.090  35.755  27.960  1.00  0.00    -0.237 OA
ATOM     86  O   UNL A   1      33.013  33.542  27.847  1.00  0.00    -0.744 OA
ENDBRANCH  82  83
ENDBRANCH  50  75
BRANCH  62  87
ATOM     87  C   UNL A   1      40.121  34.314  37.072  1.00  0.00     0.058 A 
ATOM     88  C   UNL A   1      40.722  35.579  36.994  1.00  0.00     0.135 A 
ATOM     89  C   UNL A   1      39.226  34.077  38.129  1.00  0.00     0.135 A 
ATOM     90  F   UNL A   1      41.585  35.858  36.004  1.00  0.00    -0.206 F 
ATOM     91  C   UNL A   1      40.475  36.560  37.948  1.00  0.00     0.059 A 
ATOM     92  C   UNL A   1      38.938  35.055  39.075  1.00  0.00     0.059 A 
ATOM     93  F   UNL A   1      38.610  32.890  38.241  1.00  0.00    -0.206 F 
ATOM     94  C   UNL A   1      39.581  36.288  38.985  1.00  0.00     0.060 A 
BRANCH  94  95
ATOM     95  S   UNL A   1      39.258  37.574  40.210  1.00  0.00     0.124 S 
ATOM     96  O   UNL A   1      38.204  38.343  39.556  1.00  0.00    -0.237 OA
ATOM     97  O   UNL A   1      38.848  36.798  41.376  1.00  0.00    -0.237 OA
ATOM     98  O   UNL A   1      40.544  38.253  40.337  1.00  0.00    -0.744 OA
ENDBRANCH  94  95
ENDBRANCH  62  87
ENDBRANCH  36  37
ENDBRANCH  29  31
ENDBRANCH  28  29
ENDBRANCH  27  28
ENDBRANCH  26  27
ENDBRANCH  25  26
ENDBRANCH  24  25
ENDBRANCH  23  24
ENDBRANCH   1  23
TORSDOF 26
ENDMDL
MODEL 2
REMARK VINA RESULT:      -9.2      1.137      2.532
REMARK SMILES CN(C(=O)CC(=O)OCCOCCOCCOCCOC(=O)c1ccc(-c2c3nc(c(-c4c(F)cc(S(=O)(=O)[O-])cc4F)c4ccc([nH]4)c(-c4c(F)cc(S(=O)(=O)[O-])cc4F)c4nc(c(-c5c(F)cc(S(=O)(=O)[O-])cc5F)c5ccc2[nH]5)C=C4)C=C3)cc1)C1CCC(C)(C)CC1
REMARK SMILES IDX 14 1 13 2 12 3 11 4 10 5 9 6 8 7 6 8 7 9 5 10 3 11 4 12 2 13
REMARK SMILES IDX 1 14 89 15 90 16 96 17 91 18 95 19 92 20 93 21 94 22 15 23
REMARK SMILES IDX 16 24 17 25 18 26 19 27 20 28 21 29 22 30 23 31 24 32 88 33
REMARK SMILES IDX 25 34 87 35 26 36 27 37 28 38 81 39 29 40 86 41 80 42 82 43
REMARK SMILES IDX 30 44 85 45 79 46 78 47 31 49 65 50 44 51 64 52 45 53 48 54
REMARK SMILES IDX 63 55 83 56 46 57 47 58 62 60 84 61 49 62 32 63 33 64 42 65
REMARK SMILES IDX 34 66 35 67 41 68 43 69 36 70 37 71 38 72 39 73 40 74 66 75
REMARK SMILES IDX 67 76 76 77 68 78 69 79 75 80 77 81 70 82 71 83 72 84 73 85
REMARK SMILES IDX 74 86 50 87 51 88 60 89 52 90 53 91 59 92 61 93 54 94 55 95
REMARK SMILES IDX 56 96 57 97 58 98
REMARK H PARENT 82 48 48 59
REMARK Flexibility Score: inf
ROOT
ATOM      1  O   UNL A   1      44.189  19.729  24.350  1.00  0.00    -0.377 OA
ENDROOT
BRANCH   1   2
ATOM      2  C   UNL A   1      43.528  18.729  25.099  1.00  0.00     0.188 C 
BRANCH   2   3
ATOM      3  C   UNL A   1      43.090  19.145  26.520  1.00  0.00     0.188 C 
BRANCH   3   4
ATOM      4  O   UNL A   1      42.312  20.309  26.762  1.00  0.00    -0.376 OA
BRANCH   4   5
ATOM      5  C   UNL A   1      40.989  20.372  26.256  1.00  0.00     0.202 C 
BRANCH   5   6
ATOM      6  C   UNL A   1      40.045  21.453  26.818  1.00  0.00     0.261 C 
BRANCH   6   7
ATOM      7  O   UNL A   1      39.172  22.119  25.875  1.00  0.00    -0.463 OA
BRANCH   7   8
ATOM      8  C   UNL A   1      38.733  23.354  26.210  1.00  0.00     0.315 C 
ATOM      9  O   UNL A   1      39.479  24.289  26.496  1.00  0.00    -0.252 OA
BRANCH   8  10
ATOM     10  C   UNL A   1      37.236  23.522  26.279  1.00  0.00     0.222 C 
BRANCH  10  11
ATOM     11  C   UNL A   1      36.368  23.373  25.040  1.00  0.00     0.233 C 
ATOM     12  O   UNL A   1      36.911  23.373  23.932  1.00  0.00    -0.274 OA
BRANCH  11  13
ATOM     13  N   UNL A   1      34.981  23.131  25.174  1.00  0.00    -0.342 N 
ATOM     14  C   UNL A   1      34.363  21.883  24.747  1.00  0.00     0.147 C 
BRANCH  13  15
ATOM     15  C   UNL A   1      34.127  24.177  25.838  1.00  0.00     0.084 C 
ATOM     16  C   UNL A   1      34.318  25.612  25.314  1.00  0.00     0.025 C 
ATOM     17  C   UNL A   1      32.628  23.860  25.933  1.00  0.00     0.025 C 
ATOM     18  C   UNL A   1      33.522  25.982  24.059  1.00  0.00     0.008 C 
ATOM     19  C   UNL A   1      31.815  24.190  24.682  1.00  0.00     0.008 C 
ATOM     20  C   UNL A   1      32.032  25.583  24.070  1.00  0.00    -0.035 C 
ATOM     21  C   UNL A   1      31.518  25.548  22.612  1.00  0.00     0.011 C 
ATOM     22  C   UNL A   1      31.189  26.622  24.833  1.00  0.00     0.011 C 
ENDBRANCH  13  15
ENDBRANCH  11  13
ENDBRANCH  10  11
ENDBRANCH   8  10
ENDBRANCH   7   8
ENDBRANCH   6   7
ENDBRANCH   5   6
ENDBRANCH   4   5
ENDBRANCH   3   4
ENDBRANCH   2   3
ENDBRANCH   1   2
BRANCH   1  23
ATOM     23  C   UNL A   1      45.419  20.168  24.900  1.00  0.00     0.188 C 
BRANCH  23  24
ATOM     24  C   UNL A   1      45.418  21.637  25.349  1.00  0.00     0.188 C 
BRANCH  24  25
ATOM     25  O   UNL A   1      45.017  22.548  24.326  1.00  0.00    -0.376 OA
BRANCH  25  26
ATOM     26  C   UNL A   1      43.671  23.008  24.362  1.00  0.00     0.202 C 
BRANCH  26  27
ATOM     27  C   UNL A   1      43.492  24.387  25.002  1.00  0.00     0.261 C 
BRANCH  27  28
ATOM     28  O   UNL A   1      43.179  24.392  26.396  1.00  0.00    -0.460 OA
BRANCH  28  29
ATOM     29  C   UNL A   1      44.008  25.108  27.178  1.00  0.00     0.338 C 
ATOM     30  O   UNL A   1      45.227  25.158  27.096  1.00  0.00    -0.246 OA
BRANCH  29  31
ATOM     31  C   UNL A   1      43.183  26.019  27.989  1.00  0.00     0.060 A 
ATOM     32  C   UNL A   1      43.584  27.357  28.058  1.00  0.00     0.016 A 
ATOM     33  C   UNL A   1      42.028  25.581  28.648  1.00  0.00     0.016 A 
ATOM     34  C   UNL A   1      42.871  28.252  28.842  1.00  0.00     0.010 A 
ATOM     35  C   UNL A   1      41.325  26.477  29.460  1.00  0.00     0.010 A 
ATOM     36  C   UNL A   1      41.784  27.798  29.601  1.00  0.00    -0.014 A 
BRANCH  36  37
ATOM     37  C   UNL A   1      41.363  28.641  30.743  1.00  0.00     0.031 A 
ATOM     38  C   UNL A   1      42.205  28.583  31.991  1.00  0.00     0.074 A 
ATOM     39  C   UNL A   1      40.367  29.534  30.619  1.00  0.00     0.049 A 
ATOM     40  N   UNL A   1      42.137  29.309  33.073  1.00  0.00    -0.248 NA
ATOM     41  C   UNL A   1      43.281  27.575  32.012  1.00  0.00     0.031 C 
ATOM     42  C   UNL A   1      39.529  29.706  29.433  1.00  0.00     0.029 A 
ATOM     43  N   UNL A   1      39.909  30.481  31.497  1.00  0.00    -0.354 N 
ATOM     44  C   UNL A   1      43.161  28.852  33.896  1.00  0.00     0.074 A 
ATOM     45  C   UNL A   1      43.809  27.759  33.210  1.00  0.00     0.031 C 
ATOM     46  C   UNL A   1      38.660  30.708  29.657  1.00  0.00     0.029 A 
ATOM     47  C   UNL A   1      38.868  31.232  31.006  1.00  0.00     0.049 A 
ATOM     48  H   UNL A   1      40.290  30.611  32.396  1.00  0.00     0.167 HD
ATOM     49  C   UNL A   1      43.539  29.314  35.110  1.00  0.00     0.037 A 
ATOM     50  C   UNL A   1      38.167  32.225  31.588  1.00  0.00     0.037 A 
ATOM     51  C   UNL A   1      42.881  30.400  35.783  1.00  0.00     0.049 A 
ATOM     52  C   UNL A   1      38.562  32.678  32.971  1.00  0.00     0.074 A 
ATOM     53  C   UNL A   1      43.171  30.949  37.019  1.00  0.00     0.029 A 
ATOM     54  N   UNL A   1      41.794  31.099  35.278  1.00  0.00    -0.354 N 
ATOM     55  N   UNL A   1      39.541  32.248  33.735  1.00  0.00    -0.248 NA
ATOM     56  C   UNL A   1      37.769  33.761  33.567  1.00  0.00     0.031 C 
ATOM     57  C   UNL A   1      42.222  31.941  37.286  1.00  0.00     0.029 A 
ATOM     58  C   UNL A   1      41.385  32.058  36.186  1.00  0.00     0.049 A 
ATOM     59  H   UNL A   1      41.376  30.935  34.402  1.00  0.00     0.167 HD
ATOM     60  C   UNL A   1      39.502  33.029  34.885  1.00  0.00     0.074 A 
ATOM     61  C   UNL A   1      38.409  33.965  34.711  1.00  0.00     0.031 C 
ATOM     62  C   UNL A   1      40.297  32.984  35.984  1.00  0.00     0.037 A 
BRANCH  49  63
ATOM     63  C   UNL A   1      44.686  28.621  35.793  1.00  0.00     0.058 A 
ATOM     64  C   UNL A   1      44.490  27.534  36.662  1.00  0.00     0.135 A 
ATOM     65  C   UNL A   1      46.006  29.044  35.565  1.00  0.00     0.135 A 
ATOM     66  F   UNL A   1      43.249  27.105  36.940  1.00  0.00    -0.206 F 
ATOM     67  C   UNL A   1      45.559  26.908  37.297  1.00  0.00     0.059 A 
ATOM     68  C   UNL A   1      47.090  28.414  36.166  1.00  0.00     0.059 A 
ATOM     69  F   UNL A   1      46.249  30.085  34.753  1.00  0.00    -0.206 F 
ATOM     70  C   UNL A   1      46.856  27.355  37.041  1.00  0.00     0.060 A 
BRANCH  70  71
ATOM     71  S   UNL A   1      48.232  26.527  37.866  1.00  0.00     0.124 S 
ATOM     72  O   UNL A   1      49.349  27.399  37.516  1.00  0.00    -0.237 OA
ATOM     73  O   UNL A   1      47.818  26.556  39.265  1.00  0.00    -0.237 OA
ATOM     74  O   UNL A   1      48.252  25.204  37.248  1.00  0.00    -0.744 OA
ENDBRANCH  70  71
ENDBRANCH  49  63
BRANCH  50  75
ATOM     75  C   UNL A   1      37.023  32.852  30.869  1.00  0.00     0.058 A 
ATOM     76  C   UNL A   1      37.222  33.751  29.812  1.00  0.00     0.135 A 
ATOM     77  C   UNL A   1      35.699  32.561  31.235  1.00  0.00     0.135 A 
ATOM     78  F   UNL A   1      38.469  34.072  29.429  1.00  0.00    -0.206 F 
ATOM     79  C   UNL A   1      36.153  34.353  29.154  1.00  0.00     0.059 A 
ATOM     80  C   UNL A   1      34.613  33.127  30.573  1.00  0.00     0.059 A 
ATOM     81  F   UNL A   1      35.450  31.701  32.234  1.00  0.00    -0.206 F 
ATOM     82  C   UNL A   1      34.851  34.031  29.540  1.00  0.00     0.060 A 
BRANCH  82  83
ATOM     83  S   UNL A   1      33.471  34.785  28.653  1.00  0.00     0.124 S 
ATOM     84  O   UNL A   1      33.202  33.788  27.623  1.00  0.00    -0.237 OA
ATOM     85  O   UNL A   1      32.463  34.907  29.703  1.00  0.00    -0.237 OA
ATOM     86  O   UNL A   1      34.026  36.049  28.178  1.00  0.00    -0.744 OA
ENDBRANCH  82  83
ENDBRANCH  50  75
BRANCH  62  87
ATOM     87  C   UNL A   1      40.050  34.006  37.061  1.00  0.00     0.058 A 
ATOM     88  C   UNL A   1      40.566  35.308  36.984  1.00  0.00     0.135 A 
ATOM     89  C   UNL A   1      39.241  33.684  38.164  1.00  0.00     0.135 A 
ATOM     90  F   UNL A   1      41.344  35.668  35.952  1.00  0.00    -0.206 F 
ATOM     91  C   UNL A   1      40.321  36.245  37.983  1.00  0.00     0.059 A 
ATOM     92  C   UNL A   1      38.955  34.615  39.156  1.00  0.00     0.059 A 
ATOM     93  F   UNL A   1      38.708  32.457  38.278  1.00  0.00    -0.206 F 
ATOM     94  C   UNL A   1      39.514  35.889  39.065  1.00  0.00     0.060 A 
BRANCH  94  95
ATOM     95  S   UNL A   1      39.192  37.118  40.347  1.00  0.00     0.124 S 
ATOM     96  O   UNL A   1      38.546  38.178  39.580  1.00  0.00    -0.237 OA
ATOM     97  O   UNL A   1      38.331  36.387  41.271  1.00  0.00    -0.237 OA
ATOM     98  O   UNL A   1      40.523  37.434  40.857  1.00  0.00    -0.744 OA
ENDBRANCH  94  95
ENDBRANCH  62  87
ENDBRANCH  36  37
ENDBRANCH  29  31
ENDBRANCH  28  29
ENDBRANCH  27  28
ENDBRANCH  26  27
ENDBRANCH  25  26
ENDBRANCH  24  25
ENDBRANCH  23  24
ENDBRANCH   1  23
TORSDOF 26
ENDMDL
MODEL 3
REMARK VINA RESULT:      -9.1      1.196      8.239
REMARK SMILES CN(C(=O)CC(=O)OCCOCCOCCOCCOC(=O)c1ccc(-c2c3nc(c(-c4c(F)cc(S(=O)(=O)[O-])cc4F)c4ccc([nH]4)c(-c4c(F)cc(S(=O)(=O)[O-])cc4F)c4nc(c(-c5c(F)cc(S(=O)(=O)[O-])cc5F)c5ccc2[nH]5)C=C4)C=C3)cc1)C1CCC(C)(C)CC1
REMARK SMILES IDX 14 1 13 2 12 3 11 4 10 5 9 6 8 7 6 8 7 9 5 10 3 11 4 12 2 13
REMARK SMILES IDX 1 14 89 15 90 16 96 17 91 18 95 19 92 20 93 21 94 22 15 23
REMARK SMILES IDX 16 24 17 25 18 26 19 27 20 28 21 29 22 30 23 31 24 32 88 33
REMARK SMILES IDX 25 34 87 35 26 36 27 37 28 38 81 39 29 40 86 41 80 42 82 43
REMARK SMILES IDX 30 44 85 45 79 46 78 47 31 49 65 50 44 51 64 52 45 53 48 54
REMARK SMILES IDX 63 55 83 56 46 57 47 58 62 60 84 61 49 62 32 63 33 64 42 65
REMARK SMILES IDX 34 66 35 67 41 68 43 69 36 70 37 71 38 72 39 73 40 74 66 75
REMARK SMILES IDX 67 76 76 77 68 78 69 79 75 80 77 81 70 82 71 83 72 84 73 85
REMARK SMILES IDX 74 86 50 87 51 88 60 89 52 90 53 91 59 92 61 93 54 94 55 95
REMARK SMILES IDX 56 96 57 97 58 98
REMARK H PARENT 82 48 48 59
REMARK Flexibility Score: inf
ROOT
ATOM      1  O   UNL A   1      40.139  22.377  27.214  1.00  0.00    -0.377 OA
ENDROOT
BRANCH   1   2
ATOM      2  C   UNL A   1      39.153  22.915  26.355  1.00  0.00     0.188 C 
BRANCH   2   3
ATOM      3  C   UNL A   1      38.180  21.888  25.736  1.00  0.00     0.188 C 
BRANCH   3   4
ATOM      4  O   UNL A   1      36.785  21.910  26.007  1.00  0.00    -0.376 OA
BRANCH   4   5
ATOM      5  C   UNL A   1      35.873  21.665  24.950  1.00  0.00     0.202 C 
BRANCH   5   6
ATOM      6  C   UNL A   1      34.749  20.636  25.180  1.00  0.00     0.261 C 
BRANCH   6   7
ATOM      7  O   UNL A   1      33.637  21.051  26.010  1.00  0.00    -0.463 OA
BRANCH   7   8
ATOM      8  C   UNL A   1      32.439  21.207  25.399  1.00  0.00     0.315 C 
ATOM      9  O   UNL A   1      31.755  20.271  24.991  1.00  0.00    -0.252 OA
BRANCH   8  10
ATOM     10  C   UNL A   1      31.996  22.631  25.179  1.00  0.00     0.222 C 
BRANCH  10  11
ATOM     11  C   UNL A   1      31.530  23.500  26.337  1.00  0.00     0.233 C 
ATOM     12  O   UNL A   1      31.483  23.006  27.467  1.00  0.00    -0.274 OA
BRANCH  11  13
ATOM     13  N   UNL A   1      31.264  24.873  26.128  1.00  0.00    -0.342 N 
ATOM     14  C   UNL A   1      29.909  25.394  26.012  1.00  0.00     0.147 C 
BRANCH  13  15
ATOM     15  C   UNL A   1      32.422  25.833  26.085  1.00  0.00     0.084 C 
ATOM     16  C   UNL A   1      33.138  25.941  24.727  1.00  0.00     0.025 C 
ATOM     17  C   UNL A   1      32.148  27.240  26.635  1.00  0.00     0.025 C 
ATOM     18  C   UNL A   1      32.510  26.897  23.708  1.00  0.00     0.008 C 
ATOM     19  C   UNL A   1      31.492  28.206  25.649  1.00  0.00     0.008 C 
ATOM     20  C   UNL A   1      32.119  28.289  24.249  1.00  0.00    -0.035 C 
ATOM     21  C   UNL A   1      31.076  28.915  23.295  1.00  0.00     0.011 C 
ATOM     22  C   UNL A   1      33.339  29.229  24.283  1.00  0.00     0.011 C 
ENDBRANCH  13  15
ENDBRANCH  11  13
ENDBRANCH  10  11
ENDBRANCH   8  10
ENDBRANCH   7   8
ENDBRANCH   6   7
ENDBRANCH   5   6
ENDBRANCH   4   5
ENDBRANCH   3   4
ENDBRANCH   2   3
ENDBRANCH   1   2
BRANCH   1  23
ATOM     23  C   UNL A   1      40.518  21.043  26.922  1.00  0.00     0.188 C 
BRANCH  23  24
ATOM     24  C   UNL A   1      41.886  20.915  26.233  1.00  0.00     0.188 C 
BRANCH  24  25
ATOM     25  O   UNL A   1      42.149  21.951  25.286  1.00  0.00    -0.376 OA
BRANCH  25  26
ATOM     26  C   UNL A   1      43.299  22.757  25.513  1.00  0.00     0.202 C 
BRANCH  26  27
ATOM     27  C   UNL A   1      43.041  24.000  26.367  1.00  0.00     0.261 C 
BRANCH  27  28
ATOM     28  O   UNL A   1      42.894  25.229  25.653  1.00  0.00    -0.460 OA
BRANCH  28  29
ATOM     29  C   UNL A   1      41.795  25.948  25.948  1.00  0.00     0.338 C 
ATOM     30  O   UNL A   1      40.715  25.899  25.374  1.00  0.00    -0.246 OA
BRANCH  29  31
ATOM     31  C   UNL A   1      42.030  26.621  27.235  1.00  0.00     0.060 A 
ATOM     32  C   UNL A   1      41.255  26.212  28.325  1.00  0.00     0.016 A 
ATOM     33  C   UNL A   1      43.007  27.614  27.382  1.00  0.00     0.016 A 
ATOM     34  C   UNL A   1      41.402  26.841  29.552  1.00  0.00     0.010 A 
ATOM     35  C   UNL A   1      43.137  28.266  28.613  1.00  0.00     0.010 A 
ATOM     36  C   UNL A   1      42.291  27.916  29.679  1.00  0.00    -0.014 A 
BRANCH  36  37
ATOM     37  C   UNL A   1      42.081  28.830  30.825  1.00  0.00     0.031 A 
ATOM     38  C   UNL A   1      40.870  29.724  30.782  1.00  0.00     0.074 A 
ATOM     39  C   UNL A   1      42.849  28.755  31.926  1.00  0.00     0.049 A 
ATOM     40  N   UNL A   1      40.384  30.511  31.703  1.00  0.00    -0.248 NA
ATOM     41  C   UNL A   1      40.091  29.715  29.530  1.00  0.00     0.031 C 
ATOM     42  C   UNL A   1      44.012  27.883  32.087  1.00  0.00     0.029 A 
ATOM     43  N   UNL A   1      42.748  29.411  33.125  1.00  0.00    -0.354 N 
ATOM     44  C   UNL A   1      39.245  31.082  31.146  1.00  0.00     0.074 A 
ATOM     45  C   UNL A   1      39.132  30.588  29.794  1.00  0.00     0.031 C 
ATOM     46  C   UNL A   1      44.514  28.054  33.323  1.00  0.00     0.029 A 
ATOM     47  C   UNL A   1      43.721  29.059  34.029  1.00  0.00     0.049 A 
ATOM     48  H   UNL A   1      42.045  30.072  33.320  1.00  0.00     0.167 HD
ATOM     49  C   UNL A   1      38.360  31.932  31.718  1.00  0.00     0.037 A 
ATOM     50  C   UNL A   1      43.941  29.505  35.282  1.00  0.00     0.037 A 
ATOM     51  C   UNL A   1      38.489  32.421  33.063  1.00  0.00     0.049 A 
ATOM     52  C   UNL A   1      42.981  30.506  35.875  1.00  0.00     0.074 A 
ATOM     53  C   UNL A   1      37.659  33.292  33.746  1.00  0.00     0.029 A 
ATOM     54  N   UNL A   1      39.520  32.085  33.929  1.00  0.00    -0.354 N 
ATOM     55  N   UNL A   1      41.899  31.029  35.343  1.00  0.00    -0.248 NA
ATOM     56  C   UNL A   1      43.261  30.966  37.240  1.00  0.00     0.031 C 
ATOM     57  C   UNL A   1      38.220  33.527  35.005  1.00  0.00     0.029 A 
ATOM     58  C   UNL A   1      39.361  32.749  35.132  1.00  0.00     0.049 A 
ATOM     59  H   UNL A   1      40.255  31.466  33.718  1.00  0.00     0.167 HD
ATOM     60  C   UNL A   1      41.352  31.853  36.322  1.00  0.00     0.074 A 
ATOM     61  C   UNL A   1      42.218  31.749  37.480  1.00  0.00     0.031 C 
ATOM     62  C   UNL A   1      40.234  32.622  36.274  1.00  0.00     0.037 A 
BRANCH  49  63
ATOM     63  C   UNL A   1      37.210  32.409  30.875  1.00  0.00     0.058 A 
ATOM     64  C   UNL A   1      35.972  31.744  30.855  1.00  0.00     0.135 A 
ATOM     65  C   UNL A   1      37.344  33.560  30.080  1.00  0.00     0.135 A 
ATOM     66  F   UNL A   1      35.796  30.623  31.573  1.00  0.00    -0.206 F 
ATOM     67  C   UNL A   1      34.919  32.188  30.062  1.00  0.00     0.059 A 
ATOM     68  C   UNL A   1      36.295  34.038  29.303  1.00  0.00     0.059 A 
ATOM     69  F   UNL A   1      38.508  34.227  30.051  1.00  0.00    -0.206 F 
ATOM     70  C   UNL A   1      35.090  33.339  29.289  1.00  0.00     0.060 A 
BRANCH  70  71
ATOM     71  S   UNL A   1      33.712  33.907  28.272  1.00  0.00     0.124 S 
ATOM     72  O   UNL A   1      33.160  32.643  27.794  1.00  0.00    -0.237 OA
ATOM     73  O   UNL A   1      32.892  34.632  29.238  1.00  0.00    -0.237 OA
ATOM     74  O   UNL A   1      34.357  34.733  27.256  1.00  0.00    -0.744 OA
ENDBRANCH  70  71
ENDBRANCH  49  63
BRANCH  50  75
ATOM     75  C   UNL A   1      45.117  29.015  36.054  1.00  0.00     0.058 A 
ATOM     76  C   UNL A   1      46.370  29.635  35.957  1.00  0.00     0.135 A 
ATOM     77  C   UNL A   1      45.005  27.904  36.906  1.00  0.00     0.135 A 
ATOM     78  F   UNL A   1      46.535  30.695  35.149  1.00  0.00    -0.206 F 
ATOM     79  C   UNL A   1      47.475  29.164  36.662  1.00  0.00     0.059 A 
ATOM     80  C   UNL A   1      46.086  27.432  37.643  1.00  0.00     0.059 A 
ATOM     81  F   UNL A   1      43.826  27.277  37.042  1.00  0.00    -0.206 F 
ATOM     82  C   UNL A   1      47.321  28.063  37.506  1.00  0.00     0.060 A 
BRANCH  82  83
ATOM     83  S   UNL A   1      48.749  27.485  38.448  1.00  0.00     0.124 S 
ATOM     84  O   UNL A   1      48.108  26.778  39.551  1.00  0.00    -0.237 OA
ATOM     85  O   UNL A   1      49.442  26.651  37.471  1.00  0.00    -0.237 OA
ATOM     86  O   UNL A   1      49.439  28.721  38.807  1.00  0.00    -0.744 OA
ENDBRANCH  82  83
ENDBRANCH  50  75
BRANCH  62  87
ATOM     87  C   UNL A   1      39.854  33.371  37.522  1.00  0.00     0.058 A 
ATOM     88  C   UNL A   1      40.485  34.568  37.892  1.00  0.00     0.135 A 
ATOM     89  C   UNL A   1      38.806  32.904  38.332  1.00  0.00     0.135 A 
ATOM     90  F   UNL A   1      41.492  35.060  37.153  1.00  0.00    -0.206 F 
ATOM     91  C   UNL A   1      40.116  35.256  39.044  1.00  0.00     0.059 A 
ATOM     92  C   UNL A   1      38.398  33.594  39.468  1.00  0.00     0.059 A 
ATOM     93  F   UNL A   1      38.156  31.773  38.013  1.00  0.00    -0.206 F 
ATOM     94  C   UNL A   1      39.071  34.761  39.825  1.00  0.00     0.060 A 
BRANCH  94  95
ATOM     95  S   UNL A   1      38.593  35.670  41.309  1.00  0.00     0.124 S 
ATOM     96  O   UNL A   1      38.521  37.037  40.804  1.00  0.00    -0.237 OA
ATOM     97  O   UNL A   1      37.316  35.053  41.655  1.00  0.00    -0.237 OA
ATOM     98  O   UNL A   1      39.685  35.401  42.240  1.00  0.00    -0.744 OA
ENDBRANCH  94  95
ENDBRANCH  62  87
ENDBRANCH  36  37
ENDBRANCH  29  31
ENDBRANCH  28  29
ENDBRANCH  27  28
ENDBRANCH  26  27
ENDBRANCH  25  26
ENDBRANCH  24  25
ENDBRANCH  23  24
ENDBRANCH   1  23
TORSDOF 26
ENDMDL
