MODEL 1
REMARK VINA RESULT:      -9.8      0.000      0.000
REMARK SMILES O=C(OCCOCCOCCOCCOC(=O)c1ccc(S(=O)(=O)[O-])cc1N1C(=O)/C(=C\C=C\c2ccccc2)[NH+]=C1c1ccccc1)c1ccc(-c2c3nc(c(-c4c(F)cc(S(=O)(=O)[O-])cc4F)c4ccc([nH]4)c(-c4c(F)cc(S(=O)(=O)[O-])cc4F)c4nc(c(-c5c(F)cc(S(=O)(=O)[O-])cc5F)c5ccc2[nH]5)C=C4)C=C3)cc1
REMARK SMILES IDX 9 1 8 2 7 3 6 4 5 5 4 6 3 7 2 8 1 9 49 10 50 11 114 12 51 13
REMARK SMILES IDX 113 14 52 15 53 16 54 17 107 18 55 19 112 20 106 21 108 22
REMARK SMILES IDX 56 23 111 24 105 25 104 26 57 28 91 29 70 30 90 31 71 32
REMARK SMILES IDX 74 33 89 34 109 35 72 36 73 37 88 39 110 40 75 41 58 42
REMARK SMILES IDX 59 43 68 44 60 45 61 46 67 47 69 48 62 49 63 50 64 51 65 52
REMARK SMILES IDX 66 53 92 54 93 55 102 56 94 57 95 58 101 59 103 60 96 61
REMARK SMILES IDX 97 62 98 63 99 64 100 65 76 66 77 67 86 68 78 69 79 70 85 71
REMARK SMILES IDX 87 72 80 73 81 74 82 75 83 76 84 77 10 78 11 79 12 80 13 81
REMARK SMILES IDX 14 82 15 83 16 84 17 85 18 86 19 87 27 88 20 89 26 90 21 91
REMARK SMILES IDX 28 92 29 93 42 94 30 95 31 96 41 97 32 98 43 100 44 101
REMARK SMILES IDX 48 102 45 103 47 104 46 105 33 106 34 107 35 108 36 109
REMARK SMILES IDX 40 110 37 111 39 112 38 113 22 114 23 115 24 116 25 117
REMARK H PARENT 108 27 74 38 41 99
REMARK Flexibility Score: inf
ROOT
ATOM      1  O   UNL A   1      37.239  22.607  25.739  1.00  0.00    -0.377 OA
ENDROOT
BRANCH   1   2
ATOM      2  C   UNL A   1      38.395  21.768  25.765  1.00  0.00     0.188 C 
BRANCH   2   3
ATOM      3  C   UNL A   1      39.618  22.386  26.443  1.00  0.00     0.188 C 
BRANCH   3   4
ATOM      4  O   UNL A   1      40.775  21.603  26.153  1.00  0.00    -0.376 OA
BRANCH   4   5
ATOM      5  C   UNL A   1      42.014  22.303  26.131  1.00  0.00     0.202 C 
BRANCH   5   6
ATOM      6  C   UNL A   1      41.877  23.811  26.329  1.00  0.00     0.261 C 
BRANCH   6   7
ATOM      7  O   UNL A   1      43.093  24.405  26.799  1.00  0.00    -0.460 OA
BRANCH   7   8
ATOM      8  C   UNL A   1      43.431  25.718  26.764  1.00  0.00     0.338 C 
ATOM      9  O   UNL A   1      44.028  26.133  25.771  1.00  0.00    -0.246 OA
BRANCH   8  10
ATOM     10  C   UNL A   1      43.118  26.703  27.850  1.00  0.00     0.060 A 
ATOM     11  C   UNL A   1      42.491  26.409  29.065  1.00  0.00     0.016 A 
ATOM     12  C   UNL A   1      43.586  28.014  27.662  1.00  0.00     0.016 A 
ATOM     13  C   UNL A   1      42.312  27.369  30.053  1.00  0.00     0.010 A 
ATOM     14  C   UNL A   1      43.422  28.987  28.653  1.00  0.00     0.010 A 
ATOM     15  C   UNL A   1      42.774  28.663  29.850  1.00  0.00    -0.014 A 
BRANCH  15  16
ATOM     16  C   UNL A   1      42.447  29.690  30.854  1.00  0.00     0.031 A 
ATOM     17  C   UNL A   1      43.372  29.837  32.022  1.00  0.00     0.074 A 
ATOM     18  C   UNL A   1      41.398  30.509  30.665  1.00  0.00     0.049 A 
ATOM     19  N   UNL A   1      43.236  30.562  33.096  1.00  0.00    -0.248 NA
ATOM     20  C   UNL A   1      44.629  29.068  31.968  1.00  0.00     0.031 C 
ATOM     21  C   UNL A   1      40.528  30.509  29.483  1.00  0.00     0.029 A 
ATOM     22  N   UNL A   1      40.882  31.502  31.455  1.00  0.00    -0.354 N 
ATOM     23  C   UNL A   1      44.360  30.297  33.867  1.00  0.00     0.074 A 
ATOM     24  C   UNL A   1      45.184  29.366  33.133  1.00  0.00     0.031 C 
ATOM     25  C   UNL A   1      39.576  31.445  29.639  1.00  0.00     0.029 A 
ATOM     26  C   UNL A   1      39.727  32.056  30.955  1.00  0.00     0.049 A 
ATOM     27  H   UNL A   1      41.298  31.789  32.299  1.00  0.00     0.167 HD
ATOM     28  C   UNL A   1      44.652  30.783  35.093  1.00  0.00     0.037 A 
ATOM     29  C   UNL A   1      38.860  32.911  31.534  1.00  0.00     0.037 A 
ATOM     30  C   UNL A   1      43.810  31.722  35.780  1.00  0.00     0.049 A 
ATOM     31  C   UNL A   1      39.167  33.369  32.938  1.00  0.00     0.074 A 
ATOM     32  C   UNL A   1      43.985  32.285  37.029  1.00  0.00     0.029 A 
ATOM     33  N   UNL A   1      42.623  32.230  35.267  1.00  0.00    -0.354 N 
ATOM     34  N   UNL A   1      40.217  33.098  33.681  1.00  0.00    -0.248 NA
ATOM     35  C   UNL A   1      38.168  34.219  33.598  1.00  0.00     0.031 C 
ATOM     36  C   UNL A   1      42.874  33.092  37.293  1.00  0.00     0.029 A 
ATOM     37  C   UNL A   1      42.031  33.070  36.189  1.00  0.00     0.049 A 
ATOM     38  H   UNL A   1      42.258  32.020  34.377  1.00  0.00     0.167 HD
ATOM     39  C   UNL A   1      40.006  33.743  34.893  1.00  0.00     0.074 A 
ATOM     40  C   UNL A   1      38.741  34.442  34.773  1.00  0.00     0.031 C 
ATOM     41  C   UNL A   1      40.773  33.751  36.012  1.00  0.00     0.037 A 
BRANCH  28  42
ATOM     42  C   UNL A   1      45.871  30.248  35.786  1.00  0.00     0.058 A 
ATOM     43  C   UNL A   1      47.121  30.879  35.701  1.00  0.00     0.135 A 
ATOM     44  C   UNL A   1      45.774  29.086  36.569  1.00  0.00     0.135 A 
ATOM     45  F   UNL A   1      47.278  31.972  34.938  1.00  0.00    -0.206 F 
ATOM     46  C   UNL A   1      48.235  30.372  36.366  1.00  0.00     0.059 A 
ATOM     47  C   UNL A   1      46.867  28.573  37.257  1.00  0.00     0.059 A 
ATOM     48  F   UNL A   1      44.605  28.433  36.664  1.00  0.00    -0.206 F 
ATOM     49  C   UNL A   1      48.097  29.221  37.146  1.00  0.00     0.060 A 
BRANCH  49  50
ATOM     50  S   UNL A   1      49.543  28.592  38.024  1.00  0.00     0.124 S 
ATOM     51  O   UNL A   1      49.823  29.687  38.948  1.00  0.00    -0.237 OA
ATOM     52  O   UNL A   1      49.029  27.368  38.630  1.00  0.00    -0.237 OA
ATOM     53  O   UNL A   1      50.528  28.397  36.964  1.00  0.00    -0.744 OA
ENDBRANCH  49  50
ENDBRANCH  28  42
BRANCH  29  54
ATOM     54  C   UNL A   1      37.593  33.298  30.849  1.00  0.00     0.058 A 
ATOM     55  C   UNL A   1      37.577  34.215  29.788  1.00  0.00     0.135 A 
ATOM     56  C   UNL A   1      36.356  32.779  31.271  1.00  0.00     0.135 A 
ATOM     57  F   UNL A   1      38.725  34.753  29.350  1.00  0.00    -0.206 F 
ATOM     58  C   UNL A   1      36.386  34.625  29.190  1.00  0.00     0.059 A 
ATOM     59  C   UNL A   1      35.156  33.148  30.669  1.00  0.00     0.059 A 
ATOM     60  F   UNL A   1      36.304  31.894  32.279  1.00  0.00    -0.206 F 
ATOM     61  C   UNL A   1      35.178  34.088  29.641  1.00  0.00     0.060 A 
BRANCH  61  62
ATOM     62  S   UNL A   1      33.636  34.625  28.867  1.00  0.00     0.124 S 
ATOM     63  O   UNL A   1      33.384  33.533  27.933  1.00  0.00    -0.237 OA
ATOM     64  O   UNL A   1      32.727  34.713  30.005  1.00  0.00    -0.237 OA
ATOM     65  O   UNL A   1      33.992  35.904  28.259  1.00  0.00    -0.744 OA
ENDBRANCH  61  62
ENDBRANCH  29  54
BRANCH  41  66
ATOM     66  C   UNL A   1      40.268  34.542  37.181  1.00  0.00     0.058 A 
ATOM     67  C   UNL A   1      39.579  33.921  38.233  1.00  0.00     0.135 A 
ATOM     68  C   UNL A   1      40.570  35.907  37.297  1.00  0.00     0.135 A 
ATOM     69  F   UNL A   1      39.263  32.619  38.159  1.00  0.00    -0.206 F 
ATOM     70  C   UNL A   1      39.203  34.631  39.365  1.00  0.00     0.059 A 
ATOM     71  C   UNL A   1      40.227  36.630  38.432  1.00  0.00     0.059 A 
ATOM     72  F   UNL A   1      41.238  36.538  36.318  1.00  0.00    -0.206 F 
ATOM     73  C   UNL A   1      39.541  35.983  39.460  1.00  0.00     0.060 A 
BRANCH  73  74
ATOM     74  S   UNL A   1      39.117  36.874  40.971  1.00  0.00     0.124 S 
ATOM     75  O   UNL A   1      40.379  36.830  41.702  1.00  0.00    -0.237 OA
ATOM     76  O   UNL A   1      38.724  38.183  40.461  1.00  0.00    -0.237 OA
ATOM     77  O   UNL A   1      38.033  36.080  41.540  1.00  0.00    -0.744 OA
ENDBRANCH  73  74
ENDBRANCH  41  66
ENDBRANCH  15  16
ENDBRANCH   8  10
ENDBRANCH   7   8
ENDBRANCH   6   7
ENDBRANCH   5   6
ENDBRANCH   4   5
ENDBRANCH   3   4
ENDBRANCH   2   3
ENDBRANCH   1   2
BRANCH   1  78
ATOM     78  C   UNL A   1      36.018  22.020  25.302  1.00  0.00     0.188 C 
BRANCH  78  79
ATOM     79  C   UNL A   1      34.702  22.811  25.467  1.00  0.00     0.188 C 
BRANCH  79  80
ATOM     80  O   UNL A   1      33.638  22.091  26.074  1.00  0.00    -0.376 OA
BRANCH  80  81
ATOM     81  C   UNL A   1      32.988  22.767  27.149  1.00  0.00     0.202 C 
BRANCH  81  82
ATOM     82  C   UNL A   1      32.748  24.256  26.885  1.00  0.00     0.261 C 
BRANCH  82  83
ATOM     83  O   UNL A   1      31.361  24.623  26.763  1.00  0.00    -0.460 OA
BRANCH  83  84
ATOM     84  C   UNL A   1      31.057  25.808  26.189  1.00  0.00     0.342 C 
ATOM     85  O   UNL A   1      30.624  26.799  26.749  1.00  0.00    -0.246 OA
BRANCH  84  86
ATOM     86  C   UNL A   1      31.562  25.794  24.782  1.00  0.00     0.107 A 
ATOM     87  C   UNL A   1      31.411  24.561  24.119  1.00  0.00     0.021 A 
ATOM     88  C   UNL A   1      32.007  26.947  24.071  1.00  0.00     0.152 A 
ATOM     89  C   UNL A   1      31.711  24.445  22.766  1.00  0.00     0.020 A 
ATOM     90  C   UNL A   1      32.325  26.804  22.712  1.00  0.00     0.072 A 
ATOM     91  C   UNL A   1      32.182  25.562  22.077  1.00  0.00     0.059 A 
BRANCH  88  92
ATOM     92  N   UNL A   1      32.164  28.197  24.721  1.00  0.00    -0.153 N 
ATOM     93  C   UNL A   1      33.297  28.491  25.434  1.00  0.00     0.385 C 
ATOM     94  C   UNL A   1      31.377  29.323  24.759  1.00  0.00     0.295 C 
ATOM     95  O   UNL A   1      34.378  27.929  25.411  1.00  0.00    -0.236 OA
ATOM     96  C   UNL A   1      32.943  29.762  26.119  1.00  0.00     0.215 C 
ATOM     97  N   UNL A   1      31.812  30.286  25.530  1.00  0.00    -0.233 N 
ATOM     98  C   UNL A   1      33.548  30.232  27.220  1.00  0.00     0.060 C 
ATOM     99  H   UNL A   1      31.420  31.179  25.660  1.00  0.00     0.312 HD
BRANCH  94 100
ATOM    100  C   UNL A   1      30.114  29.460  24.017  1.00  0.00     0.065 A 
ATOM    101  C   UNL A   1      29.389  28.306  23.704  1.00  0.00     0.017 A 
ATOM    102  C   UNL A   1      29.666  30.707  23.580  1.00  0.00     0.017 A 
ATOM    103  C   UNL A   1      28.197  28.410  22.986  1.00  0.00     0.001 A 
ATOM    104  C   UNL A   1      28.480  30.808  22.854  1.00  0.00     0.001 A 
ATOM    105  C   UNL A   1      27.742  29.660  22.562  1.00  0.00     0.000 A 
ENDBRANCH  94 100
BRANCH  98 106
ATOM    106  C   UNL A   1      34.606  29.540  27.931  1.00  0.00     0.005 C 
ATOM    107  C   UNL A   1      35.781  30.071  28.303  1.00  0.00     0.008 C 
BRANCH 107 108
ATOM    108  C   UNL A   1      36.794  29.292  29.040  1.00  0.00    -0.026 A 
ATOM    109  C   UNL A   1      36.812  29.342  30.439  1.00  0.00     0.008 A 
ATOM    110  C   UNL A   1      37.765  28.515  28.385  1.00  0.00     0.008 A 
ATOM    111  C   UNL A   1      37.752  28.601  31.165  1.00  0.00     0.001 A 
ATOM    112  C   UNL A   1      38.702  27.776  29.111  1.00  0.00     0.001 A 
ATOM    113  C   UNL A   1      38.693  27.817  30.502  1.00  0.00     0.000 A 
ENDBRANCH 107 108
ENDBRANCH  98 106
ENDBRANCH  88  92
BRANCH  91 114
ATOM    114  S   UNL A   1      32.695  25.366  20.392  1.00  0.00     0.124 S 
ATOM    115  O   UNL A   1      33.566  26.489  20.066  1.00  0.00    -0.237 OA
ATOM    116  O   UNL A   1      33.104  24.005  20.207  1.00  0.00    -0.237 OA
ATOM    117  O   UNL A   1      31.367  25.622  19.513  1.00  0.00    -0.744 OA
ENDBRANCH  91 114
ENDBRANCH  84  86
ENDBRANCH  83  84
ENDBRANCH  82  83
ENDBRANCH  81  82
ENDBRANCH  80  81
ENDBRANCH  79  80
ENDBRANCH  78  79
ENDBRANCH   1  78
TORSDOF 28
ENDMDL
MODEL 2
REMARK VINA RESULT:      -8.9      4.636      5.680
REMARK SMILES O=C(OCCOCCOCCOCCOC(=O)c1ccc(S(=O)(=O)[O-])cc1N1C(=O)/C(=C\C=C\c2ccccc2)[NH+]=C1c1ccccc1)c1ccc(-c2c3nc(c(-c4c(F)cc(S(=O)(=O)[O-])cc4F)c4ccc([nH]4)c(-c4c(F)cc(S(=O)(=O)[O-])cc4F)c4nc(c(-c5c(F)cc(S(=O)(=O)[O-])cc5F)c5ccc2[nH]5)C=C4)C=C3)cc1
REMARK SMILES IDX 9 1 8 2 7 3 6 4 5 5 4 6 3 7 2 8 1 9 49 10 50 11 114 12 51 13
REMARK SMILES IDX 113 14 52 15 53 16 54 17 107 18 55 19 112 20 106 21 108 22
REMARK SMILES IDX 56 23 111 24 105 25 104 26 57 28 91 29 70 30 90 31 71 32
REMARK SMILES IDX 74 33 89 34 109 35 72 36 73 37 88 39 110 40 75 41 58 42
REMARK SMILES IDX 59 43 68 44 60 45 61 46 67 47 69 48 62 49 63 50 64 51 65 52
REMARK SMILES IDX 66 53 92 54 93 55 102 56 94 57 95 58 101 59 103 60 96 61
REMARK SMILES IDX 97 62 98 63 99 64 100 65 76 66 77 67 86 68 78 69 79 70 85 71
REMARK SMILES IDX 87 72 80 73 81 74 82 75 83 76 84 77 10 78 11 79 12 80 13 81
REMARK SMILES IDX 14 82 15 83 16 84 17 85 18 86 19 87 27 88 20 89 26 90 21 91
REMARK SMILES IDX 28 92 29 93 42 94 30 95 31 96 41 97 32 98 43 100 44 101
REMARK SMILES IDX 48 102 45 103 47 104 46 105 33 106 34 107 35 108 36 109
REMARK SMILES IDX 40 110 37 111 39 112 38 113 22 114 23 115 24 116 25 117
REMARK H PARENT 108 27 74 38 41 99
REMARK Flexibility Score: inf
ROOT
ATOM      1  O   UNL A   1      35.679  21.139  25.864  1.00  0.00    -0.377 OA
ENDROOT
BRANCH   1   2
ATOM      2  C   UNL A   1      36.903  21.782  25.509  1.00  0.00     0.188 C 
BRANCH   2   3
ATOM      3  C   UNL A   1      38.100  20.843  25.358  1.00  0.00     0.188 C 
BRANCH   3   4
ATOM      4  O   UNL A   1      39.224  21.378  26.054  1.00  0.00    -0.376 OA
BRANCH   4   5
ATOM      5  C   UNL A   1      39.116  22.737  26.465  1.00  0.00     0.202 C 
BRANCH   5   6
ATOM      6  C   UNL A   1      40.389  23.293  27.100  1.00  0.00     0.261 C 
BRANCH   6   7
ATOM      7  O   UNL A   1      40.717  24.594  26.596  1.00  0.00    -0.460 OA
BRANCH   7   8
ATOM      8  C   UNL A   1      41.952  25.148  26.498  1.00  0.00     0.338 C 
ATOM      9  O   UNL A   1      42.810  24.533  25.866  1.00  0.00    -0.246 OA
BRANCH   8  10
ATOM     10  C   UNL A   1      42.340  26.465  27.101  1.00  0.00     0.060 A 
ATOM     11  C   UNL A   1      43.221  26.646  28.170  1.00  0.00     0.016 A 
ATOM     12  C   UNL A   1      41.845  27.616  26.465  1.00  0.00     0.016 A 
ATOM     13  C   UNL A   1      43.590  27.910  28.615  1.00  0.00     0.010 A 
ATOM     14  C   UNL A   1      42.216  28.893  26.895  1.00  0.00     0.010 A 
ATOM     15  C   UNL A   1      43.087  29.039  27.981  1.00  0.00    -0.014 A 
BRANCH  15  16
ATOM     16  C   UNL A   1      43.384  30.360  28.561  1.00  0.00     0.031 A 
ATOM     17  C   UNL A   1      44.722  30.962  28.263  1.00  0.00     0.074 A 
ATOM     18  C   UNL A   1      42.442  31.019  29.258  1.00  0.00     0.049 A 
ATOM     19  N   UNL A   1      45.272  32.035  28.757  1.00  0.00    -0.248 NA
ATOM     20  C   UNL A   1      45.552  30.263  27.264  1.00  0.00     0.031 C 
ATOM     21  C   UNL A   1      41.070  30.549  29.477  1.00  0.00     0.029 A 
ATOM     22  N   UNL A   1      42.488  32.222  29.911  1.00  0.00    -0.354 N 
ATOM     23  C   UNL A   1      46.529  32.111  28.171  1.00  0.00     0.074 A 
ATOM     24  C   UNL A   1      46.656  30.994  27.265  1.00  0.00     0.031 C 
ATOM     25  C   UNL A   1      40.412  31.449  30.229  1.00  0.00     0.029 A 
ATOM     26  C   UNL A   1      41.335  32.516  30.601  1.00  0.00     0.049 A 
ATOM     27  H   UNL A   1      43.271  32.818  29.888  1.00  0.00     0.167 HD
ATOM     28  C   UNL A   1      47.491  33.031  28.399  1.00  0.00     0.037 A 
ATOM     29  C   UNL A   1      41.088  33.503  31.485  1.00  0.00     0.037 A 
ATOM     30  C   UNL A   1      47.313  34.137  29.297  1.00  0.00     0.049 A 
ATOM     31  C   UNL A   1      42.210  34.465  31.786  1.00  0.00     0.074 A 
ATOM     32  C   UNL A   1      48.210  35.135  29.626  1.00  0.00     0.029 A 
ATOM     33  N   UNL A   1      46.151  34.382  30.018  1.00  0.00    -0.354 N 
ATOM     34  N   UNL A   1      43.410  34.522  31.253  1.00  0.00    -0.248 NA
ATOM     35  C   UNL A   1      41.966  35.474  32.824  1.00  0.00     0.031 C 
ATOM     36  C   UNL A   1      47.608  35.952  30.587  1.00  0.00     0.029 A 
ATOM     37  C   UNL A   1      46.318  35.492  30.821  1.00  0.00     0.049 A 
ATOM     38  H   UNL A   1      45.329  33.842  29.963  1.00  0.00     0.167 HD
ATOM     39  C   UNL A   1      44.062  35.571  31.888  1.00  0.00     0.074 A 
ATOM     40  C   UNL A   1      43.112  36.140  32.825  1.00  0.00     0.031 C 
ATOM     41  C   UNL A   1      45.332  36.022  31.729  1.00  0.00     0.037 A 
BRANCH  28  42
ATOM     42  C   UNL A   1      48.823  32.830  27.738  1.00  0.00     0.058 A 
ATOM     43  C   UNL A   1      49.140  33.402  26.497  1.00  0.00     0.135 A 
ATOM     44  C   UNL A   1      49.809  32.061  28.377  1.00  0.00     0.135 A 
ATOM     45  F   UNL A   1      48.223  34.117  25.826  1.00  0.00    -0.206 F 
ATOM     46  C   UNL A   1      50.389  33.214  25.910  1.00  0.00     0.059 A 
ATOM     47  C   UNL A   1      51.069  31.876  27.820  1.00  0.00     0.059 A 
ATOM     48  F   UNL A   1      49.548  31.474  29.556  1.00  0.00    -0.206 F 
ATOM     49  C   UNL A   1      51.349  32.453  26.582  1.00  0.00     0.060 A 
BRANCH  49  50
ATOM     50  S   UNL A   1      52.972  32.242  25.822  1.00  0.00     0.124 S 
ATOM     51  O   UNL A   1      53.721  31.608  26.903  1.00  0.00    -0.237 OA
ATOM     52  O   UNL A   1      52.670  31.389  24.677  1.00  0.00    -0.237 OA
ATOM     53  O   UNL A   1      53.376  33.606  25.495  1.00  0.00    -0.744 OA
ENDBRANCH  49  50
ENDBRANCH  28  42
BRANCH  29  54
ATOM     54  C   UNL A   1      39.790  33.569  32.216  1.00  0.00     0.058 A 
ATOM     55  C   UNL A   1      38.677  34.237  31.686  1.00  0.00     0.135 A 
ATOM     56  C   UNL A   1      39.647  32.989  33.490  1.00  0.00     0.135 A 
ATOM     57  F   UNL A   1      38.757  34.819  30.480  1.00  0.00    -0.206 F 
ATOM     58  C   UNL A   1      37.483  34.352  32.397  1.00  0.00     0.059 A 
ATOM     59  C   UNL A   1      38.455  33.064  34.206  1.00  0.00     0.059 A 
ATOM     60  F   UNL A   1      40.674  32.332  34.050  1.00  0.00    -0.206 F 
ATOM     61  C   UNL A   1      37.383  33.765  33.660  1.00  0.00     0.060 A 
BRANCH  61  62
ATOM     62  S   UNL A   1      35.836  33.921  34.580  1.00  0.00     0.124 S 
ATOM     63  O   UNL A   1      35.487  35.315  34.328  1.00  0.00    -0.237 OA
ATOM     64  O   UNL A   1      34.986  32.924  33.938  1.00  0.00    -0.237 OA
ATOM     65  O   UNL A   1      36.227  33.608  35.952  1.00  0.00    -0.744 OA
ENDBRANCH  61  62
ENDBRANCH  29  54
BRANCH  41  66
ATOM     66  C   UNL A   1      45.757  37.182  32.578  1.00  0.00     0.058 A 
ATOM     67  C   UNL A   1      45.553  38.504  32.154  1.00  0.00     0.135 A 
ATOM     68  C   UNL A   1      46.271  36.968  33.866  1.00  0.00     0.135 A 
ATOM     69  F   UNL A   1      45.071  38.754  30.927  1.00  0.00    -0.206 F 
ATOM     70  C   UNL A   1      45.848  39.579  32.983  1.00  0.00     0.059 A 
ATOM     71  C   UNL A   1      46.547  38.027  34.720  1.00  0.00     0.059 A 
ATOM     72  F   UNL A   1      46.471  35.719  34.315  1.00  0.00    -0.206 F 
ATOM     73  C   UNL A   1      46.335  39.330  34.268  1.00  0.00     0.060 A 
BRANCH  73  74
ATOM     74  S   UNL A   1      46.638  40.733  35.361  1.00  0.00     0.124 S 
ATOM     75  O   UNL A   1      45.585  41.657  34.953  1.00  0.00    -0.237 OA
ATOM     76  O   UNL A   1      46.481  40.136  36.684  1.00  0.00    -0.237 OA
ATOM     77  O   UNL A   1      47.998  41.140  35.022  1.00  0.00    -0.744 OA
ENDBRANCH  73  74
ENDBRANCH  41  66
ENDBRANCH  15  16
ENDBRANCH   8  10
ENDBRANCH   7   8
ENDBRANCH   6   7
ENDBRANCH   5   6
ENDBRANCH   4   5
ENDBRANCH   3   4
ENDBRANCH   2   3
ENDBRANCH   1   2
BRANCH   1  78
ATOM     78  C   UNL A   1      34.584  21.283  24.967  1.00  0.00     0.188 C 
BRANCH  78  79
ATOM     79  C   UNL A   1      33.563  22.418  25.202  1.00  0.00     0.188 C 
BRANCH  79  80
ATOM     80  O   UNL A   1      32.453  22.071  26.018  1.00  0.00    -0.376 OA
BRANCH  80  81
ATOM     81  C   UNL A   1      32.380  22.761  27.264  1.00  0.00     0.202 C 
BRANCH  81  82
ATOM     82  C   UNL A   1      32.276  24.282  27.121  1.00  0.00     0.261 C 
BRANCH  82  83
ATOM     83  O   UNL A   1      30.997  24.750  26.651  1.00  0.00    -0.460 OA
BRANCH  83  84
ATOM     84  C   UNL A   1      30.921  25.989  26.120  1.00  0.00     0.342 C 
ATOM     85  O   UNL A   1      30.650  27.020  26.710  1.00  0.00    -0.246 OA
BRANCH  84  86
ATOM     86  C   UNL A   1      31.459  25.939  24.725  1.00  0.00     0.107 A 
ATOM     87  C   UNL A   1      31.279  24.704  24.075  1.00  0.00     0.021 A 
ATOM     88  C   UNL A   1      31.962  27.066  24.012  1.00  0.00     0.152 A 
ATOM     89  C   UNL A   1      31.607  24.559  22.730  1.00  0.00     0.020 A 
ATOM     90  C   UNL A   1      32.307  26.894  22.662  1.00  0.00     0.072 A 
ATOM     91  C   UNL A   1      32.134  25.649  22.040  1.00  0.00     0.059 A 
BRANCH  88  92
ATOM     92  N   UNL A   1      32.148  28.318  24.650  1.00  0.00    -0.153 N 
ATOM     93  C   UNL A   1      33.305  28.607  25.326  1.00  0.00     0.385 C 
ATOM     94  C   UNL A   1      31.372  29.450  24.706  1.00  0.00     0.295 C 
ATOM     95  O   UNL A   1      34.381  28.036  25.273  1.00  0.00    -0.236 OA
ATOM     96  C   UNL A   1      32.982  29.884  26.015  1.00  0.00     0.215 C 
ATOM     97  N   UNL A   1      31.837  30.414  25.458  1.00  0.00    -0.233 N 
ATOM     98  C   UNL A   1      33.624  30.355  27.094  1.00  0.00     0.060 C 
ATOM     99  H   UNL A   1      31.456  31.311  25.595  1.00  0.00     0.312 HD
BRANCH  94 100
ATOM    100  C   UNL A   1      30.087  29.593  24.002  1.00  0.00     0.065 A 
ATOM    101  C   UNL A   1      29.551  30.873  23.835  1.00  0.00     0.017 A 
ATOM    102  C   UNL A   1      29.381  28.474  23.557  1.00  0.00     0.017 A 
ATOM    103  C   UNL A   1      28.325  31.031  23.186  1.00  0.00     0.001 A 
ATOM    104  C   UNL A   1      28.152  28.634  22.918  1.00  0.00     0.001 A 
ATOM    105  C   UNL A   1      27.626  29.912  22.727  1.00  0.00     0.000 A 
ENDBRANCH  94 100
BRANCH  98 106
ATOM    106  C   UNL A   1      34.699  29.659  27.776  1.00  0.00     0.005 C 
ATOM    107  C   UNL A   1      35.911  30.163  28.052  1.00  0.00     0.008 C 
BRANCH 107 108
ATOM    108  C   UNL A   1      36.938  29.382  28.767  1.00  0.00    -0.026 A 
ATOM    109  C   UNL A   1      37.919  28.703  28.033  1.00  0.00     0.008 A 
ATOM    110  C   UNL A   1      36.956  29.272  30.168  1.00  0.00     0.008 A 
ATOM    111  C   UNL A   1      38.915  27.968  28.684  1.00  0.00     0.001 A 
ATOM    112  C   UNL A   1      37.951  28.537  30.818  1.00  0.00     0.001 A 
ATOM    113  C   UNL A   1      38.933  27.888  30.075  1.00  0.00     0.000 A 
ENDBRANCH 107 108
ENDBRANCH  98 106
ENDBRANCH  88  92
BRANCH  91 114
ATOM    114  S   UNL A   1      32.680  25.413  20.370  1.00  0.00     0.124 S 
ATOM    115  O   UNL A   1      33.547  26.534  20.030  1.00  0.00    -0.237 OA
ATOM    116  O   UNL A   1      33.104  24.051  20.229  1.00  0.00    -0.237 OA
ATOM    117  O   UNL A   1      31.366  25.634  19.461  1.00  0.00    -0.744 OA
ENDBRANCH  91 114
ENDBRANCH  84  86
ENDBRANCH  83  84
ENDBRANCH  82  83
ENDBRANCH  81  82
ENDBRANCH  80  81
ENDBRANCH  79  80
ENDBRANCH  78  79
ENDBRANCH   1  78
TORSDOF 28
ENDMDL
MODEL 3
REMARK VINA RESULT:      -8.6      5.545      7.809
REMARK SMILES O=C(OCCOCCOCCOCCOC(=O)c1ccc(S(=O)(=O)[O-])cc1N1C(=O)/C(=C\C=C\c2ccccc2)[NH+]=C1c1ccccc1)c1ccc(-c2c3nc(c(-c4c(F)cc(S(=O)(=O)[O-])cc4F)c4ccc([nH]4)c(-c4c(F)cc(S(=O)(=O)[O-])cc4F)c4nc(c(-c5c(F)cc(S(=O)(=O)[O-])cc5F)c5ccc2[nH]5)C=C4)C=C3)cc1
REMARK SMILES IDX 9 1 8 2 7 3 6 4 5 5 4 6 3 7 2 8 1 9 49 10 50 11 114 12 51 13
REMARK SMILES IDX 113 14 52 15 53 16 54 17 107 18 55 19 112 20 106 21 108 22
REMARK SMILES IDX 56 23 111 24 105 25 104 26 57 28 91 29 70 30 90 31 71 32
REMARK SMILES IDX 74 33 89 34 109 35 72 36 73 37 88 39 110 40 75 41 58 42
REMARK SMILES IDX 59 43 68 44 60 45 61 46 67 47 69 48 62 49 63 50 64 51 65 52
REMARK SMILES IDX 66 53 92 54 93 55 102 56 94 57 95 58 101 59 103 60 96 61
REMARK SMILES IDX 97 62 98 63 99 64 100 65 76 66 77 67 86 68 78 69 79 70 85 71
REMARK SMILES IDX 87 72 80 73 81 74 82 75 83 76 84 77 10 78 11 79 12 80 13 81
REMARK SMILES IDX 14 82 15 83 16 84 17 85 18 86 19 87 27 88 20 89 26 90 21 91
REMARK SMILES IDX 28 92 29 93 42 94 30 95 31 96 41 97 32 98 43 100 44 101
REMARK SMILES IDX 48 102 45 103 47 104 46 105 33 106 34 107 35 108 36 109
REMARK SMILES IDX 40 110 37 111 39 112 38 113 22 114 23 115 24 116 25 117
REMARK H PARENT 108 27 74 38 41 99
REMARK Flexibility Score: inf
ROOT
ATOM      1  O   UNL A   1      38.030  23.033  26.067  1.00  0.00    -0.377 OA
ENDROOT
BRANCH   1   2
ATOM      2  C   UNL A   1      38.838  24.198  26.237  1.00  0.00     0.188 C 
BRANCH   2   3
ATOM      3  C   UNL A   1      39.547  24.294  27.587  1.00  0.00     0.188 C 
BRANCH   3   4
ATOM      4  O   UNL A   1      39.262  25.554  28.193  1.00  0.00    -0.376 OA
BRANCH   4   5
ATOM      5  C   UNL A   1      39.852  26.693  27.575  1.00  0.00     0.202 C 
BRANCH   5   6
ATOM      6  C   UNL A   1      40.072  27.868  28.526  1.00  0.00     0.261 C 
BRANCH   6   7
ATOM      7  O   UNL A   1      39.159  28.942  28.273  1.00  0.00    -0.460 OA
BRANCH   7   8
ATOM      8  C   UNL A   1      38.730  29.879  29.155  1.00  0.00     0.338 C 
ATOM      9  O   UNL A   1      37.537  29.885  29.456  1.00  0.00    -0.246 OA
BRANCH   8  10
ATOM     10  C   UNL A   1      39.616  30.905  29.798  1.00  0.00     0.060 A 
ATOM     11  C   UNL A   1      40.964  30.733  30.123  1.00  0.00     0.016 A 
ATOM     12  C   UNL A   1      39.057  32.178  29.998  1.00  0.00     0.016 A 
ATOM     13  C   UNL A   1      41.734  31.766  30.644  1.00  0.00     0.010 A 
ATOM     14  C   UNL A   1      39.824  33.230  30.511  1.00  0.00     0.010 A 
ATOM     15  C   UNL A   1      41.167  33.018  30.842  1.00  0.00    -0.014 A 
BRANCH  15  16
ATOM     16  C   UNL A   1      41.966  34.050  31.523  1.00  0.00     0.031 A 
ATOM     17  C   UNL A   1      42.009  34.019  33.019  1.00  0.00     0.074 A 
ATOM     18  C   UNL A   1      42.691  34.926  30.804  1.00  0.00     0.049 A 
ATOM     19  N   UNL A   1      42.521  34.884  33.848  1.00  0.00    -0.248 NA
ATOM     20  C   UNL A   1      41.397  32.847  33.672  1.00  0.00     0.031 C 
ATOM     21  C   UNL A   1      42.800  34.933  29.342  1.00  0.00     0.029 A 
ATOM     22  N   UNL A   1      43.473  35.979  31.200  1.00  0.00    -0.354 N 
ATOM     23  C   UNL A   1      42.248  34.390  35.116  1.00  0.00     0.074 A 
ATOM     24  C   UNL A   1      41.549  33.136  34.955  1.00  0.00     0.031 C 
ATOM     25  C   UNL A   1      43.590  35.954  28.965  1.00  0.00     0.029 A 
ATOM     26  C   UNL A   1      43.980  36.710  30.150  1.00  0.00     0.049 A 
ATOM     27  H   UNL A   1      43.654  36.191  32.143  1.00  0.00     0.167 HD
ATOM     28  C   UNL A   1      42.545  34.958  36.305  1.00  0.00     0.037 A 
ATOM     29  C   UNL A   1      44.627  37.893  30.156  1.00  0.00     0.037 A 
ATOM     30  C   UNL A   1      43.259  36.199  36.418  1.00  0.00     0.049 A 
ATOM     31  C   UNL A   1      44.867  38.547  31.494  1.00  0.00     0.074 A 
ATOM     32  C   UNL A   1      43.615  36.888  37.560  1.00  0.00     0.029 A 
ATOM     33  N   UNL A   1      43.718  36.939  35.336  1.00  0.00    -0.354 N 
ATOM     34  N   UNL A   1      44.586  38.093  32.695  1.00  0.00    -0.248 NA
ATOM     35  C   UNL A   1      45.481  39.880  31.485  1.00  0.00     0.031 C 
ATOM     36  C   UNL A   1      44.243  38.074  37.166  1.00  0.00     0.029 A 
ATOM     37  C   UNL A   1      44.321  38.099  35.779  1.00  0.00     0.049 A 
ATOM     38  H   UNL A   1      43.626  36.675  34.392  1.00  0.00     0.167 HD
ATOM     39  C   UNL A   1      44.988  39.082  33.583  1.00  0.00     0.074 A 
ATOM     40  C   UNL A   1      45.560  40.148  32.782  1.00  0.00     0.031 C 
ATOM     41  C   UNL A   1      44.886  39.123  34.935  1.00  0.00     0.037 A 
BRANCH  28  42
ATOM     42  C   UNL A   1      42.032  34.292  37.548  1.00  0.00     0.058 A 
ATOM     43  C   UNL A   1      42.801  33.378  38.283  1.00  0.00     0.135 A 
ATOM     44  C   UNL A   1      40.744  34.595  38.019  1.00  0.00     0.135 A 
ATOM     45  F   UNL A   1      44.024  33.025  37.857  1.00  0.00    -0.206 F 
ATOM     46  C   UNL A   1      42.308  32.784  39.442  1.00  0.00     0.059 A 
ATOM     47  C   UNL A   1      40.239  34.029  39.184  1.00  0.00     0.059 A 
ATOM     48  F   UNL A   1      39.960  35.447  37.340  1.00  0.00    -0.206 F 
ATOM     49  C   UNL A   1      41.027  33.119  39.887  1.00  0.00     0.060 A 
BRANCH  49  50
ATOM     50  S   UNL A   1      40.414  32.363  41.407  1.00  0.00     0.124 S 
ATOM     51  O   UNL A   1      39.097  31.893  40.989  1.00  0.00    -0.237 OA
ATOM     52  O   UNL A   1      41.406  31.323  41.658  1.00  0.00    -0.237 OA
ATOM     53  O   UNL A   1      40.412  33.467  42.361  1.00  0.00    -0.744 OA
ENDBRANCH  49  50
ENDBRANCH  28  42
BRANCH  29  54
ATOM     54  C   UNL A   1      44.989  38.574  28.880  1.00  0.00     0.058 A 
ATOM     55  C   UNL A   1      46.293  38.537  28.368  1.00  0.00     0.135 A 
ATOM     56  C   UNL A   1      44.034  39.314  28.160  1.00  0.00     0.135 A 
ATOM     57  F   UNL A   1      47.250  37.857  29.018  1.00  0.00    -0.206 F 
ATOM     58  C   UNL A   1      46.646  39.226  27.209  1.00  0.00     0.059 A 
ATOM     59  C   UNL A   1      44.355  39.985  26.983  1.00  0.00     0.059 A 
ATOM     60  F   UNL A   1      42.767  39.385  28.596  1.00  0.00    -0.206 F 
ATOM     61  C   UNL A   1      45.669  39.953  26.525  1.00  0.00     0.060 A 
BRANCH  61  62
ATOM     62  S   UNL A   1      46.131  40.849  25.025  1.00  0.00     0.124 S 
ATOM     63  O   UNL A   1      46.672  39.775  24.199  1.00  0.00    -0.237 OA
ATOM     64  O   UNL A   1      44.857  41.410  24.589  1.00  0.00    -0.237 OA
ATOM     65  O   UNL A   1      47.105  41.827  25.504  1.00  0.00    -0.744 OA
ENDBRANCH  61  62
ENDBRANCH  29  54
BRANCH  41  66
ATOM     66  C   UNL A   1      45.407  40.348  35.624  1.00  0.00     0.058 A 
ATOM     67  C   UNL A   1      46.728  40.410  36.092  1.00  0.00     0.135 A 
ATOM     68  C   UNL A   1      44.613  41.501  35.718  1.00  0.00     0.135 A 
ATOM     69  F   UNL A   1      47.519  39.328  36.030  1.00  0.00    -0.206 F 
ATOM     70  C   UNL A   1      47.245  41.579  36.635  1.00  0.00     0.059 A 
ATOM     71  C   UNL A   1      45.118  42.688  36.231  1.00  0.00     0.059 A 
ATOM     72  F   UNL A   1      43.347  41.488  35.271  1.00  0.00    -0.206 F 
ATOM     73  C   UNL A   1      46.436  42.716  36.690  1.00  0.00     0.060 A 
BRANCH  73  74
ATOM     74  S   UNL A   1      47.146  44.249  37.323  1.00  0.00     0.124 S 
ATOM     75  O   UNL A   1      47.651  44.865  36.101  1.00  0.00    -0.237 OA
ATOM     76  O   UNL A   1      45.990  44.899  37.931  1.00  0.00    -0.237 OA
ATOM     77  O   UNL A   1      48.164  43.789  38.262  1.00  0.00    -0.744 OA
ENDBRANCH  73  74
ENDBRANCH  41  66
ENDBRANCH  15  16
ENDBRANCH   8  10
ENDBRANCH   7   8
ENDBRANCH   6   7
ENDBRANCH   5   6
ENDBRANCH   4   5
ENDBRANCH   3   4
ENDBRANCH   2   3
ENDBRANCH   1   2
BRANCH   1  78
ATOM     78  C   UNL A   1      37.405  22.852  24.801  1.00  0.00     0.188 C 
BRANCH  78  79
ATOM     79  C   UNL A   1      36.198  23.738  24.425  1.00  0.00     0.188 C 
BRANCH  79  80
ATOM     80  O   UNL A   1      35.810  23.682  23.060  1.00  0.00    -0.376 OA
BRANCH  80  81
ATOM     81  C   UNL A   1      34.518  23.128  22.822  1.00  0.00     0.202 C 
BRANCH  81  82
ATOM     82  C   UNL A   1      33.630  23.995  21.925  1.00  0.00     0.261 C 
BRANCH  82  83
ATOM     83  O   UNL A   1      34.007  25.384  21.878  1.00  0.00    -0.460 OA
BRANCH  83  84
ATOM     84  C   UNL A   1      33.033  26.317  21.952  1.00  0.00     0.342 C 
ATOM     85  O   UNL A   1      32.062  26.416  21.225  1.00  0.00    -0.246 OA
BRANCH  84  86
ATOM     86  C   UNL A   1      33.206  27.080  23.227  1.00  0.00     0.107 A 
ATOM     87  C   UNL A   1      34.086  28.175  23.136  1.00  0.00     0.021 A 
ATOM     88  C   UNL A   1      32.440  26.865  24.409  1.00  0.00     0.152 A 
ATOM     89  C   UNL A   1      34.235  29.052  24.206  1.00  0.00     0.020 A 
ATOM     90  C   UNL A   1      32.620  27.747  25.484  1.00  0.00     0.072 A 
ATOM     91  C   UNL A   1      33.514  28.822  25.377  1.00  0.00     0.059 A 
BRANCH  88  92
ATOM     92  N   UNL A   1      31.547  25.768  24.517  1.00  0.00    -0.153 N 
ATOM     93  C   UNL A   1      31.962  24.559  25.013  1.00  0.00     0.385 C 
ATOM     94  C   UNL A   1      30.203  25.643  24.261  1.00  0.00     0.295 C 
ATOM     95  O   UNL A   1      32.969  24.303  25.651  1.00  0.00    -0.236 OA
ATOM     96  C   UNL A   1      30.808  23.666  24.731  1.00  0.00     0.215 C 
ATOM     97  N   UNL A   1      29.712  24.440  24.413  1.00  0.00    -0.233 N 
ATOM     98  C   UNL A   1      30.876  22.329  24.658  1.00  0.00     0.060 C 
ATOM     99  H   UNL A   1      28.775  24.154  24.321  1.00  0.00     0.312 HD
BRANCH  94 100
ATOM    100  C   UNL A   1      29.351  26.758  23.819  1.00  0.00     0.065 A 
ATOM    101  C   UNL A   1      27.974  26.684  24.051  1.00  0.00     0.017 A 
ATOM    102  C   UNL A   1      29.888  27.846  23.130  1.00  0.00     0.017 A 
ATOM    103  C   UNL A   1      27.143  27.722  23.625  1.00  0.00     0.001 A 
ATOM    104  C   UNL A   1      29.055  28.878  22.697  1.00  0.00     0.001 A 
ATOM    105  C   UNL A   1      27.684  28.819  22.949  1.00  0.00     0.000 A 
ENDBRANCH  94 100
BRANCH  98 106
ATOM    106  C   UNL A   1      32.100  21.562  24.797  1.00  0.00     0.005 C 
ATOM    107  C   UNL A   1      32.311  20.327  24.320  1.00  0.00     0.008 C 
BRANCH 107 108
ATOM    108  C   UNL A   1      33.599  19.629  24.496  1.00  0.00    -0.026 A 
ATOM    109  C   UNL A   1      33.666  18.247  24.280  1.00  0.00     0.008 A 
ATOM    110  C   UNL A   1      34.766  20.301  24.900  1.00  0.00     0.008 A 
ATOM    111  C   UNL A   1      34.878  17.562  24.425  1.00  0.00     0.001 A 
ATOM    112  C   UNL A   1      35.975  19.616  25.044  1.00  0.00     0.001 A 
ATOM    113  C   UNL A   1      36.031  18.247  24.803  1.00  0.00     0.000 A 
ENDBRANCH 107 108
ENDBRANCH  98 106
ENDBRANCH  88  92
BRANCH  91 114
ATOM    114  S   UNL A   1      33.819  29.861  26.780  1.00  0.00     0.124 S 
ATOM    115  O   UNL A   1      35.218  29.694  27.153  1.00  0.00    -0.237 OA
ATOM    116  O   UNL A   1      33.250  31.149  26.511  1.00  0.00    -0.237 OA
ATOM    117  O   UNL A   1      32.998  29.185  27.993  1.00  0.00    -0.744 OA
ENDBRANCH  91 114
ENDBRANCH  84  86
ENDBRANCH  83  84
ENDBRANCH  82  83
ENDBRANCH  81  82
ENDBRANCH  80  81
ENDBRANCH  79  80
ENDBRANCH  78  79
ENDBRANCH   1  78
TORSDOF 28
ENDMDL
