MODEL 1
REMARK VINA RESULT:      -7.7      0.000      0.000
REMARK SMILES Cc1ccc(S(=O)(=O)n2cc(C(=O)C(=O)N[C@@H](Cc3c[nH]c4ccccc34)C(=O)NCC(=O)OCCOCCOCCOCCOC(=O)c3ccc(-c4c5nc(c(-c6c(F)cc(S(=O)(=O)[O-])cc6F)c6ccc([nH]6)c(-c6c(F)cc(S(=O)(=O)[O-])cc6F)c6nc(c(-c7c(F)cc(S(=O)(=O)[O-])cc7F)c7ccc4[nH]7)C=C6)C=C5)cc3)c3ccccc32)cc1
REMARK SMILES IDX 38 1 37 2 36 3 35 4 34 5 32 6 33 7 31 8 30 9 28 10 29 11
REMARK SMILES IDX 17 13 16 14 14 15 15 16 12 18 13 19 11 20 9 21 10 22 120 23
REMARK SMILES IDX 115 24 119 25 116 26 118 27 117 28 6 29 7 30 8 31 5 32 1 33
REMARK SMILES IDX 2 34 3 35 122 36 4 37 121 38 18 39 19 40 20 41 27 42 21 43
REMARK SMILES IDX 22 44 26 45 23 47 25 48 24 49 39 50 40 51 41 52 42 53 43 54
REMARK SMILES IDX 44 55 45 56 46 57 47 58 48 59 49 60 50 61 114 62 51 63
REMARK SMILES IDX 113 64 52 65 53 66 54 67 107 68 55 69 112 70 106 71 108 72
REMARK SMILES IDX 56 73 111 74 105 75 104 76 57 78 91 79 70 80 90 81 71 82
REMARK SMILES IDX 74 83 89 84 109 85 72 86 73 87 88 89 110 90 75 91 58 92
REMARK SMILES IDX 59 93 68 94 60 95 61 96 67 97 69 98 62 99 63 100 64 101
REMARK SMILES IDX 65 102 66 103 92 104 93 105 102 106 94 107 95 108 101 109
REMARK SMILES IDX 103 110 96 111 97 112 98 113 99 114 100 115 76 116 77 117
REMARK SMILES IDX 86 118 78 119 79 120 85 121 87 122 80 123 81 124 82 125
REMARK SMILES IDX 83 126 84 127
REMARK H PARENT 30 12 16 17 21 46 108 77 74 88
REMARK Flexibility Score: inf
ROOT
ATOM      1  C   UNL A   1      42.019  38.170  27.943  1.00  0.00     0.188 C 
ENDROOT
BRANCH   1   2
ATOM      2  O   UNL A   1      41.622  36.715  27.806  1.00  0.00    -0.376 OA
BRANCH   2   3
ATOM      3  C   UNL A   1      42.515  35.312  27.721  1.00  0.00     0.202 C 
BRANCH   3   4
ATOM      4  C   UNL A   1      43.653  34.340  28.851  1.00  0.00     0.261 C 
BRANCH   4   5
ATOM      5  O   UNL A   1      43.354  33.251  30.186  1.00  0.00    -0.462 OA
BRANCH   5   6
ATOM      6  C   UNL A   1      42.502  32.347  30.894  1.00  0.00     0.325 C 
ATOM      7  O   UNL A   1      42.690  31.868  32.027  1.00  0.00    -0.250 OA
BRANCH   6   8
ATOM      8  C   UNL A   1      40.940  32.166  30.415  1.00  0.00     0.238 C 
BRANCH   8   9
ATOM      9  N   UNL A   1      39.874  33.301  30.688  1.00  0.00    -0.343 N 
ATOM     10  C   UNL A   1      38.589  33.642  30.289  1.00  0.00     0.243 C 
ATOM     11  O   UNL A   1      38.319  34.858  30.276  1.00  0.00    -0.273 OA
ATOM     12  H   UNL A   1      40.226  33.959  31.330  1.00  0.00     0.164 HD
BRANCH  10  13
ATOM     13  C   UNL A   1      37.391  32.637  30.055  1.00  0.00     0.176 C 
BRANCH  13  14
ATOM     14  N   UNL A   1      36.016  33.202  29.912  1.00  0.00    -0.337 N 
ATOM     15  C   UNL A   1      34.945  33.433  30.786  1.00  0.00     0.293 C 
ATOM     16  O   UNL A   1      33.886  33.869  30.334  1.00  0.00    -0.265 OA
ATOM     17  H   UNL A   1      35.816  33.478  28.988  1.00  0.00     0.164 HD
BRANCH  15  18
ATOM     18  C   UNL A   1      35.007  33.154  32.304  1.00  0.00     0.252 C 
ATOM     19  O   UNL A   1      33.950  32.809  32.829  1.00  0.00    -0.283 OA
BRANCH  18  20
ATOM     20  C   UNL A   1      36.205  33.474  33.151  1.00  0.00     0.054 A 
ATOM     21  N   UNL A   1      37.794  34.329  34.550  1.00  0.00    -0.240 N 
ATOM     22  C   UNL A   1      36.842  34.665  33.572  1.00  0.00     0.117 A 
ATOM     23  C   UNL A   1      37.670  32.947  34.784  1.00  0.00     0.065 A 
ATOM     24  C   UNL A   1      37.039  32.431  33.659  1.00  0.00     0.012 A 
ATOM     25  C   UNL A   1      38.294  32.104  35.725  1.00  0.00     0.028 A 
ATOM     26  C   UNL A   1      37.252  31.075  33.336  1.00  0.00     0.011 A 
ATOM     27  C   UNL A   1      38.534  30.781  35.361  1.00  0.00     0.002 A 
ATOM     28  C   UNL A   1      38.068  30.288  34.152  1.00  0.00     0.001 A 
BRANCH  21  29
ATOM     29  S   UNL A   1      39.454  34.843  34.771  1.00  0.00     0.268 S 
ATOM     30  O   UNL A   1      39.306  36.171  35.348  1.00  0.00    -0.201 OA
ATOM     31  O   UNL A   1      39.965  34.681  33.413  1.00  0.00    -0.201 OA
BRANCH  29  32
ATOM     32  C   UNL A   1      40.812  34.149  35.653  1.00  0.00     0.088 A 
ATOM     33  C   UNL A   1      43.997  33.347  38.489  1.00  0.00     0.044 C 
ATOM     34  C   UNL A   1      42.881  33.559  37.505  1.00  0.00    -0.051 A 
ATOM     35  C   UNL A   1      41.850  34.403  37.884  1.00  0.00     0.005 A 
ATOM     36  C   UNL A   1      42.850  32.993  36.208  1.00  0.00     0.005 A 
ATOM     37  C   UNL A   1      40.836  34.673  36.979  1.00  0.00     0.022 A 
ATOM     38  C   UNL A   1      41.818  33.284  35.269  1.00  0.00     0.022 A 
ENDBRANCH  29  32
ENDBRANCH  21  29
ENDBRANCH  18  20
ENDBRANCH  15  18
ENDBRANCH  13  14
BRANCH  13  39
ATOM     39  C   UNL A   1      37.872  31.753  28.834  1.00  0.00     0.072 C 
BRANCH  39  40
ATOM     40  C   UNL A   1      37.716  30.274  29.123  1.00  0.00    -0.020 A 
ATOM     41  C   UNL A   1      37.187  29.696  30.269  1.00  0.00     0.087 A 
ATOM     42  C   UNL A   1      38.480  29.271  28.461  1.00  0.00     0.003 A 
ATOM     43  N   UNL A   1      37.752  28.447  30.404  1.00  0.00    -0.361 N 
ATOM     44  C   UNL A   1      38.625  28.220  29.365  1.00  0.00     0.046 A 
ATOM     45  C   UNL A   1      39.288  29.324  27.311  1.00  0.00     0.010 A 
ATOM     46  H   UNL A   1      37.560  27.814  31.134  1.00  0.00     0.166 HD
ATOM     47  C   UNL A   1      39.621  27.255  29.222  1.00  0.00     0.026 A 
ATOM     48  C   UNL A   1      40.356  28.441  27.212  1.00  0.00     0.001 A 
ATOM     49  C   UNL A   1      40.504  27.424  28.149  1.00  0.00     0.002 A 
ENDBRANCH  39  40
ENDBRANCH  13  39
ENDBRANCH  10  13
ENDBRANCH   8   9
ENDBRANCH   6   8
ENDBRANCH   5   6
ENDBRANCH   4   5
ENDBRANCH   3   4
ENDBRANCH   2   3
ENDBRANCH   1   2
BRANCH   1  50
ATOM     50  C   UNL A   1      43.224  38.990  27.210  1.00  0.00     0.188 C 
BRANCH  50  51
ATOM     51  O   UNL A   1      44.345  39.508  27.894  1.00  0.00    -0.377 OA
BRANCH  51  52
ATOM     52  C   UNL A   1      44.948  38.551  28.734  1.00  0.00     0.188 C 
BRANCH  52  53
ATOM     53  C   UNL A   1      46.233  39.031  29.441  1.00  0.00     0.188 C 
BRANCH  53  54
ATOM     54  O   UNL A   1      46.202  38.809  30.847  1.00  0.00    -0.376 OA
BRANCH  54  55
ATOM     55  C   UNL A   1      45.008  38.878  31.581  1.00  0.00     0.202 C 
BRANCH  55  56
ATOM     56  C   UNL A   1      45.289  38.524  33.039  1.00  0.00     0.261 C 
BRANCH  56  57
ATOM     57  O   UNL A   1      44.076  38.674  33.814  1.00  0.00    -0.460 OA
BRANCH  57  58
ATOM     58  C   UNL A   1      43.707  39.941  34.164  1.00  0.00     0.338 C 
ATOM     59  O   UNL A   1      42.941  40.649  33.546  1.00  0.00    -0.246 OA
BRANCH  58  60
ATOM     60  C   UNL A   1      44.530  40.351  35.352  1.00  0.00     0.060 A 
ATOM     61  C   UNL A   1      45.496  39.504  35.894  1.00  0.00     0.016 A 
ATOM     62  C   UNL A   1      44.144  41.466  36.098  1.00  0.00     0.016 A 
ATOM     63  C   UNL A   1      45.880  39.675  37.242  1.00  0.00     0.010 A 
ATOM     64  C   UNL A   1      44.359  41.479  37.472  1.00  0.00     0.010 A 
ATOM     65  C   UNL A   1      45.086  40.455  38.102  1.00  0.00    -0.014 A 
BRANCH  65  66
ATOM     66  C   UNL A   1      44.833  40.329  39.688  1.00  0.00     0.031 A 
ATOM     67  C   UNL A   1      43.569  39.348  39.692  1.00  0.00     0.074 A 
ATOM     68  C   UNL A   1      45.488  41.126  40.783  1.00  0.00     0.049 A 
ATOM     69  N   UNL A   1      42.431  39.465  40.323  1.00  0.00    -0.248 NA
ATOM     70  C   UNL A   1      43.440  38.316  38.639  1.00  0.00     0.031 C 
ATOM     71  C   UNL A   1      46.126  40.859  42.077  1.00  0.00     0.029 A 
ATOM     72  N   UNL A   1      45.438  42.577  41.135  1.00  0.00    -0.354 N 
ATOM     73  C   UNL A   1      41.657  38.353  40.056  1.00  0.00     0.074 A 
ATOM     74  C   UNL A   1      42.215  37.841  38.842  1.00  0.00     0.031 C 
ATOM     75  C   UNL A   1      45.976  41.912  42.967  1.00  0.00     0.029 A 
ATOM     76  C   UNL A   1      45.278  43.005  42.417  1.00  0.00     0.049 A 
ATOM     77  H   UNL A   1      45.526  43.244  40.418  1.00  0.00     0.167 HD
ATOM     78  C   UNL A   1      40.760  37.840  40.956  1.00  0.00     0.037 A 
ATOM     79  C   UNL A   1      44.574  44.071  42.924  1.00  0.00     0.037 A 
ATOM     80  C   UNL A   1      40.681  38.639  42.204  1.00  0.00     0.049 A 
ATOM     81  C   UNL A   1      43.178  43.786  43.584  1.00  0.00     0.074 A 
ATOM     82  C   UNL A   1      40.904  38.317  43.533  1.00  0.00     0.029 A 
ATOM     83  N   UNL A   1      40.494  40.039  42.198  1.00  0.00    -0.354 N 
ATOM     84  N   UNL A   1      42.521  42.649  43.607  1.00  0.00    -0.248 NA
ATOM     85  C   UNL A   1      42.395  44.831  44.259  1.00  0.00     0.031 C 
ATOM     86  C   UNL A   1      40.731  39.475  44.316  1.00  0.00     0.029 A 
ATOM     87  C   UNL A   1      40.549  40.562  43.488  1.00  0.00     0.049 A 
ATOM     88  H   UNL A   1      40.344  40.577  41.387  1.00  0.00     0.167 HD
ATOM     89  C   UNL A   1      41.208  42.841  44.021  1.00  0.00     0.074 A 
ATOM     90  C   UNL A   1      41.252  44.186  44.563  1.00  0.00     0.031 C 
ATOM     91  C   UNL A   1      40.175  41.928  43.868  1.00  0.00     0.037 A 
BRANCH  78  92
ATOM     92  C   UNL A   1      40.265  36.361  40.823  1.00  0.00     0.058 A 
ATOM     93  C   UNL A   1      39.237  35.974  39.934  1.00  0.00     0.135 A 
ATOM     94  C   UNL A   1      40.708  35.282  41.624  1.00  0.00     0.135 A 
ATOM     95  F   UNL A   1      38.888  36.736  38.892  1.00  0.00    -0.206 F 
ATOM     96  C   UNL A   1      38.550  34.750  40.015  1.00  0.00     0.059 A 
ATOM     97  C   UNL A   1      40.015  34.068  41.768  1.00  0.00     0.059 A 
ATOM     98  F   UNL A   1      41.908  35.310  42.217  1.00  0.00    -0.206 F 
ATOM     99  C   UNL A   1      38.901  33.824  40.985  1.00  0.00     0.060 A 
BRANCH  99 100
ATOM    100  S   UNL A   1      37.984  32.275  41.115  1.00  0.00     0.124 S 
ATOM    101  O   UNL A   1      37.059  32.558  42.207  1.00  0.00    -0.237 OA
ATOM    102  O   UNL A   1      37.383  32.154  39.790  1.00  0.00    -0.237 OA
ATOM    103  O   UNL A   1      39.019  31.289  41.418  1.00  0.00    -0.744 OA
ENDBRANCH  99 100
ENDBRANCH  78  92
BRANCH  79 104
ATOM    104  C   UNL A   1      44.901  45.369  42.196  1.00  0.00     0.058 A 
ATOM    105  C   UNL A   1      46.243  45.784  42.291  1.00  0.00     0.135 A 
ATOM    106  C   UNL A   1      44.165  45.940  41.149  1.00  0.00     0.135 A 
ATOM    107  F   UNL A   1      46.960  45.430  43.364  1.00  0.00    -0.206 F 
ATOM    108  C   UNL A   1      46.904  46.454  41.263  1.00  0.00     0.059 A 
ATOM    109  C   UNL A   1      44.808  46.606  40.084  1.00  0.00     0.059 A 
ATOM    110  F   UNL A   1      42.850  45.692  41.031  1.00  0.00    -0.206 F 
ATOM    111  C   UNL A   1      46.194  46.784  40.116  1.00  0.00     0.060 A 
BRANCH 111 112
ATOM    112  S   UNL A   1      47.092  47.226  38.597  1.00  0.00     0.124 S 
ATOM    113  O   UNL A   1      46.813  48.651  38.478  1.00  0.00    -0.237 OA
ATOM    114  O   UNL A   1      48.481  46.893  38.906  1.00  0.00    -0.237 OA
ATOM    115  O   UNL A   1      46.468  46.367  37.597  1.00  0.00    -0.744 OA
ENDBRANCH 111 112
ENDBRANCH  79 104
BRANCH  91 116
ATOM    116  C   UNL A   1      38.697  42.113  44.311  1.00  0.00     0.058 A 
ATOM    117  C   UNL A   1      37.654  42.596  43.503  1.00  0.00     0.135 A 
ATOM    118  C   UNL A   1      38.271  41.764  45.629  1.00  0.00     0.135 A 
ATOM    119  F   UNL A   1      37.810  42.745  42.182  1.00  0.00    -0.206 F 
ATOM    120  C   UNL A   1      36.373  42.887  44.001  1.00  0.00     0.059 A 
ATOM    121  C   UNL A   1      37.002  42.029  46.144  1.00  0.00     0.059 A 
ATOM    122  F   UNL A   1      39.058  41.106  46.490  1.00  0.00    -0.206 F 
ATOM    123  C   UNL A   1      36.066  42.635  45.335  1.00  0.00     0.060 A 
BRANCH 123 124
ATOM    124  S   UNL A   1      34.425  43.011  45.976  1.00  0.00     0.124 S 
ATOM    125  O   UNL A   1      34.644  42.932  47.414  1.00  0.00    -0.237 OA
ATOM    126  O   UNL A   1      34.176  44.344  45.443  1.00  0.00    -0.237 OA
ATOM    127  O   UNL A   1      33.586  41.952  45.408  1.00  0.00    -0.744 OA
ENDBRANCH 123 124
ENDBRANCH  91 116
ENDBRANCH  65  66
ENDBRANCH  58  60
ENDBRANCH  57  58
ENDBRANCH  56  57
ENDBRANCH  55  56
ENDBRANCH  54  55
ENDBRANCH  53  54
ENDBRANCH  52  53
ENDBRANCH  51  52
ENDBRANCH  50  51
ENDBRANCH   1  50
TORSDOF 32
ENDMDL
MODEL 2
REMARK VINA RESULT:      -7.2      8.965     16.933
REMARK SMILES Cc1ccc(S(=O)(=O)n2cc(C(=O)C(=O)N[C@@H](Cc3c[nH]c4ccccc34)C(=O)NCC(=O)OCCOCCOCCOCCOC(=O)c3ccc(-c4c5nc(c(-c6c(F)cc(S(=O)(=O)[O-])cc6F)c6ccc([nH]6)c(-c6c(F)cc(S(=O)(=O)[O-])cc6F)c6nc(c(-c7c(F)cc(S(=O)(=O)[O-])cc7F)c7ccc4[nH]7)C=C6)C=C5)cc3)c3ccccc32)cc1
REMARK SMILES IDX 38 1 37 2 36 3 35 4 34 5 32 6 33 7 31 8 30 9 28 10 29 11
REMARK SMILES IDX 17 13 16 14 14 15 15 16 12 18 13 19 11 20 9 21 10 22 120 23
REMARK SMILES IDX 115 24 119 25 116 26 118 27 117 28 6 29 7 30 8 31 5 32 1 33
REMARK SMILES IDX 2 34 3 35 122 36 4 37 121 38 18 39 19 40 20 41 27 42 21 43
REMARK SMILES IDX 22 44 26 45 23 47 25 48 24 49 39 50 40 51 41 52 42 53 43 54
REMARK SMILES IDX 44 55 45 56 46 57 47 58 48 59 49 60 50 61 114 62 51 63
REMARK SMILES IDX 113 64 52 65 53 66 54 67 107 68 55 69 112 70 106 71 108 72
REMARK SMILES IDX 56 73 111 74 105 75 104 76 57 78 91 79 70 80 90 81 71 82
REMARK SMILES IDX 74 83 89 84 109 85 72 86 73 87 88 89 110 90 75 91 58 92
REMARK SMILES IDX 59 93 68 94 60 95 61 96 67 97 69 98 62 99 63 100 64 101
REMARK SMILES IDX 65 102 66 103 92 104 93 105 102 106 94 107 95 108 101 109
REMARK SMILES IDX 103 110 96 111 97 112 98 113 99 114 100 115 76 116 77 117
REMARK SMILES IDX 86 118 78 119 79 120 85 121 87 122 80 123 81 124 82 125
REMARK SMILES IDX 83 126 84 127
REMARK H PARENT 30 12 16 17 21 46 108 77 74 88
REMARK Flexibility Score: inf
ROOT
ATOM      1  C   UNL A   1      46.033  26.222  25.855  1.00  0.00     0.188 C 
ENDROOT
BRANCH   1   2
ATOM      2  O   UNL A   1      46.808  26.000  24.573  1.00  0.00    -0.376 OA
BRANCH   2   3
ATOM      3  C   UNL A   1      48.077  26.821  23.873  1.00  0.00     0.202 C 
BRANCH   3   4
ATOM      4  C   UNL A   1      49.528  27.856  24.455  1.00  0.00     0.261 C 
BRANCH   4   5
ATOM      5  O   UNL A   1      49.834  28.753  25.924  1.00  0.00    -0.462 OA
BRANCH   5   6
ATOM      6  C   UNL A   1      50.128  29.977  26.603  1.00  0.00     0.325 C 
ATOM      7  O   UNL A   1      51.148  30.678  26.481  1.00  0.00    -0.250 OA
BRANCH   6   8
ATOM      8  C   UNL A   1      48.913  30.803  27.339  1.00  0.00     0.238 C 
BRANCH   8   9
ATOM      9  N   UNL A   1      49.208  31.749  28.570  1.00  0.00    -0.343 N 
ATOM     10  C   UNL A   1      48.549  32.704  29.333  1.00  0.00     0.243 C 
ATOM     11  O   UNL A   1      49.258  33.605  29.823  1.00  0.00    -0.273 OA
ATOM     12  H   UNL A   1      50.131  31.624  28.890  1.00  0.00     0.164 HD
BRANCH  10  13
ATOM     13  C   UNL A   1      47.041  32.639  29.804  1.00  0.00     0.176 C 
BRANCH  13  14
ATOM     14  N   UNL A   1      46.746  32.858  31.251  1.00  0.00    -0.337 N 
ATOM     15  C   UNL A   1      45.624  33.277  31.980  1.00  0.00     0.293 C 
ATOM     16  O   UNL A   1      45.721  33.421  33.199  1.00  0.00    -0.265 OA
ATOM     17  H   UNL A   1      47.520  32.662  31.828  1.00  0.00     0.164 HD
BRANCH  15  18
ATOM     18  C   UNL A   1      44.256  33.588  31.336  1.00  0.00     0.252 C 
ATOM     19  O   UNL A   1      44.253  34.476  30.486  1.00  0.00    -0.283 OA
BRANCH  18  20
ATOM     20  C   UNL A   1      42.961  33.014  31.836  1.00  0.00     0.054 A 
ATOM     21  N   UNL A   1      41.136  31.764  32.401  1.00  0.00    -0.240 N 
ATOM     22  C   UNL A   1      42.063  32.023  31.377  1.00  0.00     0.117 A 
ATOM     23  C   UNL A   1      41.527  32.534  33.511  1.00  0.00     0.065 A 
ATOM     24  C   UNL A   1      42.329  33.548  33.001  1.00  0.00     0.012 A 
ATOM     25  C   UNL A   1      41.028  32.588  34.828  1.00  0.00     0.028 A 
ATOM     26  C   UNL A   1      42.426  34.753  33.727  1.00  0.00     0.011 A 
ATOM     27  C   UNL A   1      41.094  33.804  35.504  1.00  0.00     0.002 A 
ATOM     28  C   UNL A   1      41.736  34.893  34.934  1.00  0.00     0.001 A 
BRANCH  21  29
ATOM     29  S   UNL A   1      39.394  31.582  32.363  1.00  0.00     0.268 S 
ATOM     30  O   UNL A   1      38.925  32.958  32.400  1.00  0.00    -0.201 OA
ATOM     31  O   UNL A   1      39.195  30.703  33.513  1.00  0.00    -0.201 OA
BRANCH  29  32
ATOM     32  C   UNL A   1      38.299  30.793  31.231  1.00  0.00     0.088 A 
ATOM     33  C   UNL A   1      35.827  29.771  27.813  1.00  0.00     0.044 C 
ATOM     34  C   UNL A   1      36.700  30.061  29.002  1.00  0.00    -0.051 A 
ATOM     35  C   UNL A   1      37.722  30.982  28.833  1.00  0.00     0.005 A 
ATOM     36  C   UNL A   1      36.508  29.491  30.283  1.00  0.00     0.005 A 
ATOM     37  C   UNL A   1      38.507  31.321  29.922  1.00  0.00     0.022 A 
ATOM     38  C   UNL A   1      37.302  29.854  31.410  1.00  0.00     0.022 A 
ENDBRANCH  29  32
ENDBRANCH  21  29
ENDBRANCH  18  20
ENDBRANCH  15  18
ENDBRANCH  13  14
BRANCH  13  39
ATOM     39  C   UNL A   1      46.296  33.630  28.820  1.00  0.00     0.072 C 
BRANCH  39  40
ATOM     40  C   UNL A   1      45.518  32.879  27.760  1.00  0.00    -0.020 A 
ATOM     41  C   UNL A   1      45.943  31.776  27.033  1.00  0.00     0.087 A 
ATOM     42  C   UNL A   1      44.423  33.453  27.051  1.00  0.00     0.003 A 
ATOM     43  N   UNL A   1      45.263  31.778  25.836  1.00  0.00    -0.361 N 
ATOM     44  C   UNL A   1      44.411  32.858  25.790  1.00  0.00     0.046 A 
ATOM     45  C   UNL A   1      43.670  34.617  27.285  1.00  0.00     0.010 A 
ATOM     46  H   UNL A   1      45.369  31.109  25.122  1.00  0.00     0.166 HD
ATOM     47  C   UNL A   1      43.748  33.436  24.708  1.00  0.00     0.026 A 
ATOM     48  C   UNL A   1      43.100  35.266  26.198  1.00  0.00     0.001 A 
ATOM     49  C   UNL A   1      43.136  34.673  24.939  1.00  0.00     0.002 A 
ENDBRANCH  39  40
ENDBRANCH  13  39
ENDBRANCH  10  13
ENDBRANCH   8   9
ENDBRANCH   6   8
ENDBRANCH   5   6
ENDBRANCH   4   5
ENDBRANCH   3   4
ENDBRANCH   2   3
ENDBRANCH   1   2
BRANCH   1  50
ATOM     50  C   UNL A   1      44.802  25.356  26.486  1.00  0.00     0.188 C 
BRANCH  50  51
ATOM     51  O   UNL A   1      43.451  25.542  26.125  1.00  0.00    -0.377 OA
BRANCH  51  52
ATOM     52  C   UNL A   1      43.304  26.431  25.041  1.00  0.00     0.188 C 
BRANCH  52  53
ATOM     53  C   UNL A   1      42.496  27.708  25.359  1.00  0.00     0.188 C 
BRANCH  53  54
ATOM     54  O   UNL A   1      41.565  27.519  26.418  1.00  0.00    -0.376 OA
BRANCH  54  55
ATOM     55  C   UNL A   1      40.501  28.407  26.636  1.00  0.00     0.202 C 
BRANCH  55  56
ATOM     56  C   UNL A   1      39.917  28.167  28.026  1.00  0.00     0.261 C 
BRANCH  56  57
ATOM     57  O   UNL A   1      40.904  27.511  28.856  1.00  0.00    -0.460 OA
BRANCH  57  58
ATOM     58  C   UNL A   1      41.473  28.246  29.857  1.00  0.00     0.338 C 
ATOM     59  O   UNL A   1      40.883  28.723  30.804  1.00  0.00    -0.246 OA
BRANCH  58  60
ATOM     60  C   UNL A   1      42.911  28.485  29.496  1.00  0.00     0.060 A 
ATOM     61  C   UNL A   1      43.765  27.430  29.176  1.00  0.00     0.016 A 
ATOM     62  C   UNL A   1      43.480  29.734  29.752  1.00  0.00     0.016 A 
ATOM     63  C   UNL A   1      45.157  27.602  29.334  1.00  0.00     0.010 A 
ATOM     64  C   UNL A   1      44.820  29.814  30.116  1.00  0.00     0.010 A 
ATOM     65  C   UNL A   1      45.647  28.679  30.094  1.00  0.00    -0.014 A 
BRANCH  65  66
ATOM     66  C   UNL A   1      46.980  28.801  30.990  1.00  0.00     0.031 A 
ATOM     67  C   UNL A   1      47.998  27.951  30.095  1.00  0.00     0.074 A 
ATOM     68  C   UNL A   1      47.098  29.367  32.379  1.00  0.00     0.049 A 
ATOM     69  N   UNL A   1      48.806  26.986  30.448  1.00  0.00    -0.248 NA
ATOM     70  C   UNL A   1      47.858  27.956  28.622  1.00  0.00     0.031 C 
ATOM     71  C   UNL A   1      47.976  30.302  33.092  1.00  0.00     0.029 A 
ATOM     72  N   UNL A   1      46.546  28.922  33.694  1.00  0.00    -0.354 N 
ATOM     73  C   UNL A   1      49.522  26.577  29.341  1.00  0.00     0.074 A 
ATOM     74  C   UNL A   1      48.718  27.017  28.241  1.00  0.00     0.031 C 
ATOM     75  C   UNL A   1      48.085  29.999  34.441  1.00  0.00     0.029 A 
ATOM     76  C   UNL A   1      47.305  28.890  34.824  1.00  0.00     0.049 A 
ATOM     77  H   UNL A   1      45.604  28.644  33.746  1.00  0.00     0.167 HD
ATOM     78  C   UNL A   1      50.802  26.093  29.422  1.00  0.00     0.037 A 
ATOM     79  C   UNL A   1      47.322  27.996  35.866  1.00  0.00     0.037 A 
ATOM     80  C   UNL A   1      51.293  26.010  30.819  1.00  0.00     0.049 A 
ATOM     81  C   UNL A   1      48.474  26.928  35.902  1.00  0.00     0.074 A 
ATOM     82  C   UNL A   1      52.378  26.585  31.461  1.00  0.00     0.029 A 
ATOM     83  N   UNL A   1      50.556  25.382  31.848  1.00  0.00    -0.354 N 
ATOM     84  N   UNL A   1      49.376  26.692  34.977  1.00  0.00    -0.248 NA
ATOM     85  C   UNL A   1      48.655  25.999  37.028  1.00  0.00     0.031 C 
ATOM     86  C   UNL A   1      52.357  26.206  32.818  1.00  0.00     0.029 A 
ATOM     87  C   UNL A   1      51.189  25.520  33.081  1.00  0.00     0.049 A 
ATOM     88  H   UNL A   1      49.704  24.908  31.712  1.00  0.00     0.167 HD
ATOM     89  C   UNL A   1      50.043  25.499  35.225  1.00  0.00     0.074 A 
ATOM     90  C   UNL A   1      49.659  25.212  36.595  1.00  0.00     0.031 C 
ATOM     91  C   UNL A   1      50.823  24.808  34.309  1.00  0.00     0.037 A 
BRANCH  78  92
ATOM     92  C   UNL A   1      51.727  26.087  28.160  1.00  0.00     0.058 A 
ATOM     93  C   UNL A   1      52.890  26.883  28.058  1.00  0.00     0.135 A 
ATOM     94  C   UNL A   1      51.464  25.376  26.965  1.00  0.00     0.135 A 
ATOM     95  F   UNL A   1      53.489  27.389  29.141  1.00  0.00    -0.206 F 
ATOM     96  C   UNL A   1      53.552  27.151  26.848  1.00  0.00     0.059 A 
ATOM     97  C   UNL A   1      52.069  25.658  25.728  1.00  0.00     0.059 A 
ATOM     98  F   UNL A   1      50.688  24.285  26.967  1.00  0.00    -0.206 F 
ATOM     99  C   UNL A   1      53.092  26.587  25.669  1.00  0.00     0.060 A 
BRANCH  99 100
ATOM    100  S   UNL A   1      53.918  26.975  24.111  1.00  0.00     0.124 S 
ATOM    101  O   UNL A   1      55.017  26.016  24.101  1.00  0.00    -0.237 OA
ATOM    102  O   UNL A   1      52.863  26.741  23.130  1.00  0.00    -0.237 OA
ATOM    103  O   UNL A   1      54.314  28.372  24.273  1.00  0.00    -0.744 OA
ENDBRANCH  99 100
ENDBRANCH  78  92
BRANCH  79 104
ATOM    104  C   UNL A   1      45.926  27.732  36.416  1.00  0.00     0.058 A 
ATOM    105  C   UNL A   1      45.181  28.886  36.729  1.00  0.00     0.135 A 
ATOM    106  C   UNL A   1      45.179  26.557  36.255  1.00  0.00     0.135 A 
ATOM    107  F   UNL A   1      45.829  30.004  37.077  1.00  0.00    -0.206 F 
ATOM    108  C   UNL A   1      43.797  28.957  36.583  1.00  0.00     0.059 A 
ATOM    109  C   UNL A   1      43.779  26.600  36.085  1.00  0.00     0.059 A 
ATOM    110  F   UNL A   1      45.799  25.382  36.058  1.00  0.00    -0.206 F 
ATOM    111  C   UNL A   1      43.110  27.824  36.170  1.00  0.00     0.060 A 
BRANCH 111 112
ATOM    112  S   UNL A   1      41.414  27.983  35.529  1.00  0.00     0.124 S 
ATOM    113  O   UNL A   1      40.797  28.870  36.506  1.00  0.00    -0.237 OA
ATOM    114  O   UNL A   1      41.599  28.561  34.200  1.00  0.00    -0.237 OA
ATOM    115  O   UNL A   1      40.942  26.603  35.533  1.00  0.00    -0.744 OA
ENDBRANCH 111 112
ENDBRANCH  79 104
BRANCH  91 116
ATOM    116  C   UNL A   1      51.575  23.469  34.550  1.00  0.00     0.058 A 
ATOM    117  C   UNL A   1      52.808  23.330  35.208  1.00  0.00     0.135 A 
ATOM    118  C   UNL A   1      51.025  22.224  34.116  1.00  0.00     0.135 A 
ATOM    119  F   UNL A   1      53.352  24.347  35.888  1.00  0.00    -0.206 F 
ATOM    120  C   UNL A   1      53.513  22.116  35.260  1.00  0.00     0.059 A 
ATOM    121  C   UNL A   1      51.698  21.004  34.169  1.00  0.00     0.059 A 
ATOM    122  F   UNL A   1      49.776  22.113  33.647  1.00  0.00    -0.206 F 
ATOM    123  C   UNL A   1      52.967  20.963  34.704  1.00  0.00     0.060 A 
BRANCH 123 124
ATOM    124  S   UNL A   1      53.873  19.407  34.767  1.00  0.00     0.124 S 
ATOM    125  O   UNL A   1      55.127  19.820  35.384  1.00  0.00    -0.237 OA
ATOM    126  O   UNL A   1      53.005  18.571  35.586  1.00  0.00    -0.237 OA
ATOM    127  O   UNL A   1      53.966  19.009  33.360  1.00  0.00    -0.744 OA
ENDBRANCH 123 124
ENDBRANCH  91 116
ENDBRANCH  65  66
ENDBRANCH  58  60
ENDBRANCH  57  58
ENDBRANCH  56  57
ENDBRANCH  55  56
ENDBRANCH  54  55
ENDBRANCH  53  54
ENDBRANCH  52  53
ENDBRANCH  51  52
ENDBRANCH  50  51
ENDBRANCH   1  50
TORSDOF 32
ENDMDL
MODEL 3
REMARK VINA RESULT:      -7.1     11.466     18.582
REMARK SMILES Cc1ccc(S(=O)(=O)n2cc(C(=O)C(=O)N[C@@H](Cc3c[nH]c4ccccc34)C(=O)NCC(=O)OCCOCCOCCOCCOC(=O)c3ccc(-c4c5nc(c(-c6c(F)cc(S(=O)(=O)[O-])cc6F)c6ccc([nH]6)c(-c6c(F)cc(S(=O)(=O)[O-])cc6F)c6nc(c(-c7c(F)cc(S(=O)(=O)[O-])cc7F)c7ccc4[nH]7)C=C6)C=C5)cc3)c3ccccc32)cc1
REMARK SMILES IDX 38 1 37 2 36 3 35 4 34 5 32 6 33 7 31 8 30 9 28 10 29 11
REMARK SMILES IDX 17 13 16 14 14 15 15 16 12 18 13 19 11 20 9 21 10 22 120 23
REMARK SMILES IDX 115 24 119 25 116 26 118 27 117 28 6 29 7 30 8 31 5 32 1 33
REMARK SMILES IDX 2 34 3 35 122 36 4 37 121 38 18 39 19 40 20 41 27 42 21 43
REMARK SMILES IDX 22 44 26 45 23 47 25 48 24 49 39 50 40 51 41 52 42 53 43 54
REMARK SMILES IDX 44 55 45 56 46 57 47 58 48 59 49 60 50 61 114 62 51 63
REMARK SMILES IDX 113 64 52 65 53 66 54 67 107 68 55 69 112 70 106 71 108 72
REMARK SMILES IDX 56 73 111 74 105 75 104 76 57 78 91 79 70 80 90 81 71 82
REMARK SMILES IDX 74 83 89 84 109 85 72 86 73 87 88 89 110 90 75 91 58 92
REMARK SMILES IDX 59 93 68 94 60 95 61 96 67 97 69 98 62 99 63 100 64 101
REMARK SMILES IDX 65 102 66 103 92 104 93 105 102 106 94 107 95 108 101 109
REMARK SMILES IDX 103 110 96 111 97 112 98 113 99 114 100 115 76 116 77 117
REMARK SMILES IDX 86 118 78 119 79 120 85 121 87 122 80 123 81 124 82 125
REMARK SMILES IDX 83 126 84 127
REMARK H PARENT 30 12 16 17 21 46 108 77 74 88
REMARK Flexibility Score: inf
ROOT
ATOM      1  C   UNL A   1      41.537  34.401  31.201  1.00  0.00     0.188 C 
ENDROOT
BRANCH   1   2
ATOM      2  O   UNL A   1      40.557  33.247  31.240  1.00  0.00    -0.376 OA
BRANCH   2   3
ATOM      3  C   UNL A   1      39.255  32.848  30.282  1.00  0.00     0.202 C 
BRANCH   3   4
ATOM      4  C   UNL A   1      37.850  33.753  29.432  1.00  0.00     0.261 C 
BRANCH   4   5
ATOM      5  O   UNL A   1      36.161  33.964  29.831  1.00  0.00    -0.462 OA
BRANCH   5   6
ATOM      6  C   UNL A   1      34.830  34.345  29.472  1.00  0.00     0.325 C 
ATOM      7  O   UNL A   1      34.078  35.122  30.086  1.00  0.00    -0.250 OA
BRANCH   6   8
ATOM      8  C   UNL A   1      34.303  34.083  27.937  1.00  0.00     0.238 C 
BRANCH   8   9
ATOM      9  N   UNL A   1      32.926  33.354  27.668  1.00  0.00    -0.343 N 
ATOM     10  C   UNL A   1      32.466  32.161  27.129  1.00  0.00     0.243 C 
ATOM     11  O   UNL A   1      31.344  32.196  26.587  1.00  0.00    -0.273 OA
ATOM     12  H   UNL A   1      32.173  33.911  27.975  1.00  0.00     0.164 HD
BRANCH  10  13
ATOM     13  C   UNL A   1      33.129  30.738  27.318  1.00  0.00     0.176 C 
BRANCH  13  14
ATOM     14  N   UNL A   1      33.799  30.111  26.140  1.00  0.00    -0.337 N 
ATOM     15  C   UNL A   1      33.423  29.169  25.173  1.00  0.00     0.293 C 
ATOM     16  O   UNL A   1      34.252  28.801  24.340  1.00  0.00    -0.265 OA
ATOM     17  H   UNL A   1      34.720  30.436  26.013  1.00  0.00     0.164 HD
BRANCH  15  18
ATOM     18  C   UNL A   1      32.013  28.543  25.095  1.00  0.00     0.252 C 
ATOM     19  O   UNL A   1      31.077  29.337  25.025  1.00  0.00    -0.283 OA
BRANCH  18  20
ATOM     20  C   UNL A   1      31.751  27.079  25.300  1.00  0.00     0.054 A 
ATOM     21  N   UNL A   1      31.041  24.994  25.905  1.00  0.00    -0.240 N 
ATOM     22  C   UNL A   1      31.327  26.282  26.389  1.00  0.00     0.117 A 
ATOM     23  C   UNL A   1      31.206  25.037  24.508  1.00  0.00     0.065 A 
ATOM     24  C   UNL A   1      32.019  26.137  24.260  1.00  0.00     0.012 A 
ATOM     25  C   UNL A   1      30.956  24.072  23.512  1.00  0.00     0.028 A 
ATOM     26  C   UNL A   1      32.796  26.142  23.083  1.00  0.00     0.011 A 
ATOM     27  C   UNL A   1      31.770  24.071  22.382  1.00  0.00     0.002 A 
ATOM     28  C   UNL A   1      32.721  25.063  22.198  1.00  0.00     0.001 A 
BRANCH  21  29
ATOM     29  S   UNL A   1      31.454  23.408  26.524  1.00  0.00     0.268 S 
ATOM     30  O   UNL A   1      30.163  22.740  26.584  1.00  0.00    -0.201 OA
ATOM     31  O   UNL A   1      32.153  23.777  27.752  1.00  0.00    -0.201 OA
BRANCH  29  32
ATOM     32  C   UNL A   1      32.553  22.154  25.957  1.00  0.00     0.088 A 
ATOM     33  C   UNL A   1      34.290  18.491  24.406  1.00  0.00     0.044 C 
ATOM     34  C   UNL A   1      33.734  19.794  24.909  1.00  0.00    -0.051 A 
ATOM     35  C   UNL A   1      32.399  20.060  24.648  1.00  0.00     0.005 A 
ATOM     36  C   UNL A   1      34.475  20.731  25.669  1.00  0.00     0.005 A 
ATOM     37  C   UNL A   1      31.836  21.222  25.150  1.00  0.00     0.022 A 
ATOM     38  C   UNL A   1      33.892  21.917  26.203  1.00  0.00     0.022 A 
ENDBRANCH  29  32
ENDBRANCH  21  29
ENDBRANCH  18  20
ENDBRANCH  15  18
ENDBRANCH  13  14
BRANCH  13  39
ATOM     39  C   UNL A   1      34.057  30.919  28.587  1.00  0.00     0.072 C 
BRANCH  39  40
ATOM     40  C   UNL A   1      35.507  30.624  28.262  1.00  0.00    -0.020 A 
ATOM     41  C   UNL A   1      36.023  30.204  27.044  1.00  0.00     0.087 A 
ATOM     42  C   UNL A   1      36.477  30.315  29.258  1.00  0.00     0.003 A 
ATOM     43  N   UNL A   1      37.177  29.498  27.301  1.00  0.00    -0.361 N 
ATOM     44  C   UNL A   1      37.406  29.466  28.658  1.00  0.00     0.046 A 
ATOM     45  C   UNL A   1      36.447  30.446  30.658  1.00  0.00     0.010 A 
ATOM     46  H   UNL A   1      37.751  29.080  26.619  1.00  0.00     0.166 HD
ATOM     47  C   UNL A   1      38.258  28.656  29.408  1.00  0.00     0.026 A 
ATOM     48  C   UNL A   1      37.205  29.567  31.420  1.00  0.00     0.001 A 
ATOM     49  C   UNL A   1      38.097  28.700  30.797  1.00  0.00     0.002 A 
ENDBRANCH  39  40
ENDBRANCH  13  39
ENDBRANCH  10  13
ENDBRANCH   8   9
ENDBRANCH   6   8
ENDBRANCH   5   6
ENDBRANCH   4   5
ENDBRANCH   3   4
ENDBRANCH   2   3
ENDBRANCH   1   2
BRANCH   1  50
ATOM     50  C   UNL A   1      43.148  34.404  31.461  1.00  0.00     0.188 C 
BRANCH  50  51
ATOM     51  O   UNL A   1      44.033  33.467  30.887  1.00  0.00    -0.377 OA
BRANCH  51  52
ATOM     52  C   UNL A   1      44.079  32.260  31.612  1.00  0.00     0.188 C 
BRANCH  52  53
ATOM     53  C   UNL A   1      44.817  31.106  30.900  1.00  0.00     0.188 C 
BRANCH  53  54
ATOM     54  O   UNL A   1      45.463  31.524  29.702  1.00  0.00    -0.376 OA
BRANCH  54  55
ATOM     55  C   UNL A   1      45.067  31.051  28.443  1.00  0.00     0.202 C 
BRANCH  55  56
ATOM     56  C   UNL A   1      44.469  29.653  28.592  1.00  0.00     0.261 C 
BRANCH  56  57
ATOM     57  O   UNL A   1      45.536  28.686  28.731  1.00  0.00    -0.460 OA
BRANCH  57  58
ATOM     58  C   UNL A   1      45.305  27.423  28.266  1.00  0.00     0.338 C 
ATOM     59  O   UNL A   1      44.419  26.685  28.640  1.00  0.00    -0.246 OA
BRANCH  58  60
ATOM     60  C   UNL A   1      46.426  27.061  27.333  1.00  0.00     0.060 A 
ATOM     61  C   UNL A   1      46.625  25.747  26.912  1.00  0.00     0.016 A 
ATOM     62  C   UNL A   1      47.446  27.986  27.102  1.00  0.00     0.016 A 
ATOM     63  C   UNL A   1      47.909  25.353  26.478  1.00  0.00     0.010 A 
ATOM     64  C   UNL A   1      48.744  27.533  26.892  1.00  0.00     0.010 A 
ATOM     65  C   UNL A   1      49.024  26.162  26.765  1.00  0.00    -0.014 A 
BRANCH  65  66
ATOM     66  C   UNL A   1      50.562  25.763  27.028  1.00  0.00     0.031 A 
ATOM     67  C   UNL A   1      50.578  25.750  28.628  1.00  0.00     0.074 A 
ATOM     68  C   UNL A   1      51.669  25.677  26.013  1.00  0.00     0.049 A 
ATOM     69  N   UNL A   1      51.415  26.323  29.453  1.00  0.00    -0.248 NA
ATOM     70  C   UNL A   1      49.365  25.339  29.370  1.00  0.00     0.031 C 
ATOM     71  C   UNL A   1      52.735  24.734  25.658  1.00  0.00     0.029 A 
ATOM     72  N   UNL A   1      52.335  26.710  25.165  1.00  0.00    -0.354 N 
ATOM     73  C   UNL A   1      51.054  26.002  30.747  1.00  0.00     0.074 A 
ATOM     74  C   UNL A   1      49.676  25.633  30.628  1.00  0.00     0.031 C 
ATOM     75  C   UNL A   1      53.848  25.370  25.127  1.00  0.00     0.029 A 
ATOM     76  C   UNL A   1      53.687  26.766  25.018  1.00  0.00     0.049 A 
ATOM     77  H   UNL A   1      51.778  27.372  24.695  1.00  0.00     0.167 HD
ATOM     78  C   UNL A   1      51.965  25.877  31.762  1.00  0.00     0.037 A 
ATOM     79  C   UNL A   1      54.534  27.843  24.922  1.00  0.00     0.037 A 
ATOM     80  C   UNL A   1      53.351  26.178  31.326  1.00  0.00     0.049 A 
ATOM     81  C   UNL A   1      55.357  28.251  26.197  1.00  0.00     0.074 A 
ATOM     82  C   UNL A   1      54.515  25.424  31.333  1.00  0.00     0.029 A 
ATOM     83  N   UNL A   1      53.688  27.354  30.621  1.00  0.00    -0.354 N 
ATOM     84  N   UNL A   1      55.246  27.761  27.411  1.00  0.00    -0.248 NA
ATOM     85  C   UNL A   1      56.375  29.311  26.174  1.00  0.00     0.031 C 
ATOM     86  C   UNL A   1      55.552  26.184  30.758  1.00  0.00     0.029 A 
ATOM     87  C   UNL A   1      55.029  27.354  30.247  1.00  0.00     0.049 A 
ATOM     88  H   UNL A   1      53.056  28.082  30.420  1.00  0.00     0.167 HD
ATOM     89  C   UNL A   1      55.923  28.554  28.330  1.00  0.00     0.074 A 
ATOM     90  C   UNL A   1      56.731  29.399  27.470  1.00  0.00     0.031 C 
ATOM     91  C   UNL A   1      55.762  28.504  29.707  1.00  0.00     0.037 A 
BRANCH  78  92
ATOM     92  C   UNL A   1      51.602  25.078  33.057  1.00  0.00     0.058 A 
ATOM     93  C   UNL A   1      51.296  23.698  33.046  1.00  0.00     0.135 A 
ATOM     94  C   UNL A   1      51.448  25.644  34.345  1.00  0.00     0.135 A 
ATOM     95  F   UNL A   1      51.660  22.908  32.031  1.00  0.00    -0.206 F 
ATOM     96  C   UNL A   1      50.660  23.028  34.105  1.00  0.00     0.059 A 
ATOM     97  C   UNL A   1      50.769  25.022  35.406  1.00  0.00     0.059 A 
ATOM     98  F   UNL A   1      52.059  26.790  34.672  1.00  0.00    -0.206 F 
ATOM     99  C   UNL A   1      50.335  23.717  35.263  1.00  0.00     0.060 A 
BRANCH  99 100
ATOM    100  S   UNL A   1      49.475  22.862  36.599  1.00  0.00     0.124 S 
ATOM    101  O   UNL A   1      49.267  21.535  36.029  1.00  0.00    -0.237 OA
ATOM    102  O   UNL A   1      50.438  22.939  37.693  1.00  0.00    -0.237 OA
ATOM    103  O   UNL A   1      48.261  23.654  36.787  1.00  0.00    -0.744 OA
ENDBRANCH  99 100
ENDBRANCH  78  92
BRANCH  79 104
ATOM    104  C   UNL A   1      54.063  28.849  23.879  1.00  0.00     0.058 A 
ATOM    105  C   UNL A   1      54.242  28.447  22.541  1.00  0.00     0.135 A 
ATOM    106  C   UNL A   1      53.136  29.880  24.081  1.00  0.00     0.135 A 
ATOM    107  F   UNL A   1      55.235  27.600  22.242  1.00  0.00    -0.206 F 
ATOM    108  C   UNL A   1      53.360  28.799  21.519  1.00  0.00     0.059 A 
ATOM    109  C   UNL A   1      52.219  30.244  23.073  1.00  0.00     0.059 A 
ATOM    110  F   UNL A   1      52.966  30.408  25.305  1.00  0.00    -0.206 F 
ATOM    111  C   UNL A   1      52.291  29.632  21.818  1.00  0.00     0.060 A 
BRANCH 111 112
ATOM    112  S   UNL A   1      50.887  29.742  20.667  1.00  0.00     0.124 S 
ATOM    113  O   UNL A   1      50.817  31.173  20.401  1.00  0.00    -0.237 OA
ATOM    114  O   UNL A   1      51.304  28.923  19.532  1.00  0.00    -0.237 OA
ATOM    115  O   UNL A   1      49.790  29.185  21.450  1.00  0.00    -0.744 OA
ENDBRANCH 111 112
ENDBRANCH  79 104
BRANCH  91 116
ATOM    116  C   UNL A   1      56.494  29.380  30.762  1.00  0.00     0.058 A 
ATOM    117  C   UNL A   1      57.556  28.960  31.579  1.00  0.00     0.135 A 
ATOM    118  C   UNL A   1      56.134  30.747  30.966  1.00  0.00     0.135 A 
ATOM    119  F   UNL A   1      58.182  27.797  31.362  1.00  0.00    -0.206 F 
ATOM    120  C   UNL A   1      58.076  29.746  32.621  1.00  0.00     0.059 A 
ATOM    121  C   UNL A   1      56.644  31.553  31.983  1.00  0.00     0.059 A 
ATOM    122  F   UNL A   1      55.286  31.397  30.159  1.00  0.00    -0.206 F 
ATOM    123  C   UNL A   1      57.587  31.030  32.841  1.00  0.00     0.060 A 
BRANCH 123 124
ATOM    124  S   UNL A   1      58.251  32.038  34.179  1.00  0.00     0.124 S 
ATOM    125  O   UNL A   1      57.065  32.761  34.621  1.00  0.00    -0.237 OA
ATOM    126  O   UNL A   1      58.767  31.036  35.102  1.00  0.00    -0.237 OA
ATOM    127  O   UNL A   1      59.274  32.853  33.517  1.00  0.00    -0.744 OA
ENDBRANCH 123 124
ENDBRANCH  91 116
ENDBRANCH  65  66
ENDBRANCH  58  60
ENDBRANCH  57  58
ENDBRANCH  56  57
ENDBRANCH  55  56
ENDBRANCH  54  55
ENDBRANCH  53  54
ENDBRANCH  52  53
ENDBRANCH  51  52
ENDBRANCH  50  51
ENDBRANCH   1  50
TORSDOF 32
ENDMDL
