MODEL 1
REMARK VINA RESULT:     -10.3      0.000      0.000
REMARK SMILES Cc1ccc(F)c(C(=O)N[C@@H]2C=C[C@@H](C(=O)OCCOCCOCCOCCOC(=O)c3ccc(-c4c5nc(c(-c6c(F)cc(S(=O)(=O)[O-])cc6F)c6ccc([nH]6)c(-c6c(F)cc(S(=O)(=O)[O-])cc6F)c6nc(c(-c7c(F)cc(S(=O)(=O)[O-])cc7F)c7ccc4[nH]7)C=C6)C=C5)cc3)C2)c1
REMARK SMILES IDX 24 1 23 2 22 3 21 4 20 5 19 6 18 7 17 8 15 9 16 10 14 11
REMARK SMILES IDX 11 12 12 13 98 14 13 15 10 16 8 17 9 18 7 20 1 21 2 22 3 23
REMARK SMILES IDX 99 24 4 25 5 26 6 27 25 28 26 29 27 30 28 31 29 32 30 33
REMARK SMILES IDX 31 34 32 35 33 36 97 37 34 38 96 39 35 40 36 41 37 42 90 43
REMARK SMILES IDX 38 44 95 45 89 46 91 47 39 48 94 49 88 50 87 51 40 53 74 54
REMARK SMILES IDX 53 55 73 56 54 57 57 58 72 59 92 60 55 61 56 62 71 64 93 65
REMARK SMILES IDX 58 66 41 67 42 68 51 69 43 70 44 71 50 72 52 73 45 74 46 75
REMARK SMILES IDX 47 76 48 77 49 78 75 79 76 80 85 81 77 82 78 83 84 84 86 85
REMARK SMILES IDX 79 86 80 87 81 88 82 89 83 90 59 91 60 92 69 93 61 94 62 95
REMARK SMILES IDX 68 96 70 97 63 98 64 99 65 100 66 101 67 102
REMARK H PARENT 10 19 91 52 57 63
REMARK Flexibility Score: inf
ROOT
ATOM      1  C   UNL A   1      39.838  21.415  26.418  1.00  0.00     0.188 C 
ENDROOT
BRANCH   1   2
ATOM      2  O   UNL A   1      38.766  20.792  25.715  1.00  0.00    -0.377 OA
BRANCH   2   3
ATOM      3  C   UNL A   1      37.782  21.599  25.101  1.00  0.00     0.188 C 
BRANCH   3   4
ATOM      4  C   UNL A   1      36.360  21.457  25.660  1.00  0.00     0.188 C 
BRANCH   4   5
ATOM      5  O   UNL A   1      35.297  21.171  24.763  1.00  0.00    -0.376 OA
BRANCH   5   6
ATOM      6  C   UNL A   1      34.043  20.772  25.312  1.00  0.00     0.202 C 
BRANCH   6   7
ATOM      7  C   UNL A   1      33.037  21.851  25.749  1.00  0.00     0.261 C 
BRANCH   7   8
ATOM      8  O   UNL A   1      31.893  21.998  24.876  1.00  0.00    -0.463 OA
BRANCH   8   9
ATOM      9  C   UNL A   1      32.166  22.179  23.559  1.00  0.00     0.312 C 
ATOM     10  O   UNL A   1      32.215  21.268  22.735  1.00  0.00    -0.252 OA
BRANCH   9  11
ATOM     11  C   UNL A   1      32.352  23.639  23.137  1.00  0.00     0.124 C 
ATOM     12  C   UNL A   1      32.688  25.890  24.123  1.00  0.00     0.106 C 
ATOM     13  C   UNL A   1      33.980  25.197  23.829  1.00  0.00    -0.006 C 
ATOM     14  C   UNL A   1      31.655  24.766  23.913  1.00  0.00     0.048 C 
ATOM     15  C   UNL A   1      33.802  23.995  23.275  1.00  0.00    -0.014 C 
BRANCH  12  16
ATOM     16  N   UNL A   1      32.618  27.037  23.227  1.00  0.00    -0.346 N 
ATOM     17  C   UNL A   1      32.815  28.387  23.392  1.00  0.00     0.254 C 
ATOM     18  O   UNL A   1      32.882  29.092  22.386  1.00  0.00    -0.269 OA
ATOM     19  H   UNL A   1      32.378  26.792  22.304  1.00  0.00     0.164 HD
BRANCH  17  20
ATOM     20  C   UNL A   1      32.889  29.015  24.724  1.00  0.00     0.075 A 
ATOM     21  C   UNL A   1      35.258  29.268  27.660  1.00  0.00     0.044 C 
ATOM     22  C   UNL A   1      34.038  29.438  26.814  1.00  0.00    -0.050 A 
ATOM     23  C   UNL A   1      32.879  30.025  27.335  1.00  0.00     0.006 A 
ATOM     24  C   UNL A   1      34.055  28.993  25.488  1.00  0.00     0.020 A 
ATOM     25  C   UNL A   1      31.740  30.139  26.545  1.00  0.00     0.040 A 
ATOM     26  C   UNL A   1      31.746  29.627  25.249  1.00  0.00     0.135 A 
ATOM     27  F   UNL A   1      30.608  29.707  24.544  1.00  0.00    -0.206 F 
ENDBRANCH  17  20
ENDBRANCH  12  16
ENDBRANCH   9  11
ENDBRANCH   8   9
ENDBRANCH   7   8
ENDBRANCH   6   7
ENDBRANCH   5   6
ENDBRANCH   4   5
ENDBRANCH   3   4
ENDBRANCH   2   3
ENDBRANCH   1   2
BRANCH   1  28
ATOM     28  C   UNL A   1      41.254  20.820  26.365  1.00  0.00     0.188 C 
BRANCH  28  29
ATOM     29  O   UNL A   1      42.184  21.282  25.385  1.00  0.00    -0.376 OA
BRANCH  29  30
ATOM     30  C   UNL A   1      43.219  22.194  25.739  1.00  0.00     0.202 C 
BRANCH  30  31
ATOM     31  C   UNL A   1      43.023  23.665  25.386  1.00  0.00     0.261 C 
BRANCH  31  32
ATOM     32  O   UNL A   1      41.886  24.211  26.066  1.00  0.00    -0.460 OA
BRANCH  32  33
ATOM     33  C   UNL A   1      41.773  25.554  25.981  1.00  0.00     0.338 C 
ATOM     34  O   UNL A   1      41.521  26.208  24.986  1.00  0.00    -0.246 OA
BRANCH  33  35
ATOM     35  C   UNL A   1      41.825  26.141  27.330  1.00  0.00     0.060 A 
ATOM     36  C   UNL A   1      40.701  25.947  28.141  1.00  0.00     0.016 A 
ATOM     37  C   UNL A   1      42.887  26.944  27.755  1.00  0.00     0.016 A 
ATOM     38  C   UNL A   1      40.589  26.632  29.342  1.00  0.00     0.010 A 
ATOM     39  C   UNL A   1      42.770  27.637  28.962  1.00  0.00     0.010 A 
ATOM     40  C   UNL A   1      41.593  27.529  29.725  1.00  0.00    -0.014 A 
BRANCH  40  41
ATOM     41  C   UNL A   1      41.289  28.504  30.797  1.00  0.00     0.031 A 
ATOM     42  C   UNL A   1      42.131  28.477  32.046  1.00  0.00     0.074 A 
ATOM     43  C   UNL A   1      40.341  29.440  30.625  1.00  0.00     0.049 A 
ATOM     44  N   UNL A   1      42.069  29.240  33.103  1.00  0.00    -0.248 NA
ATOM     45  C   UNL A   1      43.189  27.451  32.108  1.00  0.00     0.031 C 
ATOM     46  C   UNL A   1      39.501  29.581  29.436  1.00  0.00     0.029 A 
ATOM     47  N   UNL A   1      39.925  30.448  31.455  1.00  0.00    -0.354 N 
ATOM     48  C   UNL A   1      43.062  28.781  33.961  1.00  0.00     0.074 A 
ATOM     49  C   UNL A   1      43.699  27.657  33.313  1.00  0.00     0.031 C 
ATOM     50  C   UNL A   1      38.658  30.613  29.621  1.00  0.00     0.029 A 
ATOM     51  C   UNL A   1      38.881  31.182  30.949  1.00  0.00     0.049 A 
ATOM     52  H   UNL A   1      40.338  30.630  32.331  1.00  0.00     0.167 HD
ATOM     53  C   UNL A   1      43.415  29.262  35.176  1.00  0.00     0.037 A 
ATOM     54  C   UNL A   1      38.173  32.183  31.507  1.00  0.00     0.037 A 
ATOM     55  C   UNL A   1      42.784  30.393  35.802  1.00  0.00     0.049 A 
ATOM     56  C   UNL A   1      38.554  32.668  32.882  1.00  0.00     0.074 A 
ATOM     57  C   UNL A   1      43.089  30.986  37.014  1.00  0.00     0.029 A 
ATOM     58  N   UNL A   1      41.713  31.096  35.269  1.00  0.00    -0.354 N 
ATOM     59  N   UNL A   1      39.522  32.251  33.666  1.00  0.00    -0.248 NA
ATOM     60  C   UNL A   1      37.755  33.763  33.448  1.00  0.00     0.031 C 
ATOM     61  C   UNL A   1      42.163  32.008  37.242  1.00  0.00     0.029 A 
ATOM     62  C   UNL A   1      41.321  32.095  36.144  1.00  0.00     0.049 A 
ATOM     63  H   UNL A   1      41.293  30.912  34.398  1.00  0.00     0.167 HD
ATOM     64  C   UNL A   1      39.465  33.052  34.802  1.00  0.00     0.074 A 
ATOM     65  C   UNL A   1      38.376  33.986  34.598  1.00  0.00     0.031 C 
ATOM     66  C   UNL A   1      40.241  33.020  35.915  1.00  0.00     0.037 A 
BRANCH  53  67
ATOM     67  C   UNL A   1      44.508  28.551  35.926  1.00  0.00     0.058 A 
ATOM     68  C   UNL A   1      45.857  28.919  35.808  1.00  0.00     0.135 A 
ATOM     69  C   UNL A   1      44.189  27.511  36.815  1.00  0.00     0.135 A 
ATOM     70  F   UNL A   1      46.222  29.890  34.956  1.00  0.00    -0.206 F 
ATOM     71  C   UNL A   1      46.853  28.274  36.535  1.00  0.00     0.059 A 
ATOM     72  C   UNL A   1      45.164  26.872  37.573  1.00  0.00     0.059 A 
ATOM     73  F   UNL A   1      42.915  27.113  36.960  1.00  0.00    -0.206 F 
ATOM     74  C   UNL A   1      46.496  27.253  37.419  1.00  0.00     0.060 A 
BRANCH  74  75
ATOM     75  S   UNL A   1      47.796  26.443  38.373  1.00  0.00     0.124 S 
ATOM     76  O   UNL A   1      47.069  25.322  38.961  1.00  0.00    -0.237 OA
ATOM     77  O   UNL A   1      48.768  26.096  37.342  1.00  0.00    -0.237 OA
ATOM     78  O   UNL A   1      48.223  27.475  39.312  1.00  0.00    -0.744 OA
ENDBRANCH  74  75
ENDBRANCH  53  67
BRANCH  54  79
ATOM     79  C   UNL A   1      37.017  32.773  30.781  1.00  0.00     0.058 A 
ATOM     80  C   UNL A   1      37.188  33.804  29.845  1.00  0.00     0.135 A 
ATOM     81  C   UNL A   1      35.709  32.320  31.020  1.00  0.00     0.135 A 
ATOM     82  F   UNL A   1      38.416  34.278  29.586  1.00  0.00    -0.206 F 
ATOM     83  C   UNL A   1      36.104  34.382  29.192  1.00  0.00     0.059 A 
ATOM     84  C   UNL A   1      34.613  32.861  30.358  1.00  0.00     0.059 A 
ATOM     85  F   UNL A   1      35.491  31.325  31.894  1.00  0.00    -0.206 F 
ATOM     86  C   UNL A   1      34.820  33.903  29.455  1.00  0.00     0.060 A 
BRANCH  86  87
ATOM     87  S   UNL A   1      33.422  34.637  28.578  1.00  0.00     0.124 S 
ATOM     88  O   UNL A   1      34.046  35.795  27.949  1.00  0.00    -0.237 OA
ATOM     89  O   UNL A   1      33.024  33.557  27.681  1.00  0.00    -0.237 OA
ATOM     90  O   UNL A   1      32.474  34.934  29.648  1.00  0.00    -0.744 OA
ENDBRANCH  86  87
ENDBRANCH  54  79
BRANCH  66  91
ATOM     91  C   UNL A   1      39.970  34.048  36.981  1.00  0.00     0.058 A 
ATOM     92  C   UNL A   1      39.139  33.775  38.078  1.00  0.00     0.135 A 
ATOM     93  C   UNL A   1      40.600  35.303  36.929  1.00  0.00     0.135 A 
ATOM     94  F   UNL A   1      38.510  32.593  38.173  1.00  0.00    -0.206 F 
ATOM     95  C   UNL A   1      38.920  34.721  39.074  1.00  0.00     0.059 A 
ATOM     96  C   UNL A   1      40.421  36.251  37.931  1.00  0.00     0.059 A 
ATOM     97  F   UNL A   1      41.416  35.609  35.908  1.00  0.00    -0.206 F 
ATOM     98  C   UNL A   1      39.567  35.956  38.993  1.00  0.00     0.060 A 
BRANCH  98  99
ATOM     99  S   UNL A   1      39.299  37.161  40.308  1.00  0.00     0.124 S 
ATOM    100  O   UNL A   1      38.749  38.290  39.564  1.00  0.00    -0.237 OA
ATOM    101  O   UNL A   1      38.363  36.464  41.185  1.00  0.00    -0.237 OA
ATOM    102  O   UNL A   1      40.634  37.365  40.862  1.00  0.00    -0.744 OA
ENDBRANCH  98  99
ENDBRANCH  66  91
ENDBRANCH  40  41
ENDBRANCH  33  35
ENDBRANCH  32  33
ENDBRANCH  31  32
ENDBRANCH  30  31
ENDBRANCH  29  30
ENDBRANCH  28  29
ENDBRANCH   1  28
TORSDOF 25
ENDMDL
MODEL 2
REMARK VINA RESULT:     -10.0      0.940      1.927
REMARK SMILES Cc1ccc(F)c(C(=O)N[C@@H]2C=C[C@@H](C(=O)OCCOCCOCCOCCOC(=O)c3ccc(-c4c5nc(c(-c6c(F)cc(S(=O)(=O)[O-])cc6F)c6ccc([nH]6)c(-c6c(F)cc(S(=O)(=O)[O-])cc6F)c6nc(c(-c7c(F)cc(S(=O)(=O)[O-])cc7F)c7ccc4[nH]7)C=C6)C=C5)cc3)C2)c1
REMARK SMILES IDX 24 1 23 2 22 3 21 4 20 5 19 6 18 7 17 8 15 9 16 10 14 11
REMARK SMILES IDX 11 12 12 13 98 14 13 15 10 16 8 17 9 18 7 20 1 21 2 22 3 23
REMARK SMILES IDX 99 24 4 25 5 26 6 27 25 28 26 29 27 30 28 31 29 32 30 33
REMARK SMILES IDX 31 34 32 35 33 36 97 37 34 38 96 39 35 40 36 41 37 42 90 43
REMARK SMILES IDX 38 44 95 45 89 46 91 47 39 48 94 49 88 50 87 51 40 53 74 54
REMARK SMILES IDX 53 55 73 56 54 57 57 58 72 59 92 60 55 61 56 62 71 64 93 65
REMARK SMILES IDX 58 66 41 67 42 68 51 69 43 70 44 71 50 72 52 73 45 74 46 75
REMARK SMILES IDX 47 76 48 77 49 78 75 79 76 80 85 81 77 82 78 83 84 84 86 85
REMARK SMILES IDX 79 86 80 87 81 88 82 89 83 90 59 91 60 92 69 93 61 94 62 95
REMARK SMILES IDX 68 96 70 97 63 98 64 99 65 100 66 101 67 102
REMARK H PARENT 10 19 91 52 57 63
REMARK Flexibility Score: inf
ROOT
ATOM      1  C   UNL A   1      36.960  24.053  25.739  1.00  0.00     0.188 C 
ENDROOT
BRANCH   1   2
ATOM      2  O   UNL A   1      35.827  23.285  25.339  1.00  0.00    -0.377 OA
BRANCH   2   3
ATOM      3  C   UNL A   1      34.826  22.983  26.290  1.00  0.00     0.188 C 
BRANCH   3   4
ATOM      4  C   UNL A   1      34.622  21.493  26.592  1.00  0.00     0.188 C 
BRANCH   4   5
ATOM      5  O   UNL A   1      34.640  20.568  25.515  1.00  0.00    -0.376 OA
BRANCH   5   6
ATOM      6  C   UNL A   1      33.468  19.790  25.277  1.00  0.00     0.202 C 
BRANCH   6   7
ATOM      7  C   UNL A   1      32.406  20.314  24.296  1.00  0.00     0.261 C 
BRANCH   7   8
ATOM      8  O   UNL A   1      32.609  21.677  23.858  1.00  0.00    -0.463 OA
BRANCH   8   9
ATOM      9  C   UNL A   1      31.759  22.603  24.372  1.00  0.00     0.312 C 
ATOM     10  O   UNL A   1      31.008  22.394  25.323  1.00  0.00    -0.252 OA
BRANCH   9  11
ATOM     11  C   UNL A   1      31.840  23.983  23.715  1.00  0.00     0.124 C 
ATOM     12  C   UNL A   1      33.089  26.118  23.891  1.00  0.00     0.106 C 
ATOM     13  C   UNL A   1      33.729  25.159  22.939  1.00  0.00    -0.006 C 
ATOM     14  C   UNL A   1      32.021  25.242  24.574  1.00  0.00     0.048 C 
ATOM     15  C   UNL A   1      33.045  24.018  22.824  1.00  0.00    -0.014 C 
BRANCH  12  16
ATOM     16  N   UNL A   1      32.618  27.243  23.093  1.00  0.00    -0.346 N 
ATOM     17  C   UNL A   1      32.545  28.599  23.309  1.00  0.00     0.254 C 
ATOM     18  O   UNL A   1      32.283  29.326  22.353  1.00  0.00    -0.269 OA
ATOM     19  H   UNL A   1      32.280  26.975  22.208  1.00  0.00     0.164 HD
BRANCH  17  20
ATOM     20  C   UNL A   1      32.712  29.192  24.649  1.00  0.00     0.075 A 
ATOM     21  C   UNL A   1      35.200  29.217  27.496  1.00  0.00     0.044 C 
ATOM     22  C   UNL A   1      33.965  29.491  26.700  1.00  0.00    -0.050 A 
ATOM     23  C   UNL A   1      32.871  30.148  27.275  1.00  0.00     0.006 A 
ATOM     24  C   UNL A   1      33.901  29.072  25.367  1.00  0.00     0.020 A 
ATOM     25  C   UNL A   1      31.715  30.359  26.531  1.00  0.00     0.040 A 
ATOM     26  C   UNL A   1      31.637  29.874  25.227  1.00  0.00     0.135 A 
ATOM     27  F   UNL A   1      30.483  30.049  24.567  1.00  0.00    -0.206 F 
ENDBRANCH  17  20
ENDBRANCH  12  16
ENDBRANCH   9  11
ENDBRANCH   8   9
ENDBRANCH   7   8
ENDBRANCH   6   7
ENDBRANCH   5   6
ENDBRANCH   4   5
ENDBRANCH   3   4
ENDBRANCH   2   3
ENDBRANCH   1   2
BRANCH   1  28
ATOM     28  C   UNL A   1      38.169  23.373  26.399  1.00  0.00     0.188 C 
BRANCH  28  29
ATOM     29  O   UNL A   1      38.709  22.177  25.835  1.00  0.00    -0.376 OA
BRANCH  29  30
ATOM     30  C   UNL A   1      39.839  21.542  26.425  1.00  0.00     0.202 C 
BRANCH  30  31
ATOM     31  C   UNL A   1      40.683  22.355  27.402  1.00  0.00     0.261 C 
BRANCH  31  32
ATOM     32  O   UNL A   1      41.113  23.588  26.810  1.00  0.00    -0.460 OA
BRANCH  32  33
ATOM     33  C   UNL A   1      42.118  24.205  27.468  1.00  0.00     0.338 C 
ATOM     34  O   UNL A   1      43.298  23.906  27.451  1.00  0.00    -0.246 OA
BRANCH  33  35
ATOM     35  C   UNL A   1      41.616  25.438  28.094  1.00  0.00     0.060 A 
ATOM     36  C   UNL A   1      42.536  26.481  28.251  1.00  0.00     0.016 A 
ATOM     37  C   UNL A   1      40.321  25.540  28.609  1.00  0.00     0.016 A 
ATOM     38  C   UNL A   1      42.197  27.593  29.007  1.00  0.00     0.010 A 
ATOM     39  C   UNL A   1      39.983  26.658  29.375  1.00  0.00     0.010 A 
ATOM     40  C   UNL A   1      40.943  27.656  29.625  1.00  0.00    -0.014 A 
BRANCH  40  41
ATOM     41  C   UNL A   1      40.743  28.650  30.705  1.00  0.00     0.031 A 
ATOM     42  C   UNL A   1      41.632  28.575  31.918  1.00  0.00     0.074 A 
ATOM     43  C   UNL A   1      39.846  29.640  30.568  1.00  0.00     0.049 A 
ATOM     44  N   UNL A   1      41.659  29.342  32.974  1.00  0.00    -0.248 NA
ATOM     45  C   UNL A   1      42.628  27.488  31.942  1.00  0.00     0.031 C 
ATOM     46  C   UNL A   1      38.967  29.830  29.414  1.00  0.00     0.029 A 
ATOM     47  N   UNL A   1      39.526  30.673  31.410  1.00  0.00    -0.354 N 
ATOM     48  C   UNL A   1      42.658  28.827  33.793  1.00  0.00     0.074 A 
ATOM     49  C   UNL A   1      43.199  27.665  33.124  1.00  0.00     0.031 C 
ATOM     50  C   UNL A   1      38.196  30.911  29.628  1.00  0.00     0.029 A 
ATOM     51  C   UNL A   1      38.507  31.467  30.943  1.00  0.00     0.049 A 
ATOM     52  H   UNL A   1      39.984  30.832  32.267  1.00  0.00     0.167 HD
ATOM     53  C   UNL A   1      43.088  29.288  34.989  1.00  0.00     0.037 A 
ATOM     54  C   UNL A   1      37.883  32.511  31.525  1.00  0.00     0.037 A 
ATOM     55  C   UNL A   1      42.552  30.456  35.635  1.00  0.00     0.049 A 
ATOM     56  C   UNL A   1      38.349  32.974  32.881  1.00  0.00     0.074 A 
ATOM     57  C   UNL A   1      42.941  31.032  36.831  1.00  0.00     0.029 A 
ATOM     58  N   UNL A   1      41.504  31.221  35.144  1.00  0.00    -0.354 N 
ATOM     59  N   UNL A   1      39.322  32.502  33.626  1.00  0.00    -0.248 NA
ATOM     60  C   UNL A   1      37.641  34.117  33.474  1.00  0.00     0.031 C 
ATOM     61  C   UNL A   1      42.088  32.108  37.093  1.00  0.00     0.029 A 
ATOM     62  C   UNL A   1      41.209  32.243  36.030  1.00  0.00     0.049 A 
ATOM     63  H   UNL A   1      41.038  31.060  34.292  1.00  0.00     0.167 HD
ATOM     64  C   UNL A   1      39.359  33.307  34.761  1.00  0.00     0.074 A 
ATOM     65  C   UNL A   1      38.321  34.304  34.597  1.00  0.00     0.031 C 
ATOM     66  C   UNL A   1      40.177  33.231  35.841  1.00  0.00     0.037 A 
BRANCH  53  67
ATOM     67  C   UNL A   1      44.166  28.514  35.697  1.00  0.00     0.058 A 
ATOM     68  C   UNL A   1      43.873  27.482  36.602  1.00  0.00     0.135 A 
ATOM     69  C   UNL A   1      45.518  28.781  35.426  1.00  0.00     0.135 A 
ATOM     70  F   UNL A   1      42.600  27.198  36.917  1.00  0.00    -0.206 F 
ATOM     71  C   UNL A   1      44.882  26.752  37.224  1.00  0.00     0.059 A 
ATOM     72  C   UNL A   1      46.542  28.046  36.012  1.00  0.00     0.059 A 
ATOM     73  F   UNL A   1      45.854  29.764  34.575  1.00  0.00    -0.206 F 
ATOM     74  C   UNL A   1      46.215  27.038  36.919  1.00  0.00     0.060 A 
BRANCH  74  75
ATOM     75  S   UNL A   1      47.511  26.066  37.713  1.00  0.00     0.124 S 
ATOM     76  O   UNL A   1      47.525  26.641  39.054  1.00  0.00    -0.237 OA
ATOM     77  O   UNL A   1      46.987  24.708  37.612  1.00  0.00    -0.237 OA
ATOM     78  O   UNL A   1      48.691  26.342  36.900  1.00  0.00    -0.744 OA
ENDBRANCH  74  75
ENDBRANCH  53  67
BRANCH  54  79
ATOM     79  C   UNL A   1      36.736  33.167  30.844  1.00  0.00     0.058 A 
ATOM     80  C   UNL A   1      36.929  34.064  29.783  1.00  0.00     0.135 A 
ATOM     81  C   UNL A   1      35.416  32.916  31.253  1.00  0.00     0.135 A 
ATOM     82  F   UNL A   1      38.171  34.344  29.359  1.00  0.00    -0.206 F 
ATOM     83  C   UNL A   1      35.859  34.707  29.169  1.00  0.00     0.059 A 
ATOM     84  C   UNL A   1      34.329  33.523  30.636  1.00  0.00     0.059 A 
ATOM     85  F   UNL A   1      35.175  32.055  32.254  1.00  0.00    -0.206 F 
ATOM     86  C   UNL A   1      34.562  34.430  29.603  1.00  0.00     0.060 A 
BRANCH  86  87
ATOM     87  S   UNL A   1      33.177  35.244  28.778  1.00  0.00     0.124 S 
ATOM     88  O   UNL A   1      32.589  34.137  28.032  1.00  0.00    -0.237 OA
ATOM     89  O   UNL A   1      32.398  35.740  29.908  1.00  0.00    -0.237 OA
ATOM     90  O   UNL A   1      33.826  36.275  27.973  1.00  0.00    -0.744 OA
ENDBRANCH  86  87
ENDBRANCH  54  79
BRANCH  66  91
ATOM     91  C   UNL A   1      40.012  34.276  36.912  1.00  0.00     0.058 A 
ATOM     92  C   UNL A   1      40.751  35.469  36.902  1.00  0.00     0.135 A 
ATOM     93  C   UNL A   1      39.058  34.102  37.928  1.00  0.00     0.135 A 
ATOM     94  F   UNL A   1      41.679  35.682  35.956  1.00  0.00    -0.206 F 
ATOM     95  C   UNL A   1      40.569  36.442  37.879  1.00  0.00     0.059 A 
ATOM     96  C   UNL A   1      38.836  35.076  38.896  1.00  0.00     0.059 A 
ATOM     97  F   UNL A   1      38.314  32.985  37.975  1.00  0.00    -0.206 F 
ATOM     98  C   UNL A   1      39.607  36.238  38.871  1.00  0.00     0.060 A 
BRANCH  98  99
ATOM     99  S   UNL A   1      39.360  37.522  40.113  1.00  0.00     0.124 S 
ATOM    100  O   UNL A   1      40.657  38.190  40.108  1.00  0.00    -0.237 OA
ATOM    101  O   UNL A   1      38.251  38.288  39.554  1.00  0.00    -0.237 OA
ATOM    102  O   UNL A   1      39.047  36.769  41.324  1.00  0.00    -0.744 OA
ENDBRANCH  98  99
ENDBRANCH  66  91
ENDBRANCH  40  41
ENDBRANCH  33  35
ENDBRANCH  32  33
ENDBRANCH  31  32
ENDBRANCH  30  31
ENDBRANCH  29  30
ENDBRANCH  28  29
ENDBRANCH   1  28
TORSDOF 25
ENDMDL
MODEL 3
REMARK VINA RESULT:     -10.0      2.486      8.973
REMARK SMILES Cc1ccc(F)c(C(=O)N[C@@H]2C=C[C@@H](C(=O)OCCOCCOCCOCCOC(=O)c3ccc(-c4c5nc(c(-c6c(F)cc(S(=O)(=O)[O-])cc6F)c6ccc([nH]6)c(-c6c(F)cc(S(=O)(=O)[O-])cc6F)c6nc(c(-c7c(F)cc(S(=O)(=O)[O-])cc7F)c7ccc4[nH]7)C=C6)C=C5)cc3)C2)c1
REMARK SMILES IDX 24 1 23 2 22 3 21 4 20 5 19 6 18 7 17 8 15 9 16 10 14 11
REMARK SMILES IDX 11 12 12 13 98 14 13 15 10 16 8 17 9 18 7 20 1 21 2 22 3 23
REMARK SMILES IDX 99 24 4 25 5 26 6 27 25 28 26 29 27 30 28 31 29 32 30 33
REMARK SMILES IDX 31 34 32 35 33 36 97 37 34 38 96 39 35 40 36 41 37 42 90 43
REMARK SMILES IDX 38 44 95 45 89 46 91 47 39 48 94 49 88 50 87 51 40 53 74 54
REMARK SMILES IDX 53 55 73 56 54 57 57 58 72 59 92 60 55 61 56 62 71 64 93 65
REMARK SMILES IDX 58 66 41 67 42 68 51 69 43 70 44 71 50 72 52 73 45 74 46 75
REMARK SMILES IDX 47 76 48 77 49 78 75 79 76 80 85 81 77 82 78 83 84 84 86 85
REMARK SMILES IDX 79 86 80 87 81 88 82 89 83 90 59 91 60 92 69 93 61 94 62 95
REMARK SMILES IDX 68 96 70 97 63 98 64 99 65 100 66 101 67 102
REMARK H PARENT 10 19 91 52 57 63
REMARK Flexibility Score: inf
ROOT
ATOM      1  C   UNL A   1      33.558  28.009  26.517  1.00  0.00     0.188 C 
ENDROOT
BRANCH   1   2
ATOM      2  O   UNL A   1      32.913  27.980  25.246  1.00  0.00    -0.377 OA
BRANCH   2   3
ATOM      3  C   UNL A   1      32.327  29.164  24.742  1.00  0.00     0.188 C 
BRANCH   3   4
ATOM      4  C   UNL A   1      30.908  29.016  24.177  1.00  0.00     0.188 C 
BRANCH   4   5
ATOM      5  O   UNL A   1      30.599  27.873  23.394  1.00  0.00    -0.376 OA
BRANCH   5   6
ATOM      6  C   UNL A   1      29.753  26.877  23.963  1.00  0.00     0.202 C 
BRANCH   6   7
ATOM      7  C   UNL A   1      30.218  25.410  23.970  1.00  0.00     0.261 C 
BRANCH   7   8
ATOM      8  O   UNL A   1      30.116  24.751  25.253  1.00  0.00    -0.463 OA
BRANCH   8   9
ATOM      9  C   UNL A   1      31.147  24.954  26.113  1.00  0.00     0.312 C 
ATOM     10  O   UNL A   1      31.169  25.841  26.963  1.00  0.00    -0.252 OA
BRANCH   9  11
ATOM     11  C   UNL A   1      32.288  23.940  25.996  1.00  0.00     0.124 C 
ATOM     12  C   UNL A   1      34.175  23.019  27.316  1.00  0.00     0.106 C 
ATOM     13  C   UNL A   1      32.920  22.224  27.483  1.00  0.00    -0.006 C 
ATOM     14  C   UNL A   1      33.678  24.268  26.561  1.00  0.00     0.048 C 
ATOM     15  C   UNL A   1      31.909  22.704  26.754  1.00  0.00    -0.014 C 
BRANCH  12  16
ATOM     16  N   UNL A   1      35.125  22.156  26.625  1.00  0.00    -0.346 N 
ATOM     17  C   UNL A   1      35.371  21.880  25.302  1.00  0.00     0.254 C 
ATOM     18  O   UNL A   1      36.390  21.251  25.019  1.00  0.00    -0.269 OA
ATOM     19  H   UNL A   1      35.717  21.664  27.239  1.00  0.00     0.164 HD
BRANCH  17  20
ATOM     20  C   UNL A   1      34.434  22.262  24.229  1.00  0.00     0.075 A 
ATOM     21  C   UNL A   1      33.568  25.260  22.095  1.00  0.00     0.044 C 
ATOM     22  C   UNL A   1      33.522  23.887  22.682  1.00  0.00    -0.050 A 
ATOM     23  C   UNL A   1      32.478  23.008  22.370  1.00  0.00     0.006 A 
ATOM     24  C   UNL A   1      34.529  23.484  23.564  1.00  0.00     0.020 A 
ATOM     25  C   UNL A   1      32.431  21.747  22.957  1.00  0.00     0.040 A 
ATOM     26  C   UNL A   1      33.401  21.383  23.888  1.00  0.00     0.135 A 
ATOM     27  F   UNL A   1      33.282  20.182  24.472  1.00  0.00    -0.206 F 
ENDBRANCH  17  20
ENDBRANCH  12  16
ENDBRANCH   9  11
ENDBRANCH   8   9
ENDBRANCH   7   8
ENDBRANCH   6   7
ENDBRANCH   5   6
ENDBRANCH   4   5
ENDBRANCH   3   4
ENDBRANCH   2   3
ENDBRANCH   1   2
BRANCH   1  28
ATOM     28  C   UNL A   1      34.733  28.966  26.773  1.00  0.00     0.188 C 
BRANCH  28  29
ATOM     29  O   UNL A   1      34.665  29.904  27.847  1.00  0.00    -0.376 OA
BRANCH  29  30
ATOM     30  C   UNL A   1      34.814  31.300  27.603  1.00  0.00     0.202 C 
BRANCH  30  31
ATOM     31  C   UNL A   1      33.569  32.175  27.699  1.00  0.00     0.261 C 
BRANCH  31  32
ATOM     32  O   UNL A   1      33.894  33.558  27.502  1.00  0.00    -0.460 OA
BRANCH  32  33
ATOM     33  C   UNL A   1      33.605  34.357  28.552  1.00  0.00     0.338 C 
ATOM     34  O   UNL A   1      32.598  35.019  28.714  1.00  0.00    -0.246 OA
BRANCH  33  35
ATOM     35  C   UNL A   1      34.625  34.184  29.599  1.00  0.00     0.060 A 
ATOM     36  C   UNL A   1      35.958  34.359  29.211  1.00  0.00     0.016 A 
ATOM     37  C   UNL A   1      34.303  33.762  30.892  1.00  0.00     0.016 A 
ATOM     38  C   UNL A   1      36.981  34.021  30.084  1.00  0.00     0.010 A 
ATOM     39  C   UNL A   1      35.335  33.416  31.768  1.00  0.00     0.010 A 
ATOM     40  C   UNL A   1      36.673  33.487  31.340  1.00  0.00    -0.014 A 
BRANCH  40  41
ATOM     41  C   UNL A   1      37.749  32.801  32.093  1.00  0.00     0.031 A 
ATOM     42  C   UNL A   1      38.419  31.612  31.456  1.00  0.00     0.074 A 
ATOM     43  C   UNL A   1      38.169  33.277  33.276  1.00  0.00     0.049 A 
ATOM     44  N   UNL A   1      39.392  30.868  31.909  1.00  0.00    -0.248 NA
ATOM     45  C   UNL A   1      37.926  31.208  30.126  1.00  0.00     0.031 C 
ATOM     46  C   UNL A   1      37.619  34.448  33.958  1.00  0.00     0.029 A 
ATOM     47  N   UNL A   1      39.158  32.831  34.114  1.00  0.00    -0.354 N 
ATOM     48  C   UNL A   1      39.618  29.903  30.933  1.00  0.00     0.074 A 
ATOM     49  C   UNL A   1      38.665  30.139  29.872  1.00  0.00     0.031 C 
ATOM     50  C   UNL A   1      38.273  34.620  35.121  1.00  0.00     0.029 A 
ATOM     51  C   UNL A   1      39.263  33.556  35.275  1.00  0.00     0.049 A 
ATOM     52  H   UNL A   1      39.739  32.064  33.903  1.00  0.00     0.167 HD
ATOM     53  C   UNL A   1      40.544  28.917  30.922  1.00  0.00     0.037 A 
ATOM     54  C   UNL A   1      40.054  33.365  36.350  1.00  0.00     0.037 A 
ATOM     55  C   UNL A   1      41.498  28.705  31.978  1.00  0.00     0.049 A 
ATOM     56  C   UNL A   1      41.043  32.228  36.334  1.00  0.00     0.074 A 
ATOM     57  C   UNL A   1      42.504  27.758  32.050  1.00  0.00     0.029 A 
ATOM     58  N   UNL A   1      41.558  29.444  33.150  1.00  0.00    -0.354 N 
ATOM     59  N   UNL A   1      41.274  31.347  35.387  1.00  0.00    -0.248 NA
ATOM     60  C   UNL A   1      41.886  32.062  37.525  1.00  0.00     0.031 C 
ATOM     61  C   UNL A   1      43.132  27.885  33.293  1.00  0.00     0.029 A 
ATOM     62  C   UNL A   1      42.561  28.952  33.968  1.00  0.00     0.049 A 
ATOM     63  H   UNL A   1      40.974  30.206  33.369  1.00  0.00     0.167 HD
ATOM     64  C   UNL A   1      42.306  30.542  35.858  1.00  0.00     0.074 A 
ATOM     65  C   UNL A   1      42.664  31.049  37.167  1.00  0.00     0.031 C 
ATOM     66  C   UNL A   1      42.906  29.480  35.264  1.00  0.00     0.037 A 
BRANCH  53  67
ATOM     67  C   UNL A   1      40.551  27.970  29.755  1.00  0.00     0.058 A 
ATOM     68  C   UNL A   1      41.485  28.077  28.712  1.00  0.00     0.135 A 
ATOM     69  C   UNL A   1      39.635  26.906  29.705  1.00  0.00     0.135 A 
ATOM     70  F   UNL A   1      42.369  29.087  28.695  1.00  0.00    -0.206 F 
ATOM     71  C   UNL A   1      41.501  27.171  27.654  1.00  0.00     0.059 A 
ATOM     72  C   UNL A   1      39.651  25.973  28.674  1.00  0.00     0.059 A 
ATOM     73  F   UNL A   1      38.715  26.762  30.672  1.00  0.00    -0.206 F 
ATOM     74  C   UNL A   1      40.582  26.120  27.647  1.00  0.00     0.060 A 
BRANCH  74  75
ATOM     75  S   UNL A   1      40.632  24.939  26.282  1.00  0.00     0.124 S 
ATOM     76  O   UNL A   1      39.230  24.544  26.188  1.00  0.00    -0.237 OA
ATOM     77  O   UNL A   1      41.135  25.757  25.183  1.00  0.00    -0.237 OA
ATOM     78  O   UNL A   1      41.544  23.905  26.759  1.00  0.00    -0.744 OA
ENDBRANCH  74  75
ENDBRANCH  53  67
BRANCH  54  79
ATOM     79  C   UNL A   1      39.924  34.250  37.537  1.00  0.00     0.058 A 
ATOM     80  C   UNL A   1      40.729  35.387  37.696  1.00  0.00     0.135 A 
ATOM     81  C   UNL A   1      38.992  33.965  38.550  1.00  0.00     0.135 A 
ATOM     82  F   UNL A   1      41.640  35.699  36.761  1.00  0.00    -0.206 F 
ATOM     83  C   UNL A   1      40.634  36.196  38.825  1.00  0.00     0.059 A 
ATOM     84  C   UNL A   1      38.858  34.773  39.672  1.00  0.00     0.059 A 
ATOM     85  F   UNL A   1      38.187  32.897  38.440  1.00  0.00    -0.206 F 
ATOM     86  C   UNL A   1      39.695  35.880  39.807  1.00  0.00     0.060 A 
BRANCH  86  87
ATOM     87  S   UNL A   1      39.556  36.954  41.253  1.00  0.00     0.124 S 
ATOM     88  O   UNL A   1      38.899  38.126  40.685  1.00  0.00    -0.237 OA
ATOM     89  O   UNL A   1      38.748  36.143  42.158  1.00  0.00    -0.237 OA
ATOM     90  O   UNL A   1      40.944  37.144  41.663  1.00  0.00    -0.744 OA
ENDBRANCH  86  87
ENDBRANCH  54  79
BRANCH  66  91
ATOM     91  C   UNL A   1      44.038  28.817  36.004  1.00  0.00     0.058 A 
ATOM     92  C   UNL A   1      43.835  27.683  36.805  1.00  0.00     0.135 A 
ATOM     93  C   UNL A   1      45.351  29.292  35.859  1.00  0.00     0.135 A 
ATOM     94  F   UNL A   1      42.598  27.191  36.980  1.00  0.00    -0.206 F 
ATOM     95  C   UNL A   1      44.892  27.059  37.459  1.00  0.00     0.059 A 
ATOM     96  C   UNL A   1      46.428  28.665  36.477  1.00  0.00     0.059 A 
ATOM     97  F   UNL A   1      45.602  30.366  35.092  1.00  0.00    -0.206 F 
ATOM     98  C   UNL A   1      46.186  27.556  37.287  1.00  0.00     0.060 A 
BRANCH  98  99
ATOM     99  S   UNL A   1      47.551  26.719  38.116  1.00  0.00     0.124 S 
ATOM    100  O   UNL A   1      48.586  27.747  38.090  1.00  0.00    -0.237 OA
ATOM    101  O   UNL A   1      46.986  26.423  39.429  1.00  0.00    -0.237 OA
ATOM    102  O   UNL A   1      47.801  25.555  37.271  1.00  0.00    -0.744 OA
ENDBRANCH  98  99
ENDBRANCH  66  91
ENDBRANCH  40  41
ENDBRANCH  33  35
ENDBRANCH  32  33
ENDBRANCH  31  32
ENDBRANCH  30  31
ENDBRANCH  29  30
ENDBRANCH  28  29
ENDBRANCH   1  28
TORSDOF 25
ENDMDL
