MODEL 1
REMARK VINA RESULT:      -9.8      0.000      0.000
REMARK SMILES CCC(CC)(NC(=O)Nc1ccccc1)C(=O)OCCOCCOCCOCCOC(=O)c1ccc(-c2c3nc(c(-c4c(F)cc(S(=O)(=O)[O-])cc4F)c4ccc([nH]4)c(-c4c(F)cc(S(=O)(=O)[O-])cc4F)c4nc(c(-c5c(F)cc(S(=O)(=O)[O-])cc5F)c5ccc2[nH]5)C=C4)C=C3)cc1
REMARK SMILES IDX 25 1 24 2 23 3 22 4 21 5 20 6 19 7 18 8 16 9 17 10 3 11 2 12
REMARK SMILES IDX 1 13 4 14 5 15 6 16 7 17 8 19 9 20 10 22 11 23 15 24 12 25
REMARK SMILES IDX 14 26 13 27 26 28 27 29 28 30 29 31 30 32 31 33 32 34 33 35
REMARK SMILES IDX 34 36 98 37 35 38 97 39 36 40 37 41 38 42 91 43 39 44 96 45
REMARK SMILES IDX 90 46 92 47 40 48 95 49 89 50 88 51 41 53 75 54 54 55 74 56
REMARK SMILES IDX 55 57 58 58 73 59 93 60 56 61 57 62 72 64 94 65 59 66 42 67
REMARK SMILES IDX 43 68 52 69 44 70 45 71 51 72 53 73 46 74 47 75 48 76 49 77
REMARK SMILES IDX 50 78 76 79 77 80 86 81 78 82 79 83 85 84 87 85 80 86 81 87
REMARK SMILES IDX 82 88 83 89 84 90 60 91 61 92 70 93 62 94 63 95 69 96 71 97
REMARK SMILES IDX 64 98 65 99 66 100 67 101 68 102
REMARK H PARENT 6 18 9 21 92 52 58 63
REMARK Flexibility Score: inf
ROOT
ATOM      1  C   UNL A   1      34.702  30.579  27.842  1.00  0.00     0.188 C 
ENDROOT
BRANCH   1   2
ATOM      2  O   UNL A   1      34.444  29.622  26.823  1.00  0.00    -0.377 OA
BRANCH   2   3
ATOM      3  C   UNL A   1      33.267  29.804  26.040  1.00  0.00     0.188 C 
BRANCH   3   4
ATOM      4  C   UNL A   1      32.627  28.528  25.390  1.00  0.00     0.188 C 
BRANCH   4   5
ATOM      5  O   UNL A   1      33.489  28.112  24.293  1.00  0.00    -0.376 OA
BRANCH   5   6
ATOM      6  C   UNL A   1      33.451  28.149  22.847  1.00  0.00     0.202 C 
BRANCH   6   7
ATOM      7  C   UNL A   1      33.258  26.700  21.961  1.00  0.00     0.261 C 
BRANCH   7   8
ATOM      8  O   UNL A   1      34.034  25.321  22.036  1.00  0.00    -0.461 OA
BRANCH   8   9
ATOM      9  C   UNL A   1      33.845  23.939  22.307  1.00  0.00     0.331 C 
ATOM     10  O   UNL A   1      33.272  23.177  21.528  1.00  0.00    -0.249 OA
BRANCH   9  11
ATOM     11  C   UNL A   1      34.323  23.432  23.832  1.00  0.00     0.139 C 
BRANCH  11  12
ATOM     12  C   UNL A   1      33.741  23.664  25.298  1.00  0.00     0.037 C 
ATOM     13  C   UNL A   1      34.436  24.477  26.352  1.00  0.00     0.007 C 
ENDBRANCH  11  12
BRANCH  11  14
ATOM     14  C   UNL A   1      35.849  23.678  23.857  1.00  0.00     0.037 C 
ATOM     15  C   UNL A   1      36.767  22.592  23.300  1.00  0.00     0.007 C 
ENDBRANCH  11  14
BRANCH  11  16
ATOM     16  N   UNL A   1      33.946  22.086  23.645  1.00  0.00    -0.322 N 
ATOM     17  C   UNL A   1      32.633  21.817  23.741  1.00  0.00     0.320 C 
ATOM     18  H   UNL A   1      34.607  21.383  23.454  1.00  0.00     0.166 HD
ATOM     19  O   UNL A   1      32.317  20.705  23.322  1.00  0.00    -0.248 OA
ATOM     20  N   UNL A   1      31.699  22.734  24.218  1.00  0.00    -0.308 N 
ATOM     21  H   UNL A   1      31.066  22.186  24.738  1.00  0.00     0.171 HD
BRANCH  20  22
ATOM     22  C   UNL A   1      31.177  24.106  24.340  1.00  0.00     0.042 A 
ATOM     23  C   UNL A   1      30.789  24.514  25.632  1.00  0.00     0.026 A 
ATOM     24  C   UNL A   1      30.666  24.952  23.337  1.00  0.00     0.026 A 
ATOM     25  C   UNL A   1      29.962  25.633  25.880  1.00  0.00     0.002 A 
ATOM     26  C   UNL A   1      29.951  26.141  23.569  1.00  0.00     0.002 A 
ATOM     27  C   UNL A   1      29.572  26.471  24.849  1.00  0.00     0.000 A 
ENDBRANCH  20  22
ENDBRANCH  11  16
ENDBRANCH   9  11
ENDBRANCH   8   9
ENDBRANCH   7   8
ENDBRANCH   6   7
ENDBRANCH   5   6
ENDBRANCH   4   5
ENDBRANCH   3   4
ENDBRANCH   2   3
ENDBRANCH   1   2
BRANCH   1  28
ATOM     28  C   UNL A   1      33.835  31.839  27.720  1.00  0.00     0.188 C 
BRANCH  28  29
ATOM     29  O   UNL A   1      34.386  33.124  27.990  1.00  0.00    -0.376 OA
BRANCH  29  30
ATOM     30  C   UNL A   1      34.289  33.701  29.279  1.00  0.00     0.202 C 
BRANCH  30  31
ATOM     31  C   UNL A   1      35.440  33.509  30.293  1.00  0.00     0.261 C 
BRANCH  31  32
ATOM     32  O   UNL A   1      36.580  32.734  29.897  1.00  0.00    -0.460 OA
BRANCH  32  33
ATOM     33  C   UNL A   1      37.433  32.348  30.880  1.00  0.00     0.338 C 
ATOM     34  O   UNL A   1      37.376  32.656  32.044  1.00  0.00    -0.246 OA
BRANCH  33  35
ATOM     35  C   UNL A   1      38.365  31.313  30.335  1.00  0.00     0.060 A 
ATOM     36  C   UNL A   1      39.343  30.790  31.196  1.00  0.00     0.016 A 
ATOM     37  C   UNL A   1      38.309  30.876  29.009  1.00  0.00     0.016 A 
ATOM     38  C   UNL A   1      40.299  29.896  30.727  1.00  0.00     0.010 A 
ATOM     39  C   UNL A   1      39.312  30.026  28.518  1.00  0.00     0.010 A 
ATOM     40  C   UNL A   1      40.347  29.591  29.365  1.00  0.00    -0.014 A 
BRANCH  40  41
ATOM     41  C   UNL A   1      41.649  29.122  28.827  1.00  0.00     0.031 A 
ATOM     42  C   UNL A   1      42.788  30.114  28.800  1.00  0.00     0.074 A 
ATOM     43  C   UNL A   1      41.866  27.832  28.519  1.00  0.00     0.049 A 
ATOM     44  N   UNL A   1      44.034  29.944  28.440  1.00  0.00    -0.248 NA
ATOM     45  C   UNL A   1      42.478  31.482  29.252  1.00  0.00     0.031 C 
ATOM     46  C   UNL A   1      40.866  26.768  28.576  1.00  0.00     0.029 A 
ATOM     47  N   UNL A   1      43.012  27.196  28.109  1.00  0.00    -0.354 N 
ATOM     48  C   UNL A   1      44.652  31.177  28.628  1.00  0.00     0.074 A 
ATOM     49  C   UNL A   1      43.638  32.096  29.089  1.00  0.00     0.031 C 
ATOM     50  C   UNL A   1      41.439  25.611  28.200  1.00  0.00     0.029 A 
ATOM     51  C   UNL A   1      42.839  25.857  27.853  1.00  0.00     0.049 A 
ATOM     52  H   UNL A   1      43.877  27.656  28.009  1.00  0.00     0.167 HD
ATOM     53  C   UNL A   1      45.952  31.509  28.453  1.00  0.00     0.037 A 
ATOM     54  C   UNL A   1      43.706  24.943  27.373  1.00  0.00     0.037 A 
ATOM     55  C   UNL A   1      46.958  30.590  27.991  1.00  0.00     0.049 A 
ATOM     56  C   UNL A   1      45.133  25.356  27.104  1.00  0.00     0.074 A 
ATOM     57  C   UNL A   1      48.300  30.829  27.755  1.00  0.00     0.029 A 
ATOM     58  N   UNL A   1      46.731  29.253  27.693  1.00  0.00    -0.354 N 
ATOM     59  N   UNL A   1      45.702  26.526  27.276  1.00  0.00    -0.248 NA
ATOM     60  C   UNL A   1      46.037  24.320  26.588  1.00  0.00     0.031 C 
ATOM     61  C   UNL A   1      48.874  29.651  27.265  1.00  0.00     0.029 A 
ATOM     62  C   UNL A   1      47.904  28.660  27.258  1.00  0.00     0.049 A 
ATOM     63  H   UNL A   1      45.864  28.795  27.779  1.00  0.00     0.167 HD
ATOM     64  C   UNL A   1      47.036  26.361  26.912  1.00  0.00     0.074 A 
ATOM     65  C   UNL A   1      47.192  24.970  26.536  1.00  0.00     0.031 C 
ATOM     66  C   UNL A   1      48.040  27.273  26.886  1.00  0.00     0.037 A 
BRANCH  53  67
ATOM     67  C   UNL A   1      46.354  32.932  28.739  1.00  0.00     0.058 A 
ATOM     68  C   UNL A   1      46.490  33.884  27.715  1.00  0.00     0.135 A 
ATOM     69  C   UNL A   1      46.576  33.357  30.059  1.00  0.00     0.135 A 
ATOM     70  F   UNL A   1      46.314  33.529  26.433  1.00  0.00    -0.206 F 
ATOM     71  C   UNL A   1      46.847  35.202  27.988  1.00  0.00     0.059 A 
ATOM     72  C   UNL A   1      46.906  34.676  30.358  1.00  0.00     0.059 A 
ATOM     73  F   UNL A   1      46.471  32.487  31.076  1.00  0.00    -0.206 F 
ATOM     74  C   UNL A   1      47.048  35.589  29.314  1.00  0.00     0.060 A 
BRANCH  74  75
ATOM     75  S   UNL A   1      47.484  37.308  29.653  1.00  0.00     0.124 S 
ATOM     76  O   UNL A   1      47.575  37.306  31.109  1.00  0.00    -0.237 OA
ATOM     77  O   UNL A   1      48.749  37.453  28.938  1.00  0.00    -0.237 OA
ATOM     78  O   UNL A   1      46.363  38.060  29.097  1.00  0.00    -0.744 OA
ENDBRANCH  74  75
ENDBRANCH  53  67
BRANCH  54  79
ATOM     79  C   UNL A   1      43.245  23.557  27.080  1.00  0.00     0.058 A 
ATOM     80  C   UNL A   1      43.045  22.613  28.097  1.00  0.00     0.135 A 
ATOM     81  C   UNL A   1      43.014  23.145  25.756  1.00  0.00     0.135 A 
ATOM     82  F   UNL A   1      43.262  22.949  29.378  1.00  0.00    -0.206 F 
ATOM     83  C   UNL A   1      42.656  21.306  27.815  1.00  0.00     0.059 A 
ATOM     84  C   UNL A   1      42.594  21.855  25.451  1.00  0.00     0.059 A 
ATOM     85  F   UNL A   1      43.184  24.009  24.743  1.00  0.00    -0.206 F 
ATOM     86  C   UNL A   1      42.430  20.937  26.487  1.00  0.00     0.060 A 
BRANCH  86  87
ATOM     87  S   UNL A   1      41.888  19.252  26.134  1.00  0.00     0.124 S 
ATOM     88  O   UNL A   1      42.321  18.545  27.334  1.00  0.00    -0.237 OA
ATOM     89  O   UNL A   1      40.447  19.422  25.975  1.00  0.00    -0.237 OA
ATOM     90  O   UNL A   1      42.610  18.916  24.909  1.00  0.00    -0.744 OA
ENDBRANCH  86  87
ENDBRANCH  54  79
BRANCH  66  91
ATOM     91  C   UNL A   1      49.404  26.786  26.470  1.00  0.00     0.058 A 
ATOM     92  C   UNL A   1      49.819  26.795  25.128  1.00  0.00     0.135 A 
ATOM     93  C   UNL A   1      50.317  26.320  27.432  1.00  0.00     0.135 A 
ATOM     94  F   UNL A   1      48.989  27.231  24.168  1.00  0.00    -0.206 F 
ATOM     95  C   UNL A   1      51.067  26.312  24.750  1.00  0.00     0.059 A 
ATOM     96  C   UNL A   1      51.584  25.866  27.079  1.00  0.00     0.059 A 
ATOM     97  F   UNL A   1      49.982  26.305  28.732  1.00  0.00    -0.206 F 
ATOM     98  C   UNL A   1      51.941  25.844  25.732  1.00  0.00     0.060 A 
BRANCH  98  99
ATOM     99  S   UNL A   1      53.553  25.210  25.225  1.00  0.00     0.124 S 
ATOM    100  O   UNL A   1      53.642  25.696  23.853  1.00  0.00    -0.237 OA
ATOM    101  O   UNL A   1      54.453  25.845  26.183  1.00  0.00    -0.237 OA
ATOM    102  O   UNL A   1      53.411  23.764  25.370  1.00  0.00    -0.744 OA
ENDBRANCH  98  99
ENDBRANCH  66  91
ENDBRANCH  40  41
ENDBRANCH  33  35
ENDBRANCH  32  33
ENDBRANCH  31  32
ENDBRANCH  30  31
ENDBRANCH  29  30
ENDBRANCH  28  29
ENDBRANCH   1  28
TORSDOF 27
ENDMDL
MODEL 2
REMARK VINA RESULT:      -9.7      5.119     10.878
REMARK SMILES CCC(CC)(NC(=O)Nc1ccccc1)C(=O)OCCOCCOCCOCCOC(=O)c1ccc(-c2c3nc(c(-c4c(F)cc(S(=O)(=O)[O-])cc4F)c4ccc([nH]4)c(-c4c(F)cc(S(=O)(=O)[O-])cc4F)c4nc(c(-c5c(F)cc(S(=O)(=O)[O-])cc5F)c5ccc2[nH]5)C=C4)C=C3)cc1
REMARK SMILES IDX 25 1 24 2 23 3 22 4 21 5 20 6 19 7 18 8 16 9 17 10 3 11 2 12
REMARK SMILES IDX 1 13 4 14 5 15 6 16 7 17 8 19 9 20 10 22 11 23 15 24 12 25
REMARK SMILES IDX 14 26 13 27 26 28 27 29 28 30 29 31 30 32 31 33 32 34 33 35
REMARK SMILES IDX 34 36 98 37 35 38 97 39 36 40 37 41 38 42 91 43 39 44 96 45
REMARK SMILES IDX 90 46 92 47 40 48 95 49 89 50 88 51 41 53 75 54 54 55 74 56
REMARK SMILES IDX 55 57 58 58 73 59 93 60 56 61 57 62 72 64 94 65 59 66 42 67
REMARK SMILES IDX 43 68 52 69 44 70 45 71 51 72 53 73 46 74 47 75 48 76 49 77
REMARK SMILES IDX 50 78 76 79 77 80 86 81 78 82 79 83 85 84 87 85 80 86 81 87
REMARK SMILES IDX 82 88 83 89 84 90 60 91 61 92 70 93 62 94 63 95 69 96 71 97
REMARK SMILES IDX 64 98 65 99 66 100 67 101 68 102
REMARK H PARENT 6 18 9 21 92 52 58 63
REMARK Flexibility Score: inf
ROOT
ATOM      1  C   UNL A   1      39.529  21.288  25.621  1.00  0.00     0.188 C 
ENDROOT
BRANCH   1   2
ATOM      2  O   UNL A   1      38.248  21.530  26.186  1.00  0.00    -0.377 OA
BRANCH   2   3
ATOM      3  C   UNL A   1      37.411  22.475  25.523  1.00  0.00     0.188 C 
BRANCH   3   4
ATOM      4  C   UNL A   1      36.597  21.973  24.280  1.00  0.00     0.188 C 
BRANCH   4   5
ATOM      5  O   UNL A   1      35.279  21.570  24.750  1.00  0.00    -0.376 OA
BRANCH   5   6
ATOM      6  C   UNL A   1      34.445  20.390  24.671  1.00  0.00     0.202 C 
BRANCH   6   7
ATOM      7  C   UNL A   1      32.913  20.377  25.430  1.00  0.00     0.261 C 
BRANCH   7   8
ATOM      8  O   UNL A   1      31.920  21.556  25.796  1.00  0.00    -0.461 OA
BRANCH   8   9
ATOM      9  C   UNL A   1      31.888  22.873  26.328  1.00  0.00     0.331 C 
ATOM     10  O   UNL A   1      31.810  23.105  27.534  1.00  0.00    -0.249 OA
BRANCH   9  11
ATOM     11  C   UNL A   1      31.810  24.105  25.193  1.00  0.00     0.139 C 
BRANCH  11  12
ATOM     12  C   UNL A   1      31.788  24.131  23.600  1.00  0.00     0.037 C 
ATOM     13  C   UNL A   1      32.561  23.172  22.740  1.00  0.00     0.007 C 
ENDBRANCH  11  12
BRANCH  11  14
ATOM     14  C   UNL A   1      32.832  25.152  25.694  1.00  0.00     0.037 C 
ATOM     15  C   UNL A   1      34.319  24.834  25.564  1.00  0.00     0.007 C 
ENDBRANCH  11  14
BRANCH  11  16
ATOM     16  N   UNL A   1      30.462  24.430  25.447  1.00  0.00    -0.322 N 
ATOM     17  C   UNL A   1      30.071  25.666  25.097  1.00  0.00     0.320 C 
ATOM     18  H   UNL A   1      29.841  23.786  25.858  1.00  0.00     0.166 HD
ATOM     19  O   UNL A   1      28.852  25.825  25.090  1.00  0.00    -0.248 OA
ATOM     20  N   UNL A   1      30.961  26.669  24.717  1.00  0.00    -0.308 N 
ATOM     21  H   UNL A   1      30.581  27.490  25.106  1.00  0.00     0.171 HD
BRANCH  20  22
ATOM     22  C   UNL A   1      32.181  27.124  24.028  1.00  0.00     0.042 A 
ATOM     23  C   UNL A   1      32.831  28.244  24.585  1.00  0.00     0.026 A 
ATOM     24  C   UNL A   1      32.608  26.859  22.713  1.00  0.00     0.026 A 
ATOM     25  C   UNL A   1      33.785  29.018  23.887  1.00  0.00     0.002 A 
ATOM     26  C   UNL A   1      33.646  27.536  22.048  1.00  0.00     0.002 A 
ATOM     27  C   UNL A   1      34.221  28.642  22.628  1.00  0.00     0.000 A 
ENDBRANCH  20  22
ENDBRANCH  11  16
ENDBRANCH   9  11
ENDBRANCH   8   9
ENDBRANCH   7   8
ENDBRANCH   6   7
ENDBRANCH   5   6
ENDBRANCH   4   5
ENDBRANCH   3   4
ENDBRANCH   2   3
ENDBRANCH   1   2
BRANCH   1  28
ATOM     28  C   UNL A   1      40.242  20.077  26.236  1.00  0.00     0.188 C 
BRANCH  28  29
ATOM     29  O   UNL A   1      41.370  19.496  25.589  1.00  0.00    -0.376 OA
BRANCH  29  30
ATOM     30  C   UNL A   1      42.688  19.859  25.961  1.00  0.00     0.202 C 
BRANCH  30  31
ATOM     31  C   UNL A   1      43.350  21.100  25.321  1.00  0.00     0.261 C 
BRANCH  31  32
ATOM     32  O   UNL A   1      42.563  22.287  25.151  1.00  0.00    -0.460 OA
BRANCH  32  33
ATOM     33  C   UNL A   1      43.236  23.459  25.021  1.00  0.00     0.338 C 
ATOM     34  O   UNL A   1      44.129  23.693  24.247  1.00  0.00    -0.246 OA
BRANCH  33  35
ATOM     35  C   UNL A   1      42.569  24.498  25.866  1.00  0.00     0.060 A 
ATOM     36  C   UNL A   1      43.115  25.791  25.871  1.00  0.00     0.016 A 
ATOM     37  C   UNL A   1      41.452  24.218  26.658  1.00  0.00     0.016 A 
ATOM     38  C   UNL A   1      42.602  26.777  26.705  1.00  0.00     0.010 A 
ATOM     39  C   UNL A   1      40.975  25.191  27.549  1.00  0.00     0.010 A 
ATOM     40  C   UNL A   1      41.597  26.451  27.619  1.00  0.00    -0.014 A 
BRANCH  40  41
ATOM     41  C   UNL A   1      41.476  27.314  28.822  1.00  0.00     0.031 A 
ATOM     42  C   UNL A   1      42.508  27.136  29.910  1.00  0.00     0.074 A 
ATOM     43  C   UNL A   1      40.589  28.321  28.886  1.00  0.00     0.049 A 
ATOM     44  N   UNL A   1      42.665  27.799  31.026  1.00  0.00    -0.248 NA
ATOM     45  C   UNL A   1      43.504  26.070  29.704  1.00  0.00     0.031 C 
ATOM     46  C   UNL A   1      39.592  28.638  27.865  1.00  0.00     0.029 A 
ATOM     47  N   UNL A   1      40.395  29.275  29.854  1.00  0.00    -0.354 N 
ATOM     48  C   UNL A   1      43.776  27.235  31.647  1.00  0.00     0.074 A 
ATOM     49  C   UNL A   1      44.227  26.148  30.809  1.00  0.00     0.031 C 
ATOM     50  C   UNL A   1      38.880  29.706  28.268  1.00  0.00     0.029 A 
ATOM     51  C   UNL A   1      39.355  30.132  29.584  1.00  0.00     0.049 A 
ATOM     52  H   UNL A   1      40.949  29.340  30.665  1.00  0.00     0.167 HD
ATOM     53  C   UNL A   1      44.381  27.602  32.801  1.00  0.00     0.037 A 
ATOM     54  C   UNL A   1      38.836  31.131  30.326  1.00  0.00     0.037 A 
ATOM     55  C   UNL A   1      43.927  28.684  33.633  1.00  0.00     0.049 A 
ATOM     56  C   UNL A   1      39.474  31.469  31.652  1.00  0.00     0.074 A 
ATOM     57  C   UNL A   1      44.451  29.124  34.835  1.00  0.00     0.029 A 
ATOM     58  N   UNL A   1      42.838  29.497  33.350  1.00  0.00    -0.354 N 
ATOM     59  N   UNL A   1      40.517  30.922  32.231  1.00  0.00    -0.248 NA
ATOM     60  C   UNL A   1      38.872  32.569  32.417  1.00  0.00     0.031 C 
ATOM     61  C   UNL A   1      43.649  30.169  35.305  1.00  0.00     0.029 A 
ATOM     62  C   UNL A   1      42.663  30.424  34.364  1.00  0.00     0.049 A 
ATOM     63  H   UNL A   1      42.273  29.424  32.547  1.00  0.00     0.167 HD
ATOM     64  C   UNL A   1      40.710  31.627  33.417  1.00  0.00     0.074 A 
ATOM     65  C   UNL A   1      39.691  32.656  33.456  1.00  0.00     0.031 C 
ATOM     66  C   UNL A   1      41.640  31.440  34.387  1.00  0.00     0.037 A 
BRANCH  53  67
ATOM     67  C   UNL A   1      45.584  26.811  33.241  1.00  0.00     0.058 A 
ATOM     68  C   UNL A   1      45.462  25.644  34.013  1.00  0.00     0.135 A 
ATOM     69  C   UNL A   1      46.876  27.208  32.858  1.00  0.00     0.135 A 
ATOM     70  F   UNL A   1      44.255  25.230  34.428  1.00  0.00    -0.206 F 
ATOM     71  C   UNL A   1      46.578  24.909  34.404  1.00  0.00     0.059 A 
ATOM     72  C   UNL A   1      48.004  26.472  33.213  1.00  0.00     0.059 A 
ATOM     73  F   UNL A   1      47.053  28.321  32.129  1.00  0.00    -0.206 F 
ATOM     74  C   UNL A   1      47.845  25.329  33.994  1.00  0.00     0.060 A 
BRANCH  74  75
ATOM     75  S   UNL A   1      49.279  24.349  34.487  1.00  0.00     0.124 S 
ATOM     76  O   UNL A   1      48.765  22.990  34.354  1.00  0.00    -0.237 OA
ATOM     77  O   UNL A   1      50.280  24.748  33.504  1.00  0.00    -0.237 OA
ATOM     78  O   UNL A   1      49.538  24.788  35.855  1.00  0.00    -0.744 OA
ENDBRANCH  74  75
ENDBRANCH  53  67
BRANCH  54  79
ATOM     79  C   UNL A   1      37.625  31.860  29.855  1.00  0.00     0.058 A 
ATOM     80  C   UNL A   1      37.709  33.126  29.259  1.00  0.00     0.135 A 
ATOM     81  C   UNL A   1      36.345  31.301  30.016  1.00  0.00     0.135 A 
ATOM     82  F   UNL A   1      38.905  33.712  29.092  1.00  0.00    -0.206 F 
ATOM     83  C   UNL A   1      36.571  33.823  28.859  1.00  0.00     0.059 A 
ATOM     84  C   UNL A   1      35.197  31.963  29.595  1.00  0.00     0.059 A 
ATOM     85  F   UNL A   1      36.206  30.088  30.574  1.00  0.00    -0.206 F 
ATOM     86  C   UNL A   1      35.319  33.230  29.029  1.00  0.00     0.060 A 
BRANCH  86  87
ATOM     87  S   UNL A   1      33.852  34.124  28.473  1.00  0.00     0.124 S 
ATOM     88  O   UNL A   1      33.251  34.522  29.740  1.00  0.00    -0.237 OA
ATOM     89  O   UNL A   1      34.435  35.199  27.675  1.00  0.00    -0.237 OA
ATOM     90  O   UNL A   1      33.114  33.119  27.712  1.00  0.00    -0.744 OA
ENDBRANCH  86  87
ENDBRANCH  54  79
BRANCH  66  91
ATOM     91  C   UNL A   1      41.620  32.392  35.556  1.00  0.00     0.058 A 
ATOM     92  C   UNL A   1      42.471  33.506  35.621  1.00  0.00     0.135 A 
ATOM     93  C   UNL A   1      40.721  32.194  36.618  1.00  0.00     0.135 A 
ATOM     94  F   UNL A   1      43.348  33.744  34.633  1.00  0.00    -0.206 F 
ATOM     95  C   UNL A   1      42.469  34.360  36.719  1.00  0.00     0.059 A 
ATOM     96  C   UNL A   1      40.676  33.057  37.709  1.00  0.00     0.059 A 
ATOM     97  F   UNL A   1      39.870  31.156  36.602  1.00  0.00    -0.206 F 
ATOM     98  C   UNL A   1      41.571  34.124  37.761  1.00  0.00     0.060 A 
BRANCH  98  99
ATOM     99  S   UNL A   1      41.586  35.233  39.184  1.00  0.00     0.124 S 
ATOM    100  O   UNL A   1      41.948  34.321  40.264  1.00  0.00    -0.237 OA
ATOM    101  O   UNL A   1      42.607  36.208  38.810  1.00  0.00    -0.237 OA
ATOM    102  O   UNL A   1      40.221  35.749  39.230  1.00  0.00    -0.744 OA
ENDBRANCH  98  99
ENDBRANCH  66  91
ENDBRANCH  40  41
ENDBRANCH  33  35
ENDBRANCH  32  33
ENDBRANCH  31  32
ENDBRANCH  30  31
ENDBRANCH  29  30
ENDBRANCH  28  29
ENDBRANCH   1  28
TORSDOF 27
ENDMDL
MODEL 3
REMARK VINA RESULT:      -9.5      5.641     11.552
REMARK SMILES CCC(CC)(NC(=O)Nc1ccccc1)C(=O)OCCOCCOCCOCCOC(=O)c1ccc(-c2c3nc(c(-c4c(F)cc(S(=O)(=O)[O-])cc4F)c4ccc([nH]4)c(-c4c(F)cc(S(=O)(=O)[O-])cc4F)c4nc(c(-c5c(F)cc(S(=O)(=O)[O-])cc5F)c5ccc2[nH]5)C=C4)C=C3)cc1
REMARK SMILES IDX 25 1 24 2 23 3 22 4 21 5 20 6 19 7 18 8 16 9 17 10 3 11 2 12
REMARK SMILES IDX 1 13 4 14 5 15 6 16 7 17 8 19 9 20 10 22 11 23 15 24 12 25
REMARK SMILES IDX 14 26 13 27 26 28 27 29 28 30 29 31 30 32 31 33 32 34 33 35
REMARK SMILES IDX 34 36 98 37 35 38 97 39 36 40 37 41 38 42 91 43 39 44 96 45
REMARK SMILES IDX 90 46 92 47 40 48 95 49 89 50 88 51 41 53 75 54 54 55 74 56
REMARK SMILES IDX 55 57 58 58 73 59 93 60 56 61 57 62 72 64 94 65 59 66 42 67
REMARK SMILES IDX 43 68 52 69 44 70 45 71 51 72 53 73 46 74 47 75 48 76 49 77
REMARK SMILES IDX 50 78 76 79 77 80 86 81 78 82 79 83 85 84 87 85 80 86 81 87
REMARK SMILES IDX 82 88 83 89 84 90 60 91 61 92 70 93 62 94 63 95 69 96 71 97
REMARK SMILES IDX 64 98 65 99 66 100 67 101 68 102
REMARK H PARENT 6 18 9 21 92 52 58 63
REMARK Flexibility Score: inf
ROOT
ATOM      1  C   UNL A   1      39.872  21.832  26.636  1.00  0.00     0.188 C 
ENDROOT
BRANCH   1   2
ATOM      2  O   UNL A   1      38.708  21.545  25.874  1.00  0.00    -0.377 OA
BRANCH   2   3
ATOM      3  C   UNL A   1      37.904  22.651  25.471  1.00  0.00     0.188 C 
BRANCH   3   4
ATOM      4  C   UNL A   1      36.994  22.460  24.207  1.00  0.00     0.188 C 
BRANCH   4   5
ATOM      5  O   UNL A   1      35.704  23.072  24.496  1.00  0.00    -0.376 OA
BRANCH   5   6
ATOM      6  C   UNL A   1      34.838  24.053  23.879  1.00  0.00     0.202 C 
BRANCH   6   7
ATOM      7  C   UNL A   1      33.474  23.543  22.983  1.00  0.00     0.261 C 
BRANCH   7   8
ATOM      8  O   UNL A   1      32.346  24.370  22.240  1.00  0.00    -0.461 OA
BRANCH   8   9
ATOM      9  C   UNL A   1      31.796  25.676  22.132  1.00  0.00     0.331 C 
ATOM     10  O   UNL A   1      31.571  26.219  21.051  1.00  0.00    -0.249 OA
BRANCH   9  11
ATOM     11  C   UNL A   1      31.609  26.500  23.581  1.00  0.00     0.139 C 
BRANCH  11  12
ATOM     12  C   UNL A   1      30.490  27.482  24.148  1.00  0.00     0.037 C 
ATOM     13  C   UNL A   1      29.064  27.484  23.676  1.00  0.00     0.007 C 
ENDBRANCH  11  12
BRANCH  11  14
ATOM     14  C   UNL A   1      33.000  27.119  23.852  1.00  0.00     0.037 C 
ATOM     15  C   UNL A   1      33.793  27.668  22.669  1.00  0.00     0.007 C 
ENDBRANCH  11  14
BRANCH  11  16
ATOM     16  N   UNL A   1      31.316  25.352  24.345  1.00  0.00    -0.322 N 
ATOM     17  C   UNL A   1      31.578  25.429  25.660  1.00  0.00     0.320 C 
ATOM     18  H   UNL A   1      30.940  24.538  23.938  1.00  0.00     0.166 HD
ATOM     19  O   UNL A   1      31.077  24.525  26.326  1.00  0.00    -0.248 OA
ATOM     20  N   UNL A   1      32.303  26.472  26.233  1.00  0.00    -0.308 N 
ATOM     21  H   UNL A   1      32.842  26.036  26.934  1.00  0.00     0.171 HD
BRANCH  20  22
ATOM     22  C   UNL A   1      32.672  27.895  26.325  1.00  0.00     0.042 A 
ATOM     23  C   UNL A   1      34.004  28.171  26.696  1.00  0.00     0.026 A 
ATOM     24  C   UNL A   1      31.838  29.021  26.455  1.00  0.00     0.026 A 
ATOM     25  C   UNL A   1      34.436  29.432  27.165  1.00  0.00     0.002 A 
ATOM     26  C   UNL A   1      32.272  30.315  26.795  1.00  0.00     0.002 A 
ATOM     27  C   UNL A   1      33.576  30.518  27.180  1.00  0.00     0.000 A 
ENDBRANCH  20  22
ENDBRANCH  11  16
ENDBRANCH   9  11
ENDBRANCH   8   9
ENDBRANCH   7   8
ENDBRANCH   6   7
ENDBRANCH   5   6
ENDBRANCH   4   5
ENDBRANCH   3   4
ENDBRANCH   2   3
ENDBRANCH   1   2
BRANCH   1  28
ATOM     28  C   UNL A   1      40.728  20.592  26.922  1.00  0.00     0.188 C 
BRANCH  28  29
ATOM     29  O   UNL A   1      42.021  20.723  27.505  1.00  0.00    -0.376 OA
BRANCH  29  30
ATOM     30  C   UNL A   1      42.526  21.993  27.874  1.00  0.00     0.202 C 
BRANCH  30  31
ATOM     31  C   UNL A   1      43.772  22.560  27.158  1.00  0.00     0.261 C 
BRANCH  31  32
ATOM     32  O   UNL A   1      43.963  23.982  27.136  1.00  0.00    -0.460 OA
BRANCH  32  33
ATOM     33  C   UNL A   1      43.176  24.696  26.293  1.00  0.00     0.338 C 
ATOM     34  O   UNL A   1      42.994  24.480  25.121  1.00  0.00    -0.246 OA
BRANCH  33  35
ATOM     35  C   UNL A   1      42.402  25.702  27.086  1.00  0.00     0.060 A 
ATOM     36  C   UNL A   1      42.930  26.997  27.199  1.00  0.00     0.016 A 
ATOM     37  C   UNL A   1      41.201  25.387  27.727  1.00  0.00     0.016 A 
ATOM     38  C   UNL A   1      42.311  27.951  27.999  1.00  0.00     0.010 A 
ATOM     39  C   UNL A   1      40.610  26.327  28.587  1.00  0.00     0.010 A 
ATOM     40  C   UNL A   1      41.207  27.587  28.773  1.00  0.00    -0.014 A 
BRANCH  40  41
ATOM     41  C   UNL A   1      40.934  28.407  29.981  1.00  0.00     0.031 A 
ATOM     42  C   UNL A   1      41.842  28.213  31.172  1.00  0.00     0.074 A 
ATOM     43  C   UNL A   1      40.022  29.394  29.978  1.00  0.00     0.049 A 
ATOM     44  N   UNL A   1      41.860  28.841  32.319  1.00  0.00    -0.248 NA
ATOM     45  C   UNL A   1      42.879  27.173  31.045  1.00  0.00     0.031 C 
ATOM     46  C   UNL A   1      39.139  29.726  28.862  1.00  0.00     0.029 A 
ATOM     47  N   UNL A   1      39.701  30.312  30.947  1.00  0.00    -0.354 N 
ATOM     48  C   UNL A   1      42.907  28.278  33.042  1.00  0.00     0.074 A 
ATOM     49  C   UNL A   1      43.472  27.228  32.226  1.00  0.00     0.031 C 
ATOM     50  C   UNL A   1      38.362  30.766  29.216  1.00  0.00     0.029 A 
ATOM     51  C   UNL A   1      38.679  31.158  30.589  1.00  0.00     0.049 A 
ATOM     52  H   UNL A   1      40.160  30.360  31.817  1.00  0.00     0.167 HD
ATOM     53  C   UNL A   1      43.372  28.617  34.267  1.00  0.00     0.037 A 
ATOM     54  C   UNL A   1      38.057  32.121  31.299  1.00  0.00     0.037 A 
ATOM     55  C   UNL A   1      42.804  29.662  35.077  1.00  0.00     0.049 A 
ATOM     56  C   UNL A   1      38.537  32.427  32.697  1.00  0.00     0.074 A 
ATOM     57  C   UNL A   1      43.182  30.072  36.343  1.00  0.00     0.029 A 
ATOM     58  N   UNL A   1      41.735  30.463  34.699  1.00  0.00    -0.354 N 
ATOM     59  N   UNL A   1      39.522  31.881  33.372  1.00  0.00    -0.248 NA
ATOM     60  C   UNL A   1      37.829  33.490  33.424  1.00  0.00     0.031 C 
ATOM     61  C   UNL A   1      42.309  31.086  36.752  1.00  0.00     0.029 A 
ATOM     62  C   UNL A   1      41.428  31.353  35.715  1.00  0.00     0.049 A 
ATOM     63  H   UNL A   1      41.265  30.407  33.836  1.00  0.00     0.167 HD
ATOM     64  C   UNL A   1      39.566  32.549  34.593  1.00  0.00     0.074 A 
ATOM     65  C   UNL A   1      38.526  33.558  34.550  1.00  0.00     0.031 C 
ATOM     66  C   UNL A   1      40.386  32.349  35.656  1.00  0.00     0.037 A 
BRANCH  53  67
ATOM     67  C   UNL A   1      44.537  27.835  34.814  1.00  0.00     0.058 A 
ATOM     68  C   UNL A   1      44.356  26.646  35.540  1.00  0.00     0.135 A 
ATOM     69  C   UNL A   1      45.854  28.264  34.582  1.00  0.00     0.135 A 
ATOM     70  F   UNL A   1      43.119  26.202  35.813  1.00  0.00    -0.206 F 
ATOM     71  C   UNL A   1      45.437  25.920  36.030  1.00  0.00     0.059 A 
ATOM     72  C   UNL A   1      46.951  27.538  35.037  1.00  0.00     0.059 A 
ATOM     73  F   UNL A   1      46.086  29.398  33.904  1.00  0.00    -0.206 F 
ATOM     74  C   UNL A   1      46.732  26.372  35.769  1.00  0.00     0.060 A 
BRANCH  74  75
ATOM     75  S   UNL A   1      48.124  25.403  36.389  1.00  0.00     0.124 S 
ATOM     76  O   UNL A   1      47.453  24.199  36.869  1.00  0.00    -0.237 OA
ATOM     77  O   UNL A   1      48.944  25.238  35.193  1.00  0.00    -0.237 OA
ATOM     78  O   UNL A   1      48.697  26.255  37.426  1.00  0.00    -0.744 OA
ENDBRANCH  74  75
ENDBRANCH  53  67
BRANCH  54  79
ATOM     79  C   UNL A   1      36.891  32.842  30.718  1.00  0.00     0.058 A 
ATOM     80  C   UNL A   1      35.570  32.460  30.998  1.00  0.00     0.135 A 
ATOM     81  C   UNL A   1      37.082  33.927  29.846  1.00  0.00     0.135 A 
ATOM     82  F   UNL A   1      35.330  31.423  31.815  1.00  0.00    -0.206 F 
ATOM     83  C   UNL A   1      34.483  33.109  30.418  1.00  0.00     0.059 A 
ATOM     84  C   UNL A   1      36.012  34.612  29.280  1.00  0.00     0.059 A 
ATOM     85  F   UNL A   1      38.324  34.341  29.548  1.00  0.00    -0.206 F 
ATOM     86  C   UNL A   1      34.715  34.187  29.562  1.00  0.00     0.060 A 
BRANCH  86  87
ATOM     87  S   UNL A   1      33.299  35.048  28.846  1.00  0.00     0.124 S 
ATOM     88  O   UNL A   1      33.952  36.084  28.056  1.00  0.00    -0.237 OA
ATOM     89  O   UNL A   1      32.645  33.983  28.091  1.00  0.00    -0.237 OA
ATOM     90  O   UNL A   1      32.563  35.518  30.017  1.00  0.00    -0.744 OA
ENDBRANCH  86  87
ENDBRANCH  54  79
BRANCH  66  91
ATOM     91  C   UNL A   1      40.215  33.260  36.843  1.00  0.00     0.058 A 
ATOM     92  C   UNL A   1      40.996  34.414  37.012  1.00  0.00     0.135 A 
ATOM     93  C   UNL A   1      39.241  32.983  37.818  1.00  0.00     0.135 A 
ATOM     94  F   UNL A   1      41.940  34.729  36.111  1.00  0.00    -0.206 F 
ATOM     95  C   UNL A   1      40.854  35.232  38.129  1.00  0.00     0.059 A 
ATOM     96  C   UNL A   1      39.057  33.807  38.923  1.00  0.00     0.059 A 
ATOM     97  F   UNL A   1      38.452  31.903  37.699  1.00  0.00    -0.206 F 
ATOM     98  C   UNL A   1      39.885  34.917  39.082  1.00  0.00     0.060 A 
BRANCH  98  99
ATOM     99  S   UNL A   1      39.719  35.979  40.531  1.00  0.00     0.124 S 
ATOM    100  O   UNL A   1      38.604  36.836  40.141  1.00  0.00    -0.237 OA
ATOM    101  O   UNL A   1      39.438  35.018  41.593  1.00  0.00    -0.237 OA
ATOM    102  O   UNL A   1      41.018  36.641  40.620  1.00  0.00    -0.744 OA
ENDBRANCH  98  99
ENDBRANCH  66  91
ENDBRANCH  40  41
ENDBRANCH  33  35
ENDBRANCH  32  33
ENDBRANCH  31  32
ENDBRANCH  30  31
ENDBRANCH  29  30
ENDBRANCH  28  29
ENDBRANCH   1  28
TORSDOF 27
ENDMDL
