MODEL 1
REMARK VINA RESULT:     -10.1      0.000      0.000
REMARK SMILES C#Cc1cc(Cl)cc2c1O[C@H](C(F)(F)F)C(C(=O)OCCOCCOCCOCCOC(=O)c1ccc(-c3c4nc(c(-c5c(F)cc(S(=O)(=O)[O-])cc5F)c5ccc([nH]5)c(-c5c(F)cc(S(=O)(=O)[O-])cc5F)c5nc(c(-c6c(F)cc(S(=O)(=O)[O-])cc6F)c6ccc3[nH]6)C=C5)C=C4)cc1)=C2
REMARK SMILES IDX 26 1 25 2 24 3 23 4 22 5 21 6 20 7 19 8 17 9 18 10 16 11
REMARK SMILES IDX 3 12 4 13 9 14 5 15 8 16 10 17 6 18 7 19 100 20 11 21 2 22
REMARK SMILES IDX 1 23 12 24 13 25 14 26 15 27 27 28 28 29 29 30 30 31 31 32
REMARK SMILES IDX 32 33 33 34 34 35 35 36 99 37 36 38 98 39 37 40 38 41 39 42
REMARK SMILES IDX 92 43 40 44 97 45 91 46 93 47 41 48 96 49 90 50 89 51 42 53
REMARK SMILES IDX 76 54 55 55 75 56 56 57 59 58 74 59 94 60 57 61 58 62 73 64
REMARK SMILES IDX 95 65 60 66 43 67 44 68 53 69 45 70 46 71 52 72 54 73 47 74
REMARK SMILES IDX 48 75 49 76 50 77 51 78 77 79 78 80 87 81 79 82 80 83 86 84
REMARK SMILES IDX 88 85 81 86 82 87 83 88 84 89 85 90 61 91 62 92 71 93 63 94
REMARK SMILES IDX 64 95 70 96 72 97 65 98 66 99 67 100 68 101 69 102
REMARK H PARENT 93 52 59 63
REMARK Flexibility Score: inf
ROOT
ATOM      1  C   UNL A   1      37.941  20.880  25.235  1.00  0.00     0.188 C 
ENDROOT
BRANCH   1   2
ATOM      2  O   UNL A   1      36.670  21.484  24.997  1.00  0.00    -0.377 OA
BRANCH   2   3
ATOM      3  C   UNL A   1      35.525  20.661  24.903  1.00  0.00     0.188 C 
BRANCH   3   4
ATOM      4  C   UNL A   1      34.501  20.799  26.050  1.00  0.00     0.188 C 
BRANCH   4   5
ATOM      5  O   UNL A   1      33.132  20.799  25.708  1.00  0.00    -0.376 OA
BRANCH   5   6
ATOM      6  C   UNL A   1      32.234  21.849  26.022  1.00  0.00     0.202 C 
BRANCH   6   7
ATOM      7  C   UNL A   1      32.586  23.210  26.648  1.00  0.00     0.261 C 
BRANCH   7   8
ATOM      8  O   UNL A   1      33.709  23.907  26.123  1.00  0.00    -0.460 OA
BRANCH   8   9
ATOM      9  C   UNL A   1      33.632  24.269  24.829  1.00  0.00     0.338 C 
ATOM     10  O   UNL A   1      33.752  23.547  23.854  1.00  0.00    -0.246 OA
BRANCH   9  11
ATOM     11  C   UNL A   1      33.173  25.673  24.776  1.00  0.00     0.087 C 
ATOM     12  C   UNL A   1      31.679  29.558  24.958  1.00  0.00     0.068 A 
ATOM     13  C   UNL A   1      32.200  30.448  25.904  1.00  0.00     0.041 A 
ATOM     14  C   UNL A   1      32.246  28.284  24.804  1.00  0.00     0.143 A 
ATOM     15  C   UNL A   1      33.299  30.076  26.672  1.00  0.00     0.043 A 
ATOM     16  C   UNL A   1      33.312  27.901  25.624  1.00  0.00     0.020 A 
ATOM     17  O   UNL A   1      31.711  27.463  23.851  1.00  0.00    -0.474 OA
ATOM     18  Cl  UNL A   1      33.936  31.166  27.842  1.00  0.00    -0.084 Cl
ATOM     19  C   UNL A   1      33.863  28.811  26.533  1.00  0.00     0.032 A 
ATOM     20  C   UNL A   1      33.782  26.529  25.606  1.00  0.00     0.027 C 
ATOM     21  C   UNL A   1      32.114  26.068  23.784  1.00  0.00     0.316 C 
BRANCH  12  22
ATOM     22  C   UNL A   1      30.517  29.950  24.211  1.00  0.00    -0.067 C 
ATOM     23  C   UNL A   1      29.531  30.289  23.623  1.00  0.00     0.010 C 
ENDBRANCH  12  22
BRANCH  21  24
ATOM     24  C   UNL A   1      30.856  25.200  23.919  1.00  0.00     0.430 C 
ATOM     25  F   UNL A   1      30.672  24.786  25.193  1.00  0.00    -0.167 F 
ATOM     26  F   UNL A   1      29.739  25.869  23.556  1.00  0.00    -0.167 F 
ATOM     27  F   UNL A   1      30.936  24.096  23.139  1.00  0.00    -0.167 F 
ENDBRANCH  21  24
ENDBRANCH   9  11
ENDBRANCH   8   9
ENDBRANCH   7   8
ENDBRANCH   6   7
ENDBRANCH   5   6
ENDBRANCH   4   5
ENDBRANCH   3   4
ENDBRANCH   2   3
ENDBRANCH   1   2
BRANCH   1  28
ATOM     28  C   UNL A   1      39.089  21.607  25.982  1.00  0.00     0.188 C 
BRANCH  28  29
ATOM     29  O   UNL A   1      40.270  20.850  26.154  1.00  0.00    -0.376 OA
BRANCH  29  30
ATOM     30  C   UNL A   1      41.542  21.452  26.045  1.00  0.00     0.202 C 
BRANCH  30  31
ATOM     31  C   UNL A   1      42.016  22.466  27.097  1.00  0.00     0.261 C 
BRANCH  31  32
ATOM     32  O   UNL A   1      41.221  23.643  27.275  1.00  0.00    -0.460 OA
BRANCH  32  33
ATOM     33  C   UNL A   1      41.714  24.800  26.779  1.00  0.00     0.338 C 
ATOM     34  O   UNL A   1      42.164  24.983  25.664  1.00  0.00    -0.246 OA
BRANCH  33  35
ATOM     35  C   UNL A   1      41.428  25.862  27.770  1.00  0.00     0.060 A 
ATOM     36  C   UNL A   1      42.356  26.897  27.955  1.00  0.00     0.016 A 
ATOM     37  C   UNL A   1      40.233  25.848  28.491  1.00  0.00     0.016 A 
ATOM     38  C   UNL A   1      42.101  27.908  28.881  1.00  0.00     0.010 A 
ATOM     39  C   UNL A   1      39.995  26.843  29.444  1.00  0.00     0.010 A 
ATOM     40  C   UNL A   1      40.943  27.859  29.666  1.00  0.00    -0.014 A 
BRANCH  40  41
ATOM     41  C   UNL A   1      40.829  28.735  30.858  1.00  0.00     0.031 A 
ATOM     42  C   UNL A   1      39.772  29.806  30.844  1.00  0.00     0.074 A 
ATOM     43  C   UNL A   1      41.611  28.562  31.938  1.00  0.00     0.049 A 
ATOM     44  N   UNL A   1      39.514  30.727  31.734  1.00  0.00    -0.248 NA
ATOM     45  C   UNL A   1      38.885  29.842  29.668  1.00  0.00     0.031 C 
ATOM     46  C   UNL A   1      42.625  27.520  32.092  1.00  0.00     0.029 A 
ATOM     47  N   UNL A   1      41.674  29.267  33.115  1.00  0.00    -0.354 N 
ATOM     48  C   UNL A   1      38.440  31.449  31.228  1.00  0.00     0.074 A 
ATOM     49  C   UNL A   1      38.119  30.888  29.935  1.00  0.00     0.031 C 
ATOM     50  C   UNL A   1      43.213  27.659  33.294  1.00  0.00     0.029 A 
ATOM     51  C   UNL A   1      42.646  28.821  33.978  1.00  0.00     0.049 A 
ATOM     52  H   UNL A   1      41.078  30.024  33.321  1.00  0.00     0.167 HD
ATOM     53  C   UNL A   1      37.769  32.477  31.799  1.00  0.00     0.037 A 
ATOM     54  C   UNL A   1      43.044  29.308  35.172  1.00  0.00     0.037 A 
ATOM     55  C   UNL A   1      38.093  33.027  33.087  1.00  0.00     0.049 A 
ATOM     56  C   UNL A   1      42.349  30.524  35.738  1.00  0.00     0.074 A 
ATOM     57  C   UNL A   1      37.474  34.072  33.751  1.00  0.00     0.029 A 
ATOM     58  N   UNL A   1      39.118  32.581  33.907  1.00  0.00    -0.354 N 
ATOM     59  N   UNL A   1      41.330  31.196  35.252  1.00  0.00    -0.248 NA
ATOM     60  C   UNL A   1      42.856  31.051  37.014  1.00  0.00     0.031 C 
ATOM     61  C   UNL A   1      38.165  34.299  34.944  1.00  0.00     0.029 A 
ATOM     62  C   UNL A   1      39.168  33.350  35.058  1.00  0.00     0.049 A 
ATOM     63  H   UNL A   1      39.721  31.831  33.702  1.00  0.00     0.167 HD
ATOM     64  C   UNL A   1      41.057  32.198  36.178  1.00  0.00     0.074 A 
ATOM     65  C   UNL A   1      42.004  32.038  37.260  1.00  0.00     0.031 C 
ATOM     66  C   UNL A   1      40.108  33.168  36.136  1.00  0.00     0.037 A 
BRANCH  53  67
ATOM     67  C   UNL A   1      36.620  33.081  31.041  1.00  0.00     0.058 A 
ATOM     68  C   UNL A   1      35.293  32.912  31.463  1.00  0.00     0.135 A 
ATOM     69  C   UNL A   1      36.856  33.913  29.934  1.00  0.00     0.135 A 
ATOM     70  F   UNL A   1      35.008  32.109  32.501  1.00  0.00    -0.206 F 
ATOM     71  C   UNL A   1      34.238  33.547  30.815  1.00  0.00     0.059 A 
ATOM     72  C   UNL A   1      35.820  34.582  29.289  1.00  0.00     0.059 A 
ATOM     73  F   UNL A   1      38.106  34.101  29.484  1.00  0.00    -0.206 F 
ATOM     74  C   UNL A   1      34.514  34.390  29.737  1.00  0.00     0.060 A 
BRANCH  74  75
ATOM     75  S   UNL A   1      33.136  35.242  28.943  1.00  0.00     0.124 S 
ATOM     76  O   UNL A   1      32.191  35.367  30.049  1.00  0.00    -0.237 OA
ATOM     77  O   UNL A   1      33.760  36.485  28.499  1.00  0.00    -0.237 OA
ATOM     78  O   UNL A   1      32.735  34.328  27.879  1.00  0.00    -0.744 OA
ENDBRANCH  74  75
ENDBRANCH  53  67
BRANCH  54  79
ATOM     79  C   UNL A   1      44.159  28.660  35.918  1.00  0.00     0.058 A 
ATOM     80  C   UNL A   1      43.914  27.608  36.815  1.00  0.00     0.135 A 
ATOM     81  C   UNL A   1      45.488  29.091  35.772  1.00  0.00     0.135 A 
ATOM     82  F   UNL A   1      42.660  27.168  37.004  1.00  0.00    -0.206 F 
ATOM     83  C   UNL A   1      44.937  27.022  37.553  1.00  0.00     0.059 A 
ATOM     84  C   UNL A   1      46.534  28.497  36.473  1.00  0.00     0.059 A 
ATOM     85  F   UNL A   1      45.783  30.090  34.925  1.00  0.00    -0.206 F 
ATOM     86  C   UNL A   1      46.246  27.471  37.372  1.00  0.00     0.060 A 
BRANCH  86  87
ATOM     87  S   UNL A   1      47.567  26.680  38.315  1.00  0.00     0.124 S 
ATOM     88  O   UNL A   1      48.614  26.555  37.308  1.00  0.00    -0.237 OA
ATOM     89  O   UNL A   1      47.809  27.655  39.373  1.00  0.00    -0.237 OA
ATOM     90  O   UNL A   1      46.963  25.425  38.753  1.00  0.00    -0.744 OA
ENDBRANCH  86  87
ENDBRANCH  54  79
BRANCH  66  91
ATOM     91  C   UNL A   1      40.013  34.118  37.302  1.00  0.00     0.058 A 
ATOM     92  C   UNL A   1      40.640  35.372  37.284  1.00  0.00     0.135 A 
ATOM     93  C   UNL A   1      39.209  33.805  38.411  1.00  0.00     0.135 A 
ATOM     94  F   UNL A   1      41.421  35.724  36.250  1.00  0.00    -0.206 F 
ATOM     95  C   UNL A   1      40.491  36.275  38.333  1.00  0.00     0.059 A 
ATOM     96  C   UNL A   1      39.016  34.706  39.454  1.00  0.00     0.059 A 
ATOM     97  F   UNL A   1      38.572  32.624  38.474  1.00  0.00    -0.206 F 
ATOM     98  C   UNL A   1      39.670  35.935  39.409  1.00  0.00     0.060 A 
BRANCH  98  99
ATOM     99  S   UNL A   1      39.456  37.137  40.739  1.00  0.00     0.124 S 
ATOM    100  O   UNL A   1      40.839  37.410  41.117  1.00  0.00    -0.237 OA
ATOM    101  O   UNL A   1      38.756  38.225  40.063  1.00  0.00    -0.237 OA
ATOM    102  O   UNL A   1      38.667  36.413  41.732  1.00  0.00    -0.744 OA
ENDBRANCH  98  99
ENDBRANCH  66  91
ENDBRANCH  40  41
ENDBRANCH  33  35
ENDBRANCH  32  33
ENDBRANCH  31  32
ENDBRANCH  30  31
ENDBRANCH  29  30
ENDBRANCH  28  29
ENDBRANCH   1  28
TORSDOF 25
ENDMDL
MODEL 2
REMARK VINA RESULT:     -10.0      0.430      7.983
REMARK SMILES C#Cc1cc(Cl)cc2c1O[C@H](C(F)(F)F)C(C(=O)OCCOCCOCCOCCOC(=O)c1ccc(-c3c4nc(c(-c5c(F)cc(S(=O)(=O)[O-])cc5F)c5ccc([nH]5)c(-c5c(F)cc(S(=O)(=O)[O-])cc5F)c5nc(c(-c6c(F)cc(S(=O)(=O)[O-])cc6F)c6ccc3[nH]6)C=C5)C=C4)cc1)=C2
REMARK SMILES IDX 26 1 25 2 24 3 23 4 22 5 21 6 20 7 19 8 17 9 18 10 16 11
REMARK SMILES IDX 3 12 4 13 9 14 5 15 8 16 10 17 6 18 7 19 100 20 11 21 2 22
REMARK SMILES IDX 1 23 12 24 13 25 14 26 15 27 27 28 28 29 29 30 30 31 31 32
REMARK SMILES IDX 32 33 33 34 34 35 35 36 99 37 36 38 98 39 37 40 38 41 39 42
REMARK SMILES IDX 92 43 40 44 97 45 91 46 93 47 41 48 96 49 90 50 89 51 42 53
REMARK SMILES IDX 76 54 55 55 75 56 56 57 59 58 74 59 94 60 57 61 58 62 73 64
REMARK SMILES IDX 95 65 60 66 43 67 44 68 53 69 45 70 46 71 52 72 54 73 47 74
REMARK SMILES IDX 48 75 49 76 50 77 51 78 77 79 78 80 87 81 79 82 80 83 86 84
REMARK SMILES IDX 88 85 81 86 82 87 83 88 84 89 85 90 61 91 62 92 71 93 63 94
REMARK SMILES IDX 64 95 70 96 72 97 65 98 66 99 67 100 68 101 69 102
REMARK H PARENT 93 52 59 63
REMARK Flexibility Score: inf
ROOT
ATOM      1  C   UNL A   1      37.810  20.837  25.234  1.00  0.00     0.188 C 
ENDROOT
BRANCH   1   2
ATOM      2  O   UNL A   1      36.521  21.445  25.156  1.00  0.00    -0.377 OA
BRANCH   2   3
ATOM      3  C   UNL A   1      35.390  20.631  24.922  1.00  0.00     0.188 C 
BRANCH   3   4
ATOM      4  C   UNL A   1      34.259  20.734  25.968  1.00  0.00     0.188 C 
BRANCH   4   5
ATOM      5  O   UNL A   1      32.934  20.822  25.490  1.00  0.00    -0.376 OA
BRANCH   5   6
ATOM      6  C   UNL A   1      32.019  21.836  25.868  1.00  0.00     0.202 C 
BRANCH   6   7
ATOM      7  C   UNL A   1      32.354  23.183  26.529  1.00  0.00     0.261 C 
BRANCH   7   8
ATOM      8  O   UNL A   1      33.412  23.949  25.966  1.00  0.00    -0.460 OA
BRANCH   8   9
ATOM      9  C   UNL A   1      33.265  24.308  24.678  1.00  0.00     0.338 C 
ATOM     10  O   UNL A   1      33.314  23.581  23.701  1.00  0.00    -0.246 OA
BRANCH   9  11
ATOM     11  C   UNL A   1      32.830  25.720  24.645  1.00  0.00     0.087 C 
ATOM     12  C   UNL A   1      31.395  29.625  24.880  1.00  0.00     0.068 A 
ATOM     13  C   UNL A   1      31.916  30.488  25.852  1.00  0.00     0.041 A 
ATOM     14  C   UNL A   1      31.945  28.346  24.710  1.00  0.00     0.143 A 
ATOM     15  C   UNL A   1      32.996  30.083  26.630  1.00  0.00     0.043 A 
ATOM     16  C   UNL A   1      32.991  27.929  25.539  1.00  0.00     0.020 A 
ATOM     17  O   UNL A   1      31.412  27.552  23.733  1.00  0.00    -0.474 OA
ATOM     18  Cl  UNL A   1      33.632  31.140  27.831  1.00  0.00    -0.084 Cl
ATOM     19  C   UNL A   1      33.542  28.811  26.475  1.00  0.00     0.032 A 
ATOM     20  C   UNL A   1      33.439  26.550  25.501  1.00  0.00     0.027 C 
ATOM     21  C   UNL A   1      31.793  26.152  23.645  1.00  0.00     0.316 C 
BRANCH  12  22
ATOM     22  C   UNL A   1      30.252  30.050  24.123  1.00  0.00    -0.067 C 
ATOM     23  C   UNL A   1      29.311  30.442  23.496  1.00  0.00     0.010 C 
ENDBRANCH  12  22
BRANCH  21  24
ATOM     24  C   UNL A   1      30.519  25.302  23.742  1.00  0.00     0.430 C 
ATOM     25  F   UNL A   1      30.515  24.308  22.825  1.00  0.00    -0.167 F 
ATOM     26  F   UNL A   1      30.390  24.722  24.956  1.00  0.00    -0.167 F 
ATOM     27  F   UNL A   1      29.412  26.053  23.534  1.00  0.00    -0.167 F 
ENDBRANCH  21  24
ENDBRANCH   9  11
ENDBRANCH   8   9
ENDBRANCH   7   8
ENDBRANCH   6   7
ENDBRANCH   5   6
ENDBRANCH   4   5
ENDBRANCH   3   4
ENDBRANCH   2   3
ENDBRANCH   1   2
BRANCH   1  28
ATOM     28  C   UNL A   1      39.016  21.512  25.935  1.00  0.00     0.188 C 
BRANCH  28  29
ATOM     29  O   UNL A   1      40.079  20.644  26.275  1.00  0.00    -0.376 OA
BRANCH  29  30
ATOM     30  C   UNL A   1      41.420  21.082  26.223  1.00  0.00     0.202 C 
BRANCH  30  31
ATOM     31  C   UNL A   1      41.951  22.089  27.255  1.00  0.00     0.261 C 
BRANCH  31  32
ATOM     32  O   UNL A   1      41.212  23.302  27.426  1.00  0.00    -0.460 OA
BRANCH  32  33
ATOM     33  C   UNL A   1      41.721  24.419  26.858  1.00  0.00     0.338 C 
ATOM     34  O   UNL A   1      42.236  24.510  25.760  1.00  0.00    -0.246 OA
BRANCH  33  35
ATOM     35  C   UNL A   1      41.361  25.560  27.731  1.00  0.00     0.060 A 
ATOM     36  C   UNL A   1      42.222  26.664  27.806  1.00  0.00     0.016 A 
ATOM     37  C   UNL A   1      40.164  25.547  28.448  1.00  0.00     0.016 A 
ATOM     38  C   UNL A   1      41.898  27.750  28.619  1.00  0.00     0.010 A 
ATOM     39  C   UNL A   1      39.858  26.621  29.289  1.00  0.00     0.010 A 
ATOM     40  C   UNL A   1      40.739  27.712  29.403  1.00  0.00    -0.014 A 
BRANCH  40  41
ATOM     41  C   UNL A   1      40.562  28.699  30.496  1.00  0.00     0.031 A 
ATOM     42  C   UNL A   1      41.465  28.590  31.695  1.00  0.00     0.074 A 
ATOM     43  C   UNL A   1      39.656  29.690  30.413  1.00  0.00     0.049 A 
ATOM     44  N   UNL A   1      41.470  29.292  32.796  1.00  0.00    -0.248 NA
ATOM     45  C   UNL A   1      42.506  27.548  31.643  1.00  0.00     0.031 C 
ATOM     46  C   UNL A   1      38.770  29.934  29.276  1.00  0.00     0.029 A 
ATOM     47  N   UNL A   1      39.330  30.677  31.311  1.00  0.00    -0.354 N 
ATOM     48  C   UNL A   1      42.508  28.780  33.565  1.00  0.00     0.074 A 
ATOM     49  C   UNL A   1      43.086  27.681  32.825  1.00  0.00     0.031 C 
ATOM     50  C   UNL A   1      37.996  31.001  29.549  1.00  0.00     0.029 A 
ATOM     51  C   UNL A   1      38.304  31.490  30.892  1.00  0.00     0.049 A 
ATOM     52  H   UNL A   1      39.788  30.791  32.175  1.00  0.00     0.167 HD
ATOM     53  C   UNL A   1      42.951  29.200  34.773  1.00  0.00     0.037 A 
ATOM     54  C   UNL A   1      37.674  32.499  31.530  1.00  0.00     0.037 A 
ATOM     55  C   UNL A   1      42.372  30.297  35.501  1.00  0.00     0.049 A 
ATOM     56  C   UNL A   1      38.119  32.878  32.924  1.00  0.00     0.074 A 
ATOM     57  C   UNL A   1      42.748  30.797  36.735  1.00  0.00     0.029 A 
ATOM     58  N   UNL A   1      41.300  31.062  35.067  1.00  0.00    -0.354 N 
ATOM     59  N   UNL A   1      39.105  32.390  33.639  1.00  0.00    -0.248 NA
ATOM     60  C   UNL A   1      37.364  33.945  33.598  1.00  0.00     0.031 C 
ATOM     61  C   UNL A   1      41.864  31.824  37.075  1.00  0.00     0.029 A 
ATOM     62  C   UNL A   1      40.983  32.012  36.024  1.00  0.00     0.049 A 
ATOM     63  H   UNL A   1      40.834  30.946  34.208  1.00  0.00     0.167 HD
ATOM     64  C   UNL A   1      39.109  33.112  34.829  1.00  0.00     0.074 A 
ATOM     65  C   UNL A   1      38.038  34.081  34.733  1.00  0.00     0.031 C 
ATOM     66  C   UNL A   1      39.923  32.983  35.907  1.00  0.00     0.037 A 
BRANCH  53  67
ATOM     67  C   UNL A   1      44.115  28.477  35.392  1.00  0.00     0.058 A 
ATOM     68  C   UNL A   1      45.439  28.847  35.115  1.00  0.00     0.135 A 
ATOM     69  C   UNL A   1      43.900  27.464  36.341  1.00  0.00     0.135 A 
ATOM     70  F   UNL A   1      45.702  29.793  34.200  1.00  0.00    -0.206 F 
ATOM     71  C   UNL A   1      46.513  28.238  35.758  1.00  0.00     0.059 A 
ATOM     72  C   UNL A   1      44.956  26.862  37.018  1.00  0.00     0.059 A 
ATOM     73  F   UNL A   1      42.653  27.066  36.635  1.00  0.00    -0.206 F 
ATOM     74  C   UNL A   1      46.259  27.256  36.717  1.00  0.00     0.060 A 
BRANCH  74  75
ATOM     75  S   UNL A   1      47.664  26.516  37.575  1.00  0.00     0.124 S 
ATOM     76  O   UNL A   1      47.214  25.136  37.738  1.00  0.00    -0.237 OA
ATOM     77  O   UNL A   1      48.749  26.720  36.620  1.00  0.00    -0.237 OA
ATOM     78  O   UNL A   1      47.760  27.291  38.808  1.00  0.00    -0.744 OA
ENDBRANCH  74  75
ENDBRANCH  53  67
BRANCH  54  79
ATOM     79  C   UNL A   1      36.552  33.224  30.872  1.00  0.00     0.058 A 
ATOM     80  C   UNL A   1      36.789  34.127  29.824  1.00  0.00     0.135 A 
ATOM     81  C   UNL A   1      35.221  33.051  31.289  1.00  0.00     0.135 A 
ATOM     82  F   UNL A   1      38.043  34.342  29.397  1.00  0.00    -0.206 F 
ATOM     83  C   UNL A   1      35.758  34.846  29.229  1.00  0.00     0.059 A 
ATOM     84  C   UNL A   1      34.167  33.732  30.686  1.00  0.00     0.059 A 
ATOM     85  F   UNL A   1      34.934  32.196  32.284  1.00  0.00    -0.206 F 
ATOM     86  C   UNL A   1      34.448  34.638  29.665  1.00  0.00     0.060 A 
BRANCH  86  87
ATOM     87  S   UNL A   1      33.117  35.556  28.861  1.00  0.00     0.124 S 
ATOM     88  O   UNL A   1      32.478  34.515  28.065  1.00  0.00    -0.237 OA
ATOM     89  O   UNL A   1      32.354  36.045  30.005  1.00  0.00    -0.237 OA
ATOM     90  O   UNL A   1      33.825  36.583  28.102  1.00  0.00    -0.744 OA
ENDBRANCH  86  87
ENDBRANCH  54  79
BRANCH  66  91
ATOM     91  C   UNL A   1      39.723  33.927  37.064  1.00  0.00     0.058 A 
ATOM     92  C   UNL A   1      38.820  33.644  38.099  1.00  0.00     0.135 A 
ATOM     93  C   UNL A   1      40.511  35.084  37.182  1.00  0.00     0.135 A 
ATOM     94  F   UNL A   1      38.041  32.553  38.038  1.00  0.00    -0.206 F 
ATOM     95  C   UNL A   1      38.690  34.484  39.201  1.00  0.00     0.059 A 
ATOM     96  C   UNL A   1      40.424  35.920  38.292  1.00  0.00     0.059 A 
ATOM     97  F   UNL A   1      41.403  35.396  36.228  1.00  0.00    -0.206 F 
ATOM     98  C   UNL A   1      39.504  35.615  39.292  1.00  0.00     0.060 A 
BRANCH  98  99
ATOM     99  S   UNL A   1      39.350  36.669  40.749  1.00  0.00     0.124 S 
ATOM    100  O   UNL A   1      40.689  37.242  40.843  1.00  0.00    -0.237 OA
ATOM    101  O   UNL A   1      38.291  37.592  40.353  1.00  0.00    -0.237 OA
ATOM    102  O   UNL A   1      38.994  35.734  41.813  1.00  0.00    -0.744 OA
ENDBRANCH  98  99
ENDBRANCH  66  91
ENDBRANCH  40  41
ENDBRANCH  33  35
ENDBRANCH  32  33
ENDBRANCH  31  32
ENDBRANCH  30  31
ENDBRANCH  29  30
ENDBRANCH  28  29
ENDBRANCH   1  28
TORSDOF 25
ENDMDL
MODEL 3
REMARK VINA RESULT:      -9.5      2.292      3.639
REMARK SMILES C#Cc1cc(Cl)cc2c1O[C@H](C(F)(F)F)C(C(=O)OCCOCCOCCOCCOC(=O)c1ccc(-c3c4nc(c(-c5c(F)cc(S(=O)(=O)[O-])cc5F)c5ccc([nH]5)c(-c5c(F)cc(S(=O)(=O)[O-])cc5F)c5nc(c(-c6c(F)cc(S(=O)(=O)[O-])cc6F)c6ccc3[nH]6)C=C5)C=C4)cc1)=C2
REMARK SMILES IDX 26 1 25 2 24 3 23 4 22 5 21 6 20 7 19 8 17 9 18 10 16 11
REMARK SMILES IDX 3 12 4 13 9 14 5 15 8 16 10 17 6 18 7 19 100 20 11 21 2 22
REMARK SMILES IDX 1 23 12 24 13 25 14 26 15 27 27 28 28 29 29 30 30 31 31 32
REMARK SMILES IDX 32 33 33 34 34 35 35 36 99 37 36 38 98 39 37 40 38 41 39 42
REMARK SMILES IDX 92 43 40 44 97 45 91 46 93 47 41 48 96 49 90 50 89 51 42 53
REMARK SMILES IDX 76 54 55 55 75 56 56 57 59 58 74 59 94 60 57 61 58 62 73 64
REMARK SMILES IDX 95 65 60 66 43 67 44 68 53 69 45 70 46 71 52 72 54 73 47 74
REMARK SMILES IDX 48 75 49 76 50 77 51 78 77 79 78 80 87 81 79 82 80 83 86 84
REMARK SMILES IDX 88 85 81 86 82 87 83 88 84 89 85 90 61 91 62 92 71 93 63 94
REMARK SMILES IDX 64 95 70 96 72 97 65 98 66 99 67 100 68 101 69 102
REMARK H PARENT 93 52 59 63
REMARK Flexibility Score: inf
ROOT
ATOM      1  C   UNL A   1      42.951  20.697  25.986  1.00  0.00     0.188 C 
ENDROOT
BRANCH   1   2
ATOM      2  O   UNL A   1      42.104  19.549  26.043  1.00  0.00    -0.377 OA
BRANCH   2   3
ATOM      3  C   UNL A   1      40.742  19.716  26.381  1.00  0.00     0.188 C 
BRANCH   3   4
ATOM      4  C   UNL A   1      40.101  21.053  25.954  1.00  0.00     0.188 C 
BRANCH   4   5
ATOM      5  O   UNL A   1      39.756  21.968  26.972  1.00  0.00    -0.376 OA
BRANCH   5   6
ATOM      6  C   UNL A   1      39.957  23.367  26.884  1.00  0.00     0.202 C 
BRANCH   6   7
ATOM      7  C   UNL A   1      39.026  24.395  26.219  1.00  0.00     0.261 C 
BRANCH   7   8
ATOM      8  O   UNL A   1      37.880  23.902  25.536  1.00  0.00    -0.460 OA
BRANCH   8   9
ATOM      9  C   UNL A   1      36.764  23.758  26.274  1.00  0.00     0.338 C 
ATOM     10  O   UNL A   1      36.651  23.924  27.477  1.00  0.00    -0.246 OA
BRANCH   9  11
ATOM     11  C   UNL A   1      35.630  23.557  25.350  1.00  0.00     0.087 C 
ATOM     12  C   UNL A   1      32.216  22.881  23.057  1.00  0.00     0.068 A 
ATOM     13  C   UNL A   1      31.159  23.797  23.117  1.00  0.00     0.041 A 
ATOM     14  C   UNL A   1      33.417  23.149  23.731  1.00  0.00     0.143 A 
ATOM     15  C   UNL A   1      31.312  24.985  23.825  1.00  0.00     0.043 A 
ATOM     16  C   UNL A   1      33.536  24.319  24.488  1.00  0.00     0.020 A 
ATOM     17  O   UNL A   1      34.424  22.231  23.621  1.00  0.00    -0.474 OA
ATOM     18  Cl  UNL A   1      30.010  26.107  23.907  1.00  0.00    -0.084 Cl
ATOM     19  C   UNL A   1      32.496  25.255  24.505  1.00  0.00     0.032 A 
ATOM     20  C   UNL A   1      34.695  24.515  25.338  1.00  0.00     0.027 C 
ATOM     21  C   UNL A   1      35.608  22.347  24.456  1.00  0.00     0.316 C 
BRANCH  12  22
ATOM     22  C   UNL A   1      32.016  21.643  22.358  1.00  0.00    -0.067 C 
ATOM     23  C   UNL A   1      31.813  20.623  21.765  1.00  0.00     0.010 C 
ENDBRANCH  12  22
BRANCH  21  24
ATOM     24  C   UNL A   1      35.759  21.046  25.256  1.00  0.00     0.430 C 
ATOM     25  F   UNL A   1      35.235  21.163  26.497  1.00  0.00    -0.167 F 
ATOM     26  F   UNL A   1      35.131  20.010  24.657  1.00  0.00    -0.167 F 
ATOM     27  F   UNL A   1      37.062  20.704  25.394  1.00  0.00    -0.167 F 
ENDBRANCH  21  24
ENDBRANCH   9  11
ENDBRANCH   8   9
ENDBRANCH   7   8
ENDBRANCH   6   7
ENDBRANCH   5   6
ENDBRANCH   4   5
ENDBRANCH   3   4
ENDBRANCH   2   3
ENDBRANCH   1   2
BRANCH   1  28
ATOM     28  C   UNL A   1      44.204  20.771  25.076  1.00  0.00     0.188 C 
BRANCH  28  29
ATOM     29  O   UNL A   1      44.691  22.074  24.825  1.00  0.00    -0.376 OA
BRANCH  29  30
ATOM     30  C   UNL A   1      43.807  23.136  24.536  1.00  0.00     0.202 C 
BRANCH  30  31
ATOM     31  C   UNL A   1      43.958  24.490  25.245  1.00  0.00     0.261 C 
BRANCH  31  32
ATOM     32  O   UNL A   1      42.831  24.969  25.987  1.00  0.00    -0.460 OA
BRANCH  32  33
ATOM     33  C   UNL A   1      42.479  26.262  25.806  1.00  0.00     0.338 C 
ATOM     34  O   UNL A   1      42.109  26.779  24.770  1.00  0.00    -0.246 OA
BRANCH  33  35
ATOM     35  C   UNL A   1      42.433  26.897  27.143  1.00  0.00     0.060 A 
ATOM     36  C   UNL A   1      41.641  26.323  28.148  1.00  0.00     0.016 A 
ATOM     37  C   UNL A   1      43.194  28.037  27.408  1.00  0.00     0.016 A 
ATOM     38  C   UNL A   1      41.589  26.905  29.415  1.00  0.00     0.010 A 
ATOM     39  C   UNL A   1      43.114  28.638  28.667  1.00  0.00     0.010 A 
ATOM     40  C   UNL A   1      42.286  28.093  29.666  1.00  0.00    -0.014 A 
BRANCH  40  41
ATOM     41  C   UNL A   1      41.978  28.878  30.886  1.00  0.00     0.031 A 
ATOM     42  C   UNL A   1      40.792  29.804  30.845  1.00  0.00     0.074 A 
ATOM     43  C   UNL A   1      42.701  28.746  32.012  1.00  0.00     0.049 A 
ATOM     44  N   UNL A   1      40.355  30.633  31.755  1.00  0.00    -0.248 NA
ATOM     45  C   UNL A   1      39.990  29.793  29.608  1.00  0.00     0.031 C 
ATOM     46  C   UNL A   1      43.831  27.836  32.192  1.00  0.00     0.029 A 
ATOM     47  N   UNL A   1      42.590  29.387  33.222  1.00  0.00    -0.354 N 
ATOM     48  C   UNL A   1      39.232  31.239  31.205  1.00  0.00     0.074 A 
ATOM     49  C   UNL A   1      39.075  30.715  29.867  1.00  0.00     0.031 C 
ATOM     50  C   UNL A   1      44.313  27.982  33.439  1.00  0.00     0.029 A 
ATOM     51  C   UNL A   1      43.553  29.021  34.133  1.00  0.00     0.049 A 
ATOM     52  H   UNL A   1      41.887  30.047  33.419  1.00  0.00     0.167 HD
ATOM     53  C   UNL A   1      38.394  32.138  31.772  1.00  0.00     0.037 A 
ATOM     54  C   UNL A   1      43.802  29.487  35.375  1.00  0.00     0.037 A 
ATOM     55  C   UNL A   1      38.555  32.652  33.106  1.00  0.00     0.049 A 
ATOM     56  C   UNL A   1      42.915  30.570  35.944  1.00  0.00     0.074 A 
ATOM     57  C   UNL A   1      37.761  33.569  33.770  1.00  0.00     0.029 A 
ATOM     58  N   UNL A   1      39.573  32.296  33.978  1.00  0.00    -0.354 N 
ATOM     59  N   UNL A   1      41.852  31.131  35.417  1.00  0.00    -0.248 NA
ATOM     60  C   UNL A   1      43.262  31.085  37.278  1.00  0.00     0.031 C 
ATOM     61  C   UNL A   1      38.334  33.815  35.020  1.00  0.00     0.029 A 
ATOM     62  C   UNL A   1      39.443  32.999  35.164  1.00  0.00     0.049 A 
ATOM     63  H   UNL A   1      40.282  31.642  33.783  1.00  0.00     0.167 HD
ATOM     64  C   UNL A   1      41.387  32.037  36.366  1.00  0.00     0.074 A 
ATOM     65  C   UNL A   1      42.272  31.939  37.506  1.00  0.00     0.031 C 
ATOM     66  C   UNL A   1      40.324  32.878  36.299  1.00  0.00     0.037 A 
BRANCH  53  67
ATOM     67  C   UNL A   1      37.229  32.632  30.961  1.00  0.00     0.058 A 
ATOM     68  C   UNL A   1      37.379  33.645  30.003  1.00  0.00     0.135 A 
ATOM     69  C   UNL A   1      35.970  32.021  31.079  1.00  0.00     0.135 A 
ATOM     70  F   UNL A   1      38.555  34.279  29.865  1.00  0.00    -0.206 F 
ATOM     71  C   UNL A   1      36.322  34.038  29.189  1.00  0.00     0.059 A 
ATOM     72  C   UNL A   1      34.906  32.376  30.255  1.00  0.00     0.059 A 
ATOM     73  F   UNL A   1      35.770  31.052  31.986  1.00  0.00    -0.206 F 
ATOM     74  C   UNL A   1      35.093  33.388  29.314  1.00  0.00     0.060 A 
BRANCH  74  75
ATOM     75  S   UNL A   1      33.749  33.878  28.214  1.00  0.00     0.124 S 
ATOM     76  O   UNL A   1      33.351  32.593  27.647  1.00  0.00    -0.237 OA
ATOM     77  O   UNL A   1      32.799  34.483  29.142  1.00  0.00    -0.237 OA
ATOM     78  O   UNL A   1      34.389  34.801  27.282  1.00  0.00    -0.744 OA
ENDBRANCH  74  75
ENDBRANCH  53  67
BRANCH  54  79
ATOM     79  C   UNL A   1      44.939  28.946  36.171  1.00  0.00     0.058 A 
ATOM     80  C   UNL A   1      44.754  27.882  37.067  1.00  0.00     0.135 A 
ATOM     81  C   UNL A   1      46.229  29.493  36.072  1.00  0.00     0.135 A 
ATOM     82  F   UNL A   1      43.538  27.333  37.212  1.00  0.00    -0.206 F 
ATOM     83  C   UNL A   1      45.795  27.395  37.850  1.00  0.00     0.059 A 
ATOM     84  C   UNL A   1      47.296  29.000  36.819  1.00  0.00     0.059 A 
ATOM     85  F   UNL A   1      46.467  30.509  35.227  1.00  0.00    -0.206 F 
ATOM     86  C   UNL A   1      47.065  27.958  37.716  1.00  0.00     0.060 A 
BRANCH  86  87
ATOM     87  S   UNL A   1      48.412  27.294  38.718  1.00  0.00     0.124 S 
ATOM     88  O   UNL A   1      48.910  28.496  39.377  1.00  0.00    -0.237 OA
ATOM     89  O   UNL A   1      47.712  26.340  39.571  1.00  0.00    -0.237 OA
ATOM     90  O   UNL A   1      49.308  26.702  37.728  1.00  0.00    -0.744 OA
ENDBRANCH  86  87
ENDBRANCH  54  79
BRANCH  66  91
ATOM     91  C   UNL A   1      40.026  33.741  37.498  1.00  0.00     0.058 A 
ATOM     92  C   UNL A   1      40.596  35.013  37.651  1.00  0.00     0.135 A 
ATOM     93  C   UNL A   1      39.088  33.325  38.458  1.00  0.00     0.135 A 
ATOM     94  F   UNL A   1      41.498  35.461  36.765  1.00  0.00    -0.206 F 
ATOM     95  C   UNL A   1      40.263  35.835  38.724  1.00  0.00     0.059 A 
ATOM     96  C   UNL A   1      38.712  34.144  39.519  1.00  0.00     0.059 A 
ATOM     97  F   UNL A   1      38.499  32.122  38.353  1.00  0.00    -0.206 F 
ATOM     98  C   UNL A   1      39.313  35.394  39.647  1.00  0.00     0.060 A 
BRANCH  98  99
ATOM     99  S   UNL A   1      38.864  36.493  41.007  1.00  0.00     0.124 S 
ATOM    100  O   UNL A   1      37.905  35.674  41.744  1.00  0.00    -0.237 OA
ATOM    101  O   UNL A   1      40.148  36.712  41.665  1.00  0.00    -0.237 OA
ATOM    102  O   UNL A   1      38.302  37.661  40.335  1.00  0.00    -0.744 OA
ENDBRANCH  98  99
ENDBRANCH  66  91
ENDBRANCH  40  41
ENDBRANCH  33  35
ENDBRANCH  32  33
ENDBRANCH  31  32
ENDBRANCH  30  31
ENDBRANCH  29  30
ENDBRANCH  28  29
ENDBRANCH   1  28
TORSDOF 25
ENDMDL
