MODEL 1
REMARK VINA RESULT:      -9.5      0.000      0.000
REMARK SMILES Cc1ccc(Nc2c(C)cccc2Cl)c(CC(=O)OCCOCCOCCOCCOC(=O)c2ccc(-c3c4nc(c(-c5c(F)cc(S(=O)(=O)[O-])cc5F)c5ccc([nH]5)c(-c5c(F)cc(S(=O)(=O)[O-])cc5F)c5nc(c(-c6c(F)cc(S(=O)(=O)[O-])cc6F)c6ccc3[nH]6)C=C5)C=C4)cc2)c1
REMARK SMILES IDX 25 1 24 2 23 3 22 4 21 5 20 6 19 7 17 8 18 9 16 10 15 11
REMARK SMILES IDX 1 12 2 13 3 14 100 15 4 16 5 17 6 18 7 20 8 21 13 22 9 23
REMARK SMILES IDX 10 24 12 25 14 26 11 27 26 28 27 29 28 30 29 31 30 32 31 33
REMARK SMILES IDX 32 34 33 35 34 36 35 37 99 38 36 39 98 40 37 41 38 42 39 43
REMARK SMILES IDX 92 44 40 45 97 46 91 47 93 48 41 49 96 50 90 51 89 52 42 54
REMARK SMILES IDX 76 55 55 56 75 57 56 58 59 59 74 60 94 61 57 62 58 63 73 65
REMARK SMILES IDX 95 66 60 67 43 68 44 69 53 70 45 71 46 72 52 73 54 74 47 75
REMARK SMILES IDX 48 76 49 77 50 78 51 79 77 80 78 81 87 82 79 83 80 84 86 85
REMARK SMILES IDX 88 86 81 87 82 88 83 89 84 90 85 91 61 92 62 93 71 94 63 95
REMARK SMILES IDX 64 96 70 97 72 98 65 99 66 100 67 101 68 102 69 103
REMARK H PARENT 6 19 93 53 59 64
REMARK Flexibility Score: inf
ROOT
ATOM      1  O   UNL A   1      35.525  32.626  30.334  1.00  0.00    -0.377 OA
ENDROOT
BRANCH   1   2
ATOM      2  C   UNL A   1      35.517  31.707  29.232  1.00  0.00     0.188 C 
BRANCH   2   3
ATOM      3  C   UNL A   1      34.300  31.874  28.373  1.00  0.00     0.188 C 
BRANCH   3   4
ATOM      4  O   UNL A   1      33.797  30.880  27.524  1.00  0.00    -0.376 OA
BRANCH   4   5
ATOM      5  C   UNL A   1      34.480  29.655  27.547  1.00  0.00     0.202 C 
BRANCH   5   6
ATOM      6  C   UNL A   1      33.868  28.342  26.995  1.00  0.00     0.261 C 
BRANCH   6   7
ATOM      7  O   UNL A   1      32.596  28.423  26.341  1.00  0.00    -0.463 OA
BRANCH   7   8
ATOM      8  C   UNL A   1      31.610  27.755  26.995  1.00  0.00     0.310 C 
ATOM      9  O   UNL A   1      31.254  27.996  28.144  1.00  0.00    -0.252 OA
BRANCH   8  10
ATOM     10  C   UNL A   1      31.013  26.613  26.211  1.00  0.00     0.160 C 
BRANCH  10  11
ATOM     11  C   UNL A   1      31.000  26.659  24.692  1.00  0.00    -0.013 A 
ATOM     12  C   UNL A   1      30.158  29.477  22.201  1.00  0.00     0.044 C 
ATOM     13  C   UNL A   1      30.543  28.138  22.758  1.00  0.00    -0.051 A 
ATOM     14  C   UNL A   1      30.962  27.117  21.915  1.00  0.00     0.005 A 
ATOM     15  C   UNL A   1      30.539  27.889  24.132  1.00  0.00     0.009 A 
ATOM     16  C   UNL A   1      31.349  25.874  22.439  1.00  0.00     0.026 A 
ATOM     17  C   UNL A   1      31.407  25.599  23.826  1.00  0.00     0.042 A 
BRANCH  17  18
ATOM     18  N   UNL A   1      31.841  24.297  24.297  1.00  0.00    -0.354 N 
ATOM     19  H   UNL A   1      31.672  23.540  23.691  1.00  0.00     0.167 HD
BRANCH  18  20
ATOM     20  C   UNL A   1      32.495  23.972  25.548  1.00  0.00     0.060 A 
ATOM     21  C   UNL A   1      33.867  24.235  25.709  1.00  0.00    -0.026 A 
ATOM     22  C   UNL A   1      31.881  23.230  26.596  1.00  0.00     0.064 A 
ATOM     23  C   UNL A   1      34.521  25.340  24.930  1.00  0.00     0.046 C 
ATOM     24  C   UNL A   1      34.620  23.570  26.699  1.00  0.00     0.005 A 
ATOM     25  C   UNL A   1      32.642  22.532  27.553  1.00  0.00     0.023 A 
ATOM     26  Cl  UNL A   1      30.175  23.263  26.903  1.00  0.00    -0.082 Cl
ATOM     27  C   UNL A   1      34.023  22.672  27.576  1.00  0.00     0.002 A 
ENDBRANCH  18  20
ENDBRANCH  17  18
ENDBRANCH  10  11
ENDBRANCH   8  10
ENDBRANCH   7   8
ENDBRANCH   6   7
ENDBRANCH   5   6
ENDBRANCH   4   5
ENDBRANCH   3   4
ENDBRANCH   2   3
ENDBRANCH   1   2
BRANCH   1  28
ATOM     28  C   UNL A   1      35.440  31.959  31.599  1.00  0.00     0.188 C 
BRANCH  28  29
ATOM     29  C   UNL A   1      34.834  32.758  32.744  1.00  0.00     0.188 C 
BRANCH  29  30
ATOM     30  O   UNL A   1      35.694  32.645  33.860  1.00  0.00    -0.376 OA
BRANCH  30  31
ATOM     31  C   UNL A   1      37.073  32.788  33.606  1.00  0.00     0.202 C 
BRANCH  31  32
ATOM     32  C   UNL A   1      37.814  31.690  34.355  1.00  0.00     0.261 C 
BRANCH  32  33
ATOM     33  O   UNL A   1      39.073  31.437  33.685  1.00  0.00    -0.460 OA
BRANCH  33  34
ATOM     34  C   UNL A   1      39.038  30.434  32.761  1.00  0.00     0.338 C 
ATOM     35  O   UNL A   1      38.203  29.537  32.766  1.00  0.00    -0.246 OA
BRANCH  34  36
ATOM     36  C   UNL A   1      40.120  30.586  31.742  1.00  0.00     0.060 A 
ATOM     37  C   UNL A   1      39.868  30.377  30.377  1.00  0.00     0.016 A 
ATOM     38  C   UNL A   1      41.428  30.803  32.154  1.00  0.00     0.016 A 
ATOM     39  C   UNL A   1      40.927  30.220  29.453  1.00  0.00     0.010 A 
ATOM     40  C   UNL A   1      42.464  30.670  31.236  1.00  0.00     0.010 A 
ATOM     41  C   UNL A   1      42.248  30.294  29.890  1.00  0.00    -0.014 A 
BRANCH  41  42
ATOM     42  C   UNL A   1      43.464  29.832  29.146  1.00  0.00     0.031 A 
ATOM     43  C   UNL A   1      44.270  30.867  28.380  1.00  0.00     0.074 A 
ATOM     44  C   UNL A   1      44.021  28.644  29.521  1.00  0.00     0.049 A 
ATOM     45  N   UNL A   1      45.428  30.693  27.826  1.00  0.00    -0.248 NA
ATOM     46  C   UNL A   1      43.768  32.228  28.133  1.00  0.00     0.031 C 
ATOM     47  C   UNL A   1      45.386  28.364  29.972  1.00  0.00     0.029 A 
ATOM     48  N   UNL A   1      43.434  27.411  29.741  1.00  0.00    -0.354 N 
ATOM     49  C   UNL A   1      45.955  31.949  27.502  1.00  0.00     0.074 A 
ATOM     50  C   UNL A   1      44.831  32.845  27.604  1.00  0.00     0.031 C 
ATOM     51  C   UNL A   1      45.598  27.064  30.192  1.00  0.00     0.029 A 
ATOM     52  C   UNL A   1      44.405  26.393  29.803  1.00  0.00     0.049 A 
ATOM     53  H   UNL A   1      42.466  27.264  29.840  1.00  0.00     0.167 HD
ATOM     54  C   UNL A   1      47.310  32.128  27.345  1.00  0.00     0.037 A 
ATOM     55  C   UNL A   1      44.404  25.375  28.907  1.00  0.00     0.037 A 
ATOM     56  C   UNL A   1      48.056  30.843  27.320  1.00  0.00     0.049 A 
ATOM     57  C   UNL A   1      45.397  25.605  27.764  1.00  0.00     0.074 A 
ATOM     58  C   UNL A   1      49.305  30.401  27.732  1.00  0.00     0.029 A 
ATOM     59  N   UNL A   1      47.433  29.701  26.826  1.00  0.00    -0.354 N 
ATOM     60  N   UNL A   1      46.286  26.576  27.700  1.00  0.00    -0.248 NA
ATOM     61  C   UNL A   1      45.448  24.752  26.580  1.00  0.00     0.031 C 
ATOM     62  C   UNL A   1      49.400  28.995  27.497  1.00  0.00     0.029 A 
ATOM     63  C   UNL A   1      48.235  28.589  26.876  1.00  0.00     0.049 A 
ATOM     64  H   UNL A   1      46.512  29.692  26.476  1.00  0.00     0.167 HD
ATOM     65  C   UNL A   1      46.937  26.542  26.488  1.00  0.00     0.074 A 
ATOM     66  C   UNL A   1      46.373  25.375  25.828  1.00  0.00     0.031 C 
ATOM     67  C   UNL A   1      47.866  27.454  26.054  1.00  0.00     0.037 A 
BRANCH  54  68
ATOM     68  C   UNL A   1      48.065  33.489  27.431  1.00  0.00     0.058 A 
ATOM     69  C   UNL A   1      48.693  33.882  28.640  1.00  0.00     0.135 A 
ATOM     70  C   UNL A   1      48.072  34.509  26.446  1.00  0.00     0.135 A 
ATOM     71  F   UNL A   1      48.862  33.010  29.645  1.00  0.00    -0.206 F 
ATOM     72  C   UNL A   1      49.186  35.175  28.890  1.00  0.00     0.059 A 
ATOM     73  C   UNL A   1      48.633  35.790  26.647  1.00  0.00     0.059 A 
ATOM     74  F   UNL A   1      47.504  34.335  25.247  1.00  0.00    -0.206 F 
ATOM     75  C   UNL A   1      49.155  36.130  27.887  1.00  0.00     0.060 A 
BRANCH  75  76
ATOM     76  S   UNL A   1      49.858  37.769  28.205  1.00  0.00     0.124 S 
ATOM     77  O   UNL A   1      49.104  38.211  29.373  1.00  0.00    -0.237 OA
ATOM     78  O   UNL A   1      51.267  37.469  28.443  1.00  0.00    -0.237 OA
ATOM     79  O   UNL A   1      49.587  38.502  26.971  1.00  0.00    -0.744 OA
ENDBRANCH  75  76
ENDBRANCH  54  68
BRANCH  55  80
ATOM     80  C   UNL A   1      43.065  24.695  29.014  1.00  0.00     0.058 A 
ATOM     81  C   UNL A   1      42.247  24.911  27.871  1.00  0.00     0.135 A 
ATOM     82  C   UNL A   1      43.004  23.419  29.602  1.00  0.00     0.135 A 
ATOM     83  F   UNL A   1      42.246  26.114  27.271  1.00  0.00    -0.206 F 
ATOM     84  C   UNL A   1      41.661  23.851  27.178  1.00  0.00     0.059 A 
ATOM     85  C   UNL A   1      42.418  22.341  28.917  1.00  0.00     0.059 A 
ATOM     86  F   UNL A   1      43.756  23.147  30.679  1.00  0.00    -0.206 F 
ATOM     87  C   UNL A   1      41.813  22.560  27.674  1.00  0.00     0.060 A 
BRANCH  87  88
ATOM     88  S   UNL A   1      41.467  21.172  26.554  1.00  0.00     0.124 S 
ATOM     89  O   UNL A   1      42.140  20.066  27.221  1.00  0.00    -0.237 OA
ATOM     90  O   UNL A   1      40.007  21.127  26.564  1.00  0.00    -0.237 OA
ATOM     91  O   UNL A   1      42.059  21.618  25.299  1.00  0.00    -0.744 OA
ENDBRANCH  87  88
ENDBRANCH  55  80
BRANCH  67  92
ATOM     92  C   UNL A   1      48.493  27.439  24.680  1.00  0.00     0.058 A 
ATOM     93  C   UNL A   1      47.802  27.799  23.520  1.00  0.00     0.135 A 
ATOM     94  C   UNL A   1      49.817  26.959  24.491  1.00  0.00     0.135 A 
ATOM     95  F   UNL A   1      46.502  28.128  23.571  1.00  0.00    -0.206 F 
ATOM     96  C   UNL A   1      48.427  27.827  22.274  1.00  0.00     0.059 A 
ATOM     97  C   UNL A   1      50.436  26.913  23.251  1.00  0.00     0.059 A 
ATOM     98  F   UNL A   1      50.577  26.544  25.515  1.00  0.00    -0.206 F 
ATOM     99  C   UNL A   1      49.753  27.408  22.156  1.00  0.00     0.060 A 
BRANCH  99 100
ATOM    100  S   UNL A   1      50.590  27.544  20.571  1.00  0.00     0.124 S 
ATOM    101  O   UNL A   1      49.771  26.698  19.708  1.00  0.00    -0.237 OA
ATOM    102  O   UNL A   1      50.495  28.979  20.321  1.00  0.00    -0.237 OA
ATOM    103  O   UNL A   1      51.932  27.040  20.845  1.00  0.00    -0.744 OA
ENDBRANCH  99 100
ENDBRANCH  67  92
ENDBRANCH  41  42
ENDBRANCH  34  36
ENDBRANCH  33  34
ENDBRANCH  32  33
ENDBRANCH  31  32
ENDBRANCH  30  31
ENDBRANCH  29  30
ENDBRANCH  28  29
ENDBRANCH   1  28
TORSDOF 26
ENDMDL
MODEL 2
REMARK VINA RESULT:      -9.5      2.869      8.925
REMARK SMILES Cc1ccc(Nc2c(C)cccc2Cl)c(CC(=O)OCCOCCOCCOCCOC(=O)c2ccc(-c3c4nc(c(-c5c(F)cc(S(=O)(=O)[O-])cc5F)c5ccc([nH]5)c(-c5c(F)cc(S(=O)(=O)[O-])cc5F)c5nc(c(-c6c(F)cc(S(=O)(=O)[O-])cc6F)c6ccc3[nH]6)C=C5)C=C4)cc2)c1
REMARK SMILES IDX 25 1 24 2 23 3 22 4 21 5 20 6 19 7 17 8 18 9 16 10 15 11
REMARK SMILES IDX 1 12 2 13 3 14 100 15 4 16 5 17 6 18 7 20 8 21 13 22 9 23
REMARK SMILES IDX 10 24 12 25 14 26 11 27 26 28 27 29 28 30 29 31 30 32 31 33
REMARK SMILES IDX 32 34 33 35 34 36 35 37 99 38 36 39 98 40 37 41 38 42 39 43
REMARK SMILES IDX 92 44 40 45 97 46 91 47 93 48 41 49 96 50 90 51 89 52 42 54
REMARK SMILES IDX 76 55 55 56 75 57 56 58 59 59 74 60 94 61 57 62 58 63 73 65
REMARK SMILES IDX 95 66 60 67 43 68 44 69 53 70 45 71 46 72 52 73 54 74 47 75
REMARK SMILES IDX 48 76 49 77 50 78 51 79 77 80 78 81 87 82 79 83 80 84 86 85
REMARK SMILES IDX 88 86 81 87 82 88 83 89 84 90 85 91 61 92 62 93 71 94 63 95
REMARK SMILES IDX 64 96 70 97 72 98 65 99 66 100 67 101 68 102 69 103
REMARK H PARENT 6 19 93 53 59 64
REMARK Flexibility Score: inf
ROOT
ATOM      1  O   UNL A   1      35.469  20.849  24.667  1.00  0.00    -0.377 OA
ENDROOT
BRANCH   1   2
ATOM      2  C   UNL A   1      34.053  21.018  24.506  1.00  0.00     0.188 C 
BRANCH   2   3
ATOM      3  C   UNL A   1      33.342  21.066  25.825  1.00  0.00     0.188 C 
BRANCH   3   4
ATOM      4  O   UNL A   1      33.329  22.185  26.668  1.00  0.00    -0.376 OA
BRANCH   4   5
ATOM      5  C   UNL A   1      32.902  23.386  26.082  1.00  0.00     0.202 C 
BRANCH   5   6
ATOM      6  C   UNL A   1      31.619  24.131  26.531  1.00  0.00     0.261 C 
BRANCH   6   7
ATOM      7  O   UNL A   1      31.567  25.549  26.331  1.00  0.00    -0.463 OA
BRANCH   7   8
ATOM      8  C   UNL A   1      30.335  25.996  25.972  1.00  0.00     0.310 C 
ATOM      9  O   UNL A   1      29.280  25.560  26.421  1.00  0.00    -0.252 OA
BRANCH   8  10
ATOM     10  C   UNL A   1      30.352  27.052  24.895  1.00  0.00     0.160 C 
BRANCH  10  11
ATOM     11  C   UNL A   1      31.539  27.154  23.949  1.00  0.00    -0.013 A 
ATOM     12  C   UNL A   1      32.841  24.813  21.179  1.00  0.00     0.044 C 
ATOM     13  C   UNL A   1      32.723  25.975  22.122  1.00  0.00    -0.051 A 
ATOM     14  C   UNL A   1      33.571  27.068  22.005  1.00  0.00     0.005 A 
ATOM     15  C   UNL A   1      31.736  26.017  23.110  1.00  0.00     0.009 A 
ATOM     16  C   UNL A   1      33.442  28.166  22.869  1.00  0.00     0.026 A 
ATOM     17  C   UNL A   1      32.426  28.269  23.849  1.00  0.00     0.042 A 
BRANCH  17  18
ATOM     18  N   UNL A   1      32.338  29.447  24.692  1.00  0.00    -0.354 N 
ATOM     19  H   UNL A   1      31.755  30.169  24.365  1.00  0.00     0.167 HD
BRANCH  18  20
ATOM     20  C   UNL A   1      33.001  29.691  25.956  1.00  0.00     0.060 A 
ATOM     21  C   UNL A   1      32.739  30.877  26.666  1.00  0.00    -0.026 A 
ATOM     22  C   UNL A   1      34.054  28.884  26.470  1.00  0.00     0.064 A 
ATOM     23  C   UNL A   1      31.421  31.578  26.504  1.00  0.00     0.046 C 
ATOM     24  C   UNL A   1      33.641  31.351  27.640  1.00  0.00     0.005 A 
ATOM     25  C   UNL A   1      34.977  29.382  27.410  1.00  0.00     0.023 A 
ATOM     26  Cl  UNL A   1      34.192  27.188  26.139  1.00  0.00    -0.082 Cl
ATOM     27  C   UNL A   1      34.790  30.639  27.966  1.00  0.00     0.002 A 
ENDBRANCH  18  20
ENDBRANCH  17  18
ENDBRANCH  10  11
ENDBRANCH   8  10
ENDBRANCH   7   8
ENDBRANCH   6   7
ENDBRANCH   5   6
ENDBRANCH   4   5
ENDBRANCH   3   4
ENDBRANCH   2   3
ENDBRANCH   1   2
BRANCH   1  28
ATOM     28  C   UNL A   1      36.155  22.099  24.795  1.00  0.00     0.188 C 
BRANCH  28  29
ATOM     29  C   UNL A   1      37.346  22.121  25.742  1.00  0.00     0.188 C 
BRANCH  29  30
ATOM     30  O   UNL A   1      38.068  20.919  25.565  1.00  0.00    -0.376 OA
BRANCH  30  31
ATOM     31  C   UNL A   1      39.467  21.041  25.433  1.00  0.00     0.202 C 
BRANCH  31  32
ATOM     32  C   UNL A   1      40.122  19.952  26.271  1.00  0.00     0.261 C 
BRANCH  32  33
ATOM     33  O   UNL A   1      41.256  20.521  26.969  1.00  0.00    -0.460 OA
BRANCH  33  34
ATOM     34  C   UNL A   1      42.224  21.040  26.159  1.00  0.00     0.338 C 
ATOM     35  O   UNL A   1      42.960  20.354  25.460  1.00  0.00    -0.246 OA
BRANCH  34  36
ATOM     36  C   UNL A   1      42.250  22.532  26.219  1.00  0.00     0.060 A 
ATOM     37  C   UNL A   1      42.902  23.288  25.231  1.00  0.00     0.016 A 
ATOM     38  C   UNL A   1      41.743  23.187  27.333  1.00  0.00     0.016 A 
ATOM     39  C   UNL A   1      43.193  24.657  25.431  1.00  0.00     0.010 A 
ATOM     40  C   UNL A   1      42.013  24.539  27.513  1.00  0.00     0.010 A 
ATOM     41  C   UNL A   1      42.811  25.284  26.615  1.00  0.00    -0.014 A 
BRANCH  41  42
ATOM     42  C   UNL A   1      43.312  26.597  27.136  1.00  0.00     0.031 A 
ATOM     43  C   UNL A   1      42.299  27.703  27.379  1.00  0.00     0.074 A 
ATOM     44  C   UNL A   1      44.529  26.610  27.753  1.00  0.00     0.049 A 
ATOM     45  N   UNL A   1      42.514  28.832  27.977  1.00  0.00    -0.248 NA
ATOM     46  C   UNL A   1      40.914  27.622  26.889  1.00  0.00     0.031 C 
ATOM     47  C   UNL A   1      44.875  27.048  29.107  1.00  0.00     0.029 A 
ATOM     48  N   UNL A   1      45.739  26.071  27.355  1.00  0.00    -0.354 N 
ATOM     49  C   UNL A   1      41.276  29.420  28.266  1.00  0.00     0.074 A 
ATOM     50  C   UNL A   1      40.335  28.685  27.461  1.00  0.00     0.031 C 
ATOM     51  C   UNL A   1      46.186  26.981  29.350  1.00  0.00     0.029 A 
ATOM     52  C   UNL A   1      46.799  26.582  28.129  1.00  0.00     0.049 A 
ATOM     53  H   UNL A   1      45.846  25.417  26.627  1.00  0.00     0.167 HD
ATOM     54  C   UNL A   1      41.153  30.349  29.274  1.00  0.00     0.037 A 
ATOM     55  C   UNL A   1      47.801  27.293  27.554  1.00  0.00     0.037 A 
ATOM     56  C   UNL A   1      42.468  30.794  29.802  1.00  0.00     0.049 A 
ATOM     57  C   UNL A   1      47.594  28.804  27.689  1.00  0.00     0.074 A 
ATOM     58  C   UNL A   1      42.970  31.194  31.033  1.00  0.00     0.029 A 
ATOM     59  N   UNL A   1      43.574  30.811  28.958  1.00  0.00    -0.354 N 
ATOM     60  N   UNL A   1      46.661  29.392  28.410  1.00  0.00    -0.248 NA
ATOM     61  C   UNL A   1      48.429  29.780  26.993  1.00  0.00     0.031 C 
ATOM     62  C   UNL A   1      44.375  31.424  30.907  1.00  0.00     0.029 A 
ATOM     63  C   UNL A   1      44.720  31.232  29.584  1.00  0.00     0.049 A 
ATOM     64  H   UNL A   1      43.538  30.550  28.009  1.00  0.00     0.167 HD
ATOM     65  C   UNL A   1      46.703  30.755  28.218  1.00  0.00     0.074 A 
ATOM     66  C   UNL A   1      47.833  30.940  27.322  1.00  0.00     0.031 C 
ATOM     67  C   UNL A   1      45.824  31.664  28.751  1.00  0.00     0.037 A 
BRANCH  54  68
ATOM     68  C   UNL A   1      39.827  30.741  29.994  1.00  0.00     0.058 A 
ATOM     69  C   UNL A   1      39.508  32.106  30.209  1.00  0.00     0.135 A 
ATOM     70  C   UNL A   1      38.925  29.854  30.634  1.00  0.00     0.135 A 
ATOM     71  F   UNL A   1      40.199  33.080  29.598  1.00  0.00    -0.206 F 
ATOM     72  C   UNL A   1      38.472  32.552  31.047  1.00  0.00     0.059 A 
ATOM     73  C   UNL A   1      37.828  30.280  31.416  1.00  0.00     0.059 A 
ATOM     74  F   UNL A   1      39.075  28.527  30.567  1.00  0.00    -0.206 F 
ATOM     75  C   UNL A   1      37.630  31.633  31.651  1.00  0.00     0.060 A 
BRANCH  75  76
ATOM     76  S   UNL A   1      36.257  32.229  32.671  1.00  0.00     0.124 S 
ATOM     77  O   UNL A   1      36.696  31.884  34.019  1.00  0.00    -0.237 OA
ATOM     78  O   UNL A   1      36.231  33.657  32.365  1.00  0.00    -0.237 OA
ATOM     79  O   UNL A   1      35.110  31.474  32.174  1.00  0.00    -0.744 OA
ENDBRANCH  75  76
ENDBRANCH  54  68
BRANCH  55  80
ATOM     80  C   UNL A   1      48.424  26.408  26.508  1.00  0.00     0.058 A 
ATOM     81  C   UNL A   1      48.178  26.866  25.184  1.00  0.00     0.135 A 
ATOM     82  C   UNL A   1      49.695  25.861  26.760  1.00  0.00     0.135 A 
ATOM     83  F   UNL A   1      46.978  27.384  24.871  1.00  0.00    -0.206 F 
ATOM     84  C   UNL A   1      49.215  27.058  24.270  1.00  0.00     0.059 A 
ATOM     85  C   UNL A   1      50.749  26.047  25.850  1.00  0.00     0.059 A 
ATOM     86  F   UNL A   1      49.995  25.417  27.990  1.00  0.00    -0.206 F 
ATOM     87  C   UNL A   1      50.510  26.710  24.642  1.00  0.00     0.060 A 
BRANCH  87  88
ATOM     88  S   UNL A   1      51.885  27.381  23.663  1.00  0.00     0.124 S 
ATOM     89  O   UNL A   1      52.531  26.171  23.173  1.00  0.00    -0.237 OA
ATOM     90  O   UNL A   1      51.187  28.180  22.660  1.00  0.00    -0.237 OA
ATOM     91  O   UNL A   1      52.634  28.151  24.648  1.00  0.00    -0.744 OA
ENDBRANCH  87  88
ENDBRANCH  55  80
BRANCH  67  92
ATOM     92  C   UNL A   1      45.843  33.143  28.444  1.00  0.00     0.058 A 
ATOM     93  C   UNL A   1      45.109  33.718  27.403  1.00  0.00     0.135 A 
ATOM     94  C   UNL A   1      46.699  34.022  29.160  1.00  0.00     0.135 A 
ATOM     95  F   UNL A   1      44.381  32.953  26.574  1.00  0.00    -0.206 F 
ATOM     96  C   UNL A   1      45.106  35.094  27.182  1.00  0.00     0.059 A 
ATOM     97  C   UNL A   1      46.763  35.385  28.912  1.00  0.00     0.059 A 
ATOM     98  F   UNL A   1      47.487  33.594  30.157  1.00  0.00    -0.206 F 
ATOM     99  C   UNL A   1      45.915  35.921  27.960  1.00  0.00     0.060 A 
BRANCH  99 100
ATOM    100  S   UNL A   1      45.832  37.704  27.745  1.00  0.00     0.124 S 
ATOM    101  O   UNL A   1      44.395  37.957  27.762  1.00  0.00    -0.237 OA
ATOM    102  O   UNL A   1      46.569  38.166  28.918  1.00  0.00    -0.237 OA
ATOM    103  O   UNL A   1      46.489  37.927  26.461  1.00  0.00    -0.744 OA
ENDBRANCH  99 100
ENDBRANCH  67  92
ENDBRANCH  41  42
ENDBRANCH  34  36
ENDBRANCH  33  34
ENDBRANCH  32  33
ENDBRANCH  31  32
ENDBRANCH  30  31
ENDBRANCH  29  30
ENDBRANCH  28  29
ENDBRANCH   1  28
TORSDOF 26
ENDMDL
MODEL 3
REMARK VINA RESULT:      -8.5      3.842     10.549
REMARK SMILES Cc1ccc(Nc2c(C)cccc2Cl)c(CC(=O)OCCOCCOCCOCCOC(=O)c2ccc(-c3c4nc(c(-c5c(F)cc(S(=O)(=O)[O-])cc5F)c5ccc([nH]5)c(-c5c(F)cc(S(=O)(=O)[O-])cc5F)c5nc(c(-c6c(F)cc(S(=O)(=O)[O-])cc6F)c6ccc3[nH]6)C=C5)C=C4)cc2)c1
REMARK SMILES IDX 25 1 24 2 23 3 22 4 21 5 20 6 19 7 17 8 18 9 16 10 15 11
REMARK SMILES IDX 1 12 2 13 3 14 100 15 4 16 5 17 6 18 7 20 8 21 13 22 9 23
REMARK SMILES IDX 10 24 12 25 14 26 11 27 26 28 27 29 28 30 29 31 30 32 31 33
REMARK SMILES IDX 32 34 33 35 34 36 35 37 99 38 36 39 98 40 37 41 38 42 39 43
REMARK SMILES IDX 92 44 40 45 97 46 91 47 93 48 41 49 96 50 90 51 89 52 42 54
REMARK SMILES IDX 76 55 55 56 75 57 56 58 59 59 74 60 94 61 57 62 58 63 73 65
REMARK SMILES IDX 95 66 60 67 43 68 44 69 53 70 45 71 46 72 52 73 54 74 47 75
REMARK SMILES IDX 48 76 49 77 50 78 51 79 77 80 78 81 87 82 79 83 80 84 86 85
REMARK SMILES IDX 88 86 81 87 82 88 83 89 84 90 85 91 61 92 62 93 71 94 63 95
REMARK SMILES IDX 64 96 70 97 72 98 65 99 66 100 67 101 68 102 69 103
REMARK H PARENT 6 19 93 53 59 64
REMARK Flexibility Score: inf
ROOT
ATOM      1  O   UNL A   1      41.319  25.733  28.640  1.00  0.00    -0.377 OA
ENDROOT
BRANCH   1   2
ATOM      2  C   UNL A   1      40.940  26.482  27.476  1.00  0.00     0.188 C 
BRANCH   2   3
ATOM      3  C   UNL A   1      39.752  25.880  26.786  1.00  0.00     0.188 C 
BRANCH   3   4
ATOM      4  O   UNL A   1      39.121  24.701  27.199  1.00  0.00    -0.376 OA
BRANCH   4   5
ATOM      5  C   UNL A   1      38.630  23.879  26.173  1.00  0.00     0.202 C 
BRANCH   5   6
ATOM      6  C   UNL A   1      37.119  23.748  25.853  1.00  0.00     0.261 C 
BRANCH   6   7
ATOM      7  O   UNL A   1      36.256  23.273  26.894  1.00  0.00    -0.463 OA
BRANCH   7   8
ATOM      8  C   UNL A   1      35.110  22.712  26.428  1.00  0.00     0.310 C 
ATOM      9  O   UNL A   1      34.130  22.458  27.121  1.00  0.00    -0.252 OA
BRANCH   8  10
ATOM     10  C   UNL A   1      35.152  22.347  24.965  1.00  0.00     0.160 C 
BRANCH  10  11
ATOM     11  C   UNL A   1      34.143  21.361  24.398  1.00  0.00    -0.013 A 
ATOM     12  C   UNL A   1      33.781  17.541  24.758  1.00  0.00     0.044 C 
ATOM     13  C   UNL A   1      33.538  18.961  24.334  1.00  0.00    -0.051 A 
ATOM     14  C   UNL A   1      32.407  19.294  23.601  1.00  0.00     0.005 A 
ATOM     15  C   UNL A   1      34.406  19.991  24.700  1.00  0.00     0.009 A 
ATOM     16  C   UNL A   1      32.167  20.626  23.229  1.00  0.00     0.026 A 
ATOM     17  C   UNL A   1      32.995  21.704  23.621  1.00  0.00     0.042 A 
BRANCH  17  18
ATOM     18  N   UNL A   1      32.670  23.061  23.220  1.00  0.00    -0.354 N 
ATOM     19  H   UNL A   1      32.494  23.197  22.261  1.00  0.00     0.167 HD
BRANCH  18  20
ATOM     20  C   UNL A   1      32.571  24.240  24.055  1.00  0.00     0.060 A 
ATOM     21  C   UNL A   1      33.280  25.403  23.710  1.00  0.00    -0.026 A 
ATOM     22  C   UNL A   1      31.929  24.262  25.325  1.00  0.00     0.064 A 
ATOM     23  C   UNL A   1      33.625  25.681  22.275  1.00  0.00     0.046 C 
ATOM     24  C   UNL A   1      33.558  26.394  24.675  1.00  0.00     0.005 A 
ATOM     25  C   UNL A   1      32.246  25.228  26.298  1.00  0.00     0.023 A 
ATOM     26  Cl  UNL A   1      30.588  23.237  25.724  1.00  0.00    -0.082 Cl
ATOM     27  C   UNL A   1      33.098  26.277  25.982  1.00  0.00     0.002 A 
ENDBRANCH  18  20
ENDBRANCH  17  18
ENDBRANCH  10  11
ENDBRANCH   8  10
ENDBRANCH   7   8
ENDBRANCH   6   7
ENDBRANCH   5   6
ENDBRANCH   4   5
ENDBRANCH   3   4
ENDBRANCH   2   3
ENDBRANCH   1   2
BRANCH   1  28
ATOM     28  C   UNL A   1      42.625  25.159  28.517  1.00  0.00     0.188 C 
BRANCH  28  29
ATOM     29  C   UNL A   1      42.683  23.682  28.157  1.00  0.00     0.188 C 
BRANCH  29  30
ATOM     30  O   UNL A   1      43.685  23.077  28.949  1.00  0.00    -0.376 OA
BRANCH  30  31
ATOM     31  C   UNL A   1      44.989  23.596  28.815  1.00  0.00     0.202 C 
BRANCH  31  32
ATOM     32  C   UNL A   1      45.533  23.178  27.457  1.00  0.00     0.261 C 
BRANCH  32  33
ATOM     33  O   UNL A   1      46.863  23.730  27.297  1.00  0.00    -0.460 OA
BRANCH  33  34
ATOM     34  C   UNL A   1      47.003  24.587  26.245  1.00  0.00     0.338 C 
ATOM     35  O   UNL A   1      46.942  24.236  25.073  1.00  0.00    -0.246 OA
BRANCH  34  36
ATOM     36  C   UNL A   1      47.212  25.992  26.705  1.00  0.00     0.060 A 
ATOM     37  C   UNL A   1      47.388  26.294  28.065  1.00  0.00     0.016 A 
ATOM     38  C   UNL A   1      47.098  27.039  25.799  1.00  0.00     0.016 A 
ATOM     39  C   UNL A   1      47.283  27.622  28.539  1.00  0.00     0.010 A 
ATOM     40  C   UNL A   1      47.019  28.344  26.270  1.00  0.00     0.010 A 
ATOM     41  C   UNL A   1      47.024  28.661  27.648  1.00  0.00    -0.014 A 
BRANCH  41  42
ATOM     42  C   UNL A   1      46.558  30.042  27.994  1.00  0.00     0.031 A 
ATOM     43  C   UNL A   1      45.062  30.298  28.057  1.00  0.00     0.074 A 
ATOM     44  C   UNL A   1      47.439  30.866  28.632  1.00  0.00     0.049 A 
ATOM     45  N   UNL A   1      44.476  31.366  28.498  1.00  0.00    -0.248 NA
ATOM     46  C   UNL A   1      44.077  29.328  27.551  1.00  0.00     0.031 C 
ATOM     47  C   UNL A   1      47.301  31.549  29.920  1.00  0.00     0.029 A 
ATOM     48  N   UNL A   1      48.759  31.161  28.341  1.00  0.00    -0.354 N 
ATOM     49  C   UNL A   1      43.116  31.082  28.674  1.00  0.00     0.074 A 
ATOM     50  C   UNL A   1      42.913  29.849  27.956  1.00  0.00     0.031 C 
ATOM     51  C   UNL A   1      48.344  32.334  30.200  1.00  0.00     0.029 A 
ATOM     52  C   UNL A   1      49.196  32.289  29.061  1.00  0.00     0.049 A 
ATOM     53  H   UNL A   1      49.320  30.650  27.713  1.00  0.00     0.167 HD
ATOM     54  C   UNL A   1      42.345  31.822  29.540  1.00  0.00     0.037 A 
ATOM     55  C   UNL A   1      49.605  33.411  28.417  1.00  0.00     0.037 A 
ATOM     56  C   UNL A   1      43.048  33.036  30.033  1.00  0.00     0.049 A 
ATOM     57  C   UNL A   1      48.503  34.471  28.337  1.00  0.00     0.074 A 
ATOM     58  C   UNL A   1      43.068  33.774  31.207  1.00  0.00     0.029 A 
ATOM     59  N   UNL A   1      43.991  33.656  29.221  1.00  0.00    -0.354 N 
ATOM     60  N   UNL A   1      47.337  34.417  28.948  1.00  0.00    -0.248 NA
ATOM     61  C   UNL A   1      48.632  35.684  27.533  1.00  0.00     0.031 C 
ATOM     62  C   UNL A   1      44.041  34.813  31.085  1.00  0.00     0.029 A 
ATOM     63  C   UNL A   1      44.566  34.754  29.809  1.00  0.00     0.049 A 
ATOM     64  H   UNL A   1      44.222  33.341  28.316  1.00  0.00     0.167 HD
ATOM     65  C   UNL A   1      46.555  35.485  28.570  1.00  0.00     0.074 A 
ATOM     66  C   UNL A   1      47.421  36.247  27.684  1.00  0.00     0.031 C 
ATOM     67  C   UNL A   1      45.254  35.697  28.951  1.00  0.00     0.037 A 
BRANCH  54  68
ATOM     68  C   UNL A   1      40.990  31.372  30.167  1.00  0.00     0.058 A 
ATOM     69  C   UNL A   1      39.901  32.278  30.239  1.00  0.00     0.135 A 
ATOM     70  C   UNL A   1      40.746  30.156  30.852  1.00  0.00     0.135 A 
ATOM     71  F   UNL A   1      39.923  33.438  29.567  1.00  0.00    -0.206 F 
ATOM     72  C   UNL A   1      38.736  32.051  30.990  1.00  0.00     0.059 A 
ATOM     73  C   UNL A   1      39.549  29.873  31.547  1.00  0.00     0.059 A 
ATOM     74  F   UNL A   1      41.666  29.186  30.917  1.00  0.00    -0.206 F 
ATOM     75  C   UNL A   1      38.561  30.843  31.645  1.00  0.00     0.060 A 
BRANCH  75  76
ATOM     76  S   UNL A   1      37.021  30.542  32.550  1.00  0.00     0.124 S 
ATOM     77  O   UNL A   1      37.208  31.337  33.759  1.00  0.00    -0.237 OA
ATOM     78  O   UNL A   1      36.006  31.036  31.623  1.00  0.00    -0.237 OA
ATOM     79  O   UNL A   1      37.018  29.094  32.747  1.00  0.00    -0.744 OA
ENDBRANCH  75  76
ENDBRANCH  54  68
BRANCH  55  80
ATOM     80  C   UNL A   1      50.745  33.011  27.519  1.00  0.00     0.058 A 
ATOM     81  C   UNL A   1      50.488  33.290  26.148  1.00  0.00     0.135 A 
ATOM     82  C   UNL A   1      52.061  33.219  27.969  1.00  0.00     0.135 A 
ATOM     83  F   UNL A   1      49.254  33.096  25.649  1.00  0.00    -0.206 F 
ATOM     84  C   UNL A   1      51.385  34.020  25.367  1.00  0.00     0.059 A 
ATOM     85  C   UNL A   1      52.976  33.953  27.195  1.00  0.00     0.059 A 
ATOM     86  F   UNL A   1      52.369  32.982  29.253  1.00  0.00    -0.206 F 
ATOM     87  C   UNL A   1      52.598  34.408  25.926  1.00  0.00     0.060 A 
BRANCH  87  88
ATOM     88  S   UNL A   1      53.535  35.724  25.096  1.00  0.00     0.124 S 
ATOM     89  O   UNL A   1      54.884  35.175  25.078  1.00  0.00    -0.237 OA
ATOM     90  O   UNL A   1      52.865  35.807  23.801  1.00  0.00    -0.237 OA
ATOM     91  O   UNL A   1      53.323  36.870  25.972  1.00  0.00    -0.744 OA
ENDBRANCH  87  88
ENDBRANCH  55  80
BRANCH  67  92
ATOM     92  C   UNL A   1      44.395  36.831  28.443  1.00  0.00     0.058 A 
ATOM     93  C   UNL A   1      43.523  36.704  27.358  1.00  0.00     0.135 A 
ATOM     94  C   UNL A   1      44.506  38.133  29.002  1.00  0.00     0.135 A 
ATOM     95  F   UNL A   1      43.452  35.555  26.668  1.00  0.00    -0.206 F 
ATOM     96  C   UNL A   1      42.703  37.755  26.950  1.00  0.00     0.059 A 
ATOM     97  C   UNL A   1      43.750  39.211  28.566  1.00  0.00     0.059 A 
ATOM     98  F   UNL A   1      45.335  38.403  30.020  1.00  0.00    -0.206 F 
ATOM     99  C   UNL A   1      42.805  38.996  27.579  1.00  0.00     0.060 A 
BRANCH  99 100
ATOM    100  S   UNL A   1      41.677  40.319  27.124  1.00  0.00     0.124 S 
ATOM    101  O   UNL A   1      40.788  39.661  26.170  1.00  0.00    -0.237 OA
ATOM    102  O   UNL A   1      41.084  40.645  28.418  1.00  0.00    -0.237 OA
ATOM    103  O   UNL A   1      42.553  41.340  26.558  1.00  0.00    -0.744 OA
ENDBRANCH  99 100
ENDBRANCH  67  92
ENDBRANCH  41  42
ENDBRANCH  34  36
ENDBRANCH  33  34
ENDBRANCH  32  33
ENDBRANCH  31  32
ENDBRANCH  30  31
ENDBRANCH  29  30
ENDBRANCH  28  29
ENDBRANCH   1  28
TORSDOF 26
ENDMDL
