MODEL 1
REMARK VINA RESULT:     -10.9      0.000      0.000
REMARK SMILES Cc1cc(S(F)(F)(F)(F)F)cc2c1O[C@H](C(F)(F)F)C(C(=O)OCCOCCOCCOCCOC(=O)c1ccc(-c3c4nc(c(-c5c(F)cc(S(=O)(=O)[O-])cc5F)c5ccc([nH]5)c(-c5c(F)cc(S(=O)(=O)[O-])cc5F)c5nc(c(-c6c(F)cc(S(=O)(=O)[O-])cc6F)c6ccc3[nH]6)C=C5)C=C4)cc1)=C2
REMARK SMILES IDX 30 1 29 2 28 3 27 4 26 5 25 6 24 7 23 8 21 9 22 10 20 11
REMARK SMILES IDX 1 12 2 13 3 14 13 15 4 16 12 17 14 18 11 19 104 20 15 21
REMARK SMILES IDX 5 22 6 23 7 24 8 25 9 26 10 27 16 28 17 29 18 30 19 31 31 32
REMARK SMILES IDX 32 33 33 34 34 35 35 36 36 37 37 38 38 39 39 40 103 41 40 42
REMARK SMILES IDX 102 43 41 44 42 45 43 46 96 47 44 48 101 49 95 50 97 51
REMARK SMILES IDX 45 52 100 53 94 54 93 55 46 57 80 58 59 59 79 60 60 61 63 62
REMARK SMILES IDX 78 63 98 64 61 65 62 66 77 68 99 69 64 70 47 71 48 72 57 73
REMARK SMILES IDX 49 74 50 75 56 76 58 77 51 78 52 79 53 80 54 81 55 82 81 83
REMARK SMILES IDX 82 84 91 85 83 86 84 87 90 88 92 89 85 90 86 91 87 92 88 93
REMARK SMILES IDX 89 94 65 95 66 96 75 97 67 98 68 99 74 100 76 101 69 102
REMARK SMILES IDX 70 103 71 104 72 105 73 106
REMARK H PARENT 97 56 63 67
REMARK Flexibility Score: inf
ROOT
ATOM      1  C   UNL A   1      36.184  23.364  25.740  1.00  0.00     0.188 C 
ENDROOT
BRANCH   1   2
ATOM      2  O   UNL A   1      35.114  23.323  26.673  1.00  0.00    -0.377 OA
BRANCH   2   3
ATOM      3  C   UNL A   1      34.777  21.971  26.947  1.00  0.00     0.188 C 
BRANCH   3   4
ATOM      4  C   UNL A   1      33.277  21.853  27.157  1.00  0.00     0.188 C 
BRANCH   4   5
ATOM      5  O   UNL A   1      32.598  22.394  26.033  1.00  0.00    -0.376 OA
BRANCH   5   6
ATOM      6  C   UNL A   1      32.266  21.349  25.131  1.00  0.00     0.202 C 
BRANCH   6   7
ATOM      7  C   UNL A   1      32.879  21.642  23.772  1.00  0.00     0.261 C 
BRANCH   7   8
ATOM      8  O   UNL A   1      33.535  22.902  23.808  1.00  0.00    -0.460 OA
BRANCH   8   9
ATOM      9  C   UNL A   1      33.205  23.901  22.857  1.00  0.00     0.338 C 
ATOM     10  O   UNL A   1      33.299  23.651  21.614  1.00  0.00    -0.246 OA
BRANCH   9  11
ATOM     11  C   UNL A   1      32.741  25.272  23.323  1.00  0.00     0.087 C 
ATOM     12  C   UNL A   1      30.172  29.594  23.920  1.00  0.00     0.048 C 
ATOM     13  C   UNL A   1      31.426  29.041  24.578  1.00  0.00    -0.007 A 
ATOM     14  C   UNL A   1      32.218  29.760  25.446  1.00  0.00     0.031 A 
ATOM     15  C   UNL A   1      31.848  27.783  24.150  1.00  0.00     0.130 A 
ATOM     16  C   UNL A   1      33.430  29.247  25.891  1.00  0.00     0.108 A 
ATOM     17  C   UNL A   1      33.078  27.263  24.609  1.00  0.00     0.019 A 
ATOM     18  O   UNL A   1      31.049  26.968  23.225  1.00  0.00    -0.475 OA
ATOM     19  C   UNL A   1      33.859  28.014  25.488  1.00  0.00     0.036 A 
ATOM     20  C   UNL A   1      33.496  25.941  24.142  1.00  0.00     0.027 C 
ATOM     21  C   UNL A   1      31.522  25.760  22.852  1.00  0.00     0.316 C 
BRANCH  16  22
ATOM     22  S   UNL A   1      34.452  30.225  27.019  1.00  0.00     0.310 S 
ATOM     23  F   UNL A   1      33.806  29.538  28.294  1.00  0.00    -0.094 F 
ATOM     24  F   UNL A   1      33.297  31.294  27.096  1.00  0.00    -0.094 F 
ATOM     25  F   UNL A   1      35.329  31.063  27.992  1.00  0.00    -0.094 F 
ATOM     26  F   UNL A   1      35.538  29.078  27.041  1.00  0.00    -0.094 F 
ATOM     27  F   UNL A   1      33.526  29.312  26.122  1.00  0.00    -0.094 F 
ENDBRANCH  16  22
BRANCH  21  28
ATOM     28  C   UNL A   1      30.524  24.810  23.496  1.00  0.00     0.430 C 
ATOM     29  F   UNL A   1      30.919  24.523  24.733  1.00  0.00    -0.167 F 
ATOM     30  F   UNL A   1      29.325  25.385  23.535  1.00  0.00    -0.167 F 
ATOM     31  F   UNL A   1      30.455  23.690  22.782  1.00  0.00    -0.167 F 
ENDBRANCH  21  28
ENDBRANCH   9  11
ENDBRANCH   8   9
ENDBRANCH   7   8
ENDBRANCH   6   7
ENDBRANCH   5   6
ENDBRANCH   4   5
ENDBRANCH   3   4
ENDBRANCH   2   3
ENDBRANCH   1   2
BRANCH   1  32
ATOM     32  C   UNL A   1      36.955  22.055  25.796  1.00  0.00     0.188 C 
BRANCH  32  33
ATOM     33  O   UNL A   1      38.238  22.236  25.215  1.00  0.00    -0.376 OA
BRANCH  33  34
ATOM     34  C   UNL A   1      39.239  21.969  26.186  1.00  0.00     0.202 C 
BRANCH  34  35
ATOM     35  C   UNL A   1      39.551  23.242  26.956  1.00  0.00     0.261 C 
BRANCH  35  36
ATOM     36  O   UNL A   1      40.815  23.745  26.545  1.00  0.00    -0.460 OA
BRANCH  36  37
ATOM     37  C   UNL A   1      40.990  25.138  26.333  1.00  0.00     0.338 C 
ATOM     38  O   UNL A   1      41.252  25.576  25.171  1.00  0.00    -0.246 OA
BRANCH  37  39
ATOM     39  C   UNL A   1      40.861  26.105  27.499  1.00  0.00     0.060 A 
ATOM     40  C   UNL A   1      39.654  26.246  28.174  1.00  0.00     0.016 A 
ATOM     41  C   UNL A   1      41.882  26.841  27.885  1.00  0.00     0.016 A 
ATOM     42  C   UNL A   1      39.723  26.752  29.491  1.00  0.00     0.010 A 
ATOM     43  C   UNL A   1      41.753  27.748  28.941  1.00  0.00     0.010 A 
ATOM     44  C   UNL A   1      40.703  27.713  29.734  1.00  0.00    -0.014 A 
BRANCH  44  45
ATOM     45  C   UNL A   1      40.562  28.696  30.885  1.00  0.00     0.031 A 
ATOM     46  C   UNL A   1      39.614  29.713  30.763  1.00  0.00     0.074 A 
ATOM     47  C   UNL A   1      41.388  28.534  31.984  1.00  0.00     0.049 A 
ATOM     48  N   UNL A   1      39.316  30.658  31.656  1.00  0.00    -0.248 NA
ATOM     49  C   UNL A   1      38.760  29.907  29.582  1.00  0.00     0.031 C 
ATOM     50  C   UNL A   1      42.340  27.505  32.118  1.00  0.00     0.029 A 
ATOM     51  N   UNL A   1      41.446  29.313  33.119  1.00  0.00    -0.354 N 
ATOM     52  C   UNL A   1      38.343  31.442  31.189  1.00  0.00     0.074 A 
ATOM     53  C   UNL A   1      37.975  30.975  29.846  1.00  0.00     0.031 C 
ATOM     54  C   UNL A   1      42.970  27.667  33.312  1.00  0.00     0.029 A 
ATOM     55  C   UNL A   1      42.422  28.799  33.944  1.00  0.00     0.049 A 
ATOM     56  H   UNL A   1      40.884  30.099  33.309  1.00  0.00     0.167 HD
ATOM     57  C   UNL A   1      37.745  32.528  31.832  1.00  0.00     0.037 A 
ATOM     58  C   UNL A   1      42.829  29.279  35.178  1.00  0.00     0.037 A 
ATOM     59  C   UNL A   1      38.122  32.982  33.086  1.00  0.00     0.049 A 
ATOM     60  C   UNL A   1      42.271  30.401  35.796  1.00  0.00     0.074 A 
ATOM     61  C   UNL A   1      37.525  34.069  33.751  1.00  0.00     0.029 A 
ATOM     62  N   UNL A   1      39.116  32.483  33.899  1.00  0.00    -0.354 N 
ATOM     63  N   UNL A   1      41.271  31.160  35.347  1.00  0.00    -0.248 NA
ATOM     64  C   UNL A   1      42.716  30.937  37.089  1.00  0.00     0.031 C 
ATOM     65  C   UNL A   1      38.156  34.231  34.945  1.00  0.00     0.029 A 
ATOM     66  C   UNL A   1      39.158  33.247  35.044  1.00  0.00     0.049 A 
ATOM     67  H   UNL A   1      39.695  31.714  33.697  1.00  0.00     0.167 HD
ATOM     68  C   UNL A   1      41.001  32.131  36.223  1.00  0.00     0.074 A 
ATOM     69  C   UNL A   1      41.931  32.005  37.352  1.00  0.00     0.031 C 
ATOM     70  C   UNL A   1      40.014  33.113  36.126  1.00  0.00     0.037 A 
BRANCH  57  71
ATOM     71  C   UNL A   1      36.618  33.254  31.115  1.00  0.00     0.058 A 
ATOM     72  C   UNL A   1      36.871  34.115  30.067  1.00  0.00     0.135 A 
ATOM     73  C   UNL A   1      35.305  33.022  31.499  1.00  0.00     0.135 A 
ATOM     74  F   UNL A   1      38.127  34.344  29.691  1.00  0.00    -0.206 F 
ATOM     75  C   UNL A   1      35.878  34.717  29.430  1.00  0.00     0.059 A 
ATOM     76  C   UNL A   1      34.288  33.665  30.808  1.00  0.00     0.059 A 
ATOM     77  F   UNL A   1      35.027  32.203  32.509  1.00  0.00    -0.206 F 
ATOM     78  C   UNL A   1      34.615  34.514  29.767  1.00  0.00     0.060 A 
BRANCH  78  79
ATOM     79  S   UNL A   1      33.299  35.359  28.856  1.00  0.00     0.124 S 
ATOM     80  O   UNL A   1      32.336  36.020  29.845  1.00  0.00    -0.237 OA
ATOM     81  O   UNL A   1      33.913  36.427  27.948  1.00  0.00    -0.237 OA
ATOM     82  O   UNL A   1      32.446  34.222  27.903  1.00  0.00    -0.744 OA
ENDBRANCH  78  79
ENDBRANCH  57  71
BRANCH  58  83
ATOM     83  C   UNL A   1      43.945  28.542  35.902  1.00  0.00     0.058 A 
ATOM     84  C   UNL A   1      43.673  27.512  36.780  1.00  0.00     0.135 A 
ATOM     85  C   UNL A   1      45.261  28.931  35.702  1.00  0.00     0.135 A 
ATOM     86  F   UNL A   1      42.414  27.131  36.977  1.00  0.00    -0.206 F 
ATOM     87  C   UNL A   1      44.651  26.898  37.426  1.00  0.00     0.059 A 
ATOM     88  C   UNL A   1      46.262  28.263  36.391  1.00  0.00     0.059 A 
ATOM     89  F   UNL A   1      45.557  29.925  34.867  1.00  0.00    -0.206 F 
ATOM     90  C   UNL A   1      45.918  27.240  37.253  1.00  0.00     0.060 A 
BRANCH  90  91
ATOM     91  S   UNL A   1      47.213  26.359  38.159  1.00  0.00     0.124 S 
ATOM     92  O   UNL A   1      48.220  27.365  38.719  1.00  0.00    -0.237 OA
ATOM     93  O   UNL A   1      46.585  25.571  39.311  1.00  0.00    -0.237 OA
ATOM     94  O   UNL A   1      48.015  25.280  37.102  1.00  0.00    -0.744 OA
ENDBRANCH  90  91
ENDBRANCH  58  83
BRANCH  70  95
ATOM     95  C   UNL A   1      39.870  34.095  37.278  1.00  0.00     0.058 A 
ATOM     96  C   UNL A   1      39.113  33.767  38.384  1.00  0.00     0.135 A 
ATOM     97  C   UNL A   1      40.487  35.337  37.224  1.00  0.00     0.135 A 
ATOM     98  F   UNL A   1      38.517  32.578  38.444  1.00  0.00    -0.206 F 
ATOM     99  C   UNL A   1      38.972  34.621  39.385  1.00  0.00     0.059 A 
ATOM    100  C   UNL A   1      40.322  36.205  38.293  1.00  0.00     0.059 A 
ATOM    101  F   UNL A   1      41.219  35.687  36.170  1.00  0.00    -0.206 F 
ATOM    102  C   UNL A   1      39.550  35.810  39.368  1.00  0.00     0.060 A 
BRANCH 102 103
ATOM    103  S   UNL A   1      39.328  36.932  40.771  1.00  0.00     0.124 S 
ATOM    104  O   UNL A   1      38.500  36.237  41.855  1.00  0.00    -0.237 OA
ATOM    105  O   UNL A   1      40.696  37.314  41.341  1.00  0.00    -0.237 OA
ATOM    106  O   UNL A   1      38.514  38.343  40.249  1.00  0.00    -0.744 OA
ENDBRANCH 102 103
ENDBRANCH  70  95
ENDBRANCH  44  45
ENDBRANCH  37  39
ENDBRANCH  36  37
ENDBRANCH  35  36
ENDBRANCH  34  35
ENDBRANCH  33  34
ENDBRANCH  32  33
ENDBRANCH   1  32
TORSDOF 25
ENDMDL
MODEL 2
REMARK VINA RESULT:     -10.6      1.963      3.330
REMARK SMILES Cc1cc(S(F)(F)(F)(F)F)cc2c1O[C@H](C(F)(F)F)C(C(=O)OCCOCCOCCOCCOC(=O)c1ccc(-c3c4nc(c(-c5c(F)cc(S(=O)(=O)[O-])cc5F)c5ccc([nH]5)c(-c5c(F)cc(S(=O)(=O)[O-])cc5F)c5nc(c(-c6c(F)cc(S(=O)(=O)[O-])cc6F)c6ccc3[nH]6)C=C5)C=C4)cc1)=C2
REMARK SMILES IDX 30 1 29 2 28 3 27 4 26 5 25 6 24 7 23 8 21 9 22 10 20 11
REMARK SMILES IDX 1 12 2 13 3 14 13 15 4 16 12 17 14 18 11 19 104 20 15 21
REMARK SMILES IDX 5 22 6 23 7 24 8 25 9 26 10 27 16 28 17 29 18 30 19 31 31 32
REMARK SMILES IDX 32 33 33 34 34 35 35 36 36 37 37 38 38 39 39 40 103 41 40 42
REMARK SMILES IDX 102 43 41 44 42 45 43 46 96 47 44 48 101 49 95 50 97 51
REMARK SMILES IDX 45 52 100 53 94 54 93 55 46 57 80 58 59 59 79 60 60 61 63 62
REMARK SMILES IDX 78 63 98 64 61 65 62 66 77 68 99 69 64 70 47 71 48 72 57 73
REMARK SMILES IDX 49 74 50 75 56 76 58 77 51 78 52 79 53 80 54 81 55 82 81 83
REMARK SMILES IDX 82 84 91 85 83 86 84 87 90 88 92 89 85 90 86 91 87 92 88 93
REMARK SMILES IDX 89 94 65 95 66 96 75 97 67 98 68 99 74 100 76 101 69 102
REMARK SMILES IDX 70 103 71 104 72 105 73 106
REMARK H PARENT 97 56 63 67
REMARK Flexibility Score: inf
ROOT
ATOM      1  C   UNL A   1      43.597  18.917  25.478  1.00  0.00     0.188 C 
ENDROOT
BRANCH   1   2
ATOM      2  O   UNL A   1      42.350  19.579  25.327  1.00  0.00    -0.377 OA
BRANCH   2   3
ATOM      3  C   UNL A   1      41.883  20.005  26.599  1.00  0.00     0.188 C 
BRANCH   3   4
ATOM      4  C   UNL A   1      40.364  19.958  26.624  1.00  0.00     0.188 C 
BRANCH   4   5
ATOM      5  O   UNL A   1      39.847  20.787  25.594  1.00  0.00    -0.376 OA
BRANCH   5   6
ATOM      6  C   UNL A   1      39.085  21.839  26.168  1.00  0.00     0.202 C 
BRANCH   6   7
ATOM      7  C   UNL A   1      37.725  21.903  25.495  1.00  0.00     0.261 C 
BRANCH   7   8
ATOM      8  O   UNL A   1      37.182  23.207  25.647  1.00  0.00    -0.460 OA
BRANCH   8   9
ATOM      9  C   UNL A   1      35.795  23.374  25.895  1.00  0.00     0.338 C 
ATOM     10  O   UNL A   1      35.280  22.913  26.961  1.00  0.00    -0.246 OA
BRANCH   9  11
ATOM     11  C   UNL A   1      34.924  24.104  24.885  1.00  0.00     0.087 C 
ATOM     12  C   UNL A   1      32.607  25.593  20.636  1.00  0.00     0.048 C 
ATOM     13  C   UNL A   1      32.540  26.084  22.073  1.00  0.00    -0.007 A 
ATOM     14  C   UNL A   1      31.858  27.215  22.467  1.00  0.00     0.031 A 
ATOM     15  C   UNL A   1      33.338  25.411  22.997  1.00  0.00     0.130 A 
ATOM     16  C   UNL A   1      31.963  27.690  23.768  1.00  0.00     0.108 A 
ATOM     17  C   UNL A   1      33.438  25.894  24.320  1.00  0.00     0.019 A 
ATOM     18  O   UNL A   1      34.090  24.202  22.639  1.00  0.00    -0.475 OA
ATOM     19  C   UNL A   1      32.735  27.042  24.690  1.00  0.00     0.036 A 
ATOM     20  C   UNL A   1      34.284  25.169  25.268  1.00  0.00     0.027 C 
ATOM     21  C   UNL A   1      34.845  23.604  23.585  1.00  0.00     0.316 C 
BRANCH  16  22
ATOM     22  S   UNL A   1      31.065  29.186  24.247  1.00  0.00     0.310 S 
ATOM     23  F   UNL A   1      30.817  29.593  22.734  1.00  0.00    -0.094 F 
ATOM     24  F   UNL A   1      32.418  29.990  24.169  1.00  0.00    -0.094 F 
ATOM     25  F   UNL A   1      30.293  30.473  24.654  1.00  0.00    -0.094 F 
ATOM     26  F   UNL A   1      29.698  28.396  24.183  1.00  0.00    -0.094 F 
ATOM     27  F   UNL A   1      31.817  27.899  23.724  1.00  0.00    -0.094 F 
ENDBRANCH  16  22
BRANCH  21  28
ATOM     28  C   UNL A   1      34.118  22.284  23.792  1.00  0.00     0.430 C 
ATOM     29  F   UNL A   1      34.999  21.334  24.091  1.00  0.00    -0.167 F 
ATOM     30  F   UNL A   1      33.244  22.409  24.787  1.00  0.00    -0.167 F 
ATOM     31  F   UNL A   1      33.474  21.954  22.675  1.00  0.00    -0.167 F 
ENDBRANCH  21  28
ENDBRANCH   9  11
ENDBRANCH   8   9
ENDBRANCH   7   8
ENDBRANCH   6   7
ENDBRANCH   5   6
ENDBRANCH   4   5
ENDBRANCH   3   4
ENDBRANCH   2   3
ENDBRANCH   1   2
BRANCH   1  32
ATOM     32  C   UNL A   1      44.722  19.858  25.078  1.00  0.00     0.188 C 
BRANCH  32  33
ATOM     33  O   UNL A   1      44.186  20.951  24.345  1.00  0.00    -0.376 OA
BRANCH  33  34
ATOM     34  C   UNL A   1      44.320  22.142  25.108  1.00  0.00     0.202 C 
BRANCH  34  35
ATOM     35  C   UNL A   1      43.049  22.967  24.985  1.00  0.00     0.261 C 
BRANCH  35  36
ATOM     36  O   UNL A   1      42.891  23.768  26.148  1.00  0.00    -0.460 OA
BRANCH  36  37
ATOM     37  C   UNL A   1      43.057  25.176  26.069  1.00  0.00     0.338 C 
ATOM     38  O   UNL A   1      43.491  25.705  25.000  1.00  0.00    -0.246 OA
BRANCH  37  39
ATOM     39  C   UNL A   1      42.715  26.049  27.265  1.00  0.00     0.060 A 
ATOM     40  C   UNL A   1      43.546  27.100  27.636  1.00  0.00     0.016 A 
ATOM     41  C   UNL A   1      41.635  25.823  27.983  1.00  0.00     0.016 A 
ATOM     42  C   UNL A   1      42.956  28.133  28.398  1.00  0.00     0.010 A 
ATOM     43  C   UNL A   1      41.337  26.614  29.097  1.00  0.00     0.010 A 
ATOM     44  C   UNL A   1      41.975  27.745  29.310  1.00  0.00    -0.014 A 
BRANCH  44  45
ATOM     45  C   UNL A   1      41.650  28.609  30.518  1.00  0.00     0.031 A 
ATOM     46  C   UNL A   1      40.571  29.489  30.420  1.00  0.00     0.074 A 
ATOM     47  C   UNL A   1      42.447  28.483  31.643  1.00  0.00     0.049 A 
ATOM     48  N   UNL A   1      40.105  30.312  31.360  1.00  0.00    -0.248 NA
ATOM     49  C   UNL A   1      39.745  29.649  29.215  1.00  0.00     0.031 C 
ATOM     50  C   UNL A   1      43.532  27.591  31.752  1.00  0.00     0.029 A 
ATOM     51  N   UNL A   1      42.348  29.174  32.830  1.00  0.00    -0.354 N 
ATOM     52  C   UNL A   1      39.048  30.985  30.902  1.00  0.00     0.074 A 
ATOM     53  C   UNL A   1      38.804  30.572  29.513  1.00  0.00     0.031 C 
ATOM     54  C   UNL A   1      44.085  27.749  32.984  1.00  0.00     0.029 A 
ATOM     55  C   UNL A   1      43.356  28.742  33.664  1.00  0.00     0.049 A 
ATOM     56  H   UNL A   1      41.673  29.857  33.047  1.00  0.00     0.167 HD
ATOM     57  C   UNL A   1      38.275  31.924  31.588  1.00  0.00     0.037 A 
ATOM     58  C   UNL A   1      43.641  29.180  34.948  1.00  0.00     0.037 A 
ATOM     59  C   UNL A   1      38.535  32.330  32.887  1.00  0.00     0.049 A 
ATOM     60  C   UNL A   1      42.903  30.162  35.614  1.00  0.00     0.074 A 
ATOM     61  C   UNL A   1      37.762  33.270  33.596  1.00  0.00     0.029 A 
ATOM     62  N   UNL A   1      39.557  31.916  33.712  1.00  0.00    -0.354 N 
ATOM     63  N   UNL A   1      41.823  30.805  35.170  1.00  0.00    -0.248 NA
ATOM     64  C   UNL A   1      43.216  30.657  36.961  1.00  0.00     0.031 C 
ATOM     65  C   UNL A   1      38.316  33.429  34.828  1.00  0.00     0.029 A 
ATOM     66  C   UNL A   1      39.445  32.591  34.908  1.00  0.00     0.049 A 
ATOM     67  H   UNL A   1      40.249  31.254  33.486  1.00  0.00     0.167 HD
ATOM     68  C   UNL A   1      41.382  31.659  36.096  1.00  0.00     0.074 A 
ATOM     69  C   UNL A   1      42.276  31.581  37.258  1.00  0.00     0.031 C 
ATOM     70  C   UNL A   1      40.269  32.497  36.019  1.00  0.00     0.037 A 
BRANCH  57  71
ATOM     71  C   UNL A   1      37.084  32.536  30.868  1.00  0.00     0.058 A 
ATOM     72  C   UNL A   1      37.198  33.724  30.175  1.00  0.00     0.135 A 
ATOM     73  C   UNL A   1      35.867  31.872  30.880  1.00  0.00     0.135 A 
ATOM     74  F   UNL A   1      38.362  34.367  30.157  1.00  0.00    -0.206 F 
ATOM     75  C   UNL A   1      36.160  34.230  29.526  1.00  0.00     0.059 A 
ATOM     76  C   UNL A   1      34.801  32.427  30.186  1.00  0.00     0.059 A 
ATOM     77  F   UNL A   1      35.722  30.728  31.544  1.00  0.00    -0.206 F 
ATOM     78  C   UNL A   1      34.987  33.619  29.512  1.00  0.00     0.060 A 
BRANCH  78  79
ATOM     79  S   UNL A   1      33.607  34.355  28.601  1.00  0.00     0.124 S 
ATOM     80  O   UNL A   1      32.607  34.961  29.590  1.00  0.00    -0.237 OA
ATOM     81  O   UNL A   1      34.135  35.452  27.674  1.00  0.00    -0.237 OA
ATOM     82  O   UNL A   1      32.829  33.148  27.673  1.00  0.00    -0.744 OA
ENDBRANCH  78  79
ENDBRANCH  57  71
BRANCH  58  83
ATOM     83  C   UNL A   1      44.823  28.555  35.673  1.00  0.00     0.058 A 
ATOM     84  C   UNL A   1      46.099  29.062  35.532  1.00  0.00     0.135 A 
ATOM     85  C   UNL A   1      44.622  27.435  36.465  1.00  0.00     0.135 A 
ATOM     86  F   UNL A   1      46.301  30.136  34.774  1.00  0.00    -0.206 F 
ATOM     87  C   UNL A   1      47.125  28.492  36.145  1.00  0.00     0.059 A 
ATOM     88  C   UNL A   1      45.718  26.866  37.097  1.00  0.00     0.059 A 
ATOM     89  F   UNL A   1      43.406  26.918  36.617  1.00  0.00    -0.206 F 
ATOM     90  C   UNL A   1      46.968  27.427  36.913  1.00  0.00     0.060 A 
BRANCH  90  91
ATOM     91  S   UNL A   1      48.406  26.695  37.732  1.00  0.00     0.124 S 
ATOM     92  O   UNL A   1      49.188  27.787  38.464  1.00  0.00    -0.237 OA
ATOM     93  O   UNL A   1      47.939  25.640  38.738  1.00  0.00    -0.237 OA
ATOM     94  O   UNL A   1      49.414  25.959  36.562  1.00  0.00    -0.744 OA
ENDBRANCH  90  91
ENDBRANCH  58  83
BRANCH  70  95
ATOM     95  C   UNL A   1      39.940  33.360  37.227  1.00  0.00     0.058 A 
ATOM     96  C   UNL A   1      38.956  32.972  38.113  1.00  0.00     0.135 A 
ATOM     97  C   UNL A   1      40.616  34.552  37.444  1.00  0.00     0.135 A 
ATOM     98  F   UNL A   1      38.303  31.830  37.913  1.00  0.00    -0.206 F 
ATOM     99  C   UNL A   1      38.655  33.723  39.160  1.00  0.00     0.059 A 
ATOM    100  C   UNL A   1      40.278  35.311  38.555  1.00  0.00     0.059 A 
ATOM    101  F   UNL A   1      41.565  34.957  36.606  1.00  0.00    -0.206 F 
ATOM    102  C   UNL A   1      39.283  34.862  39.401  1.00  0.00     0.060 A 
BRANCH 102 103
ATOM    103  S   UNL A   1      38.834  35.842  40.854  1.00  0.00     0.124 S 
ATOM    104  O   UNL A   1      37.597  35.233  41.518  1.00  0.00    -0.237 OA
ATOM    105  O   UNL A   1      39.998  35.844  41.848  1.00  0.00    -0.237 OA
ATOM    106  O   UNL A   1      38.490  37.447  40.375  1.00  0.00    -0.744 OA
ENDBRANCH 102 103
ENDBRANCH  70  95
ENDBRANCH  44  45
ENDBRANCH  37  39
ENDBRANCH  36  37
ENDBRANCH  35  36
ENDBRANCH  34  35
ENDBRANCH  33  34
ENDBRANCH  32  33
ENDBRANCH   1  32
TORSDOF 25
ENDMDL
MODEL 3
REMARK VINA RESULT:     -10.4      4.895      9.002
REMARK SMILES Cc1cc(S(F)(F)(F)(F)F)cc2c1O[C@H](C(F)(F)F)C(C(=O)OCCOCCOCCOCCOC(=O)c1ccc(-c3c4nc(c(-c5c(F)cc(S(=O)(=O)[O-])cc5F)c5ccc([nH]5)c(-c5c(F)cc(S(=O)(=O)[O-])cc5F)c5nc(c(-c6c(F)cc(S(=O)(=O)[O-])cc6F)c6ccc3[nH]6)C=C5)C=C4)cc1)=C2
REMARK SMILES IDX 30 1 29 2 28 3 27 4 26 5 25 6 24 7 23 8 21 9 22 10 20 11
REMARK SMILES IDX 1 12 2 13 3 14 13 15 4 16 12 17 14 18 11 19 104 20 15 21
REMARK SMILES IDX 5 22 6 23 7 24 8 25 9 26 10 27 16 28 17 29 18 30 19 31 31 32
REMARK SMILES IDX 32 33 33 34 34 35 35 36 36 37 37 38 38 39 39 40 103 41 40 42
REMARK SMILES IDX 102 43 41 44 42 45 43 46 96 47 44 48 101 49 95 50 97 51
REMARK SMILES IDX 45 52 100 53 94 54 93 55 46 57 80 58 59 59 79 60 60 61 63 62
REMARK SMILES IDX 78 63 98 64 61 65 62 66 77 68 99 69 64 70 47 71 48 72 57 73
REMARK SMILES IDX 49 74 50 75 56 76 58 77 51 78 52 79 53 80 54 81 55 82 81 83
REMARK SMILES IDX 82 84 91 85 83 86 84 87 90 88 92 89 85 90 86 91 87 92 88 93
REMARK SMILES IDX 89 94 65 95 66 96 75 97 67 98 68 99 74 100 76 101 69 102
REMARK SMILES IDX 70 103 71 104 72 105 73 106
REMARK H PARENT 97 56 63 67
REMARK Flexibility Score: inf
ROOT
ATOM      1  C   UNL A   1      33.102  22.441  26.702  1.00  0.00     0.188 C 
ENDROOT
BRANCH   1   2
ATOM      2  O   UNL A   1      32.079  21.656  26.106  1.00  0.00    -0.377 OA
BRANCH   2   3
ATOM      3  C   UNL A   1      32.626  20.422  25.665  1.00  0.00     0.188 C 
BRANCH   3   4
ATOM      4  C   UNL A   1      32.412  20.277  24.167  1.00  0.00     0.188 C 
BRANCH   4   5
ATOM      5  O   UNL A   1      33.312  21.129  23.475  1.00  0.00    -0.376 OA
BRANCH   5   6
ATOM      6  C   UNL A   1      32.579  22.043  22.673  1.00  0.00     0.202 C 
BRANCH   6   7
ATOM      7  C   UNL A   1      33.403  23.303  22.462  1.00  0.00     0.261 C 
BRANCH   7   8
ATOM      8  O   UNL A   1      32.550  24.365  22.059  1.00  0.00    -0.460 OA
BRANCH   8   9
ATOM      9  C   UNL A   1      32.534  25.579  22.793  1.00  0.00     0.338 C 
ATOM     10  O   UNL A   1      33.612  26.042  23.280  1.00  0.00    -0.246 OA
BRANCH   9  11
ATOM     11  C   UNL A   1      31.226  26.328  22.996  1.00  0.00     0.087 C 
ATOM     12  C   UNL A   1      26.382  27.504  23.889  1.00  0.00     0.048 C 
ATOM     13  C   UNL A   1      27.605  28.347  23.568  1.00  0.00    -0.007 A 
ATOM     14  C   UNL A   1      27.560  29.702  23.319  1.00  0.00     0.031 A 
ATOM     15  C   UNL A   1      28.803  27.658  23.384  1.00  0.00     0.130 A 
ATOM     16  C   UNL A   1      28.690  30.382  22.884  1.00  0.00     0.108 A 
ATOM     17  C   UNL A   1      29.952  28.354  22.946  1.00  0.00     0.019 A 
ATOM     18  O   UNL A   1      28.916  26.215  23.630  1.00  0.00    -0.475 OA
ATOM     19  C   UNL A   1      29.876  29.727  22.702  1.00  0.00     0.036 A 
ATOM     20  C   UNL A   1      31.195  27.605  22.759  1.00  0.00     0.027 C 
ATOM     21  C   UNL A   1      30.108  25.614  23.429  1.00  0.00     0.316 C 
BRANCH  16  22
ATOM     22  S   UNL A   1      28.591  32.158  22.553  1.00  0.00     0.310 S 
ATOM     23  F   UNL A   1      27.195  32.278  23.295  1.00  0.00    -0.094 F 
ATOM     24  F   UNL A   1      27.786  31.840  21.237  1.00  0.00    -0.094 F 
ATOM     25  F   UNL A   1      28.502  33.684  22.271  1.00  0.00    -0.094 F 
ATOM     26  F   UNL A   1      29.275  32.463  23.944  1.00  0.00    -0.094 F 
ATOM     27  F   UNL A   1      28.589  30.618  22.908  1.00  0.00    -0.094 F 
ENDBRANCH  16  22
BRANCH  21  28
ATOM     28  C   UNL A   1      30.509  25.211  24.839  1.00  0.00     0.430 C 
ATOM     29  F   UNL A   1      30.929  23.949  24.837  1.00  0.00    -0.167 F 
ATOM     30  F   UNL A   1      31.487  26.004  25.267  1.00  0.00    -0.167 F 
ATOM     31  F   UNL A   1      29.459  25.326  25.648  1.00  0.00    -0.167 F 
ENDBRANCH  21  28
ENDBRANCH   9  11
ENDBRANCH   8   9
ENDBRANCH   7   8
ENDBRANCH   6   7
ENDBRANCH   5   6
ENDBRANCH   4   5
ENDBRANCH   3   4
ENDBRANCH   2   3
ENDBRANCH   1   2
BRANCH   1  32
ATOM     32  C   UNL A   1      34.229  21.534  27.168  1.00  0.00     0.188 C 
BRANCH  32  33
ATOM     33  O   UNL A   1      35.434  21.902  26.513  1.00  0.00    -0.376 OA
BRANCH  33  34
ATOM     34  C   UNL A   1      35.253  23.148  25.855  1.00  0.00     0.202 C 
BRANCH  34  35
ATOM     35  C   UNL A   1      36.589  23.868  25.757  1.00  0.00     0.261 C 
BRANCH  35  36
ATOM     36  O   UNL A   1      37.600  22.941  25.388  1.00  0.00    -0.460 OA
BRANCH  36  37
ATOM     37  C   UNL A   1      38.769  22.812  26.183  1.00  0.00     0.338 C 
ATOM     38  O   UNL A   1      39.239  21.661  26.440  1.00  0.00    -0.246 OA
BRANCH  37  39
ATOM     39  C   UNL A   1      39.460  24.053  26.725  1.00  0.00     0.060 A 
ATOM     40  C   UNL A   1      40.265  24.833  25.903  1.00  0.00     0.016 A 
ATOM     41  C   UNL A   1      39.325  24.408  27.985  1.00  0.00     0.016 A 
ATOM     42  C   UNL A   1      40.462  26.174  26.300  1.00  0.00     0.010 A 
ATOM     43  C   UNL A   1      39.982  25.536  28.486  1.00  0.00     0.010 A 
ATOM     44  C   UNL A   1      40.541  26.407  27.673  1.00  0.00    -0.014 A 
BRANCH  44  45
ATOM     45  C   UNL A   1      41.252  27.636  28.215  1.00  0.00     0.031 A 
ATOM     46  C   UNL A   1      42.647  27.657  28.168  1.00  0.00     0.074 A 
ATOM     47  C   UNL A   1      40.479  28.660  28.735  1.00  0.00     0.049 A 
ATOM     48  N   UNL A   1      43.460  28.636  28.565  1.00  0.00    -0.248 NA
ATOM     49  C   UNL A   1      43.470  26.555  27.647  1.00  0.00     0.031 C 
ATOM     50  C   UNL A   1      39.071  28.650  28.778  1.00  0.00     0.029 A 
ATOM     51  N   UNL A   1      40.910  29.843  29.293  1.00  0.00    -0.354 N 
ATOM     52  C   UNL A   1      44.731  28.299  28.345  1.00  0.00     0.074 A 
ATOM     53  C   UNL A   1      44.757  26.953  27.757  1.00  0.00     0.031 C 
ATOM     54  C   UNL A   1      38.659  29.805  29.363  1.00  0.00     0.029 A 
ATOM     55  C   UNL A   1      39.802  30.557  29.695  1.00  0.00     0.049 A 
ATOM     56  H   UNL A   1      41.847  30.131  29.387  1.00  0.00     0.167 HD
ATOM     57  C   UNL A   1      45.871  29.062  28.609  1.00  0.00     0.037 A 
ATOM     58  C   UNL A   1      39.770  31.793  30.320  1.00  0.00     0.037 A 
ATOM     59  C   UNL A   1      45.837  30.317  29.195  1.00  0.00     0.049 A 
ATOM     60  C   UNL A   1      40.914  32.531  30.637  1.00  0.00     0.074 A 
ATOM     61  C   UNL A   1      46.974  31.102  29.460  1.00  0.00     0.029 A 
ATOM     62  N   UNL A   1      44.730  31.020  29.619  1.00  0.00    -0.354 N 
ATOM     63  N   UNL A   1      42.182  32.211  30.381  1.00  0.00    -0.248 NA
ATOM     64  C   UNL A   1      40.894  33.827  31.329  1.00  0.00     0.031 C 
ATOM     65  C   UNL A   1      46.562  32.258  30.046  1.00  0.00     0.029 A 
ATOM     66  C   UNL A   1      45.159  32.213  30.156  1.00  0.00     0.049 A 
ATOM     67  H   UNL A   1      43.796  30.720  29.551  1.00  0.00     0.167 HD
ATOM     68  C   UNL A   1      42.997  33.174  30.817  1.00  0.00     0.074 A 
ATOM     69  C   UNL A   1      42.180  34.223  31.439  1.00  0.00     0.031 C 
ATOM     70  C   UNL A   1      44.389  33.220  30.717  1.00  0.00     0.037 A 
BRANCH  57  71
ATOM     71  C   UNL A   1      47.225  28.481  28.233  1.00  0.00     0.058 A 
ATOM     72  C   UNL A   1      47.803  28.743  27.007  1.00  0.00     0.135 A 
ATOM     73  C   UNL A   1      47.910  27.700  29.152  1.00  0.00     0.135 A 
ATOM     74  F   UNL A   1      47.154  29.492  26.120  1.00  0.00    -0.206 F 
ATOM     75  C   UNL A   1      48.997  28.257  26.705  1.00  0.00     0.059 A 
ATOM     76  C   UNL A   1      49.161  27.211  28.805  1.00  0.00     0.059 A 
ATOM     77  F   UNL A   1      47.378  27.424  30.340  1.00  0.00    -0.206 F 
ATOM     78  C   UNL A   1      49.679  27.513  27.560  1.00  0.00     0.060 A 
BRANCH  78  79
ATOM     79  S   UNL A   1      51.310  26.882  27.094  1.00  0.00     0.124 S 
ATOM     80  O   UNL A   1      51.638  27.321  25.664  1.00  0.00    -0.237 OA
ATOM     81  O   UNL A   1      52.365  27.438  28.053  1.00  0.00    -0.237 OA
ATOM     82  O   UNL A   1      51.306  25.174  27.179  1.00  0.00    -0.744 OA
ENDBRANCH  78  79
ENDBRANCH  57  71
BRANCH  58  83
ATOM     83  C   UNL A   1      38.415  32.380  30.680  1.00  0.00     0.058 A 
ATOM     84  C   UNL A   1      37.747  33.225  29.817  1.00  0.00     0.135 A 
ATOM     85  C   UNL A   1      37.851  32.088  31.913  1.00  0.00     0.135 A 
ATOM     86  F   UNL A   1      38.280  33.511  28.632  1.00  0.00    -0.206 F 
ATOM     87  C   UNL A   1      36.581  33.753  30.154  1.00  0.00     0.059 A 
ATOM     88  C   UNL A   1      36.625  32.653  32.233  1.00  0.00     0.059 A 
ATOM     89  F   UNL A   1      38.472  31.282  32.771  1.00  0.00    -0.206 F 
ATOM     90  C   UNL A   1      36.012  33.490  31.319  1.00  0.00     0.060 A 
BRANCH  90  91
ATOM     91  S   UNL A   1      34.413  34.235  31.722  1.00  0.00     0.124 S 
ATOM     92  O   UNL A   1      34.632  35.639  32.288  1.00  0.00    -0.237 OA
ATOM     93  O   UNL A   1      33.558  34.324  30.456  1.00  0.00    -0.237 OA
ATOM     94  O   UNL A   1      33.611  33.271  32.885  1.00  0.00    -0.744 OA
ENDBRANCH  90  91
ENDBRANCH  58  83
BRANCH  70  95
ATOM     95  C   UNL A   1      45.103  34.449  31.256  1.00  0.00     0.058 A 
ATOM     96  C   UNL A   1      45.538  34.484  32.566  1.00  0.00     0.135 A 
ATOM     97  C   UNL A   1      45.313  35.553  30.443  1.00  0.00     0.135 A 
ATOM     98  F   UNL A   1      45.341  33.429  33.353  1.00  0.00    -0.206 F 
ATOM     99  C   UNL A   1      46.149  35.554  33.047  1.00  0.00     0.059 A 
ATOM    100  C   UNL A   1      45.961  36.656  30.979  1.00  0.00     0.059 A 
ATOM    101  F   UNL A   1      44.901  35.555  29.179  1.00  0.00    -0.206 F 
ATOM    102  C   UNL A   1      46.370  36.622  32.298  1.00  0.00     0.060 A 
BRANCH 102 103
ATOM    103  S   UNL A   1      47.219  38.053  33.010  1.00  0.00     0.124 S 
ATOM    104  O   UNL A   1      48.615  37.637  33.481  1.00  0.00    -0.237 OA
ATOM    105  O   UNL A   1      47.345  39.151  31.950  1.00  0.00    -0.237 OA
ATOM    106  O   UNL A   1      46.322  38.645  34.340  1.00  0.00    -0.744 OA
ENDBRANCH 102 103
ENDBRANCH  70  95
ENDBRANCH  44  45
ENDBRANCH  37  39
ENDBRANCH  36  37
ENDBRANCH  35  36
ENDBRANCH  34  35
ENDBRANCH  33  34
ENDBRANCH  32  33
ENDBRANCH   1  32
TORSDOF 25
ENDMDL
