MODEL 1
REMARK VINA RESULT:      -8.3      0.000      0.000
REMARK SMILES CC[C@@H]1CCC[C@@](CC[NH+]2CCOCC2)(C(=O)OCCOCCOCCOCCOC(=O)c2ccc(-c3c4nc(c(-c5c(F)cc(S(=O)(=O)[O-])cc5F)c5ccc([nH]5)c(-c5c(F)cc(S(=O)(=O)[O-])cc5F)c5nc(c(-c6c(F)cc(S(=O)(=O)[O-])cc6F)c6ccc3[nH]6)C=C5)C=C4)cc2)C1
REMARK SMILES IDX 24 1 23 2 22 3 21 4 20 5 19 6 18 7 16 8 17 9 7 10 3 11 4 12
REMARK SMILES IDX 99 13 5 14 6 15 2 16 1 17 8 18 9 19 10 20 11 21 15 22 12 24
REMARK SMILES IDX 14 25 13 26 25 27 26 28 27 29 28 30 29 31 30 32 31 33 32 34
REMARK SMILES IDX 33 35 34 36 98 37 35 38 97 39 36 40 37 41 38 42 91 43 39 44
REMARK SMILES IDX 96 45 90 46 92 47 40 48 95 49 89 50 88 51 41 53 75 54 54 55
REMARK SMILES IDX 74 56 55 57 58 58 73 59 93 60 56 61 57 62 72 64 94 65 59 66
REMARK SMILES IDX 42 67 43 68 52 69 44 70 45 71 51 72 53 73 46 74 47 75 48 76
REMARK SMILES IDX 49 77 50 78 76 79 77 80 86 81 78 82 79 83 85 84 87 85 80 86
REMARK SMILES IDX 81 87 82 88 83 89 84 90 60 91 61 92 70 93 62 94 63 95 69 96
REMARK SMILES IDX 71 97 64 98 65 99 66 100 67 101 68 102
REMARK H PARENT 10 23 92 52 58 63
REMARK Flexibility Score: inf
ROOT
ATOM      1  O   UNL A   1      40.225  25.293  27.545  1.00  0.00    -0.377 OA
ENDROOT
BRANCH   1   2
ATOM      2  C   UNL A   1      39.231  24.388  27.104  1.00  0.00     0.188 C 
BRANCH   2   3
ATOM      3  C   UNL A   1      39.625  22.945  26.828  1.00  0.00     0.188 C 
BRANCH   3   4
ATOM      4  O   UNL A   1      38.657  22.137  26.189  1.00  0.00    -0.376 OA
BRANCH   4   5
ATOM      5  C   UNL A   1      37.522  22.803  25.639  1.00  0.00     0.202 C 
BRANCH   5   6
ATOM      6  C   UNL A   1      37.128  22.508  24.186  1.00  0.00     0.261 C 
BRANCH   6   7
ATOM      7  O   UNL A   1      35.796  21.916  24.032  1.00  0.00    -0.463 OA
BRANCH   7   8
ATOM      8  C   UNL A   1      34.801  22.795  23.772  1.00  0.00     0.312 C 
ATOM      9  O   UNL A   1      34.915  23.637  22.877  1.00  0.00    -0.252 OA
BRANCH   8  10
ATOM     10  C   UNL A   1      33.532  22.786  24.690  1.00  0.00     0.074 C 
ATOM     11  C   UNL A   1      32.863  20.454  23.804  1.00  0.00    -0.010 C 
ATOM     12  C   UNL A   1      32.707  19.859  25.207  1.00  0.00     0.003 C 
ATOM     13  C   UNL A   1      32.494  21.964  23.807  1.00  0.00     0.022 C 
ATOM     14  C   UNL A   1      33.419  20.656  26.282  1.00  0.00     0.001 C 
ATOM     15  C   UNL A   1      33.365  22.160  26.098  1.00  0.00     0.019 C 
BRANCH  11  16
ATOM     16  C   UNL A   1      32.119  19.558  22.802  1.00  0.00     0.000 C 
ATOM     17  C   UNL A   1      32.572  18.107  22.853  1.00  0.00     0.004 C 
ENDBRANCH  11  16
BRANCH  10  18
ATOM     18  C   UNL A   1      33.145  24.324  24.835  1.00  0.00     0.080 C 
BRANCH  18  19
ATOM     19  C   UNL A   1      31.621  24.762  24.880  1.00  0.00     0.263 C 
BRANCH  19  20
ATOM     20  N   UNL A   1      31.192  26.111  25.290  1.00  0.00    -0.331 N 
ATOM     21  C   UNL A   1      29.917  26.601  24.778  1.00  0.00     0.291 C 
ATOM     22  C   UNL A   1      32.186  27.174  24.981  1.00  0.00     0.291 C 
ATOM     23  H   UNL A   1      31.089  25.949  26.291  1.00  0.00     0.348 HD
ATOM     24  C   UNL A   1      29.936  26.993  23.292  1.00  0.00     0.221 C 
ATOM     25  C   UNL A   1      32.185  27.653  23.508  1.00  0.00     0.221 C 
ATOM     26  O   UNL A   1      30.879  28.040  23.059  1.00  0.00    -0.370 OA
ENDBRANCH  19  20
ENDBRANCH  18  19
ENDBRANCH  10  18
ENDBRANCH   8  10
ENDBRANCH   7   8
ENDBRANCH   6   7
ENDBRANCH   5   6
ENDBRANCH   4   5
ENDBRANCH   3   4
ENDBRANCH   2   3
ENDBRANCH   1   2
BRANCH   1  27
ATOM     27  C   UNL A   1      40.343  26.562  26.924  1.00  0.00     0.188 C 
BRANCH  27  28
ATOM     28  C   UNL A   1      41.657  26.909  26.227  1.00  0.00     0.188 C 
BRANCH  28  29
ATOM     29  O   UNL A   1      42.078  26.133  25.103  1.00  0.00    -0.376 OA
BRANCH  29  30
ATOM     30  C   UNL A   1      42.652  24.846  25.302  1.00  0.00     0.202 C 
BRANCH  30  31
ATOM     31  C   UNL A   1      44.096  24.812  25.787  1.00  0.00     0.261 C 
BRANCH  31  32
ATOM     32  O   UNL A   1      44.213  24.268  27.105  1.00  0.00    -0.460 OA
BRANCH  32  33
ATOM     33  C   UNL A   1      45.036  24.953  27.926  1.00  0.00     0.338 C 
ATOM     34  O   UNL A   1      46.243  24.791  28.074  1.00  0.00    -0.246 OA
BRANCH  33  35
ATOM     35  C   UNL A   1      44.289  26.038  28.570  1.00  0.00     0.060 A 
ATOM     36  C   UNL A   1      44.697  27.358  28.348  1.00  0.00     0.016 A 
ATOM     37  C   UNL A   1      43.264  25.742  29.472  1.00  0.00     0.016 A 
ATOM     38  C   UNL A   1      44.126  28.388  29.084  1.00  0.00     0.010 A 
ATOM     39  C   UNL A   1      42.700  26.774  30.217  1.00  0.00     0.010 A 
ATOM     40  C   UNL A   1      43.165  28.092  30.059  1.00  0.00    -0.014 A 
BRANCH  40  41
ATOM     41  C   UNL A   1      42.776  29.127  31.038  1.00  0.00     0.031 A 
ATOM     42  C   UNL A   1      43.622  29.305  32.270  1.00  0.00     0.074 A 
ATOM     43  C   UNL A   1      41.700  29.901  30.818  1.00  0.00     0.049 A 
ATOM     44  N   UNL A   1      43.437  30.091  33.296  1.00  0.00    -0.248 NA
ATOM     45  C   UNL A   1      44.839  28.477  32.357  1.00  0.00     0.031 C 
ATOM     46  C   UNL A   1      40.840  29.833  29.638  1.00  0.00     0.029 A 
ATOM     47  N   UNL A   1      41.143  30.886  31.589  1.00  0.00    -0.354 N 
ATOM     48  C   UNL A   1      44.505  29.851  34.152  1.00  0.00     0.074 A 
ATOM     49  C   UNL A   1      45.316  28.821  33.545  1.00  0.00     0.031 C 
ATOM     50  C   UNL A   1      39.848  30.729  29.773  1.00  0.00     0.029 A 
ATOM     51  C   UNL A   1      39.984  31.402  31.063  1.00  0.00     0.049 A 
ATOM     52  H   UNL A   1      41.535  31.195  32.439  1.00  0.00     0.167 HD
ATOM     53  C   UNL A   1      44.785  30.447  35.335  1.00  0.00     0.037 A 
ATOM     54  C   UNL A   1      39.119  32.294  31.584  1.00  0.00     0.037 A 
ATOM     55  C   UNL A   1      43.963  31.471  35.926  1.00  0.00     0.049 A 
ATOM     56  C   UNL A   1      39.416  32.893  32.934  1.00  0.00     0.074 A 
ATOM     57  C   UNL A   1      44.155  32.150  37.116  1.00  0.00     0.029 A 
ATOM     58  N   UNL A   1      42.787  31.959  35.373  1.00  0.00    -0.354 N 
ATOM     59  N   UNL A   1      40.436  32.671  33.731  1.00  0.00    -0.248 NA
ATOM     60  C   UNL A   1      38.448  33.867  33.456  1.00  0.00     0.031 C 
ATOM     61  C   UNL A   1      43.068  33.008  37.310  1.00  0.00     0.029 A 
ATOM     62  C   UNL A   1      42.230  32.912  36.210  1.00  0.00     0.049 A 
ATOM     63  H   UNL A   1      42.405  31.670  34.513  1.00  0.00     0.167 HD
ATOM     64  C   UNL A   1      40.246  33.499  34.833  1.00  0.00     0.074 A 
ATOM     65  C   UNL A   1      39.023  34.237  34.591  1.00  0.00     0.031 C 
ATOM     66  C   UNL A   1      41.012  33.638  35.946  1.00  0.00     0.037 A 
BRANCH  53  67
ATOM     67  C   UNL A   1      46.012  29.994  36.078  1.00  0.00     0.058 A 
ATOM     68  C   UNL A   1      47.259  30.615  35.899  1.00  0.00     0.135 A 
ATOM     69  C   UNL A   1      45.933  28.952  37.017  1.00  0.00     0.135 A 
ATOM     70  F   UNL A   1      47.400  31.602  34.999  1.00  0.00    -0.206 F 
ATOM     71  C   UNL A   1      48.385  30.208  36.610  1.00  0.00     0.059 A 
ATOM     72  C   UNL A   1      47.038  28.549  37.760  1.00  0.00     0.059 A 
ATOM     73  F   UNL A   1      44.768  28.316  37.225  1.00  0.00    -0.206 F 
ATOM     74  C   UNL A   1      48.262  29.178  37.543  1.00  0.00     0.060 A 
BRANCH  74  75
ATOM     75  S   UNL A   1      49.727  28.682  38.475  1.00  0.00     0.124 S 
ATOM     76  O   UNL A   1      50.669  28.379  37.401  1.00  0.00    -0.237 OA
ATOM     77  O   UNL A   1      50.020  29.880  39.255  1.00  0.00    -0.237 OA
ATOM     78  O   UNL A   1      49.267  27.531  39.246  1.00  0.00    -0.744 OA
ENDBRANCH  74  75
ENDBRANCH  53  67
BRANCH  54  79
ATOM     79  C   UNL A   1      37.884  32.653  30.838  1.00  0.00     0.058 A 
ATOM     80  C   UNL A   1      36.705  31.908  30.980  1.00  0.00     0.135 A 
ATOM     81  C   UNL A   1      37.861  33.751  29.961  1.00  0.00     0.135 A 
ATOM     82  F   UNL A   1      36.677  30.845  31.799  1.00  0.00    -0.206 F 
ATOM     83  C   UNL A   1      35.553  32.223  30.266  1.00  0.00     0.059 A 
ATOM     84  C   UNL A   1      36.713  34.104  29.260  1.00  0.00     0.059 A 
ATOM     85  F   UNL A   1      38.958  34.505  29.797  1.00  0.00    -0.206 F 
ATOM     86  C   UNL A   1      35.566  33.325  29.411  1.00  0.00     0.060 A 
BRANCH  86  87
ATOM     87  S   UNL A   1      34.056  33.746  28.515  1.00  0.00     0.124 S 
ATOM     88  O   UNL A   1      33.271  34.401  29.553  1.00  0.00    -0.237 OA
ATOM     89  O   UNL A   1      34.563  34.612  27.454  1.00  0.00    -0.237 OA
ATOM     90  O   UNL A   1      33.558  32.449  28.069  1.00  0.00    -0.744 OA
ENDBRANCH  86  87
ENDBRANCH  54  79
BRANCH  66  91
ATOM     91  C   UNL A   1      40.569  34.652  36.967  1.00  0.00     0.058 A 
ATOM     92  C   UNL A   1      39.578  34.360  37.918  1.00  0.00     0.135 A 
ATOM     93  C   UNL A   1      41.177  35.917  37.020  1.00  0.00     0.135 A 
ATOM     94  F   UNL A   1      38.962  33.169  37.910  1.00  0.00    -0.206 F 
ATOM     95  C   UNL A   1      39.183  35.300  38.865  1.00  0.00     0.059 A 
ATOM     96  C   UNL A   1      40.821  36.859  37.980  1.00  0.00     0.059 A 
ATOM     97  F   UNL A   1      42.139  36.243  36.144  1.00  0.00    -0.206 F 
ATOM     98  C   UNL A   1      39.811  36.547  38.889  1.00  0.00     0.060 A 
BRANCH  98  99
ATOM     99  S   UNL A   1      39.302  37.748  40.136  1.00  0.00     0.124 S 
ATOM    100  O   UNL A   1      38.151  38.372  39.490  1.00  0.00    -0.237 OA
ATOM    101  O   UNL A   1      39.000  36.897  41.283  1.00  0.00    -0.237 OA
ATOM    102  O   UNL A   1      40.476  38.601  40.287  1.00  0.00    -0.744 OA
ENDBRANCH  98  99
ENDBRANCH  66  91
ENDBRANCH  40  41
ENDBRANCH  33  35
ENDBRANCH  32  33
ENDBRANCH  31  32
ENDBRANCH  30  31
ENDBRANCH  29  30
ENDBRANCH  28  29
ENDBRANCH  27  28
ENDBRANCH   1  27
TORSDOF 27
ENDMDL
MODEL 2
REMARK VINA RESULT:      -8.0      8.232     13.025
REMARK SMILES CC[C@@H]1CCC[C@@](CC[NH+]2CCOCC2)(C(=O)OCCOCCOCCOCCOC(=O)c2ccc(-c3c4nc(c(-c5c(F)cc(S(=O)(=O)[O-])cc5F)c5ccc([nH]5)c(-c5c(F)cc(S(=O)(=O)[O-])cc5F)c5nc(c(-c6c(F)cc(S(=O)(=O)[O-])cc6F)c6ccc3[nH]6)C=C5)C=C4)cc2)C1
REMARK SMILES IDX 24 1 23 2 22 3 21 4 20 5 19 6 18 7 16 8 17 9 7 10 3 11 4 12
REMARK SMILES IDX 99 13 5 14 6 15 2 16 1 17 8 18 9 19 10 20 11 21 15 22 12 24
REMARK SMILES IDX 14 25 13 26 25 27 26 28 27 29 28 30 29 31 30 32 31 33 32 34
REMARK SMILES IDX 33 35 34 36 98 37 35 38 97 39 36 40 37 41 38 42 91 43 39 44
REMARK SMILES IDX 96 45 90 46 92 47 40 48 95 49 89 50 88 51 41 53 75 54 54 55
REMARK SMILES IDX 74 56 55 57 58 58 73 59 93 60 56 61 57 62 72 64 94 65 59 66
REMARK SMILES IDX 42 67 43 68 52 69 44 70 45 71 51 72 53 73 46 74 47 75 48 76
REMARK SMILES IDX 49 77 50 78 76 79 77 80 86 81 78 82 79 83 85 84 87 85 80 86
REMARK SMILES IDX 81 87 82 88 83 89 84 90 60 91 61 92 70 93 62 94 63 95 69 96
REMARK SMILES IDX 71 97 64 98 65 99 66 100 67 101 68 102
REMARK H PARENT 10 23 92 52 58 63
REMARK Flexibility Score: inf
ROOT
ATOM      1  O   UNL A   1      39.967  24.924  27.300  1.00  0.00    -0.377 OA
ENDROOT
BRANCH   1   2
ATOM      2  C   UNL A   1      38.902  24.523  26.459  1.00  0.00     0.188 C 
BRANCH   2   3
ATOM      3  C   UNL A   1      38.604  23.038  26.313  1.00  0.00     0.188 C 
BRANCH   3   4
ATOM      4  O   UNL A   1      37.431  22.696  25.604  1.00  0.00    -0.376 OA
BRANCH   4   5
ATOM      5  C   UNL A   1      36.672  23.772  25.054  1.00  0.00     0.202 C 
BRANCH   5   6
ATOM      6  C   UNL A   1      35.255  23.485  24.538  1.00  0.00     0.261 C 
BRANCH   6   7
ATOM      7  O   UNL A   1      35.084  22.149  23.963  1.00  0.00    -0.463 OA
BRANCH   7   8
ATOM      8  C   UNL A   1      34.169  21.368  24.583  1.00  0.00     0.312 C 
ATOM      9  O   UNL A   1      34.435  20.793  25.641  1.00  0.00    -0.252 OA
BRANCH   8  10
ATOM     10  C   UNL A   1      32.787  21.132  23.882  1.00  0.00     0.074 C 
ATOM     11  C   UNL A   1      31.672  22.892  25.409  1.00  0.00    -0.010 C 
ATOM     12  C   UNL A   1      31.055  23.659  24.234  1.00  0.00     0.003 C 
ATOM     13  C   UNL A   1      31.767  21.375  25.080  1.00  0.00     0.022 C 
ATOM     14  C   UNL A   1      31.723  23.367  22.906  1.00  0.00     0.001 C 
ATOM     15  C   UNL A   1      32.151  21.925  22.713  1.00  0.00     0.019 C 
BRANCH  11  16
ATOM     16  C   UNL A   1      30.929  23.278  26.696  1.00  0.00     0.000 C 
ATOM     17  C   UNL A   1      30.183  24.598  26.577  1.00  0.00     0.004 C 
ENDBRANCH  11  16
BRANCH  10  18
ATOM     18  C   UNL A   1      32.844  19.611  23.413  1.00  0.00     0.080 C 
BRANCH  18  19
ATOM     19  C   UNL A   1      32.369  18.456  24.391  1.00  0.00     0.263 C 
BRANCH  19  20
ATOM     20  N   UNL A   1      33.251  17.866  25.414  1.00  0.00    -0.331 N 
ATOM     21  C   UNL A   1      34.559  17.383  24.984  1.00  0.00     0.291 C 
ATOM     22  C   UNL A   1      32.630  16.737  26.158  1.00  0.00     0.291 C 
ATOM     23  H   UNL A   1      33.395  18.689  25.997  1.00  0.00     0.348 HD
ATOM     24  C   UNL A   1      34.520  16.077  24.175  1.00  0.00     0.221 C 
ATOM     25  C   UNL A   1      32.640  15.382  25.408  1.00  0.00     0.221 C 
ATOM     26  O   UNL A   1      33.950  15.020  24.948  1.00  0.00    -0.370 OA
ENDBRANCH  19  20
ENDBRANCH  18  19
ENDBRANCH  10  18
ENDBRANCH   8  10
ENDBRANCH   7   8
ENDBRANCH   6   7
ENDBRANCH   5   6
ENDBRANCH   4   5
ENDBRANCH   3   4
ENDBRANCH   2   3
ENDBRANCH   1   2
BRANCH   1  27
ATOM     27  C   UNL A   1      40.884  25.907  26.848  1.00  0.00     0.188 C 
BRANCH  27  28
ATOM     28  C   UNL A   1      42.304  25.466  26.494  1.00  0.00     0.188 C 
BRANCH  28  29
ATOM     29  O   UNL A   1      42.492  24.357  25.613  1.00  0.00    -0.376 OA
BRANCH  29  30
ATOM     30  C   UNL A   1      42.342  23.028  26.099  1.00  0.00     0.202 C 
BRANCH  30  31
ATOM     31  C   UNL A   1      43.620  22.217  26.272  1.00  0.00     0.261 C 
BRANCH  31  32
ATOM     32  O   UNL A   1      44.613  22.923  27.021  1.00  0.00    -0.460 OA
BRANCH  32  33
ATOM     33  C   UNL A   1      45.788  23.093  26.380  1.00  0.00     0.338 C 
ATOM     34  O   UNL A   1      46.415  22.256  25.739  1.00  0.00    -0.246 OA
BRANCH  33  35
ATOM     35  C   UNL A   1      46.186  24.503  26.459  1.00  0.00     0.060 A 
ATOM     36  C   UNL A   1      46.074  25.297  25.312  1.00  0.00     0.016 A 
ATOM     37  C   UNL A   1      46.768  25.001  27.627  1.00  0.00     0.016 A 
ATOM     38  C   UNL A   1      46.611  26.578  25.307  1.00  0.00     0.010 A 
ATOM     39  C   UNL A   1      47.314  26.281  27.617  1.00  0.00     0.010 A 
ATOM     40  C   UNL A   1      47.280  27.052  26.442  1.00  0.00    -0.014 A 
BRANCH  40  41
ATOM     41  C   UNL A   1      48.101  28.277  26.346  1.00  0.00     0.031 A 
ATOM     42  C   UNL A   1      47.439  29.606  26.587  1.00  0.00     0.074 A 
ATOM     43  C   UNL A   1      49.412  28.196  26.067  1.00  0.00     0.049 A 
ATOM     44  N   UNL A   1      47.935  30.810  26.485  1.00  0.00    -0.248 NA
ATOM     45  C   UNL A   1      46.022  29.572  26.992  1.00  0.00     0.031 C 
ATOM     46  C   UNL A   1      50.154  26.953  25.856  1.00  0.00     0.029 A 
ATOM     47  N   UNL A   1      50.347  29.182  25.900  1.00  0.00    -0.354 N 
ATOM     48  C   UNL A   1      46.895  31.675  26.805  1.00  0.00     0.074 A 
ATOM     49  C   UNL A   1      45.730  30.862  27.070  1.00  0.00     0.031 C 
ATOM     50  C   UNL A   1      51.431  27.256  25.567  1.00  0.00     0.029 A 
ATOM     51  C   UNL A   1      51.584  28.709  25.537  1.00  0.00     0.049 A 
ATOM     52  H   UNL A   1      50.152  30.139  26.027  1.00  0.00     0.167 HD
ATOM     53  C   UNL A   1      46.918  33.027  26.880  1.00  0.00     0.037 A 
ATOM     54  C   UNL A   1      52.699  29.378  25.188  1.00  0.00     0.037 A 
ATOM     55  C   UNL A   1      48.089  33.820  26.609  1.00  0.00     0.049 A 
ATOM     56  C   UNL A   1      52.681  30.885  25.212  1.00  0.00     0.074 A 
ATOM     57  C   UNL A   1      48.229  35.195  26.662  1.00  0.00     0.029 A 
ATOM     58  N   UNL A   1      49.322  33.308  26.228  1.00  0.00    -0.354 N 
ATOM     59  N   UNL A   1      51.698  31.695  25.530  1.00  0.00    -0.248 NA
ATOM     60  C   UNL A   1      53.924  31.570  24.833  1.00  0.00     0.031 C 
ATOM     61  C   UNL A   1      49.528  35.518  26.259  1.00  0.00     0.029 A 
ATOM     62  C   UNL A   1      50.220  34.340  26.017  1.00  0.00     0.049 A 
ATOM     63  H   UNL A   1      49.527  32.351  26.123  1.00  0.00     0.167 HD
ATOM     64  C   UNL A   1      52.212  32.983  25.417  1.00  0.00     0.074 A 
ATOM     65  C   UNL A   1      53.598  32.842  25.018  1.00  0.00     0.031 C 
ATOM     66  C   UNL A   1      51.598  34.176  25.624  1.00  0.00     0.037 A 
BRANCH  53  67
ATOM     67  C   UNL A   1      45.641  33.733  27.243  1.00  0.00     0.058 A 
ATOM     68  C   UNL A   1      44.783  34.264  26.266  1.00  0.00     0.135 A 
ATOM     69  C   UNL A   1      45.245  33.843  28.587  1.00  0.00     0.135 A 
ATOM     70  F   UNL A   1      45.120  34.208  24.967  1.00  0.00    -0.206 F 
ATOM     71  C   UNL A   1      43.589  34.893  26.608  1.00  0.00     0.059 A 
ATOM     72  C   UNL A   1      44.042  34.440  28.949  1.00  0.00     0.059 A 
ATOM     73  F   UNL A   1      46.029  33.360  29.564  1.00  0.00    -0.206 F 
ATOM     74  C   UNL A   1      43.225  34.971  27.953  1.00  0.00     0.060 A 
BRANCH  74  75
ATOM     75  S   UNL A   1      41.659  35.766  28.376  1.00  0.00     0.124 S 
ATOM     76  O   UNL A   1      42.064  37.164  28.491  1.00  0.00    -0.237 OA
ATOM     77  O   UNL A   1      40.825  35.441  27.224  1.00  0.00    -0.237 OA
ATOM     78  O   UNL A   1      41.276  35.120  29.627  1.00  0.00    -0.744 OA
ENDBRANCH  74  75
ENDBRANCH  53  67
BRANCH  54  79
ATOM     79  C   UNL A   1      53.913  28.630  24.768  1.00  0.00     0.058 A 
ATOM     80  C   UNL A   1      54.984  28.425  25.651  1.00  0.00     0.135 A 
ATOM     81  C   UNL A   1      54.029  28.108  23.469  1.00  0.00     0.135 A 
ATOM     82  F   UNL A   1      54.926  28.910  26.900  1.00  0.00    -0.206 F 
ATOM     83  C   UNL A   1      56.134  27.747  25.257  1.00  0.00     0.059 A 
ATOM     84  C   UNL A   1      55.155  27.401  23.062  1.00  0.00     0.059 A 
ATOM     85  F   UNL A   1      53.030  28.266  22.588  1.00  0.00    -0.206 F 
ATOM     86  C   UNL A   1      56.208  27.236  23.961  1.00  0.00     0.060 A 
BRANCH  86  87
ATOM     87  S   UNL A   1      57.690  26.329  23.470  1.00  0.00     0.124 S 
ATOM     88  O   UNL A   1      57.482  25.046  24.129  1.00  0.00    -0.237 OA
ATOM     89  O   UNL A   1      57.578  26.326  22.014  1.00  0.00    -0.237 OA
ATOM     90  O   UNL A   1      58.776  27.146  24.006  1.00  0.00    -0.744 OA
ENDBRANCH  86  87
ENDBRANCH  54  79
BRANCH  66  91
ATOM     91  C   UNL A   1      52.429  35.420  25.459  1.00  0.00     0.058 A 
ATOM     92  C   UNL A   1      53.122  35.996  26.536  1.00  0.00     0.135 A 
ATOM     93  C   UNL A   1      52.569  36.016  24.195  1.00  0.00     0.135 A 
ATOM     94  F   UNL A   1      53.020  35.469  27.766  1.00  0.00    -0.206 F 
ATOM     95  C   UNL A   1      53.896  37.140  26.372  1.00  0.00     0.059 A 
ATOM     96  C   UNL A   1      53.366  37.140  24.002  1.00  0.00     0.059 A 
ATOM     97  F   UNL A   1      51.940  35.499  23.129  1.00  0.00    -0.206 F 
ATOM     98  C   UNL A   1      54.013  37.704  25.100  1.00  0.00     0.060 A 
BRANCH  98  99
ATOM     99  S   UNL A   1      55.039  39.176  24.898  1.00  0.00     0.124 S 
ATOM    100  O   UNL A   1      56.067  38.693  23.980  1.00  0.00    -0.237 OA
ATOM    101  O   UNL A   1      54.095  40.139  24.341  1.00  0.00    -0.237 OA
ATOM    102  O   UNL A   1      55.493  39.464  26.254  1.00  0.00    -0.744 OA
ENDBRANCH  98  99
ENDBRANCH  66  91
ENDBRANCH  40  41
ENDBRANCH  33  35
ENDBRANCH  32  33
ENDBRANCH  31  32
ENDBRANCH  30  31
ENDBRANCH  29  30
ENDBRANCH  28  29
ENDBRANCH  27  28
ENDBRANCH   1  27
TORSDOF 27
ENDMDL
MODEL 3
REMARK VINA RESULT:      -7.5      6.639     14.049
REMARK SMILES CC[C@@H]1CCC[C@@](CC[NH+]2CCOCC2)(C(=O)OCCOCCOCCOCCOC(=O)c2ccc(-c3c4nc(c(-c5c(F)cc(S(=O)(=O)[O-])cc5F)c5ccc([nH]5)c(-c5c(F)cc(S(=O)(=O)[O-])cc5F)c5nc(c(-c6c(F)cc(S(=O)(=O)[O-])cc6F)c6ccc3[nH]6)C=C5)C=C4)cc2)C1
REMARK SMILES IDX 24 1 23 2 22 3 21 4 20 5 19 6 18 7 16 8 17 9 7 10 3 11 4 12
REMARK SMILES IDX 99 13 5 14 6 15 2 16 1 17 8 18 9 19 10 20 11 21 15 22 12 24
REMARK SMILES IDX 14 25 13 26 25 27 26 28 27 29 28 30 29 31 30 32 31 33 32 34
REMARK SMILES IDX 33 35 34 36 98 37 35 38 97 39 36 40 37 41 38 42 91 43 39 44
REMARK SMILES IDX 96 45 90 46 92 47 40 48 95 49 89 50 88 51 41 53 75 54 54 55
REMARK SMILES IDX 74 56 55 57 58 58 73 59 93 60 56 61 57 62 72 64 94 65 59 66
REMARK SMILES IDX 42 67 43 68 52 69 44 70 45 71 51 72 53 73 46 74 47 75 48 76
REMARK SMILES IDX 49 77 50 78 76 79 77 80 86 81 78 82 79 83 85 84 87 85 80 86
REMARK SMILES IDX 81 87 82 88 83 89 84 90 60 91 61 92 70 93 62 94 63 95 69 96
REMARK SMILES IDX 71 97 64 98 65 99 66 100 67 101 68 102
REMARK H PARENT 10 23 92 52 58 63
REMARK Flexibility Score: inf
ROOT
ATOM      1  O   UNL A   1      39.778  28.008  32.101  1.00  0.00    -0.377 OA
ENDROOT
BRANCH   1   2
ATOM      2  C   UNL A   1      40.504  28.538  33.193  1.00  0.00     0.188 C 
BRANCH   2   3
ATOM      3  C   UNL A   1      41.672  27.739  33.752  1.00  0.00     0.188 C 
BRANCH   3   4
ATOM      4  O   UNL A   1      41.612  27.409  35.125  1.00  0.00    -0.376 OA
BRANCH   4   5
ATOM      5  C   UNL A   1      41.573  26.021  35.455  1.00  0.00     0.202 C 
BRANCH   5   6
ATOM      6  C   UNL A   1      41.597  25.615  36.935  1.00  0.00     0.261 C 
BRANCH   6   7
ATOM      7  O   UNL A   1      42.916  25.210  37.426  1.00  0.00    -0.463 OA
BRANCH   7   8
ATOM      8  C   UNL A   1      43.891  26.138  37.292  1.00  0.00     0.312 C 
ATOM      9  O   UNL A   1      43.775  27.260  37.793  1.00  0.00    -0.252 OA
BRANCH   8  10
ATOM     10  C   UNL A   1      45.137  25.794  36.407  1.00  0.00     0.074 C 
ATOM     11  C   UNL A   1      46.293  24.652  38.415  1.00  0.00    -0.010 C 
ATOM     12  C   UNL A   1      46.584  23.364  37.638  1.00  0.00     0.003 C 
ATOM     13  C   UNL A   1      46.325  25.882  37.464  1.00  0.00     0.022 C 
ATOM     14  C   UNL A   1      45.722  23.198  36.402  1.00  0.00     0.001 C 
ATOM     15  C   UNL A   1      45.445  24.481  35.643  1.00  0.00     0.019 C 
BRANCH  11  16
ATOM     16  C   UNL A   1      47.208  24.703  39.647  1.00  0.00     0.000 C 
ATOM     17  C   UNL A   1      47.780  26.089  39.904  1.00  0.00     0.004 C 
ENDBRANCH  11  16
BRANCH  10  18
ATOM     18  C   UNL A   1      45.181  26.962  35.325  1.00  0.00     0.080 C 
BRANCH  18  19
ATOM     19  C   UNL A   1      46.175  26.870  34.092  1.00  0.00     0.263 C 
BRANCH  19  20
ATOM     20  N   UNL A   1      45.996  25.903  32.995  1.00  0.00    -0.331 N 
ATOM     21  C   UNL A   1      47.036  25.835  31.974  1.00  0.00     0.291 C 
ATOM     22  C   UNL A   1      44.716  26.070  32.255  1.00  0.00     0.291 C 
ATOM     23  H   UNL A   1      46.026  25.039  33.535  1.00  0.00     0.348 HD
ATOM     24  C   UNL A   1      47.053  27.026  31.004  1.00  0.00     0.221 C 
ATOM     25  C   UNL A   1      44.716  27.212  31.209  1.00  0.00     0.221 C 
ATOM     26  O   UNL A   1      45.817  27.117  30.294  1.00  0.00    -0.370 OA
ENDBRANCH  19  20
ENDBRANCH  18  19
ENDBRANCH  10  18
ENDBRANCH   8  10
ENDBRANCH   7   8
ENDBRANCH   6   7
ENDBRANCH   5   6
ENDBRANCH   4   5
ENDBRANCH   3   4
ENDBRANCH   2   3
ENDBRANCH   1   2
BRANCH   1  27
ATOM     27  C   UNL A   1      38.393  28.290  31.978  1.00  0.00     0.188 C 
BRANCH  27  28
ATOM     28  C   UNL A   1      37.787  29.357  32.888  1.00  0.00     0.188 C 
BRANCH  28  29
ATOM     29  O   UNL A   1      36.492  29.879  32.586  1.00  0.00    -0.376 OA
BRANCH  29  30
ATOM     30  C   UNL A   1      36.276  31.286  32.575  1.00  0.00     0.202 C 
BRANCH  30  31
ATOM     31  C   UNL A   1      35.638  31.869  31.321  1.00  0.00     0.261 C 
BRANCH  31  32
ATOM     32  O   UNL A   1      36.216  31.343  30.123  1.00  0.00    -0.460 OA
BRANCH  32  33
ATOM     33  C   UNL A   1      37.221  32.082  29.609  1.00  0.00     0.338 C 
ATOM     34  O   UNL A   1      37.212  33.285  29.368  1.00  0.00    -0.246 OA
BRANCH  33  35
ATOM     35  C   UNL A   1      38.418  31.247  29.470  1.00  0.00     0.060 A 
ATOM     36  C   UNL A   1      39.488  31.455  30.349  1.00  0.00     0.016 A 
ATOM     37  C   UNL A   1      38.522  30.344  28.410  1.00  0.00     0.016 A 
ATOM     38  C   UNL A   1      40.697  30.808  30.127  1.00  0.00     0.010 A 
ATOM     39  C   UNL A   1      39.737  29.704  28.182  1.00  0.00     0.010 A 
ATOM     40  C   UNL A   1      40.840  29.974  29.011  1.00  0.00    -0.014 A 
BRANCH  40  41
ATOM     41  C   UNL A   1      42.188  29.525  28.605  1.00  0.00     0.031 A 
ATOM     42  C   UNL A   1      42.384  28.078  28.242  1.00  0.00     0.074 A 
ATOM     43  C   UNL A   1      43.206  30.399  28.547  1.00  0.00     0.049 A 
ATOM     44  N   UNL A   1      43.483  27.443  27.931  1.00  0.00    -0.248 NA
ATOM     45  C   UNL A   1      41.178  27.231  28.238  1.00  0.00     0.031 C 
ATOM     46  C   UNL A   1      43.109  31.828  28.840  1.00  0.00     0.029 A 
ATOM     47  N   UNL A   1      44.525  30.206  28.232  1.00  0.00    -0.354 N 
ATOM     48  C   UNL A   1      43.104  26.126  27.699  1.00  0.00     0.074 A 
ATOM     49  C   UNL A   1      41.682  26.042  27.941  1.00  0.00     0.031 C 
ATOM     50  C   UNL A   1      44.327  32.381  28.710  1.00  0.00     0.029 A 
ATOM     51  C   UNL A   1      45.290  31.339  28.363  1.00  0.00     0.049 A 
ATOM     52  H   UNL A   1      44.890  29.338  27.941  1.00  0.00     0.167 HD
ATOM     53  C   UNL A   1      43.877  25.085  27.311  1.00  0.00     0.037 A 
ATOM     54  C   UNL A   1      46.622  31.502  28.245  1.00  0.00     0.037 A 
ATOM     55  C   UNL A   1      45.294  25.188  27.077  1.00  0.00     0.049 A 
ATOM     56  C   UNL A   1      47.472  30.312  27.879  1.00  0.00     0.074 A 
ATOM     57  C   UNL A   1      46.175  24.200  26.673  1.00  0.00     0.029 A 
ATOM     58  N   UNL A   1      46.040  26.348  27.234  1.00  0.00    -0.354 N 
ATOM     59  N   UNL A   1      47.104  29.074  27.648  1.00  0.00    -0.248 NA
ATOM     60  C   UNL A   1      48.917  30.543  27.753  1.00  0.00     0.031 C 
ATOM     61  C   UNL A   1      47.460  24.748  26.639  1.00  0.00     0.029 A 
ATOM     62  C   UNL A   1      47.374  26.095  26.960  1.00  0.00     0.049 A 
ATOM     63  H   UNL A   1      45.675  27.222  27.502  1.00  0.00     0.167 HD
ATOM     64  C   UNL A   1      48.268  28.384  27.322  1.00  0.00     0.074 A 
ATOM     65  C   UNL A   1      49.348  29.349  27.370  1.00  0.00     0.031 C 
ATOM     66  C   UNL A   1      48.432  27.073  27.010  1.00  0.00     0.037 A 
BRANCH  53  67
ATOM     67  C   UNL A   1      43.216  23.745  27.136  1.00  0.00     0.058 A 
ATOM     68  C   UNL A   1      43.077  22.843  28.203  1.00  0.00     0.135 A 
ATOM     69  C   UNL A   1      42.674  23.373  25.895  1.00  0.00     0.135 A 
ATOM     70  F   UNL A   1      43.595  23.134  29.408  1.00  0.00    -0.206 F 
ATOM     71  C   UNL A   1      42.441  21.615  28.042  1.00  0.00     0.059 A 
ATOM     72  C   UNL A   1      42.008  22.165  25.718  1.00  0.00     0.059 A 
ATOM     73  F   UNL A   1      42.784  24.193  24.837  1.00  0.00    -0.206 F 
ATOM     74  C   UNL A   1      41.904  21.288  26.796  1.00  0.00     0.060 A 
BRANCH  74  75
ATOM     75  S   UNL A   1      41.058  19.703  26.612  1.00  0.00     0.124 S 
ATOM     76  O   UNL A   1      39.866  20.093  25.864  1.00  0.00    -0.237 OA
ATOM     77  O   UNL A   1      42.038  18.912  25.875  1.00  0.00    -0.237 OA
ATOM     78  O   UNL A   1      40.823  19.280  27.989  1.00  0.00    -0.744 OA
ENDBRANCH  74  75
ENDBRANCH  53  67
BRANCH  54  79
ATOM     79  C   UNL A   1      47.232  32.834  28.498  1.00  0.00     0.058 A 
ATOM     80  C   UNL A   1      47.558  33.251  29.797  1.00  0.00     0.135 A 
ATOM     81  C   UNL A   1      47.498  33.722  27.442  1.00  0.00     0.135 A 
ATOM     82  F   UNL A   1      47.316  32.444  30.841  1.00  0.00    -0.206 F 
ATOM     83  C   UNL A   1      48.106  34.506  30.045  1.00  0.00     0.059 A 
ATOM     84  C   UNL A   1      48.073  34.969  27.660  1.00  0.00     0.059 A 
ATOM     85  F   UNL A   1      47.216  33.369  26.179  1.00  0.00    -0.206 F 
ATOM     86  C   UNL A   1      48.362  35.357  28.968  1.00  0.00     0.060 A 
BRANCH  86  87
ATOM     87  S   UNL A   1      49.105  36.969  29.296  1.00  0.00     0.124 S 
ATOM     88  O   UNL A   1      48.934  37.639  28.013  1.00  0.00    -0.237 OA
ATOM     89  O   UNL A   1      48.279  37.468  30.392  1.00  0.00    -0.237 OA
ATOM     90  O   UNL A   1      50.480  36.638  29.658  1.00  0.00    -0.744 OA
ENDBRANCH  86  87
ENDBRANCH  54  79
BRANCH  66  91
ATOM     91  C   UNL A   1      49.823  26.615  26.661  1.00  0.00     0.058 A 
ATOM     92  C   UNL A   1      50.334  26.722  25.358  1.00  0.00     0.135 A 
ATOM     93  C   UNL A   1      50.670  26.101  27.657  1.00  0.00     0.135 A 
ATOM     94  F   UNL A   1      49.565  27.202  24.368  1.00  0.00    -0.206 F 
ATOM     95  C   UNL A   1      51.624  26.306  25.047  1.00  0.00     0.059 A 
ATOM     96  C   UNL A   1      51.975  25.710  27.375  1.00  0.00     0.059 A 
ATOM     97  F   UNL A   1      50.239  25.988  28.922  1.00  0.00    -0.206 F 
ATOM     98  C   UNL A   1      52.438  25.801  26.063  1.00  0.00     0.060 A 
BRANCH  98  99
ATOM     99  S   UNL A   1      54.117  25.284  25.650  1.00  0.00     0.124 S 
ATOM    100  O   UNL A   1      54.638  26.478  24.991  1.00  0.00    -0.237 OA
ATOM    101  O   UNL A   1      54.683  24.987  26.961  1.00  0.00    -0.237 OA
ATOM    102  O   UNL A   1      53.914  24.128  24.783  1.00  0.00    -0.744 OA
ENDBRANCH  98  99
ENDBRANCH  66  91
ENDBRANCH  40  41
ENDBRANCH  33  35
ENDBRANCH  32  33
ENDBRANCH  31  32
ENDBRANCH  30  31
ENDBRANCH  29  30
ENDBRANCH  28  29
ENDBRANCH  27  28
ENDBRANCH   1  27
TORSDOF 27
ENDMDL
