MODEL 1
REMARK VINA RESULT:     -10.4      0.000      0.000
REMARK SMILES C[C@@H]1CCC[C@@]1(C(=O)OCCOCCOCCOCCOC(=O)c1ccc(-c2c3nc(c(-c4c(F)cc(S(=O)(=O)[O-])cc4F)c4ccc([nH]4)c(-c4c(F)cc(S(=O)(=O)[O-])cc4F)c4nc(c(-c5c(F)cc(S(=O)(=O)[O-])cc5F)c5ccc2[nH]5)C=C4)C=C3)cc1)c1ccc(Cl)cc1Cl
REMARK SMILES IDX 16 1 15 2 14 3 13 4 12 5 11 6 10 7 9 8 7 9 8 10 6 11 1 12
REMARK SMILES IDX 2 13 3 14 4 15 5 16 90 17 91 18 96 19 92 20 95 21 97 22
REMARK SMILES IDX 93 23 94 24 17 25 18 26 19 27 20 28 21 29 22 30 23 31 24 32
REMARK SMILES IDX 25 33 89 34 26 35 88 36 27 37 28 38 29 39 82 40 30 41 87 42
REMARK SMILES IDX 81 43 83 44 31 45 86 46 80 47 79 48 32 50 66 51 45 52 65 53
REMARK SMILES IDX 46 54 49 55 64 56 84 57 47 58 48 59 63 61 85 62 50 63 33 64
REMARK SMILES IDX 34 65 43 66 35 67 36 68 42 69 44 70 37 71 38 72 39 73 40 74
REMARK SMILES IDX 41 75 67 76 68 77 77 78 69 79 70 80 76 81 78 82 71 83 72 84
REMARK SMILES IDX 73 85 74 86 75 87 51 88 52 89 61 90 53 91 54 92 60 93 62 94
REMARK SMILES IDX 55 95 56 96 57 97 58 98 59 99
REMARK H PARENT 83 49 49 60
REMARK Flexibility Score: inf
ROOT
ATOM      1  C   UNL A   1      36.317  22.006  25.797  1.00  0.00     0.188 C 
ENDROOT
BRANCH   1   2
ATOM      2  O   UNL A   1      35.299  21.123  25.321  1.00  0.00    -0.377 OA
BRANCH   2   3
ATOM      3  C   UNL A   1      34.148  20.917  26.121  1.00  0.00     0.188 C 
BRANCH   3   4
ATOM      4  C   UNL A   1      32.891  20.548  25.343  1.00  0.00     0.188 C 
BRANCH   4   5
ATOM      5  O   UNL A   1      31.995  21.636  25.232  1.00  0.00    -0.376 OA
BRANCH   5   6
ATOM      6  C   UNL A   1      31.860  22.520  26.346  1.00  0.00     0.202 C 
BRANCH   6   7
ATOM      7  C   UNL A   1      30.770  23.603  26.436  1.00  0.00     0.261 C 
BRANCH   7   8
ATOM      8  O   UNL A   1      31.125  24.949  26.865  1.00  0.00    -0.463 OA
BRANCH   8   9
ATOM      9  C   UNL A   1      30.964  25.919  25.912  1.00  0.00     0.316 C 
ATOM     10  O   UNL A   1      29.852  26.224  25.471  1.00  0.00    -0.251 OA
BRANCH   9  11
ATOM     11  C   UNL A   1      32.261  26.539  25.284  1.00  0.00     0.097 C 
ATOM     12  C   UNL A   1      31.516  25.765  22.846  1.00  0.00     0.009 C 
ATOM     13  C   UNL A   1      32.416  26.623  23.712  1.00  0.00     0.008 C 
ATOM     14  C   UNL A   1      33.863  26.197  23.374  1.00  0.00     0.005 C 
ATOM     15  C   UNL A   1      34.308  25.266  24.481  1.00  0.00     0.002 C 
ATOM     16  C   UNL A   1      33.366  25.479  25.657  1.00  0.00     0.024 C 
BRANCH  11  17
ATOM     17  C   UNL A   1      32.648  27.946  25.912  1.00  0.00    -0.012 A 
ATOM     18  C   UNL A   1      33.658  27.972  26.910  1.00  0.00     0.008 A 
ATOM     19  C   UNL A   1      32.145  29.220  25.557  1.00  0.00     0.046 A 
ATOM     20  C   UNL A   1      34.196  29.151  27.438  1.00  0.00     0.021 A 
ATOM     21  C   UNL A   1      32.684  30.408  26.093  1.00  0.00     0.041 A 
ATOM     22  Cl  UNL A   1      30.807  29.543  24.530  1.00  0.00    -0.084 Cl
ATOM     23  C   UNL A   1      33.714  30.371  27.013  1.00  0.00     0.042 A 
ATOM     24  Cl  UNL A   1      34.358  31.829  27.652  1.00  0.00    -0.084 Cl
ENDBRANCH  11  17
ENDBRANCH   9  11
ENDBRANCH   8   9
ENDBRANCH   7   8
ENDBRANCH   6   7
ENDBRANCH   5   6
ENDBRANCH   4   5
ENDBRANCH   3   4
ENDBRANCH   2   3
ENDBRANCH   1   2
BRANCH   1  25
ATOM     25  C   UNL A   1      37.713  21.830  25.208  1.00  0.00     0.188 C 
BRANCH  25  26
ATOM     26  O   UNL A   1      38.609  20.981  25.926  1.00  0.00    -0.376 OA
BRANCH  26  27
ATOM     27  C   UNL A   1      39.978  21.365  26.025  1.00  0.00     0.202 C 
BRANCH  27  28
ATOM     28  C   UNL A   1      40.323  22.275  27.202  1.00  0.00     0.261 C 
BRANCH  28  29
ATOM     29  O   UNL A   1      40.549  23.634  26.795  1.00  0.00    -0.460 OA
BRANCH  29  30
ATOM     30  C   UNL A   1      41.559  24.259  27.444  1.00  0.00     0.338 C 
ATOM     31  O   UNL A   1      42.723  23.901  27.504  1.00  0.00    -0.246 OA
BRANCH  30  32
ATOM     32  C   UNL A   1      41.094  25.531  28.029  1.00  0.00     0.060 A 
ATOM     33  C   UNL A   1      42.040  26.551  28.188  1.00  0.00     0.016 A 
ATOM     34  C   UNL A   1      39.805  25.665  28.555  1.00  0.00     0.016 A 
ATOM     35  C   UNL A   1      41.732  27.669  28.960  1.00  0.00     0.010 A 
ATOM     36  C   UNL A   1      39.498  26.786  29.333  1.00  0.00     0.010 A 
ATOM     37  C   UNL A   1      40.482  27.758  29.589  1.00  0.00    -0.014 A 
BRANCH  37  38
ATOM     38  C   UNL A   1      40.308  28.730  30.695  1.00  0.00     0.031 A 
ATOM     39  C   UNL A   1      41.208  28.608  31.899  1.00  0.00     0.074 A 
ATOM     40  C   UNL A   1      39.419  29.733  30.606  1.00  0.00     0.049 A 
ATOM     41  N   UNL A   1      41.255  29.342  32.980  1.00  0.00    -0.248 NA
ATOM     42  C   UNL A   1      42.188  27.509  31.879  1.00  0.00     0.031 C 
ATOM     43  C   UNL A   1      38.526  29.973  29.475  1.00  0.00     0.029 A 
ATOM     44  N   UNL A   1      39.125  30.740  31.489  1.00  0.00    -0.354 N 
ATOM     45  C   UNL A   1      42.262  28.795  33.766  1.00  0.00     0.074 A 
ATOM     46  C   UNL A   1      42.780  27.647  33.055  1.00  0.00     0.031 C 
ATOM     47  C   UNL A   1      37.776  31.059  29.735  1.00  0.00     0.029 A 
ATOM     48  C   UNL A   1      38.124  31.576  31.058  1.00  0.00     0.049 A 
ATOM     49  H   UNL A   1      39.587  30.853  32.351  1.00  0.00     0.167 HD
ATOM     50  C   UNL A   1      42.724  29.216  34.968  1.00  0.00     0.037 A 
ATOM     51  C   UNL A   1      37.551  32.632  31.669  1.00  0.00     0.037 A 
ATOM     52  C   UNL A   1      42.206  30.359  35.671  1.00  0.00     0.049 A 
ATOM     53  C   UNL A   1      38.053  33.059  33.024  1.00  0.00     0.074 A 
ATOM     54  C   UNL A   1      42.595  30.868  36.897  1.00  0.00     0.029 A 
ATOM     55  N   UNL A   1      41.183  31.174  35.205  1.00  0.00    -0.354 N 
ATOM     56  N   UNL A   1      39.009  32.534  33.754  1.00  0.00    -0.248 NA
ATOM     57  C   UNL A   1      37.408  34.231  33.631  1.00  0.00     0.031 C 
ATOM     58  C   UNL A   1      41.785  31.971  37.189  1.00  0.00     0.029 A 
ATOM     59  C   UNL A   1      40.922  32.177  36.122  1.00  0.00     0.049 A 
ATOM     60  H   UNL A   1      40.714  31.056  34.348  1.00  0.00     0.167 HD
ATOM     61  C   UNL A   1      39.103  33.332  34.890  1.00  0.00     0.074 A 
ATOM     62  C   UNL A   1      38.109  34.376  34.747  1.00  0.00     0.031 C 
ATOM     63  C   UNL A   1      39.937  33.215  35.953  1.00  0.00     0.037 A 
BRANCH  50  64
ATOM     64  C   UNL A   1      43.826  28.415  35.603  1.00  0.00     0.058 A 
ATOM     65  C   UNL A   1      45.179  28.670  35.326  1.00  0.00     0.135 A 
ATOM     66  C   UNL A   1      43.527  27.383  36.507  1.00  0.00     0.135 A 
ATOM     67  F   UNL A   1      45.521  29.631  34.453  1.00  0.00    -0.206 F 
ATOM     68  C   UNL A   1      46.195  27.911  35.899  1.00  0.00     0.059 A 
ATOM     69  C   UNL A   1      44.527  26.627  37.110  1.00  0.00     0.059 A 
ATOM     70  F   UNL A   1      42.250  27.094  36.802  1.00  0.00    -0.206 F 
ATOM     71  C   UNL A   1      45.859  26.888  36.788  1.00  0.00     0.060 A 
BRANCH  71  72
ATOM     72  S   UNL A   1      47.184  25.905  37.519  1.00  0.00     0.124 S 
ATOM     73  O   UNL A   1      47.911  25.468  36.330  1.00  0.00    -0.237 OA
ATOM     74  O   UNL A   1      47.871  26.879  38.360  1.00  0.00    -0.237 OA
ATOM     75  O   UNL A   1      46.470  24.854  38.238  1.00  0.00    -0.744 OA
ENDBRANCH  71  72
ENDBRANCH  50  64
BRANCH  51  76
ATOM     76  C   UNL A   1      36.440  33.362  31.001  1.00  0.00     0.058 A 
ATOM     77  C   UNL A   1      35.118  33.243  31.452  1.00  0.00     0.135 A 
ATOM     78  C   UNL A   1      36.685  34.196  29.900  1.00  0.00     0.135 A 
ATOM     79  F   UNL A   1      34.834  32.450  32.496  1.00  0.00    -0.206 F 
ATOM     80  C   UNL A   1      34.072  33.913  30.826  1.00  0.00     0.059 A 
ATOM     81  C   UNL A   1      35.659  34.896  29.271  1.00  0.00     0.059 A 
ATOM     82  F   UNL A   1      37.935  34.354  29.438  1.00  0.00    -0.206 F 
ATOM     83  C   UNL A   1      34.354  34.739  29.735  1.00  0.00     0.060 A 
BRANCH  83  84
ATOM     84  S   UNL A   1      32.998  35.646  28.959  1.00  0.00     0.124 S 
ATOM     85  O   UNL A   1      32.356  34.598  28.174  1.00  0.00    -0.237 OA
ATOM     86  O   UNL A   1      32.249  36.128  30.115  1.00  0.00    -0.237 OA
ATOM     87  O   UNL A   1      33.684  36.681  28.191  1.00  0.00    -0.744 OA
ENDBRANCH  83  84
ENDBRANCH  51  76
BRANCH  63  88
ATOM     88  C   UNL A   1      39.851  34.273  37.018  1.00  0.00     0.058 A 
ATOM     89  C   UNL A   1      40.469  35.525  36.870  1.00  0.00     0.135 A 
ATOM     90  C   UNL A   1      39.108  34.041  38.185  1.00  0.00     0.135 A 
ATOM     91  F   UNL A   1      41.192  35.796  35.772  1.00  0.00    -0.206 F 
ATOM     92  C   UNL A   1      40.381  36.498  37.861  1.00  0.00     0.059 A 
ATOM     93  C   UNL A   1      38.985  35.009  39.178  1.00  0.00     0.059 A 
ATOM     94  F   UNL A   1      38.485  32.866  38.369  1.00  0.00    -0.206 F 
ATOM     95  C   UNL A   1      39.639  36.229  39.013  1.00  0.00     0.060 A 
BRANCH  95  96
ATOM     96  S   UNL A   1      39.522  37.501  40.288  1.00  0.00     0.124 S 
ATOM     97  O   UNL A   1      40.722  38.289  40.028  1.00  0.00    -0.237 OA
ATOM     98  O   UNL A   1      38.255  38.152  39.968  1.00  0.00    -0.237 OA
ATOM     99  O   UNL A   1      39.529  36.736  41.532  1.00  0.00    -0.744 OA
ENDBRANCH  95  96
ENDBRANCH  63  88
ENDBRANCH  37  38
ENDBRANCH  30  32
ENDBRANCH  29  30
ENDBRANCH  28  29
ENDBRANCH  27  28
ENDBRANCH  26  27
ENDBRANCH  25  26
ENDBRANCH   1  25
TORSDOF 24
ENDMDL
MODEL 2
REMARK VINA RESULT:      -9.7      2.041      2.796
REMARK SMILES C[C@@H]1CCC[C@@]1(C(=O)OCCOCCOCCOCCOC(=O)c1ccc(-c2c3nc(c(-c4c(F)cc(S(=O)(=O)[O-])cc4F)c4ccc([nH]4)c(-c4c(F)cc(S(=O)(=O)[O-])cc4F)c4nc(c(-c5c(F)cc(S(=O)(=O)[O-])cc5F)c5ccc2[nH]5)C=C4)C=C3)cc1)c1ccc(Cl)cc1Cl
REMARK SMILES IDX 16 1 15 2 14 3 13 4 12 5 11 6 10 7 9 8 7 9 8 10 6 11 1 12
REMARK SMILES IDX 2 13 3 14 4 15 5 16 90 17 91 18 96 19 92 20 95 21 97 22
REMARK SMILES IDX 93 23 94 24 17 25 18 26 19 27 20 28 21 29 22 30 23 31 24 32
REMARK SMILES IDX 25 33 89 34 26 35 88 36 27 37 28 38 29 39 82 40 30 41 87 42
REMARK SMILES IDX 81 43 83 44 31 45 86 46 80 47 79 48 32 50 66 51 45 52 65 53
REMARK SMILES IDX 46 54 49 55 64 56 84 57 47 58 48 59 63 61 85 62 50 63 33 64
REMARK SMILES IDX 34 65 43 66 35 67 36 68 42 69 44 70 37 71 38 72 39 73 40 74
REMARK SMILES IDX 41 75 67 76 68 77 77 78 69 79 70 80 76 81 78 82 71 83 72 84
REMARK SMILES IDX 73 85 74 86 75 87 51 88 52 89 61 90 53 91 54 92 60 93 62 94
REMARK SMILES IDX 55 95 56 96 57 97 58 98 59 99
REMARK H PARENT 83 49 49 60
REMARK Flexibility Score: inf
ROOT
ATOM      1  C   UNL A   1      35.440  21.008  25.583  1.00  0.00     0.188 C 
ENDROOT
BRANCH   1   2
ATOM      2  O   UNL A   1      34.588  20.008  25.021  1.00  0.00    -0.377 OA
BRANCH   2   3
ATOM      3  C   UNL A   1      33.186  20.137  25.185  1.00  0.00     0.188 C 
BRANCH   3   4
ATOM      4  C   UNL A   1      32.551  21.253  24.364  1.00  0.00     0.188 C 
BRANCH   4   5
ATOM      5  O   UNL A   1      32.516  22.479  25.069  1.00  0.00    -0.376 OA
BRANCH   5   6
ATOM      6  C   UNL A   1      31.724  22.558  26.255  1.00  0.00     0.202 C 
BRANCH   6   7
ATOM      7  C   UNL A   1      30.666  23.649  26.491  1.00  0.00     0.261 C 
BRANCH   7   8
ATOM      8  O   UNL A   1      30.356  24.595  25.426  1.00  0.00    -0.463 OA
BRANCH   8   9
ATOM      9  C   UNL A   1      30.417  25.913  25.790  1.00  0.00     0.316 C 
ATOM     10  O   UNL A   1      29.865  26.337  26.809  1.00  0.00    -0.251 OA
BRANCH   9  11
ATOM     11  C   UNL A   1      31.095  26.910  24.786  1.00  0.00     0.097 C 
ATOM     12  C   UNL A   1      28.782  27.296  23.522  1.00  0.00     0.009 C 
ATOM     13  C   UNL A   1      30.207  27.745  23.779  1.00  0.00     0.008 C 
ATOM     14  C   UNL A   1      30.917  27.710  22.407  1.00  0.00     0.005 C 
ATOM     15  C   UNL A   1      31.722  26.429  22.371  1.00  0.00     0.002 C 
ATOM     16  C   UNL A   1      31.864  25.943  23.806  1.00  0.00     0.024 C 
BRANCH  11  17
ATOM     17  C   UNL A   1      32.135  27.888  25.483  1.00  0.00    -0.012 A 
ATOM     18  C   UNL A   1      31.697  29.201  25.805  1.00  0.00     0.008 A 
ATOM     19  C   UNL A   1      33.459  27.597  25.888  1.00  0.00     0.046 A 
ATOM     20  C   UNL A   1      32.459  30.110  26.549  1.00  0.00     0.021 A 
ATOM     21  C   UNL A   1      34.227  28.516  26.633  1.00  0.00     0.041 A 
ATOM     22  Cl  UNL A   1      34.361  26.188  25.504  1.00  0.00    -0.084 Cl
ATOM     23  C   UNL A   1      33.722  29.756  26.974  1.00  0.00     0.042 A 
ATOM     24  Cl  UNL A   1      34.672  30.860  27.884  1.00  0.00    -0.084 Cl
ENDBRANCH  11  17
ENDBRANCH   9  11
ENDBRANCH   8   9
ENDBRANCH   7   8
ENDBRANCH   6   7
ENDBRANCH   5   6
ENDBRANCH   4   5
ENDBRANCH   3   4
ENDBRANCH   2   3
ENDBRANCH   1   2
BRANCH   1  25
ATOM     25  C   UNL A   1      36.847  21.118  25.008  1.00  0.00     0.188 C 
BRANCH  25  26
ATOM     26  O   UNL A   1      37.651  19.938  25.051  1.00  0.00    -0.376 OA
BRANCH  26  27
ATOM     27  C   UNL A   1      39.059  20.080  25.228  1.00  0.00     0.202 C 
BRANCH  27  28
ATOM     28  C   UNL A   1      39.490  21.036  26.338  1.00  0.00     0.261 C 
BRANCH  28  29
ATOM     29  O   UNL A   1      39.649  22.385  25.868  1.00  0.00    -0.460 OA
BRANCH  29  30
ATOM     30  C   UNL A   1      40.795  22.988  26.260  1.00  0.00     0.338 C 
ATOM     31  O   UNL A   1      41.932  22.590  26.075  1.00  0.00    -0.246 OA
BRANCH  30  32
ATOM     32  C   UNL A   1      40.509  24.291  26.890  1.00  0.00     0.060 A 
ATOM     33  C   UNL A   1      41.367  25.355  26.592  1.00  0.00     0.016 A 
ATOM     34  C   UNL A   1      39.522  24.426  27.873  1.00  0.00     0.016 A 
ATOM     35  C   UNL A   1      41.308  26.527  27.342  1.00  0.00     0.010 A 
ATOM     36  C   UNL A   1      39.466  25.601  28.628  1.00  0.00     0.010 A 
ATOM     37  C   UNL A   1      40.401  26.628  28.406  1.00  0.00    -0.014 A 
BRANCH  37  38
ATOM     38  C   UNL A   1      40.606  27.690  29.420  1.00  0.00     0.031 A 
ATOM     39  C   UNL A   1      41.826  27.606  30.303  1.00  0.00     0.074 A 
ATOM     40  C   UNL A   1      39.767  28.735  29.512  1.00  0.00     0.049 A 
ATOM     41  N   UNL A   1      42.224  28.417  31.249  1.00  0.00    -0.248 NA
ATOM     42  C   UNL A   1      42.715  26.452  30.089  1.00  0.00     0.031 C 
ATOM     43  C   UNL A   1      38.580  28.941  28.684  1.00  0.00     0.029 A 
ATOM     44  N   UNL A   1      39.791  29.822  30.347  1.00  0.00    -0.354 N 
ATOM     45  C   UNL A   1      43.404  27.871  31.742  1.00  0.00     0.074 A 
ATOM     46  C   UNL A   1      43.641  26.643  31.015  1.00  0.00     0.031 C 
ATOM     47  C   UNL A   1      37.984  30.087  29.058  1.00  0.00     0.029 A 
ATOM     48  C   UNL A   1      38.735  30.682  30.162  1.00  0.00     0.049 A 
ATOM     49  H   UNL A   1      40.497  29.973  31.016  1.00  0.00     0.167 HD
ATOM     50  C   UNL A   1      44.225  28.354  32.705  1.00  0.00     0.037 A 
ATOM     51  C   UNL A   1      38.412  31.814  30.819  1.00  0.00     0.037 A 
ATOM     52  C   UNL A   1      43.985  29.577  33.424  1.00  0.00     0.049 A 
ATOM     53  C   UNL A   1      39.318  32.312  31.915  1.00  0.00     0.074 A 
ATOM     54  C   UNL A   1      44.747  30.153  34.425  1.00  0.00     0.029 A 
ATOM     55  N   UNL A   1      42.897  30.413  33.215  1.00  0.00    -0.354 N 
ATOM     56  N   UNL A   1      40.433  31.787  32.368  1.00  0.00    -0.248 NA
ATOM     57  C   UNL A   1      38.929  33.564  32.579  1.00  0.00     0.031 C 
ATOM     58  C   UNL A   1      44.102  31.322  34.845  1.00  0.00     0.029 A 
ATOM     59  C   UNL A   1      42.963  31.497  34.074  1.00  0.00     0.049 A 
ATOM     60  H   UNL A   1      42.185  30.259  32.554  1.00  0.00     0.167 HD
ATOM     61  C   UNL A   1      40.895  32.663  33.346  1.00  0.00     0.074 A 
ATOM     62  C   UNL A   1      39.942  33.751  33.414  1.00  0.00     0.031 C 
ATOM     63  C   UNL A   1      42.010  32.577  34.115  1.00  0.00     0.037 A 
BRANCH  50  64
ATOM     64  C   UNL A   1      45.440  27.539  33.049  1.00  0.00     0.058 A 
ATOM     65  C   UNL A   1      45.430  26.601  34.093  1.00  0.00     0.135 A 
ATOM     66  C   UNL A   1      46.631  27.695  32.321  1.00  0.00     0.135 A 
ATOM     67  F   UNL A   1      44.324  26.428  34.835  1.00  0.00    -0.206 F 
ATOM     68  C   UNL A   1      46.564  25.866  34.423  1.00  0.00     0.059 A 
ATOM     69  C   UNL A   1      47.771  26.953  32.618  1.00  0.00     0.059 A 
ATOM     70  F   UNL A   1      46.698  28.582  31.317  1.00  0.00    -0.206 F 
ATOM     71  C   UNL A   1      47.733  26.052  33.681  1.00  0.00     0.060 A 
BRANCH  71  72
ATOM     72  S   UNL A   1      49.201  25.099  34.123  1.00  0.00     0.124 S 
ATOM     73  O   UNL A   1      50.017  25.250  32.921  1.00  0.00    -0.237 OA
ATOM     74  O   UNL A   1      49.684  25.798  35.309  1.00  0.00    -0.237 OA
ATOM     75  O   UNL A   1      48.675  23.758  34.361  1.00  0.00    -0.744 OA
ENDBRANCH  71  72
ENDBRANCH  50  64
BRANCH  51  76
ATOM     76  C   UNL A   1      37.177  32.557  30.452  1.00  0.00     0.058 A 
ATOM     77  C   UNL A   1      37.172  33.485  29.402  1.00  0.00     0.135 A 
ATOM     78  C   UNL A   1      35.976  32.347  31.148  1.00  0.00     0.135 A 
ATOM     79  F   UNL A   1      38.298  33.726  28.714  1.00  0.00    -0.206 F 
ATOM     80  C   UNL A   1      36.024  34.193  29.061  1.00  0.00     0.059 A 
ATOM     81  C   UNL A   1      34.809  33.025  30.811  1.00  0.00     0.059 A 
ATOM     82  F   UNL A   1      35.926  31.460  32.153  1.00  0.00    -0.206 F 
ATOM     83  C   UNL A   1      34.845  33.955  29.772  1.00  0.00     0.060 A 
BRANCH  83  84
ATOM     84  S   UNL A   1      33.346  34.840  29.291  1.00  0.00     0.124 S 
ATOM     85  O   UNL A   1      32.771  33.930  28.307  1.00  0.00    -0.237 OA
ATOM     86  O   UNL A   1      32.631  34.946  30.558  1.00  0.00    -0.237 OA
ATOM     87  O   UNL A   1      33.859  36.101  28.763  1.00  0.00    -0.744 OA
ENDBRANCH  83  84
ENDBRANCH  51  76
BRANCH  63  88
ATOM     88  C   UNL A   1      42.288  33.717  35.055  1.00  0.00     0.058 A 
ATOM     89  C   UNL A   1      43.020  34.846  34.655  1.00  0.00     0.135 A 
ATOM     90  C   UNL A   1      41.783  33.692  36.365  1.00  0.00     0.135 A 
ATOM     91  F   UNL A   1      43.525  34.918  33.413  1.00  0.00    -0.206 F 
ATOM     92  C   UNL A   1      43.270  35.896  35.532  1.00  0.00     0.059 A 
ATOM     93  C   UNL A   1      42.000  34.742  37.251  1.00  0.00     0.059 A 
ATOM     94  F   UNL A   1      41.065  32.641  36.792  1.00  0.00    -0.206 F 
ATOM     95  C   UNL A   1      42.759  35.833  36.830  1.00  0.00     0.060 A 
BRANCH  95  96
ATOM     96  S   UNL A   1      43.079  37.204  37.959  1.00  0.00     0.124 S 
ATOM     97  O   UNL A   1      43.518  38.247  37.037  1.00  0.00    -0.237 OA
ATOM     98  O   UNL A   1      41.775  37.415  38.579  1.00  0.00    -0.237 OA
ATOM     99  O   UNL A   1      44.110  36.677  38.849  1.00  0.00    -0.744 OA
ENDBRANCH  95  96
ENDBRANCH  63  88
ENDBRANCH  37  38
ENDBRANCH  30  32
ENDBRANCH  29  30
ENDBRANCH  28  29
ENDBRANCH  27  28
ENDBRANCH  26  27
ENDBRANCH  25  26
ENDBRANCH   1  25
TORSDOF 24
ENDMDL
MODEL 3
REMARK VINA RESULT:      -9.7      1.192      2.119
REMARK SMILES C[C@@H]1CCC[C@@]1(C(=O)OCCOCCOCCOCCOC(=O)c1ccc(-c2c3nc(c(-c4c(F)cc(S(=O)(=O)[O-])cc4F)c4ccc([nH]4)c(-c4c(F)cc(S(=O)(=O)[O-])cc4F)c4nc(c(-c5c(F)cc(S(=O)(=O)[O-])cc5F)c5ccc2[nH]5)C=C4)C=C3)cc1)c1ccc(Cl)cc1Cl
REMARK SMILES IDX 16 1 15 2 14 3 13 4 12 5 11 6 10 7 9 8 7 9 8 10 6 11 1 12
REMARK SMILES IDX 2 13 3 14 4 15 5 16 90 17 91 18 96 19 92 20 95 21 97 22
REMARK SMILES IDX 93 23 94 24 17 25 18 26 19 27 20 28 21 29 22 30 23 31 24 32
REMARK SMILES IDX 25 33 89 34 26 35 88 36 27 37 28 38 29 39 82 40 30 41 87 42
REMARK SMILES IDX 81 43 83 44 31 45 86 46 80 47 79 48 32 50 66 51 45 52 65 53
REMARK SMILES IDX 46 54 49 55 64 56 84 57 47 58 48 59 63 61 85 62 50 63 33 64
REMARK SMILES IDX 34 65 43 66 35 67 36 68 42 69 44 70 37 71 38 72 39 73 40 74
REMARK SMILES IDX 41 75 67 76 68 77 77 78 69 79 70 80 76 81 78 82 71 83 72 84
REMARK SMILES IDX 73 85 74 86 75 87 51 88 52 89 61 90 53 91 54 92 60 93 62 94
REMARK SMILES IDX 55 95 56 96 57 97 58 98 59 99
REMARK H PARENT 83 49 49 60
REMARK Flexibility Score: inf
ROOT
ATOM      1  C   UNL A   1      36.531  21.771  25.518  1.00  0.00     0.188 C 
ENDROOT
BRANCH   1   2
ATOM      2  O   UNL A   1      36.238  20.491  24.954  1.00  0.00    -0.377 OA
BRANCH   2   3
ATOM      3  C   UNL A   1      34.897  20.034  24.964  1.00  0.00     0.188 C 
BRANCH   3   4
ATOM      4  C   UNL A   1      33.873  21.057  24.484  1.00  0.00     0.188 C 
BRANCH   4   5
ATOM      5  O   UNL A   1      34.435  21.989  23.582  1.00  0.00    -0.376 OA
BRANCH   5   6
ATOM      6  C   UNL A   1      33.564  22.917  22.934  1.00  0.00     0.202 C 
BRANCH   6   7
ATOM      7  C   UNL A   1      33.434  24.390  23.361  1.00  0.00     0.261 C 
BRANCH   7   8
ATOM      8  O   UNL A   1      32.130  24.916  23.744  1.00  0.00    -0.463 OA
BRANCH   8   9
ATOM      9  C   UNL A   1      31.636  25.889  22.919  1.00  0.00     0.316 C 
ATOM     10  O   UNL A   1      31.540  25.726  21.698  1.00  0.00    -0.251 OA
BRANCH   9  11
ATOM     11  C   UNL A   1      31.326  27.290  23.554  1.00  0.00     0.097 C 
ATOM     12  C   UNL A   1      28.715  26.762  23.580  1.00  0.00     0.009 C 
ATOM     13  C   UNL A   1      29.866  27.623  24.061  1.00  0.00     0.008 C 
ATOM     14  C   UNL A   1      29.540  29.062  23.601  1.00  0.00     0.005 C 
ATOM     15  C   UNL A   1      30.362  29.313  22.356  1.00  0.00     0.002 C 
ATOM     16  C   UNL A   1      31.466  28.265  22.323  1.00  0.00     0.024 C 
BRANCH  11  17
ATOM     17  C   UNL A   1      32.366  27.709  24.679  1.00  0.00    -0.012 A 
ATOM     18  C   UNL A   1      33.449  28.549  24.302  1.00  0.00     0.008 A 
ATOM     19  C   UNL A   1      32.323  27.394  26.058  1.00  0.00     0.046 A 
ATOM     20  C   UNL A   1      34.348  29.110  25.216  1.00  0.00     0.021 A 
ATOM     21  C   UNL A   1      33.233  27.956  26.978  1.00  0.00     0.041 A 
ATOM     22  Cl  UNL A   1      31.271  26.272  26.820  1.00  0.00    -0.084 Cl
ATOM     23  C   UNL A   1      34.226  28.821  26.559  1.00  0.00     0.042 A 
ATOM     24  Cl  UNL A   1      35.323  29.497  27.695  1.00  0.00    -0.084 Cl
ENDBRANCH  11  17
ENDBRANCH   9  11
ENDBRANCH   8   9
ENDBRANCH   7   8
ENDBRANCH   6   7
ENDBRANCH   5   6
ENDBRANCH   4   5
ENDBRANCH   3   4
ENDBRANCH   2   3
ENDBRANCH   1   2
BRANCH   1  25
ATOM     25  C   UNL A   1      38.003  22.146  25.649  1.00  0.00     0.188 C 
BRANCH  25  26
ATOM     26  O   UNL A   1      38.932  21.067  25.765  1.00  0.00    -0.376 OA
BRANCH  26  27
ATOM     27  C   UNL A   1      40.242  21.346  26.254  1.00  0.00     0.202 C 
BRANCH  27  28
ATOM     28  C   UNL A   1      40.332  22.453  27.301  1.00  0.00     0.261 C 
BRANCH  28  29
ATOM     29  O   UNL A   1      40.894  23.665  26.770  1.00  0.00    -0.460 OA
BRANCH  29  30
ATOM     30  C   UNL A   1      41.845  24.235  27.547  1.00  0.00     0.338 C 
ATOM     31  O   UNL A   1      42.982  23.834  27.725  1.00  0.00    -0.246 OA
BRANCH  30  32
ATOM     32  C   UNL A   1      41.359  25.507  28.114  1.00  0.00     0.060 A 
ATOM     33  C   UNL A   1      42.296  26.531  28.296  1.00  0.00     0.016 A 
ATOM     34  C   UNL A   1      40.056  25.638  28.604  1.00  0.00     0.016 A 
ATOM     35  C   UNL A   1      41.963  27.650  29.056  1.00  0.00     0.010 A 
ATOM     36  C   UNL A   1      39.723  26.760  29.369  1.00  0.00     0.010 A 
ATOM     37  C   UNL A   1      40.696  27.736  29.650  1.00  0.00    -0.014 A 
BRANCH  37  38
ATOM     38  C   UNL A   1      40.488  28.711  30.747  1.00  0.00     0.031 A 
ATOM     39  C   UNL A   1      41.371  28.612  31.966  1.00  0.00     0.074 A 
ATOM     40  C   UNL A   1      39.583  29.697  30.639  1.00  0.00     0.049 A 
ATOM     41  N   UNL A   1      41.388  29.353  33.043  1.00  0.00    -0.248 NA
ATOM     42  C   UNL A   1      42.371  27.530  31.967  1.00  0.00     0.031 C 
ATOM     43  C   UNL A   1      38.703  29.916  29.493  1.00  0.00     0.029 A 
ATOM     44  N   UNL A   1      39.257  30.704  31.512  1.00  0.00    -0.354 N 
ATOM     45  C   UNL A   1      42.393  28.827  33.848  1.00  0.00     0.074 A 
ATOM     46  C   UNL A   1      42.942  27.685  33.151  1.00  0.00     0.031 C 
ATOM     47  C   UNL A   1      37.931  30.990  29.735  1.00  0.00     0.029 A 
ATOM     48  C   UNL A   1      38.248  31.520  31.060  1.00  0.00     0.049 A 
ATOM     49  H   UNL A   1      39.704  30.830  32.380  1.00  0.00     0.167 HD
ATOM     50  C   UNL A   1      42.829  29.263  35.054  1.00  0.00     0.037 A 
ATOM     51  C   UNL A   1      37.647  32.569  31.657  1.00  0.00     0.037 A 
ATOM     52  C   UNL A   1      42.280  30.401  35.742  1.00  0.00     0.049 A 
ATOM     53  C   UNL A   1      38.121  33.012  33.017  1.00  0.00     0.074 A 
ATOM     54  C   UNL A   1      42.641  30.923  36.971  1.00  0.00     0.029 A 
ATOM     55  N   UNL A   1      41.250  31.195  35.256  1.00  0.00    -0.354 N 
ATOM     56  N   UNL A   1      39.075  32.508  33.764  1.00  0.00    -0.248 NA
ATOM     57  C   UNL A   1      37.446  34.176  33.607  1.00  0.00     0.031 C 
ATOM     58  C   UNL A   1      41.807  32.013  37.244  1.00  0.00     0.029 A 
ATOM     59  C   UNL A   1      40.957  32.198  36.164  1.00  0.00     0.049 A 
ATOM     60  H   UNL A   1      40.796  31.064  34.393  1.00  0.00     0.167 HD
ATOM     61  C   UNL A   1      39.137  33.314  34.897  1.00  0.00     0.074 A 
ATOM     62  C   UNL A   1      38.127  34.340  34.733  1.00  0.00     0.031 C 
ATOM     63  C   UNL A   1      39.957  33.218  35.973  1.00  0.00     0.037 A 
BRANCH  50  64
ATOM     64  C   UNL A   1      43.935  28.486  35.710  1.00  0.00     0.058 A 
ATOM     65  C   UNL A   1      43.671  27.439  36.609  1.00  0.00     0.135 A 
ATOM     66  C   UNL A   1      45.278  28.787  35.433  1.00  0.00     0.135 A 
ATOM     67  F   UNL A   1      42.405  27.124  36.926  1.00  0.00    -0.206 F 
ATOM     68  C   UNL A   1      44.699  26.738  37.231  1.00  0.00     0.059 A 
ATOM     69  C   UNL A   1      46.322  28.083  36.026  1.00  0.00     0.059 A 
ATOM     70  F   UNL A   1      45.587  29.781  34.587  1.00  0.00    -0.206 F 
ATOM     71  C   UNL A   1      46.023  27.070  36.937  1.00  0.00     0.060 A 
BRANCH  71  72
ATOM     72  S   UNL A   1      47.348  26.160  37.757  1.00  0.00     0.124 S 
ATOM     73  O   UNL A   1      48.358  27.202  37.923  1.00  0.00    -0.237 OA
ATOM     74  O   UNL A   1      46.703  25.701  38.982  1.00  0.00    -0.237 OA
ATOM     75  O   UNL A   1      47.682  25.110  36.798  1.00  0.00    -0.744 OA
ENDBRANCH  71  72
ENDBRANCH  50  64
BRANCH  51  76
ATOM     76  C   UNL A   1      36.535  33.276  30.968  1.00  0.00     0.058 A 
ATOM     77  C   UNL A   1      35.207  33.129  31.393  1.00  0.00     0.135 A 
ATOM     78  C   UNL A   1      36.782  34.115  29.871  1.00  0.00     0.135 A 
ATOM     79  F   UNL A   1      34.920  32.331  32.433  1.00  0.00    -0.206 F 
ATOM     80  C   UNL A   1      34.159  33.777  30.747  1.00  0.00     0.059 A 
ATOM     81  C   UNL A   1      35.754  34.793  29.222  1.00  0.00     0.059 A 
ATOM     82  F   UNL A   1      38.037  34.298  29.432  1.00  0.00    -0.206 F 
ATOM     83  C   UNL A   1      34.444  34.609  29.662  1.00  0.00     0.060 A 
BRANCH  83  84
ATOM     84  S   UNL A   1      33.084  35.487  28.860  1.00  0.00     0.124 S 
ATOM     85  O   UNL A   1      32.340  35.987  30.010  1.00  0.00    -0.237 OA
ATOM     86  O   UNL A   1      33.790  36.491  28.070  1.00  0.00    -0.237 OA
ATOM     87  O   UNL A   1      32.423  34.441  28.085  1.00  0.00    -0.744 OA
ENDBRANCH  83  84
ENDBRANCH  51  76
BRANCH  63  88
ATOM     88  C   UNL A   1      39.836  34.280  37.031  1.00  0.00     0.058 A 
ATOM     89  C   UNL A   1      39.122  34.063  38.220  1.00  0.00     0.135 A 
ATOM     90  C   UNL A   1      40.474  35.518  36.864  1.00  0.00     0.135 A 
ATOM     91  F   UNL A   1      38.492  32.895  38.427  1.00  0.00    -0.206 F 
ATOM     92  C   UNL A   1      39.017  35.052  39.193  1.00  0.00     0.059 A 
ATOM     93  C   UNL A   1      40.405  36.512  37.835  1.00  0.00     0.059 A 
ATOM     94  F   UNL A   1      41.181  35.771  35.752  1.00  0.00    -0.206 F 
ATOM     95  C   UNL A   1      39.660  36.275  38.989  1.00  0.00     0.060 A 
BRANCH  95  96
ATOM     96  S   UNL A   1      39.527  37.549  40.262  1.00  0.00     0.124 S 
ATOM     97  O   UNL A   1      38.819  36.835  41.319  1.00  0.00    -0.237 OA
ATOM     98  O   UNL A   1      40.925  37.865  40.538  1.00  0.00    -0.237 OA
ATOM     99  O   UNL A   1      38.771  38.609  39.602  1.00  0.00    -0.744 OA
ENDBRANCH  95  96
ENDBRANCH  63  88
ENDBRANCH  37  38
ENDBRANCH  30  32
ENDBRANCH  29  30
ENDBRANCH  28  29
ENDBRANCH  27  28
ENDBRANCH  26  27
ENDBRANCH  25  26
ENDBRANCH   1  25
TORSDOF 24
ENDMDL
