MODEL 1
REMARK VINA RESULT:      -7.3      0.000      0.000
REMARK SMILES CC(C)(C[NH2+]CCc1cccnc1)C(=O)OCCOCCOCCOCCOC(=O)c1ccc(-c2c3nc(c(-c4c(F)cc(S(=O)(=O)[O-])cc4F)c4ccc([nH]4)c(-c4c(F)cc(S(=O)(=O)[O-])cc4F)c4nc(c(-c5c(F)cc(S(=O)(=O)[O-])cc5F)c5ccc2[nH]5)C=C4)C=C3)cc1
REMARK SMILES IDX 21 1 20 2 19 3 18 4 17 5 16 6 14 7 15 8 2 9 1 10 3 11 4 12
REMARK SMILES IDX 5 13 6 16 7 17 8 18 9 19 13 20 10 21 12 22 11 23 22 24 23 25
REMARK SMILES IDX 24 26 25 27 26 28 27 29 28 30 29 31 30 32 31 33 32 34 96 35
REMARK SMILES IDX 33 36 95 37 34 38 35 39 36 40 89 41 37 42 94 43 88 44 90 45
REMARK SMILES IDX 38 46 93 47 87 48 86 49 39 51 73 52 52 53 72 54 53 55 56 56
REMARK SMILES IDX 71 57 91 58 54 59 55 60 70 62 92 63 57 64 40 65 41 66 50 67
REMARK SMILES IDX 42 68 43 69 49 70 51 71 44 72 45 73 46 74 47 75 48 76 74 77
REMARK SMILES IDX 75 78 84 79 76 80 77 81 83 82 85 83 78 84 79 85 80 86 81 87
REMARK SMILES IDX 82 88 58 89 59 90 68 91 60 92 61 93 67 94 69 95 62 96 63 97
REMARK SMILES IDX 64 98 65 99 66 100
REMARK H PARENT 5 14 5 15 90 50 56 61
REMARK Flexibility Score: inf
ROOT
ATOM      1  C   UNL A   1      46.468  25.134  26.888  1.00  0.00     0.188 C 
ENDROOT
BRANCH   1   2
ATOM      2  C   UNL A   1      45.765  23.780  26.974  1.00  0.00     0.188 C 
BRANCH   2   3
ATOM      3  O   UNL A   1      46.244  22.723  26.180  1.00  0.00    -0.376 OA
BRANCH   3   4
ATOM      4  C   UNL A   1      45.736  22.475  24.881  1.00  0.00     0.202 C 
BRANCH   4   5
ATOM      5  C   UNL A   1      44.389  22.958  24.301  1.00  0.00     0.261 C 
BRANCH   5   6
ATOM      6  O   UNL A   1      43.188  22.225  24.586  1.00  0.00    -0.463 OA
BRANCH   6   7
ATOM      7  C   UNL A   1      42.438  22.694  25.609  1.00  0.00     0.317 C 
ATOM      8  O   UNL A   1      42.177  23.887  25.752  1.00  0.00    -0.251 OA
BRANCH   7   9
ATOM      9  C   UNL A   1      41.914  21.624  26.591  1.00  0.00     0.111 C 
ATOM     10  C   UNL A   1      42.275  22.151  28.003  1.00  0.00     0.029 C 
ATOM     11  C   UNL A   1      42.784  20.381  26.319  1.00  0.00     0.029 C 
BRANCH   9  12
ATOM     12  C   UNL A   1      40.399  21.193  26.471  1.00  0.00     0.278 C 
BRANCH  12  13
ATOM     13  N   UNL A   1      39.582  22.139  25.698  1.00  0.00    -0.345 N 
ATOM     14  H   UNL A   1      39.785  21.982  24.710  1.00  0.00     0.346 HD
ATOM     15  H   UNL A   1      39.839  23.059  26.053  1.00  0.00     0.346 HD
BRANCH  13  16
ATOM     16  C   UNL A   1      38.135  22.063  25.864  1.00  0.00     0.265 C 
BRANCH  16  17
ATOM     17  C   UNL A   1      37.498  23.469  25.769  1.00  0.00     0.098 C 
BRANCH  17  18
ATOM     18  C   UNL A   1      36.282  23.661  24.882  1.00  0.00    -0.024 A 
ATOM     19  C   UNL A   1      35.208  24.448  25.310  1.00  0.00     0.007 A 
ATOM     20  C   UNL A   1      36.203  23.191  23.572  1.00  0.00     0.114 A 
ATOM     21  C   UNL A   1      34.125  24.685  24.462  1.00  0.00     0.020 A 
ATOM     22  N   UNL A   1      35.156  23.379  22.732  1.00  0.00    -0.264 NA
ATOM     23  C   UNL A   1      34.139  24.123  23.199  1.00  0.00     0.111 A 
ENDBRANCH  17  18
ENDBRANCH  16  17
ENDBRANCH  13  16
ENDBRANCH  12  13
ENDBRANCH   9  12
ENDBRANCH   7   9
ENDBRANCH   6   7
ENDBRANCH   5   6
ENDBRANCH   4   5
ENDBRANCH   3   4
ENDBRANCH   2   3
ENDBRANCH   1   2
BRANCH   1  24
ATOM     24  O   UNL A   1      45.698  26.316  26.893  1.00  0.00    -0.377 OA
BRANCH  24  25
ATOM     25  C   UNL A   1      44.679  26.494  27.862  1.00  0.00     0.188 C 
BRANCH  25  26
ATOM     26  C   UNL A   1      43.205  26.599  27.440  1.00  0.00     0.188 C 
BRANCH  26  27
ATOM     27  O   UNL A   1      42.630  27.880  27.637  1.00  0.00    -0.376 OA
BRANCH  27  28
ATOM     28  C   UNL A   1      41.251  28.062  27.370  1.00  0.00     0.202 C 
BRANCH  28  29
ATOM     29  C   UNL A   1      40.220  27.556  28.392  1.00  0.00     0.261 C 
BRANCH  29  30
ATOM     30  O   UNL A   1      39.818  28.469  29.421  1.00  0.00    -0.460 OA
BRANCH  30  31
ATOM     31  C   UNL A   1      39.094  29.551  29.050  1.00  0.00     0.338 C 
ATOM     32  O   UNL A   1      38.020  29.552  28.490  1.00  0.00    -0.246 OA
BRANCH  31  33
ATOM     33  C   UNL A   1      39.763  30.744  29.616  1.00  0.00     0.060 A 
ATOM     34  C   UNL A   1      41.098  30.640  30.028  1.00  0.00     0.016 A 
ATOM     35  C   UNL A   1      39.081  31.959  29.727  1.00  0.00     0.016 A 
ATOM     36  C   UNL A   1      41.744  31.742  30.587  1.00  0.00     0.010 A 
ATOM     37  C   UNL A   1      39.722  33.057  30.311  1.00  0.00     0.010 A 
ATOM     38  C   UNL A   1      41.045  32.941  30.777  1.00  0.00    -0.014 A 
BRANCH  38  39
ATOM     39  C   UNL A   1      41.620  33.987  31.656  1.00  0.00     0.031 A 
ATOM     40  C   UNL A   1      42.378  35.115  31.007  1.00  0.00     0.074 A 
ATOM     41  C   UNL A   1      41.446  33.963  32.989  1.00  0.00     0.049 A 
ATOM     42  N   UNL A   1      43.004  36.123  31.556  1.00  0.00    -0.248 NA
ATOM     43  C   UNL A   1      42.433  35.103  29.535  1.00  0.00     0.031 C 
ATOM     44  C   UNL A   1      40.689  32.952  33.725  1.00  0.00     0.029 A 
ATOM     45  N   UNL A   1      41.901  34.817  33.963  1.00  0.00    -0.354 N 
ATOM     46  C   UNL A   1      43.532  36.857  30.501  1.00  0.00     0.074 A 
ATOM     47  C   UNL A   1      43.181  36.165  29.281  1.00  0.00     0.031 C 
ATOM     48  C   UNL A   1      40.743  33.236  35.038  1.00  0.00     0.029 A 
ATOM     49  C   UNL A   1      41.567  34.428  35.239  1.00  0.00     0.049 A 
ATOM     50  H   UNL A   1      42.418  35.631  33.767  1.00  0.00     0.167 HD
ATOM     51  C   UNL A   1      44.239  38.011  30.545  1.00  0.00     0.037 A 
ATOM     52  C   UNL A   1      41.910  34.960  36.431  1.00  0.00     0.037 A 
ATOM     53  C   UNL A   1      44.586  38.691  31.765  1.00  0.00     0.049 A 
ATOM     54  C   UNL A   1      42.769  36.202  36.459  1.00  0.00     0.074 A 
ATOM     55  C   UNL A   1      45.292  39.869  31.922  1.00  0.00     0.029 A 
ATOM     56  N   UNL A   1      44.260  38.247  33.039  1.00  0.00    -0.354 N 
ATOM     57  N   UNL A   1      43.249  36.898  35.455  1.00  0.00    -0.248 NA
ATOM     58  C   UNL A   1      43.130  36.733  37.781  1.00  0.00     0.031 C 
ATOM     59  C   UNL A   1      45.447  40.106  33.291  1.00  0.00     0.029 A 
ATOM     60  C   UNL A   1      44.777  39.113  33.988  1.00  0.00     0.049 A 
ATOM     61  H   UNL A   1      43.738  37.436  33.239  1.00  0.00     0.167 HD
ATOM     62  C   UNL A   1      43.941  37.964  36.024  1.00  0.00     0.074 A 
ATOM     63  C   UNL A   1      43.805  37.827  37.459  1.00  0.00     0.031 C 
ATOM     64  C   UNL A   1      44.622  38.967  35.415  1.00  0.00     0.037 A 
BRANCH  51  65
ATOM     65  C   UNL A   1      44.713  38.591  29.240  1.00  0.00     0.058 A 
ATOM     66  C   UNL A   1      43.970  39.556  28.542  1.00  0.00     0.135 A 
ATOM     67  C   UNL A   1      45.946  38.195  28.696  1.00  0.00     0.135 A 
ATOM     68  F   UNL A   1      42.773  39.954  29.004  1.00  0.00    -0.206 F 
ATOM     69  C   UNL A   1      44.421  40.091  27.339  1.00  0.00     0.059 A 
ATOM     70  C   UNL A   1      46.431  38.740  27.511  1.00  0.00     0.059 A 
ATOM     71  F   UNL A   1      46.694  37.270  29.317  1.00  0.00    -0.206 F 
ATOM     72  C   UNL A   1      45.655  39.679  26.834  1.00  0.00     0.060 A 
BRANCH  72  73
ATOM     73  S   UNL A   1      46.232  40.395  25.279  1.00  0.00     0.124 S 
ATOM     74  O   UNL A   1      46.745  39.215  24.589  1.00  0.00    -0.237 OA
ATOM     75  O   UNL A   1      45.009  40.968  24.729  1.00  0.00    -0.237 OA
ATOM     76  O   UNL A   1      47.240  41.362  25.702  1.00  0.00    -0.744 OA
ENDBRANCH  72  73
ENDBRANCH  51  65
BRANCH  52  77
ATOM     77  C   UNL A   1      41.464  34.316  37.697  1.00  0.00     0.058 A 
ATOM     78  C   UNL A   1      40.300  34.736  38.359  1.00  0.00     0.135 A 
ATOM     79  C   UNL A   1      42.202  33.273  38.279  1.00  0.00     0.135 A 
ATOM     80  F   UNL A   1      39.565  35.738  37.852  1.00  0.00    -0.206 F 
ATOM     81  C   UNL A   1      39.894  34.160  39.558  1.00  0.00     0.059 A 
ATOM     82  C   UNL A   1      41.800  32.660  39.462  1.00  0.00     0.059 A 
ATOM     83  F   UNL A   1      43.320  32.827  37.686  1.00  0.00    -0.206 F 
ATOM     84  C   UNL A   1      40.649  33.119  40.101  1.00  0.00     0.060 A 
BRANCH  84  85
ATOM     85  S   UNL A   1      40.087  32.348  41.634  1.00  0.00     0.124 S 
ATOM     86  O   UNL A   1      41.299  31.673  42.085  1.00  0.00    -0.237 OA
ATOM     87  O   UNL A   1      39.668  33.503  42.420  1.00  0.00    -0.237 OA
ATOM     88  O   UNL A   1      39.004  31.473  41.193  1.00  0.00    -0.744 OA
ENDBRANCH  84  85
ENDBRANCH  52  77
BRANCH  64  89
ATOM     89  C   UNL A   1      45.241  40.025  36.291  1.00  0.00     0.058 A 
ATOM     90  C   UNL A   1      46.459  39.818  36.958  1.00  0.00     0.135 A 
ATOM     91  C   UNL A   1      44.634  41.286  36.413  1.00  0.00     0.135 A 
ATOM     92  F   UNL A   1      47.081  38.631  36.879  1.00  0.00    -0.206 F 
ATOM     93  C   UNL A   1      47.040  40.815  37.735  1.00  0.00     0.059 A 
ATOM     94  C   UNL A   1      45.214  42.308  37.158  1.00  0.00     0.059 A 
ATOM     95  F   UNL A   1      43.475  41.542  35.786  1.00  0.00    -0.206 F 
ATOM     96  C   UNL A   1      46.411  42.059  37.825  1.00  0.00     0.060 A 
BRANCH  96  97
ATOM     97  S   UNL A   1      47.195  43.355  38.808  1.00  0.00     0.124 S 
ATOM     98  O   UNL A   1      47.262  44.453  37.849  1.00  0.00    -0.237 OA
ATOM     99  O   UNL A   1      46.247  43.528  39.904  1.00  0.00    -0.237 OA
ATOM    100  O   UNL A   1      48.479  42.770  39.182  1.00  0.00    -0.744 OA
ENDBRANCH  96  97
ENDBRANCH  64  89
ENDBRANCH  38  39
ENDBRANCH  31  33
ENDBRANCH  30  31
ENDBRANCH  29  30
ENDBRANCH  28  29
ENDBRANCH  27  28
ENDBRANCH  26  27
ENDBRANCH  25  26
ENDBRANCH  24  25
ENDBRANCH   1  24
TORSDOF 28
ENDMDL
MODEL 2
REMARK VINA RESULT:      -7.2      6.587     12.154
REMARK SMILES CC(C)(C[NH2+]CCc1cccnc1)C(=O)OCCOCCOCCOCCOC(=O)c1ccc(-c2c3nc(c(-c4c(F)cc(S(=O)(=O)[O-])cc4F)c4ccc([nH]4)c(-c4c(F)cc(S(=O)(=O)[O-])cc4F)c4nc(c(-c5c(F)cc(S(=O)(=O)[O-])cc5F)c5ccc2[nH]5)C=C4)C=C3)cc1
REMARK SMILES IDX 21 1 20 2 19 3 18 4 17 5 16 6 14 7 15 8 2 9 1 10 3 11 4 12
REMARK SMILES IDX 5 13 6 16 7 17 8 18 9 19 13 20 10 21 12 22 11 23 22 24 23 25
REMARK SMILES IDX 24 26 25 27 26 28 27 29 28 30 29 31 30 32 31 33 32 34 96 35
REMARK SMILES IDX 33 36 95 37 34 38 35 39 36 40 89 41 37 42 94 43 88 44 90 45
REMARK SMILES IDX 38 46 93 47 87 48 86 49 39 51 73 52 52 53 72 54 53 55 56 56
REMARK SMILES IDX 71 57 91 58 54 59 55 60 70 62 92 63 57 64 40 65 41 66 50 67
REMARK SMILES IDX 42 68 43 69 49 70 51 71 44 72 45 73 46 74 47 75 48 76 74 77
REMARK SMILES IDX 75 78 84 79 76 80 77 81 83 82 85 83 78 84 79 85 80 86 81 87
REMARK SMILES IDX 82 88 58 89 59 90 68 91 60 92 61 93 67 94 69 95 62 96 63 97
REMARK SMILES IDX 64 98 65 99 66 100
REMARK H PARENT 5 14 5 15 90 50 56 61
REMARK Flexibility Score: inf
ROOT
ATOM      1  C   UNL A   1      34.938  35.692  33.235  1.00  0.00     0.188 C 
ENDROOT
BRANCH   1   2
ATOM      2  C   UNL A   1      33.921  36.829  33.144  1.00  0.00     0.188 C 
BRANCH   2   3
ATOM      3  O   UNL A   1      33.420  37.181  31.878  1.00  0.00    -0.376 OA
BRANCH   3   4
ATOM      4  C   UNL A   1      32.534  36.337  31.165  1.00  0.00     0.202 C 
BRANCH   4   5
ATOM      5  C   UNL A   1      32.840  35.543  29.876  1.00  0.00     0.261 C 
BRANCH   5   6
ATOM      6  O   UNL A   1      33.628  34.345  29.949  1.00  0.00    -0.463 OA
BRANCH   6   7
ATOM      7  C   UNL A   1      34.647  34.254  29.063  1.00  0.00     0.317 C 
ATOM      8  O   UNL A   1      34.784  35.032  28.122  1.00  0.00    -0.251 OA
BRANCH   7   9
ATOM      9  C   UNL A   1      35.645  33.104  29.319  1.00  0.00     0.111 C 
ATOM     10  C   UNL A   1      35.126  32.386  30.591  1.00  0.00     0.029 C 
ATOM     11  C   UNL A   1      36.968  33.806  29.686  1.00  0.00     0.029 C 
BRANCH   9  12
ATOM     12  C   UNL A   1      35.937  32.104  28.132  1.00  0.00     0.278 C 
BRANCH  12  13
ATOM     13  N   UNL A   1      34.988  30.984  28.065  1.00  0.00    -0.345 N 
ATOM     14  H   UNL A   1      34.331  31.184  27.311  1.00  0.00     0.346 HD
ATOM     15  H   UNL A   1      34.578  30.932  28.997  1.00  0.00     0.346 HD
BRANCH  13  16
ATOM     16  C   UNL A   1      35.539  29.655  27.824  1.00  0.00     0.265 C 
BRANCH  16  17
ATOM     17  C   UNL A   1      37.044  29.612  28.177  1.00  0.00     0.098 C 
BRANCH  17  18
ATOM     18  C   UNL A   1      37.462  29.042  29.520  1.00  0.00    -0.024 A 
ATOM     19  C   UNL A   1      38.626  28.275  29.633  1.00  0.00     0.007 A 
ATOM     20  C   UNL A   1      36.814  29.339  30.717  1.00  0.00     0.114 A 
ATOM     21  C   UNL A   1      39.050  27.816  30.882  1.00  0.00     0.020 A 
ATOM     22  N   UNL A   1      37.181  28.887  31.941  1.00  0.00    -0.264 NA
ATOM     23  C   UNL A   1      38.293  28.135  31.994  1.00  0.00     0.111 A 
ENDBRANCH  17  18
ENDBRANCH  16  17
ENDBRANCH  13  16
ENDBRANCH  12  13
ENDBRANCH   9  12
ENDBRANCH   7   9
ENDBRANCH   6   7
ENDBRANCH   5   6
ENDBRANCH   4   5
ENDBRANCH   3   4
ENDBRANCH   2   3
ENDBRANCH   1   2
BRANCH   1  24
ATOM     24  O   UNL A   1      34.483  34.366  33.391  1.00  0.00    -0.377 OA
BRANCH  24  25
ATOM     25  C   UNL A   1      35.192  33.467  34.227  1.00  0.00     0.188 C 
BRANCH  25  26
ATOM     26  C   UNL A   1      36.359  33.961  35.098  1.00  0.00     0.188 C 
BRANCH  26  27
ATOM     27  O   UNL A   1      36.242  33.634  36.472  1.00  0.00    -0.376 OA
BRANCH  27  28
ATOM     28  C   UNL A   1      37.405  33.260  37.190  1.00  0.00     0.202 C 
BRANCH  28  29
ATOM     29  C   UNL A   1      38.083  31.919  36.863  1.00  0.00     0.261 C 
BRANCH  29  30
ATOM     30  O   UNL A   1      39.123  31.937  35.877  1.00  0.00    -0.460 OA
BRANCH  30  31
ATOM     31  C   UNL A   1      39.334  30.802  35.170  1.00  0.00     0.338 C 
ATOM     32  O   UNL A   1      38.580  29.860  35.059  1.00  0.00    -0.246 OA
BRANCH  31  33
ATOM     33  C   UNL A   1      40.584  30.990  34.397  1.00  0.00     0.060 A 
ATOM     34  C   UNL A   1      41.609  31.769  34.949  1.00  0.00     0.016 A 
ATOM     35  C   UNL A   1      40.745  30.392  33.145  1.00  0.00     0.016 A 
ATOM     36  C   UNL A   1      42.786  31.982  34.233  1.00  0.00     0.010 A 
ATOM     37  C   UNL A   1      41.916  30.628  32.416  1.00  0.00     0.010 A 
ATOM     38  C   UNL A   1      42.925  31.454  32.943  1.00  0.00    -0.014 A 
BRANCH  38  39
ATOM     39  C   UNL A   1      44.017  31.948  32.069  1.00  0.00     0.031 A 
ATOM     40  C   UNL A   1      45.325  31.202  32.085  1.00  0.00     0.074 A 
ATOM     41  C   UNL A   1      43.845  33.003  31.253  1.00  0.00     0.049 A 
ATOM     42  N   UNL A   1      46.436  31.456  31.446  1.00  0.00    -0.248 NA
ATOM     43  C   UNL A   1      45.383  30.004  32.940  1.00  0.00     0.031 C 
ATOM     44  C   UNL A   1      42.609  33.771  31.112  1.00  0.00     0.029 A 
ATOM     45  N   UNL A   1      44.720  33.614  30.389  1.00  0.00    -0.354 N 
ATOM     46  C   UNL A   1      47.326  30.457  31.827  1.00  0.00     0.074 A 
ATOM     47  C   UNL A   1      46.637  29.612  32.775  1.00  0.00     0.031 C 
ATOM     48  C   UNL A   1      42.810  34.761  30.224  1.00  0.00     0.029 A 
ATOM     49  C   UNL A   1      44.196  34.718  29.760  1.00  0.00     0.049 A 
ATOM     50  H   UNL A   1      45.637  33.291  30.235  1.00  0.00     0.167 HD
ATOM     51  C   UNL A   1      48.600  30.259  31.415  1.00  0.00     0.037 A 
ATOM     52  C   UNL A   1      44.780  35.606  28.928  1.00  0.00     0.037 A 
ATOM     53  C   UNL A   1      49.278  31.109  30.472  1.00  0.00     0.049 A 
ATOM     54  C   UNL A   1      46.227  35.411  28.546  1.00  0.00     0.074 A 
ATOM     55  C   UNL A   1      50.565  30.993  29.982  1.00  0.00     0.029 A 
ATOM     56  N   UNL A   1      48.725  32.238  29.885  1.00  0.00    -0.354 N 
ATOM     57  N   UNL A   1      47.054  34.455  28.899  1.00  0.00    -0.248 NA
ATOM     58  C   UNL A   1      46.821  36.415  27.651  1.00  0.00     0.031 C 
ATOM     59  C   UNL A   1      50.813  32.086  29.145  1.00  0.00     0.029 A 
ATOM     60  C   UNL A   1      49.657  32.845  29.059  1.00  0.00     0.049 A 
ATOM     61  H   UNL A   1      47.807  32.561  30.033  1.00  0.00     0.167 HD
ATOM     62  C   UNL A   1      48.252  34.724  28.244  1.00  0.00     0.074 A 
ATOM     63  C   UNL A   1      48.039  35.926  27.466  1.00  0.00     0.031 C 
ATOM     64  C   UNL A   1      49.423  34.038  28.281  1.00  0.00     0.037 A 
BRANCH  51  65
ATOM     65  C   UNL A   1      49.354  29.099  32.007  1.00  0.00     0.058 A 
ATOM     66  C   UNL A   1      50.090  29.221  33.196  1.00  0.00     0.135 A 
ATOM     67  C   UNL A   1      49.313  27.839  31.390  1.00  0.00     0.135 A 
ATOM     68  F   UNL A   1      50.184  30.408  33.816  1.00  0.00    -0.206 F 
ATOM     69  C   UNL A   1      50.779  28.141  33.739  1.00  0.00     0.059 A 
ATOM     70  C   UNL A   1      49.967  26.736  31.931  1.00  0.00     0.059 A 
ATOM     71  F   UNL A   1      48.630  27.668  30.247  1.00  0.00    -0.206 F 
ATOM     72  C   UNL A   1      50.708  26.901  33.101  1.00  0.00     0.060 A 
BRANCH  72  73
ATOM     73  S   UNL A   1      51.594  25.506  33.827  1.00  0.00     0.124 S 
ATOM     74  O   UNL A   1      50.515  24.802  34.514  1.00  0.00    -0.237 OA
ATOM     75  O   UNL A   1      52.137  24.837  32.650  1.00  0.00    -0.237 OA
ATOM     76  O   UNL A   1      52.580  26.142  34.695  1.00  0.00    -0.744 OA
ENDBRANCH  72  73
ENDBRANCH  51  65
BRANCH  52  77
ATOM     77  C   UNL A   1      44.008  36.771  28.414  1.00  0.00     0.058 A 
ATOM     78  C   UNL A   1      43.889  37.954  29.159  1.00  0.00     0.135 A 
ATOM     79  C   UNL A   1      43.361  36.720  27.168  1.00  0.00     0.135 A 
ATOM     80  F   UNL A   1      44.477  38.050  30.362  1.00  0.00    -0.206 F 
ATOM     81  C   UNL A   1      43.144  39.036  28.700  1.00  0.00     0.059 A 
ATOM     82  C   UNL A   1      42.636  37.800  26.673  1.00  0.00     0.059 A 
ATOM     83  F   UNL A   1      43.447  35.616  26.411  1.00  0.00    -0.206 F 
ATOM     84  C   UNL A   1      42.524  38.951  27.452  1.00  0.00     0.060 A 
BRANCH  84  85
ATOM     85  S   UNL A   1      41.598  40.377  26.844  1.00  0.00     0.124 S 
ATOM     86  O   UNL A   1      41.076  40.938  28.085  1.00  0.00    -0.237 OA
ATOM     87  O   UNL A   1      42.639  41.154  26.179  1.00  0.00    -0.237 OA
ATOM     88  O   UNL A   1      40.606  39.780  25.955  1.00  0.00    -0.744 OA
ENDBRANCH  84  85
ENDBRANCH  52  77
BRANCH  64  89
ATOM     89  C   UNL A   1      50.555  34.539  27.423  1.00  0.00     0.058 A 
ATOM     90  C   UNL A   1      51.611  35.295  27.955  1.00  0.00     0.135 A 
ATOM     91  C   UNL A   1      50.613  34.203  26.060  1.00  0.00     0.135 A 
ATOM     92  F   UNL A   1      51.606  35.648  29.251  1.00  0.00    -0.206 F 
ATOM     93  C   UNL A   1      52.671  35.722  27.161  1.00  0.00     0.059 A 
ATOM     94  C   UNL A   1      51.679  34.591  25.256  1.00  0.00     0.059 A 
ATOM     95  F   UNL A   1      49.635  33.471  25.503  1.00  0.00    -0.206 F 
ATOM     96  C   UNL A   1      52.698  35.360  25.812  1.00  0.00     0.060 A 
BRANCH  96  97
ATOM     97  S   UNL A   1      54.097  35.891  24.803  1.00  0.00     0.124 S 
ATOM     98  O   UNL A   1      55.226  35.560  25.665  1.00  0.00    -0.237 OA
ATOM     99  O   UNL A   1      53.949  35.065  23.608  1.00  0.00    -0.237 OA
ATOM    100  O   UNL A   1      53.854  37.317  24.606  1.00  0.00    -0.744 OA
ENDBRANCH  96  97
ENDBRANCH  64  89
ENDBRANCH  38  39
ENDBRANCH  31  33
ENDBRANCH  30  31
ENDBRANCH  29  30
ENDBRANCH  28  29
ENDBRANCH  27  28
ENDBRANCH  26  27
ENDBRANCH  25  26
ENDBRANCH  24  25
ENDBRANCH   1  24
TORSDOF 28
ENDMDL
MODEL 3
REMARK VINA RESULT:      -7.2      6.025     12.755
REMARK SMILES CC(C)(C[NH2+]CCc1cccnc1)C(=O)OCCOCCOCCOCCOC(=O)c1ccc(-c2c3nc(c(-c4c(F)cc(S(=O)(=O)[O-])cc4F)c4ccc([nH]4)c(-c4c(F)cc(S(=O)(=O)[O-])cc4F)c4nc(c(-c5c(F)cc(S(=O)(=O)[O-])cc5F)c5ccc2[nH]5)C=C4)C=C3)cc1
REMARK SMILES IDX 21 1 20 2 19 3 18 4 17 5 16 6 14 7 15 8 2 9 1 10 3 11 4 12
REMARK SMILES IDX 5 13 6 16 7 17 8 18 9 19 13 20 10 21 12 22 11 23 22 24 23 25
REMARK SMILES IDX 24 26 25 27 26 28 27 29 28 30 29 31 30 32 31 33 32 34 96 35
REMARK SMILES IDX 33 36 95 37 34 38 35 39 36 40 89 41 37 42 94 43 88 44 90 45
REMARK SMILES IDX 38 46 93 47 87 48 86 49 39 51 73 52 52 53 72 54 53 55 56 56
REMARK SMILES IDX 71 57 91 58 54 59 55 60 70 62 92 63 57 64 40 65 41 66 50 67
REMARK SMILES IDX 42 68 43 69 49 70 51 71 44 72 45 73 46 74 47 75 48 76 74 77
REMARK SMILES IDX 75 78 84 79 76 80 77 81 83 82 85 83 78 84 79 85 80 86 81 87
REMARK SMILES IDX 82 88 58 89 59 90 68 91 60 92 61 93 67 94 69 95 62 96 63 97
REMARK SMILES IDX 64 98 65 99 66 100
REMARK H PARENT 5 14 5 15 90 50 56 61
REMARK Flexibility Score: inf
ROOT
ATOM      1  C   UNL A   1      34.228  33.303  28.135  1.00  0.00     0.188 C 
ENDROOT
BRANCH   1   2
ATOM      2  C   UNL A   1      34.343  31.780  28.076  1.00  0.00     0.188 C 
BRANCH   2   3
ATOM      3  O   UNL A   1      33.685  31.097  27.039  1.00  0.00    -0.376 OA
BRANCH   3   4
ATOM      4  C   UNL A   1      33.026  29.862  27.258  1.00  0.00     0.202 C 
BRANCH   4   5
ATOM      5  C   UNL A   1      31.807  29.309  26.489  1.00  0.00     0.261 C 
BRANCH   5   6
ATOM      6  O   UNL A   1      31.741  29.453  25.062  1.00  0.00    -0.463 OA
BRANCH   6   7
ATOM      7  C   UNL A   1      32.146  28.381  24.341  1.00  0.00     0.317 C 
ATOM      8  O   UNL A   1      33.331  28.119  24.144  1.00  0.00    -0.251 OA
BRANCH   7   9
ATOM      9  C   UNL A   1      31.014  27.492  23.784  1.00  0.00     0.111 C 
ATOM     10  C   UNL A   1      31.446  27.134  22.339  1.00  0.00     0.029 C 
ATOM     11  C   UNL A   1      29.790  28.426  23.689  1.00  0.00     0.029 C 
BRANCH   9  12
ATOM     12  C   UNL A   1      30.593  26.223  24.625  1.00  0.00     0.278 C 
BRANCH  12  13
ATOM     13  N   UNL A   1      31.535  25.899  25.705  1.00  0.00    -0.345 N 
ATOM     14  H   UNL A   1      30.985  25.649  26.527  1.00  0.00     0.346 HD
ATOM     15  H   UNL A   1      32.114  26.732  25.807  1.00  0.00     0.346 HD
BRANCH  13  16
ATOM     16  C   UNL A   1      32.480  24.814  25.465  1.00  0.00     0.265 C 
BRANCH  16  17
ATOM     17  C   UNL A   1      31.881  23.457  25.905  1.00  0.00     0.098 C 
BRANCH  17  18
ATOM     18  C   UNL A   1      32.023  22.263  24.981  1.00  0.00    -0.024 A 
ATOM     19  C   UNL A   1      32.392  22.441  23.643  1.00  0.00     0.007 A 
ATOM     20  C   UNL A   1      31.927  20.941  25.411  1.00  0.00     0.114 A 
ATOM     21  C   UNL A   1      32.596  21.336  22.815  1.00  0.00     0.020 A 
ATOM     22  N   UNL A   1      32.091  19.847  24.628  1.00  0.00    -0.264 NA
ATOM     23  C   UNL A   1      32.422  20.071  23.345  1.00  0.00     0.111 A 
ENDBRANCH  17  18
ENDBRANCH  16  17
ENDBRANCH  13  16
ENDBRANCH  12  13
ENDBRANCH   9  12
ENDBRANCH   7   9
ENDBRANCH   6   7
ENDBRANCH   5   6
ENDBRANCH   4   5
ENDBRANCH   3   4
ENDBRANCH   2   3
ENDBRANCH   1   2
BRANCH   1  24
ATOM     24  O   UNL A   1      33.713  33.915  29.297  1.00  0.00    -0.377 OA
BRANCH  24  25
ATOM     25  C   UNL A   1      34.445  34.946  29.938  1.00  0.00     0.188 C 
BRANCH  25  26
ATOM     26  C   UNL A   1      34.929  34.779  31.387  1.00  0.00     0.188 C 
BRANCH  26  27
ATOM     27  O   UNL A   1      34.159  33.875  32.160  1.00  0.00    -0.376 OA
BRANCH  27  28
ATOM     28  C   UNL A   1      34.657  32.567  32.385  1.00  0.00     0.202 C 
BRANCH  28  29
ATOM     29  C   UNL A   1      36.123  32.392  32.813  1.00  0.00     0.261 C 
BRANCH  29  30
ATOM     30  O   UNL A   1      36.570  31.056  33.079  1.00  0.00    -0.460 OA
BRANCH  30  31
ATOM     31  C   UNL A   1      37.750  30.907  33.726  1.00  0.00     0.338 C 
ATOM     32  O   UNL A   1      37.960  31.080  34.907  1.00  0.00    -0.246 OA
BRANCH  31  33
ATOM     33  C   UNL A   1      38.708  30.316  32.765  1.00  0.00     0.060 A 
ATOM     34  C   UNL A   1      39.860  29.689  33.258  1.00  0.00     0.016 A 
ATOM     35  C   UNL A   1      38.465  30.369  31.390  1.00  0.00     0.016 A 
ATOM     36  C   UNL A   1      40.791  29.145  32.374  1.00  0.00     0.010 A 
ATOM     37  C   UNL A   1      39.412  29.846  30.503  1.00  0.00     0.010 A 
ATOM     38  C   UNL A   1      40.596  29.265  30.992  1.00  0.00    -0.014 A 
BRANCH  38  39
ATOM     39  C   UNL A   1      41.725  28.986  30.071  1.00  0.00     0.031 A 
ATOM     40  C   UNL A   1      42.695  30.103  29.787  1.00  0.00     0.074 A 
ATOM     41  C   UNL A   1      41.912  27.768  29.532  1.00  0.00     0.049 A 
ATOM     42  N   UNL A   1      43.733  30.122  28.993  1.00  0.00    -0.248 NA
ATOM     43  C   UNL A   1      42.458  31.370  30.499  1.00  0.00     0.031 C 
ATOM     44  C   UNL A   1      41.071  26.597  29.774  1.00  0.00     0.029 A 
ATOM     45  N   UNL A   1      42.872  27.317  28.661  1.00  0.00    -0.354 N 
ATOM     46  C   UNL A   1      44.267  31.400  29.104  1.00  0.00     0.074 A 
ATOM     47  C   UNL A   1      43.423  32.138  30.016  1.00  0.00     0.031 C 
ATOM     48  C   UNL A   1      41.545  25.563  29.057  1.00  0.00     0.029 A 
ATOM     49  C   UNL A   1      42.701  26.007  28.279  1.00  0.00     0.049 A 
ATOM     50  H   UNL A   1      43.614  27.878  28.340  1.00  0.00     0.167 HD
ATOM     51  C   UNL A   1      45.369  31.910  28.504  1.00  0.00     0.037 A 
ATOM     52  C   UNL A   1      43.383  25.264  27.383  1.00  0.00     0.037 A 
ATOM     53  C   UNL A   1      46.201  31.168  27.594  1.00  0.00     0.049 A 
ATOM     54  C   UNL A   1      44.560  25.880  26.665  1.00  0.00     0.074 A 
ATOM     55  C   UNL A   1      47.344  31.587  26.939  1.00  0.00     0.029 A 
ATOM     56  N   UNL A   1      45.974  29.856  27.206  1.00  0.00    -0.354 N 
ATOM     57  N   UNL A   1      45.067  27.084  26.789  1.00  0.00    -0.248 NA
ATOM     58  C   UNL A   1      45.260  25.034  25.687  1.00  0.00     0.031 C 
ATOM     59  C   UNL A   1      47.774  30.549  26.106  1.00  0.00     0.029 A 
ATOM     60  C   UNL A   1      46.939  29.459  26.295  1.00  0.00     0.049 A 
ATOM     61  H   UNL A   1      45.236  29.290  27.528  1.00  0.00     0.167 HD
ATOM     62  C   UNL A   1      46.162  27.129  25.931  1.00  0.00     0.074 A 
ATOM     63  C   UNL A   1      46.250  25.828  25.302  1.00  0.00     0.031 C 
ATOM     64  C   UNL A   1      47.018  28.153  25.687  1.00  0.00     0.037 A 
BRANCH  51  65
ATOM     65  C   UNL A   1      45.717  33.347  28.787  1.00  0.00     0.058 A 
ATOM     66  C   UNL A   1      45.330  34.387  27.927  1.00  0.00     0.135 A 
ATOM     67  C   UNL A   1      46.423  33.688  29.951  1.00  0.00     0.135 A 
ATOM     68  F   UNL A   1      44.674  34.116  26.788  1.00  0.00    -0.206 F 
ATOM     69  C   UNL A   1      45.651  35.714  28.201  1.00  0.00     0.059 A 
ATOM     70  C   UNL A   1      46.727  35.011  30.262  1.00  0.00     0.059 A 
ATOM     71  F   UNL A   1      46.824  32.732  30.804  1.00  0.00    -0.206 F 
ATOM     72  C   UNL A   1      46.347  36.015  29.373  1.00  0.00     0.060 A 
BRANCH  72  73
ATOM     73  S   UNL A   1      46.742  37.742  29.721  1.00  0.00     0.124 S 
ATOM     74  O   UNL A   1      46.670  38.331  28.387  1.00  0.00    -0.237 OA
ATOM     75  O   UNL A   1      45.676  38.125  30.640  1.00  0.00    -0.237 OA
ATOM     76  O   UNL A   1      48.078  37.676  30.305  1.00  0.00    -0.744 OA
ENDBRANCH  72  73
ENDBRANCH  51  65
BRANCH  52  77
ATOM     77  C   UNL A   1      42.965  23.864  27.095  1.00  0.00     0.058 A 
ATOM     78  C   UNL A   1      43.509  22.780  27.799  1.00  0.00     0.135 A 
ATOM     79  C   UNL A   1      42.018  23.581  26.097  1.00  0.00     0.135 A 
ATOM     80  F   UNL A   1      44.428  22.995  28.754  1.00  0.00    -0.206 F 
ATOM     81  C   UNL A   1      43.147  21.467  27.515  1.00  0.00     0.059 A 
ATOM     82  C   UNL A   1      41.616  22.279  25.815  1.00  0.00     0.059 A 
ATOM     83  F   UNL A   1      41.460  24.580  25.396  1.00  0.00    -0.206 F 
ATOM     84  C   UNL A   1      42.195  21.227  26.522  1.00  0.00     0.060 A 
BRANCH  84  85
ATOM     85  S   UNL A   1      41.697  19.523  26.193  1.00  0.00     0.124 S 
ATOM     86  O   UNL A   1      40.312  19.697  25.772  1.00  0.00    -0.237 OA
ATOM     87  O   UNL A   1      42.637  19.127  25.150  1.00  0.00    -0.237 OA
ATOM     88  O   UNL A   1      41.887  18.862  27.482  1.00  0.00    -0.744 OA
ENDBRANCH  84  85
ENDBRANCH  52  77
BRANCH  64  89
ATOM     89  C   UNL A   1      48.156  27.901  24.732  1.00  0.00     0.058 A 
ATOM     90  C   UNL A   1      49.401  27.425  25.169  1.00  0.00     0.135 A 
ATOM     91  C   UNL A   1      47.972  28.080  23.350  1.00  0.00     0.135 A 
ATOM     92  F   UNL A   1      49.633  27.240  26.479  1.00  0.00    -0.206 F 
ATOM     93  C   UNL A   1      50.433  27.160  24.274  1.00  0.00     0.059 A 
ATOM     94  C   UNL A   1      48.979  27.789  22.435  1.00  0.00     0.059 A 
ATOM     95  F   UNL A   1      46.796  28.520  22.876  1.00  0.00    -0.206 F 
ATOM     96  C   UNL A   1      50.210  27.341  22.907  1.00  0.00     0.060 A 
BRANCH  96  97
ATOM     97  S   UNL A   1      51.546  26.960  21.755  1.00  0.00     0.124 S 
ATOM     98  O   UNL A   1      52.512  26.305  22.630  1.00  0.00    -0.237 OA
ATOM     99  O   UNL A   1      50.882  26.094  20.785  1.00  0.00    -0.237 OA
ATOM    100  O   UNL A   1      51.944  28.269  21.249  1.00  0.00    -0.744 OA
ENDBRANCH  96  97
ENDBRANCH  64  89
ENDBRANCH  38  39
ENDBRANCH  31  33
ENDBRANCH  30  31
ENDBRANCH  29  30
ENDBRANCH  28  29
ENDBRANCH  27  28
ENDBRANCH  26  27
ENDBRANCH  25  26
ENDBRANCH  24  25
ENDBRANCH   1  24
TORSDOF 28
ENDMDL
