MODEL 1
REMARK VINA RESULT:      -8.6      0.000      0.000
REMARK SMILES Cc1ccc(Nc2c(Cl)cccc2Cl)c(CC(=O)OCCOCCOCCOCCOC(=O)c2ccc(-c3c4nc(c(-c5c(F)cc(S(=O)(=O)[O-])cc5F)c5ccc([nH]5)c(-c5c(F)cc(S(=O)(=O)[O-])cc5F)c5nc(c(-c6c(F)cc(S(=O)(=O)[O-])cc6F)c6ccc3[nH]6)C=C5)C=C4)cc2)c1
REMARK SMILES IDX 25 1 24 2 23 3 22 4 21 5 20 6 19 7 17 8 18 9 16 10 15 11
REMARK SMILES IDX 1 12 2 13 3 14 100 15 4 16 5 17 6 18 7 20 8 21 13 22 9 23
REMARK SMILES IDX 10 24 12 25 14 26 11 27 26 28 27 29 28 30 29 31 30 32 31 33
REMARK SMILES IDX 32 34 33 35 34 36 35 37 99 38 36 39 98 40 37 41 38 42 39 43
REMARK SMILES IDX 92 44 40 45 97 46 91 47 93 48 41 49 96 50 90 51 89 52 42 54
REMARK SMILES IDX 76 55 55 56 75 57 56 58 59 59 74 60 94 61 57 62 58 63 73 65
REMARK SMILES IDX 95 66 60 67 43 68 44 69 53 70 45 71 46 72 52 73 54 74 47 75
REMARK SMILES IDX 48 76 49 77 50 78 51 79 77 80 78 81 87 82 79 83 80 84 86 85
REMARK SMILES IDX 88 86 81 87 82 88 83 89 84 90 85 91 61 92 62 93 71 94 63 95
REMARK SMILES IDX 64 96 70 97 72 98 65 99 66 100 67 101 68 102 69 103
REMARK H PARENT 6 19 93 53 59 64
REMARK Flexibility Score: inf
ROOT
ATOM      1  O   UNL A   1      32.941  37.207  30.104  1.00  0.00    -0.377 OA
ENDROOT
BRANCH   1   2
ATOM      2  C   UNL A   1      32.845  36.189  29.116  1.00  0.00     0.188 C 
BRANCH   2   3
ATOM      3  C   UNL A   1      33.507  34.895  29.459  1.00  0.00     0.188 C 
BRANCH   3   4
ATOM      4  O   UNL A   1      34.829  34.660  29.032  1.00  0.00    -0.376 OA
BRANCH   4   5
ATOM      5  C   UNL A   1      35.437  33.663  29.817  1.00  0.00     0.202 C 
BRANCH   5   6
ATOM      6  C   UNL A   1      36.326  32.663  29.081  1.00  0.00     0.261 C 
BRANCH   6   7
ATOM      7  O   UNL A   1      35.728  31.363  28.931  1.00  0.00    -0.463 OA
BRANCH   7   8
ATOM      8  C   UNL A   1      36.527  30.444  28.329  1.00  0.00     0.310 C 
ATOM      9  O   UNL A   1      36.134  29.415  27.824  1.00  0.00    -0.252 OA
BRANCH   8  10
ATOM     10  C   UNL A   1      38.006  30.762  28.403  1.00  0.00     0.160 C 
BRANCH  10  11
ATOM     11  C   UNL A   1      39.042  29.714  28.792  1.00  0.00    -0.013 A 
ATOM     12  C   UNL A   1      40.402  26.645  26.886  1.00  0.00     0.044 C 
ATOM     13  C   UNL A   1      40.168  27.668  27.958  1.00  0.00    -0.051 A 
ATOM     14  C   UNL A   1      40.960  27.672  29.094  1.00  0.00     0.005 A 
ATOM     15  C   UNL A   1      39.192  28.658  27.839  1.00  0.00     0.009 A 
ATOM     16  C   UNL A   1      40.780  28.651  30.079  1.00  0.00     0.026 A 
ATOM     17  C   UNL A   1      39.869  29.724  29.961  1.00  0.00     0.042 A 
BRANCH  17  18
ATOM     18  N   UNL A   1      39.785  30.727  31.004  1.00  0.00    -0.353 N 
ATOM     19  H   UNL A   1      40.018  31.643  30.729  1.00  0.00     0.167 HD
BRANCH  18  20
ATOM     20  C   UNL A   1      39.405  30.572  32.402  1.00  0.00     0.076 A 
ATOM     21  C   UNL A   1      38.081  30.666  32.859  1.00  0.00     0.066 A 
ATOM     22  C   UNL A   1      40.388  30.576  33.429  1.00  0.00     0.066 A 
ATOM     23  Cl  UNL A   1      36.751  30.139  31.878  1.00  0.00    -0.082 Cl
ATOM     24  C   UNL A   1      37.780  31.075  34.172  1.00  0.00     0.023 A 
ATOM     25  C   UNL A   1      40.104  31.046  34.726  1.00  0.00     0.023 A 
ATOM     26  Cl  UNL A   1      41.997  29.991  33.145  1.00  0.00    -0.082 Cl
ATOM     27  C   UNL A   1      38.797  31.347  35.083  1.00  0.00     0.003 A 
ENDBRANCH  18  20
ENDBRANCH  17  18
ENDBRANCH  10  11
ENDBRANCH   8  10
ENDBRANCH   7   8
ENDBRANCH   6   7
ENDBRANCH   5   6
ENDBRANCH   4   5
ENDBRANCH   3   4
ENDBRANCH   2   3
ENDBRANCH   1   2
BRANCH   1  28
ATOM     28  C   UNL A   1      32.994  36.634  31.418  1.00  0.00     0.188 C 
BRANCH  28  29
ATOM     29  C   UNL A   1      33.798  37.388  32.481  1.00  0.00     0.188 C 
BRANCH  29  30
ATOM     30  O   UNL A   1      34.665  36.477  33.137  1.00  0.00    -0.376 OA
BRANCH  30  31
ATOM     31  C   UNL A   1      34.315  35.108  33.123  1.00  0.00     0.202 C 
BRANCH  31  32
ATOM     32  C   UNL A   1      35.504  34.342  33.673  1.00  0.00     0.261 C 
BRANCH  32  33
ATOM     33  O   UNL A   1      36.674  34.732  32.913  1.00  0.00    -0.460 OA
BRANCH  33  34
ATOM     34  C   UNL A   1      37.839  34.704  33.628  1.00  0.00     0.338 C 
ATOM     35  O   UNL A   1      37.900  34.946  34.820  1.00  0.00    -0.246 OA
BRANCH  34  36
ATOM     36  C   UNL A   1      39.009  34.343  32.762  1.00  0.00     0.060 A 
ATOM     37  C   UNL A   1      40.308  34.312  33.294  1.00  0.00     0.016 A 
ATOM     38  C   UNL A   1      38.848  34.178  31.391  1.00  0.00     0.016 A 
ATOM     39  C   UNL A   1      41.443  34.267  32.451  1.00  0.00     0.010 A 
ATOM     40  C   UNL A   1      39.971  34.129  30.566  1.00  0.00     0.010 A 
ATOM     41  C   UNL A   1      41.286  34.234  31.067  1.00  0.00    -0.014 A 
BRANCH  41  42
ATOM     42  C   UNL A   1      42.347  34.460  30.042  1.00  0.00     0.031 A 
ATOM     43  C   UNL A   1      43.280  33.324  29.692  1.00  0.00     0.074 A 
ATOM     44  C   UNL A   1      42.187  35.481  29.152  1.00  0.00     0.049 A 
ATOM     45  N   UNL A   1      44.056  33.280  28.660  1.00  0.00    -0.248 NA
ATOM     46  C   UNL A   1      43.388  32.096  30.486  1.00  0.00     0.031 C 
ATOM     47  C   UNL A   1      42.535  35.470  27.724  1.00  0.00     0.029 A 
ATOM     48  N   UNL A   1      41.600  36.728  29.271  1.00  0.00    -0.354 N 
ATOM     49  C   UNL A   1      44.458  31.969  28.452  1.00  0.00     0.074 A 
ATOM     50  C   UNL A   1      44.107  31.300  29.681  1.00  0.00     0.031 C 
ATOM     51  C   UNL A   1      42.209  36.634  27.143  1.00  0.00     0.029 A 
ATOM     52  C   UNL A   1      42.026  37.560  28.227  1.00  0.00     0.049 A 
ATOM     53  H   UNL A   1      40.977  36.994  29.984  1.00  0.00     0.167 HD
ATOM     54  C   UNL A   1      44.891  31.584  27.206  1.00  0.00     0.037 A 
ATOM     55  C   UNL A   1      42.903  38.587  28.457  1.00  0.00     0.037 A 
ATOM     56  C   UNL A   1      45.152  32.745  26.320  1.00  0.00     0.049 A 
ATOM     57  C   UNL A   1      44.327  38.287  27.943  1.00  0.00     0.074 A 
ATOM     58  C   UNL A   1      44.943  33.077  24.988  1.00  0.00     0.029 A 
ATOM     59  N   UNL A   1      45.691  33.895  26.883  1.00  0.00    -0.354 N 
ATOM     60  N   UNL A   1      44.654  37.191  27.295  1.00  0.00    -0.248 NA
ATOM     61  C   UNL A   1      45.497  39.148  28.110  1.00  0.00     0.031 C 
ATOM     62  C   UNL A   1      45.283  34.457  24.804  1.00  0.00     0.029 A 
ATOM     63  C   UNL A   1      45.807  34.930  25.991  1.00  0.00     0.049 A 
ATOM     64  H   UNL A   1      45.962  33.960  27.828  1.00  0.00     0.167 HD
ATOM     65  C   UNL A   1      45.989  37.142  27.023  1.00  0.00     0.074 A 
ATOM     66  C   UNL A   1      46.479  38.402  27.562  1.00  0.00     0.031 C 
ATOM     67  C   UNL A   1      46.594  36.082  26.401  1.00  0.00     0.037 A 
BRANCH  54  68
ATOM     68  C   UNL A   1      44.956  30.136  26.682  1.00  0.00     0.058 A 
ATOM     69  C   UNL A   1      43.773  29.366  26.555  1.00  0.00     0.135 A 
ATOM     70  C   UNL A   1      46.139  29.406  26.418  1.00  0.00     0.135 A 
ATOM     71  F   UNL A   1      42.565  29.921  26.727  1.00  0.00    -0.206 F 
ATOM     72  C   UNL A   1      43.762  27.998  26.250  1.00  0.00     0.059 A 
ATOM     73  C   UNL A   1      46.149  28.046  26.050  1.00  0.00     0.059 A 
ATOM     74  F   UNL A   1      47.350  29.962  26.544  1.00  0.00    -0.206 F 
ATOM     75  C   UNL A   1      44.955  27.339  25.995  1.00  0.00     0.060 A 
BRANCH  75  76
ATOM     76  S   UNL A   1      44.916  25.583  25.560  1.00  0.00     0.124 S 
ATOM     77  O   UNL A   1      43.576  25.432  25.001  1.00  0.00    -0.237 OA
ATOM     78  O   UNL A   1      46.015  25.470  24.606  1.00  0.00    -0.237 OA
ATOM     79  O   UNL A   1      45.138  24.909  26.837  1.00  0.00    -0.744 OA
ENDBRANCH  75  76
ENDBRANCH  54  68
BRANCH  55  80
ATOM     80  C   UNL A   1      42.399  39.428  29.596  1.00  0.00     0.058 A 
ATOM     81  C   UNL A   1      43.290  39.486  30.698  1.00  0.00     0.135 A 
ATOM     82  C   UNL A   1      41.644  40.584  29.333  1.00  0.00     0.135 A 
ATOM     83  F   UNL A   1      44.020  38.406  31.021  1.00  0.00    -0.206 F 
ATOM     84  C   UNL A   1      43.616  40.691  31.317  1.00  0.00     0.059 A 
ATOM     85  C   UNL A   1      41.953  41.805  29.953  1.00  0.00     0.059 A 
ATOM     86  F   UNL A   1      40.787  40.602  28.301  1.00  0.00    -0.206 F 
ATOM     87  C   UNL A   1      42.987  41.858  30.895  1.00  0.00     0.060 A 
BRANCH  87  88
ATOM     88  S   UNL A   1      43.707  43.448  31.401  1.00  0.00     0.124 S 
ATOM     89  O   UNL A   1      44.931  43.028  32.067  1.00  0.00    -0.237 OA
ATOM     90  O   UNL A   1      43.884  44.131  30.122  1.00  0.00    -0.237 OA
ATOM     91  O   UNL A   1      42.670  44.005  32.260  1.00  0.00    -0.744 OA
ENDBRANCH  87  88
ENDBRANCH  55  80
BRANCH  67  92
ATOM     92  C   UNL A   1      48.079  35.968  26.188  1.00  0.00     0.058 A 
ATOM     93  C   UNL A   1      48.869  35.044  26.874  1.00  0.00     0.135 A 
ATOM     94  C   UNL A   1      48.764  36.858  25.321  1.00  0.00     0.135 A 
ATOM     95  F   UNL A   1      48.337  34.256  27.820  1.00  0.00    -0.206 F 
ATOM     96  C   UNL A   1      50.229  34.904  26.604  1.00  0.00     0.059 A 
ATOM     97  C   UNL A   1      50.127  36.779  25.085  1.00  0.00     0.059 A 
ATOM     98  F   UNL A   1      48.133  37.816  24.630  1.00  0.00    -0.206 F 
ATOM     99  C   UNL A   1      50.838  35.756  25.683  1.00  0.00     0.060 A 
BRANCH  99 100
ATOM    100  S   UNL A   1      52.556  35.490  25.229  1.00  0.00     0.124 S 
ATOM    101  O   UNL A   1      52.804  34.135  25.711  1.00  0.00    -0.237 OA
ATOM    102  O   UNL A   1      52.491  35.645  23.778  1.00  0.00    -0.237 OA
ATOM    103  O   UNL A   1      53.267  36.547  25.942  1.00  0.00    -0.744 OA
ENDBRANCH  99 100
ENDBRANCH  67  92
ENDBRANCH  41  42
ENDBRANCH  34  36
ENDBRANCH  33  34
ENDBRANCH  32  33
ENDBRANCH  31  32
ENDBRANCH  30  31
ENDBRANCH  29  30
ENDBRANCH  28  29
ENDBRANCH   1  28
TORSDOF 26
ENDMDL
MODEL 2
REMARK VINA RESULT:      -8.4      5.493     11.313
REMARK SMILES Cc1ccc(Nc2c(Cl)cccc2Cl)c(CC(=O)OCCOCCOCCOCCOC(=O)c2ccc(-c3c4nc(c(-c5c(F)cc(S(=O)(=O)[O-])cc5F)c5ccc([nH]5)c(-c5c(F)cc(S(=O)(=O)[O-])cc5F)c5nc(c(-c6c(F)cc(S(=O)(=O)[O-])cc6F)c6ccc3[nH]6)C=C5)C=C4)cc2)c1
REMARK SMILES IDX 25 1 24 2 23 3 22 4 21 5 20 6 19 7 17 8 18 9 16 10 15 11
REMARK SMILES IDX 1 12 2 13 3 14 100 15 4 16 5 17 6 18 7 20 8 21 13 22 9 23
REMARK SMILES IDX 10 24 12 25 14 26 11 27 26 28 27 29 28 30 29 31 30 32 31 33
REMARK SMILES IDX 32 34 33 35 34 36 35 37 99 38 36 39 98 40 37 41 38 42 39 43
REMARK SMILES IDX 92 44 40 45 97 46 91 47 93 48 41 49 96 50 90 51 89 52 42 54
REMARK SMILES IDX 76 55 55 56 75 57 56 58 59 59 74 60 94 61 57 62 58 63 73 65
REMARK SMILES IDX 95 66 60 67 43 68 44 69 53 70 45 71 46 72 52 73 54 74 47 75
REMARK SMILES IDX 48 76 49 77 50 78 51 79 77 80 78 81 87 82 79 83 80 84 86 85
REMARK SMILES IDX 88 86 81 87 82 88 83 89 84 90 85 91 61 92 62 93 71 94 63 95
REMARK SMILES IDX 64 96 70 97 72 98 65 99 66 100 67 101 68 102 69 103
REMARK H PARENT 6 19 93 53 59 64
REMARK Flexibility Score: inf
ROOT
ATOM      1  O   UNL A   1      35.585  33.943  29.568  1.00  0.00    -0.377 OA
ENDROOT
BRANCH   1   2
ATOM      2  C   UNL A   1      34.929  33.791  28.315  1.00  0.00     0.188 C 
BRANCH   2   3
ATOM      3  C   UNL A   1      34.023  32.610  28.202  1.00  0.00     0.188 C 
BRANCH   3   4
ATOM      4  O   UNL A   1      34.548  31.315  28.383  1.00  0.00    -0.376 OA
BRANCH   4   5
ATOM      5  C   UNL A   1      34.251  30.497  27.278  1.00  0.00     0.202 C 
BRANCH   5   6
ATOM      6  C   UNL A   1      32.793  30.467  26.824  1.00  0.00     0.261 C 
BRANCH   6   7
ATOM      7  O   UNL A   1      32.392  29.206  26.258  1.00  0.00    -0.463 OA
BRANCH   7   8
ATOM      8  C   UNL A   1      32.880  28.969  25.013  1.00  0.00     0.310 C 
ATOM      9  O   UNL A   1      33.633  29.708  24.417  1.00  0.00    -0.252 OA
BRANCH   8  10
ATOM     10  C   UNL A   1      32.338  27.715  24.361  1.00  0.00     0.160 C 
BRANCH  10  11
ATOM     11  C   UNL A   1      30.844  27.486  24.161  1.00  0.00    -0.013 A 
ATOM     12  C   UNL A   1      28.204  29.477  22.170  1.00  0.00     0.044 C 
ATOM     13  C   UNL A   1      28.846  28.444  23.047  1.00  0.00    -0.051 A 
ATOM     14  C   UNL A   1      28.116  27.346  23.472  1.00  0.00     0.005 A 
ATOM     15  C   UNL A   1      30.186  28.525  23.431  1.00  0.00     0.009 A 
ATOM     16  C   UNL A   1      28.719  26.353  24.252  1.00  0.00     0.026 A 
ATOM     17  C   UNL A   1      30.091  26.345  24.589  1.00  0.00     0.042 A 
BRANCH  17  18
ATOM     18  N   UNL A   1      30.648  25.248  25.355  1.00  0.00    -0.353 N 
ATOM     19  H   UNL A   1      30.838  25.446  26.300  1.00  0.00     0.167 HD
BRANCH  18  20
ATOM     20  C   UNL A   1      30.964  23.892  24.925  1.00  0.00     0.076 A 
ATOM     21  C   UNL A   1      30.836  22.767  25.753  1.00  0.00     0.066 A 
ATOM     22  C   UNL A   1      31.674  23.659  23.715  1.00  0.00     0.066 A 
ATOM     23  Cl  UNL A   1      29.588  22.673  26.955  1.00  0.00    -0.082 Cl
ATOM     24  C   UNL A   1      31.629  21.619  25.569  1.00  0.00     0.023 A 
ATOM     25  C   UNL A   1      32.520  22.544  23.555  1.00  0.00     0.023 A 
ATOM     26  Cl  UNL A   1      31.532  24.734  22.360  1.00  0.00    -0.082 Cl
ATOM     27  C   UNL A   1      32.534  21.542  24.515  1.00  0.00     0.003 A 
ENDBRANCH  18  20
ENDBRANCH  17  18
ENDBRANCH  10  11
ENDBRANCH   8  10
ENDBRANCH   7   8
ENDBRANCH   6   7
ENDBRANCH   5   6
ENDBRANCH   4   5
ENDBRANCH   3   4
ENDBRANCH   2   3
ENDBRANCH   1   2
BRANCH   1  28
ATOM     28  C   UNL A   1      34.639  33.887  30.645  1.00  0.00     0.188 C 
BRANCH  28  29
ATOM     29  C   UNL A   1      34.811  32.765  31.673  1.00  0.00     0.188 C 
BRANCH  29  30
ATOM     30  O   UNL A   1      36.064  32.134  31.463  1.00  0.00    -0.376 OA
BRANCH  30  31
ATOM     31  C   UNL A   1      36.450  31.120  32.368  1.00  0.00     0.202 C 
BRANCH  31  32
ATOM     32  C   UNL A   1      36.880  29.925  31.537  1.00  0.00     0.261 C 
BRANCH  32  33
ATOM     33  O   UNL A   1      37.770  30.403  30.499  1.00  0.00    -0.460 OA
BRANCH  33  34
ATOM     34  C   UNL A   1      37.874  29.566  29.423  1.00  0.00     0.338 C 
ATOM     35  O   UNL A   1      36.965  28.853  29.037  1.00  0.00    -0.246 OA
BRANCH  34  36
ATOM     36  C   UNL A   1      39.233  29.643  28.794  1.00  0.00     0.060 A 
ATOM     37  C   UNL A   1      39.466  29.086  27.527  1.00  0.00     0.016 A 
ATOM     38  C   UNL A   1      40.317  30.133  29.513  1.00  0.00     0.016 A 
ATOM     39  C   UNL A   1      40.781  28.884  27.045  1.00  0.00     0.010 A 
ATOM     40  C   UNL A   1      41.610  29.936  29.031  1.00  0.00     0.010 A 
ATOM     41  C   UNL A   1      41.875  29.256  27.823  1.00  0.00    -0.014 A 
BRANCH  41  42
ATOM     42  C   UNL A   1      43.300  28.873  27.602  1.00  0.00     0.031 A 
ATOM     43  C   UNL A   1      44.264  29.912  27.076  1.00  0.00     0.074 A 
ATOM     44  C   UNL A   1      43.795  27.789  28.264  1.00  0.00     0.049 A 
ATOM     45  N   UNL A   1      45.553  29.814  27.086  1.00  0.00    -0.248 NA
ATOM     46  C   UNL A   1      43.836  31.196  26.514  1.00  0.00     0.031 C 
ATOM     47  C   UNL A   1      45.134  27.650  28.855  1.00  0.00     0.029 A 
ATOM     48  N   UNL A   1      43.210  26.596  28.654  1.00  0.00    -0.354 N 
ATOM     49  C   UNL A   1      46.102  31.073  26.898  1.00  0.00     0.074 A 
ATOM     50  C   UNL A   1      44.993  31.870  26.434  1.00  0.00     0.031 C 
ATOM     51  C   UNL A   1      45.269  26.462  29.462  1.00  0.00     0.029 A 
ATOM     52  C   UNL A   1      44.202  25.650  28.946  1.00  0.00     0.049 A 
ATOM     53  H   UNL A   1      42.242  26.436  28.716  1.00  0.00     0.167 HD
ATOM     54  C   UNL A   1      47.390  31.318  27.312  1.00  0.00     0.037 A 
ATOM     55  C   UNL A   1      44.437  24.594  28.105  1.00  0.00     0.037 A 
ATOM     56  C   UNL A   1      48.120  30.068  27.638  1.00  0.00     0.049 A 
ATOM     57  C   UNL A   1      45.735  24.757  27.287  1.00  0.00     0.074 A 
ATOM     58  C   UNL A   1      49.009  29.633  28.611  1.00  0.00     0.029 A 
ATOM     59  N   UNL A   1      47.875  28.942  26.863  1.00  0.00    -0.354 N 
ATOM     60  N   UNL A   1      46.564  25.767  27.425  1.00  0.00    -0.248 NA
ATOM     61  C   UNL A   1      46.215  23.842  26.252  1.00  0.00     0.031 C 
ATOM     62  C   UNL A   1      49.209  28.223  28.447  1.00  0.00     0.029 A 
ATOM     63  C   UNL A   1      48.537  27.826  27.308  1.00  0.00     0.049 A 
ATOM     64  H   UNL A   1      47.286  28.944  26.074  1.00  0.00     0.167 HD
ATOM     65  C   UNL A   1      47.590  25.707  26.529  1.00  0.00     0.074 A 
ATOM     66  C   UNL A   1      47.322  24.472  25.807  1.00  0.00     0.031 C 
ATOM     67  C   UNL A   1      48.562  26.667  26.429  1.00  0.00     0.037 A 
BRANCH  54  68
ATOM     68  C   UNL A   1      48.001  32.706  27.584  1.00  0.00     0.058 A 
ATOM     69  C   UNL A   1      49.286  33.033  27.084  1.00  0.00     0.135 A 
ATOM     70  C   UNL A   1      47.450  33.700  28.427  1.00  0.00     0.135 A 
ATOM     71  F   UNL A   1      49.927  32.218  26.235  1.00  0.00    -0.206 F 
ATOM     72  C   UNL A   1      49.982  34.203  27.426  1.00  0.00     0.059 A 
ATOM     73  C   UNL A   1      48.104  34.909  28.735  1.00  0.00     0.059 A 
ATOM     74  F   UNL A   1      46.267  33.532  29.030  1.00  0.00    -0.206 F 
ATOM     75  C   UNL A   1      49.384  35.142  28.252  1.00  0.00     0.060 A 
BRANCH  75  76
ATOM     76  S   UNL A   1      50.280  36.665  28.646  1.00  0.00     0.124 S 
ATOM     77  O   UNL A   1      50.368  36.604  30.101  1.00  0.00    -0.237 OA
ATOM     78  O   UNL A   1      51.539  36.483  27.929  1.00  0.00    -0.237 OA
ATOM     79  O   UNL A   1      49.417  37.717  28.116  1.00  0.00    -0.744 OA
ENDBRANCH  75  76
ENDBRANCH  54  68
BRANCH  55  80
ATOM     80  C   UNL A   1      43.142  23.892  27.812  1.00  0.00     0.058 A 
ATOM     81  C   UNL A   1      42.892  23.713  26.427  1.00  0.00     0.135 A 
ATOM     82  C   UNL A   1      42.683  22.878  28.671  1.00  0.00     0.135 A 
ATOM     83  F   UNL A   1      43.279  24.658  25.554  1.00  0.00    -0.206 F 
ATOM     84  C   UNL A   1      42.473  22.490  25.906  1.00  0.00     0.059 A 
ATOM     85  C   UNL A   1      42.250  21.642  28.164  1.00  0.00     0.059 A 
ATOM     86  F   UNL A   1      42.892  22.978  29.992  1.00  0.00    -0.206 F 
ATOM     87  C   UNL A   1      42.214  21.439  26.779  1.00  0.00     0.060 A 
BRANCH  87  88
ATOM     88  S   UNL A   1      42.083  19.764  26.087  1.00  0.00     0.124 S 
ATOM     89  O   UNL A   1      42.442  18.936  27.230  1.00  0.00    -0.237 OA
ATOM     90  O   UNL A   1      40.683  19.704  25.677  1.00  0.00    -0.237 OA
ATOM     91  O   UNL A   1      43.046  19.798  24.994  1.00  0.00    -0.744 OA
ENDBRANCH  87  88
ENDBRANCH  55  80
BRANCH  67  92
ATOM     92  C   UNL A   1      49.640  26.668  25.379  1.00  0.00     0.058 A 
ATOM     93  C   UNL A   1      49.386  26.971  24.041  1.00  0.00     0.135 A 
ATOM     94  C   UNL A   1      50.968  26.281  25.694  1.00  0.00     0.135 A 
ATOM     95  F   UNL A   1      48.135  27.209  23.617  1.00  0.00    -0.206 F 
ATOM     96  C   UNL A   1      50.412  27.041  23.102  1.00  0.00     0.059 A 
ATOM     97  C   UNL A   1      51.993  26.280  24.762  1.00  0.00     0.059 A 
ATOM     98  F   UNL A   1      51.340  25.928  26.932  1.00  0.00    -0.206 F 
ATOM     99  C   UNL A   1      51.716  26.725  23.483  1.00  0.00     0.060 A 
BRANCH  99 100
ATOM    100  S   UNL A   1      53.062  26.946  22.313  1.00  0.00     0.124 S 
ATOM    101  O   UNL A   1      53.208  28.398  22.271  1.00  0.00    -0.237 OA
ATOM    102  O   UNL A   1      54.138  26.220  22.981  1.00  0.00    -0.237 OA
ATOM    103  O   UNL A   1      52.556  26.334  21.088  1.00  0.00    -0.744 OA
ENDBRANCH  99 100
ENDBRANCH  67  92
ENDBRANCH  41  42
ENDBRANCH  34  36
ENDBRANCH  33  34
ENDBRANCH  32  33
ENDBRANCH  31  32
ENDBRANCH  30  31
ENDBRANCH  29  30
ENDBRANCH  28  29
ENDBRANCH   1  28
TORSDOF 26
ENDMDL
MODEL 3
REMARK VINA RESULT:      -8.3      8.414     15.112
REMARK SMILES Cc1ccc(Nc2c(Cl)cccc2Cl)c(CC(=O)OCCOCCOCCOCCOC(=O)c2ccc(-c3c4nc(c(-c5c(F)cc(S(=O)(=O)[O-])cc5F)c5ccc([nH]5)c(-c5c(F)cc(S(=O)(=O)[O-])cc5F)c5nc(c(-c6c(F)cc(S(=O)(=O)[O-])cc6F)c6ccc3[nH]6)C=C5)C=C4)cc2)c1
REMARK SMILES IDX 25 1 24 2 23 3 22 4 21 5 20 6 19 7 17 8 18 9 16 10 15 11
REMARK SMILES IDX 1 12 2 13 3 14 100 15 4 16 5 17 6 18 7 20 8 21 13 22 9 23
REMARK SMILES IDX 10 24 12 25 14 26 11 27 26 28 27 29 28 30 29 31 30 32 31 33
REMARK SMILES IDX 32 34 33 35 34 36 35 37 99 38 36 39 98 40 37 41 38 42 39 43
REMARK SMILES IDX 92 44 40 45 97 46 91 47 93 48 41 49 96 50 90 51 89 52 42 54
REMARK SMILES IDX 76 55 55 56 75 57 56 58 59 59 74 60 94 61 57 62 58 63 73 65
REMARK SMILES IDX 95 66 60 67 43 68 44 69 53 70 45 71 46 72 52 73 54 74 47 75
REMARK SMILES IDX 48 76 49 77 50 78 51 79 77 80 78 81 87 82 79 83 80 84 86 85
REMARK SMILES IDX 88 86 81 87 82 88 83 89 84 90 85 91 61 92 62 93 71 94 63 95
REMARK SMILES IDX 64 96 70 97 72 98 65 99 66 100 67 101 68 102 69 103
REMARK H PARENT 6 19 93 53 59 64
REMARK Flexibility Score: inf
ROOT
ATOM      1  O   UNL A   1      39.028  19.909  25.349  1.00  0.00    -0.377 OA
ENDROOT
BRANCH   1   2
ATOM      2  C   UNL A   1      38.748  21.267  25.666  1.00  0.00     0.188 C 
BRANCH   2   3
ATOM      3  C   UNL A   1      37.320  21.679  25.526  1.00  0.00     0.188 C 
BRANCH   3   4
ATOM      4  O   UNL A   1      36.697  21.600  24.265  1.00  0.00    -0.376 OA
BRANCH   4   5
ATOM      5  C   UNL A   1      36.866  22.799  23.549  1.00  0.00     0.202 C 
BRANCH   5   6
ATOM      6  C   UNL A   1      35.819  23.886  23.782  1.00  0.00     0.261 C 
BRANCH   6   7
ATOM      7  O   UNL A   1      34.764  23.889  22.803  1.00  0.00    -0.463 OA
BRANCH   7   8
ATOM      8  C   UNL A   1      34.109  25.073  22.687  1.00  0.00     0.310 C 
ATOM      9  O   UNL A   1      33.680  25.523  21.648  1.00  0.00    -0.252 OA
BRANCH   8  10
ATOM     10  C   UNL A   1      34.020  25.862  23.976  1.00  0.00     0.160 C 
BRANCH  10  11
ATOM     11  C   UNL A   1      32.831  25.739  24.922  1.00  0.00    -0.013 A 
ATOM     12  C   UNL A   1      31.338  28.220  27.476  1.00  0.00     0.044 C 
ATOM     13  C   UNL A   1      31.571  26.983  26.658  1.00  0.00    -0.051 A 
ATOM     14  C   UNL A   1      30.664  25.937  26.713  1.00  0.00     0.005 A 
ATOM     15  C   UNL A   1      32.664  26.856  25.800  1.00  0.00     0.009 A 
ATOM     16  C   UNL A   1      30.848  24.799  25.919  1.00  0.00     0.026 A 
ATOM     17  C   UNL A   1      31.887  24.663  24.971  1.00  0.00     0.042 A 
BRANCH  17  18
ATOM     18  N   UNL A   1      31.972  23.473  24.148  1.00  0.00    -0.353 N 
ATOM     19  H   UNL A   1      31.561  23.545  23.257  1.00  0.00     0.167 HD
BRANCH  18  20
ATOM     20  C   UNL A   1      32.580  22.185  24.454  1.00  0.00     0.076 A 
ATOM     21  C   UNL A   1      32.317  21.012  23.729  1.00  0.00     0.066 A 
ATOM     22  C   UNL A   1      33.280  21.981  25.675  1.00  0.00     0.066 A 
ATOM     23  Cl  UNL A   1      31.991  21.063  22.026  1.00  0.00    -0.082 Cl
ATOM     24  C   UNL A   1      32.425  19.738  24.319  1.00  0.00     0.023 A 
ATOM     25  C   UNL A   1      33.332  20.719  26.299  1.00  0.00     0.023 A 
ATOM     26  Cl  UNL A   1      34.120  23.279  26.465  1.00  0.00    -0.082 Cl
ATOM     27  C   UNL A   1      32.854  19.598  25.635  1.00  0.00     0.003 A 
ENDBRANCH  18  20
ENDBRANCH  17  18
ENDBRANCH  10  11
ENDBRANCH   8  10
ENDBRANCH   7   8
ENDBRANCH   6   7
ENDBRANCH   5   6
ENDBRANCH   4   5
ENDBRANCH   3   4
ENDBRANCH   2   3
ENDBRANCH   1   2
BRANCH   1  28
ATOM     28  C   UNL A   1      40.255  19.488  25.961  1.00  0.00     0.188 C 
BRANCH  28  29
ATOM     29  C   UNL A   1      41.127  20.570  26.603  1.00  0.00     0.188 C 
BRANCH  29  30
ATOM     30  O   UNL A   1      42.109  20.986  25.669  1.00  0.00    -0.376 OA
BRANCH  30  31
ATOM     31  C   UNL A   1      42.552  22.327  25.733  1.00  0.00     0.202 C 
BRANCH  31  32
ATOM     32  C   UNL A   1      44.052  22.288  25.958  1.00  0.00     0.261 C 
BRANCH  32  33
ATOM     33  O   UNL A   1      44.495  23.640  26.229  1.00  0.00    -0.460 OA
BRANCH  33  34
ATOM     34  C   UNL A   1      45.624  23.715  26.998  1.00  0.00     0.338 C 
ATOM     35  O   UNL A   1      46.685  23.208  26.682  1.00  0.00    -0.246 OA
BRANCH  34  36
ATOM     36  C   UNL A   1      45.382  24.489  28.259  1.00  0.00     0.060 A 
ATOM     37  C   UNL A   1      46.441  25.142  28.910  1.00  0.00     0.016 A 
ATOM     38  C   UNL A   1      44.141  24.451  28.884  1.00  0.00     0.016 A 
ATOM     39  C   UNL A   1      46.303  25.622  30.233  1.00  0.00     0.010 A 
ATOM     40  C   UNL A   1      44.009  24.931  30.186  1.00  0.00     0.010 A 
ATOM     41  C   UNL A   1      45.095  25.467  30.910  1.00  0.00    -0.014 A 
BRANCH  41  42
ATOM     42  C   UNL A   1      44.860  25.657  32.372  1.00  0.00     0.031 A 
ATOM     43  C   UNL A   1      44.268  26.961  32.855  1.00  0.00     0.074 A 
ATOM     44  C   UNL A   1      44.759  24.553  33.166  1.00  0.00     0.049 A 
ATOM     45  N   UNL A   1      43.767  27.170  34.028  1.00  0.00    -0.248 NA
ATOM     46  C   UNL A   1      44.158  28.156  32.013  1.00  0.00     0.031 C 
ATOM     47  C   UNL A   1      43.839  24.358  34.296  1.00  0.00     0.029 A 
ATOM     48  N   UNL A   1      45.373  23.314  33.109  1.00  0.00    -0.354 N 
ATOM     49  C   UNL A   1      42.986  28.316  33.988  1.00  0.00     0.074 A 
ATOM     50  C   UNL A   1      43.359  28.947  32.746  1.00  0.00     0.031 C 
ATOM     51  C   UNL A   1      43.988  23.137  34.829  1.00  0.00     0.029 A 
ATOM     52  C   UNL A   1      45.255  22.664  34.345  1.00  0.00     0.049 A 
ATOM     53  H   UNL A   1      45.826  22.944  32.318  1.00  0.00     0.167 HD
ATOM     54  C   UNL A   1      42.007  28.501  34.935  1.00  0.00     0.037 A 
ATOM     55  C   UNL A   1      46.339  22.522  35.172  1.00  0.00     0.037 A 
ATOM     56  C   UNL A   1      42.141  27.554  36.070  1.00  0.00     0.049 A 
ATOM     57  C   UNL A   1      46.294  23.470  36.388  1.00  0.00     0.074 A 
ATOM     58  C   UNL A   1      41.296  26.794  36.867  1.00  0.00     0.029 A 
ATOM     59  N   UNL A   1      43.419  27.212  36.494  1.00  0.00    -0.354 N 
ATOM     60  N   UNL A   1      45.293  24.283  36.645  1.00  0.00    -0.248 NA
ATOM     61  C   UNL A   1      47.337  23.611  37.403  1.00  0.00     0.031 C 
ATOM     62  C   UNL A   1      42.096  25.941  37.696  1.00  0.00     0.029 A 
ATOM     63  C   UNL A   1      43.422  26.266  37.488  1.00  0.00     0.049 A 
ATOM     64  H   UNL A   1      44.239  27.607  36.119  1.00  0.00     0.167 HD
ATOM     65  C   UNL A   1      45.540  25.063  37.735  1.00  0.00     0.074 A 
ATOM     66  C   UNL A   1      46.847  24.602  38.177  1.00  0.00     0.031 C 
ATOM     67  C   UNL A   1      44.678  26.029  38.182  1.00  0.00     0.037 A 
BRANCH  54  68
ATOM     68  C   UNL A   1      40.797  29.445  34.809  1.00  0.00     0.058 A 
ATOM     69  C   UNL A   1      39.846  29.257  33.775  1.00  0.00     0.135 A 
ATOM     70  C   UNL A   1      40.582  30.619  35.570  1.00  0.00     0.135 A 
ATOM     71  F   UNL A   1      39.882  28.170  32.991  1.00  0.00    -0.206 F 
ATOM     72  C   UNL A   1      38.816  30.164  33.487  1.00  0.00     0.059 A 
ATOM     73  C   UNL A   1      39.518  31.513  35.338  1.00  0.00     0.059 A 
ATOM     74  F   UNL A   1      41.417  30.981  36.552  1.00  0.00    -0.206 F 
ATOM     75  C   UNL A   1      38.653  31.294  34.275  1.00  0.00     0.060 A 
BRANCH  75  76
ATOM     76  S   UNL A   1      37.292  32.430  33.914  1.00  0.00     0.124 S 
ATOM     77  O   UNL A   1      37.981  33.545  33.273  1.00  0.00    -0.237 OA
ATOM     78  O   UNL A   1      36.437  31.630  33.043  1.00  0.00    -0.237 OA
ATOM     79  O   UNL A   1      36.730  32.719  35.231  1.00  0.00    -0.744 OA
ENDBRANCH  75  76
ENDBRANCH  54  68
BRANCH  55  80
ATOM     80  C   UNL A   1      47.482  21.929  34.398  1.00  0.00     0.058 A 
ATOM     81  C   UNL A   1      48.610  22.784  34.304  1.00  0.00     0.135 A 
ATOM     82  C   UNL A   1      47.742  20.549  34.477  1.00  0.00     0.135 A 
ATOM     83  F   UNL A   1      48.431  24.111  34.197  1.00  0.00    -0.206 F 
ATOM     84  C   UNL A   1      49.902  22.328  34.555  1.00  0.00     0.059 A 
ATOM     85  C   UNL A   1      49.039  20.071  34.722  1.00  0.00     0.059 A 
ATOM     86  F   UNL A   1      46.723  19.683  34.576  1.00  0.00    -0.206 F 
ATOM     87  C   UNL A   1      50.101  20.978  34.826  1.00  0.00     0.060 A 
BRANCH  87  88
ATOM     88  S   UNL A   1      51.688  20.475  35.554  1.00  0.00     0.124 S 
ATOM     89  O   UNL A   1      51.547  20.932  36.929  1.00  0.00    -0.237 OA
ATOM     90  O   UNL A   1      51.674  19.027  35.363  1.00  0.00    -0.237 OA
ATOM     91  O   UNL A   1      52.653  21.197  34.735  1.00  0.00    -0.744 OA
ENDBRANCH  87  88
ENDBRANCH  55  80
BRANCH  67  92
ATOM     92  C   UNL A   1      44.982  26.967  39.319  1.00  0.00     0.058 A 
ATOM     93  C   UNL A   1      45.570  28.218  39.127  1.00  0.00     0.135 A 
ATOM     94  C   UNL A   1      44.750  26.584  40.665  1.00  0.00     0.135 A 
ATOM     95  F   UNL A   1      45.959  28.611  37.904  1.00  0.00    -0.206 F 
ATOM     96  C   UNL A   1      45.771  29.100  40.186  1.00  0.00     0.059 A 
ATOM     97  C   UNL A   1      45.002  27.420  41.741  1.00  0.00     0.059 A 
ATOM     98  F   UNL A   1      44.226  25.395  40.994  1.00  0.00    -0.206 F 
ATOM     99  C   UNL A   1      45.452  28.701  41.483  1.00  0.00     0.060 A 
BRANCH  99 100
ATOM    100  S   UNL A   1      45.579  29.881  42.832  1.00  0.00     0.124 S 
ATOM    101  O   UNL A   1      47.020  30.087  42.937  1.00  0.00    -0.237 OA
ATOM    102  O   UNL A   1      44.816  31.005  42.297  1.00  0.00    -0.237 OA
ATOM    103  O   UNL A   1      44.965  29.183  43.958  1.00  0.00    -0.744 OA
ENDBRANCH  99 100
ENDBRANCH  67  92
ENDBRANCH  41  42
ENDBRANCH  34  36
ENDBRANCH  33  34
ENDBRANCH  32  33
ENDBRANCH  31  32
ENDBRANCH  30  31
ENDBRANCH  29  30
ENDBRANCH  28  29
ENDBRANCH   1  28
TORSDOF 26
ENDMDL
