MODEL 1
REMARK VINA RESULT:      -6.5      0.000      0.000
REMARK SMILES COC(=O)c1nc(C)cc(N[C@@H]2C=C[C@H](C(=O)OCCOCCOCCOCCOC(=O)c3ccc(-c4c5nc(c(-c6c(F)cc(S(=O)(=O)[O-])cc6F)c6ccc([nH]6)c(-c6c(F)cc(S(=O)(=O)[O-])cc6F)c6nc(c(-c7c(F)cc(S(=O)(=O)[O-])cc7F)c7ccc4[nH]7)C=C6)C=C5)cc3)C2)n1
REMARK SMILES IDX 23 1 22 2 21 3 20 4 19 5 18 6 16 7 17 8 15 9 12 10 13 11
REMARK SMILES IDX 99 12 14 13 11 14 10 16 5 17 6 18 100 19 7 20 8 21 9 22 3 23
REMARK SMILES IDX 4 24 2 25 1 26 24 27 25 28 26 29 27 30 28 31 29 32 30 33
REMARK SMILES IDX 31 34 32 35 33 36 34 37 98 38 35 39 97 40 36 41 37 42 38 43
REMARK SMILES IDX 91 44 39 45 96 46 90 47 92 48 40 49 95 50 89 51 88 52 41 54
REMARK SMILES IDX 75 55 54 56 74 57 55 58 58 59 73 60 93 61 56 62 57 63 72 65
REMARK SMILES IDX 94 66 59 67 42 68 43 69 52 70 44 71 45 72 51 73 53 74 46 75
REMARK SMILES IDX 47 76 48 77 49 78 50 79 76 80 77 81 86 82 78 83 79 84 85 85
REMARK SMILES IDX 87 86 80 87 81 88 82 89 83 90 84 91 60 92 61 93 70 94 62 95
REMARK SMILES IDX 63 96 69 97 71 98 64 99 65 100 66 101 67 102 68 103
REMARK H PARENT 11 15 92 53 58 64
REMARK Flexibility Score: inf
ROOT
ATOM      1  C   UNL A   1      47.243  26.695  29.237  1.00  0.00     0.188 C 
ENDROOT
BRANCH   1   2
ATOM      2  C   UNL A   1      48.379  27.547  29.819  1.00  0.00     0.188 C 
BRANCH   2   3
ATOM      3  O   UNL A   1      47.951  28.604  30.658  1.00  0.00    -0.376 OA
BRANCH   3   4
ATOM      4  C   UNL A   1      47.213  29.698  30.137  1.00  0.00     0.202 C 
BRANCH   4   5
ATOM      5  C   UNL A   1      45.683  29.828  30.223  1.00  0.00     0.261 C 
BRANCH   5   6
ATOM      6  O   UNL A   1      45.112  30.983  29.588  1.00  0.00    -0.463 OA
BRANCH   6   7
ATOM      7  C   UNL A   1      43.770  31.024  29.395  1.00  0.00     0.312 C 
ATOM      8  O   UNL A   1      43.213  30.700  28.354  1.00  0.00    -0.252 OA
BRANCH   7   9
ATOM      9  C   UNL A   1      43.078  31.716  30.579  1.00  0.00     0.124 C 
ATOM     10  C   UNL A   1      42.908  34.169  30.829  1.00  0.00     0.104 C 
ATOM     11  C   UNL A   1      44.035  33.617  31.614  1.00  0.00    -0.006 C 
ATOM     12  C   UNL A   1      42.195  32.937  30.270  1.00  0.00     0.048 C 
ATOM     13  C   UNL A   1      44.097  32.283  31.524  1.00  0.00    -0.014 C 
BRANCH  10  14
ATOM     14  N   UNL A   1      43.276  35.184  29.865  1.00  0.00    -0.364 N 
ATOM     15  H   UNL A   1      42.922  36.079  30.075  1.00  0.00     0.162 HD
BRANCH  14  16
ATOM     16  C   UNL A   1      44.031  35.138  28.703  1.00  0.00     0.131 A 
ATOM     17  C   UNL A   1      45.972  35.193  27.473  1.00  0.00     0.241 A 
ATOM     18  N   UNL A   1      45.351  34.945  26.299  1.00  0.00    -0.227 NA
ATOM     19  N   UNL A   1      45.364  35.305  28.688  1.00  0.00    -0.205 NA
ATOM     20  C   UNL A   1      44.033  34.743  26.346  1.00  0.00     0.044 A 
ATOM     21  C   UNL A   1      43.364  34.371  25.059  1.00  0.00     0.067 C 
ATOM     22  C   UNL A   1      43.338  34.823  27.534  1.00  0.00     0.070 A 
BRANCH  17  23
ATOM     23  C   UNL A   1      47.467  35.325  27.339  1.00  0.00     0.376 C 
ATOM     24  O   UNL A   1      48.048  36.403  27.257  1.00  0.00    -0.242 OA
BRANCH  23  25
ATOM     25  O   UNL A   1      48.078  34.117  27.237  1.00  0.00    -0.463 OA
ATOM     26  C   UNL A   1      48.937  33.998  26.095  1.00  0.00     0.282 C 
ENDBRANCH  23  25
ENDBRANCH  17  23
ENDBRANCH  14  16
ENDBRANCH  10  14
ENDBRANCH   7   9
ENDBRANCH   6   7
ENDBRANCH   5   6
ENDBRANCH   4   5
ENDBRANCH   3   4
ENDBRANCH   2   3
ENDBRANCH   1   2
BRANCH   1  27
ATOM     27  O   UNL A   1      47.248  26.573  27.826  1.00  0.00    -0.377 OA
BRANCH  27  28
ATOM     28  C   UNL A   1      47.585  25.283  27.356  1.00  0.00     0.188 C 
BRANCH  28  29
ATOM     29  C   UNL A   1      46.455  24.532  26.617  1.00  0.00     0.188 C 
BRANCH  29  30
ATOM     30  O   UNL A   1      45.937  23.276  27.054  1.00  0.00    -0.376 OA
BRANCH  30  31
ATOM     31  C   UNL A   1      45.270  22.393  26.169  1.00  0.00     0.202 C 
BRANCH  31  32
ATOM     32  C   UNL A   1      43.931  21.779  26.593  1.00  0.00     0.261 C 
BRANCH  32  33
ATOM     33  O   UNL A   1      43.065  22.666  27.311  1.00  0.00    -0.460 OA
BRANCH  33  34
ATOM     34  C   UNL A   1      42.278  23.464  26.539  1.00  0.00     0.338 C 
ATOM     35  O   UNL A   1      41.815  23.203  25.455  1.00  0.00    -0.246 OA
BRANCH  34  36
ATOM     36  C   UNL A   1      41.878  24.648  27.343  1.00  0.00     0.060 A 
ATOM     37  C   UNL A   1      42.640  25.817  27.190  1.00  0.00     0.016 A 
ATOM     38  C   UNL A   1      40.729  24.655  28.139  1.00  0.00     0.016 A 
ATOM     39  C   UNL A   1      42.270  26.987  27.850  1.00  0.00     0.010 A 
ATOM     40  C   UNL A   1      40.381  25.817  28.836  1.00  0.00     0.010 A 
ATOM     41  C   UNL A   1      41.173  26.974  28.722  1.00  0.00    -0.014 A 
BRANCH  41  42
ATOM     42  C   UNL A   1      41.071  28.041  29.743  1.00  0.00     0.031 A 
ATOM     43  C   UNL A   1      42.086  28.006  30.857  1.00  0.00     0.074 A 
ATOM     44  C   UNL A   1      40.153  29.022  29.681  1.00  0.00     0.049 A 
ATOM     45  N   UNL A   1      42.219  28.797  31.886  1.00  0.00    -0.248 NA
ATOM     46  C   UNL A   1      43.090  26.927  30.792  1.00  0.00     0.031 C 
ATOM     47  C   UNL A   1      39.152  29.189  28.630  1.00  0.00     0.029 A 
ATOM     48  N   UNL A   1      39.917  30.068  30.539  1.00  0.00    -0.354 N 
ATOM     49  C   UNL A   1      43.323  28.318  32.583  1.00  0.00     0.074 A 
ATOM     50  C   UNL A   1      43.805  27.152  31.880  1.00  0.00     0.031 C 
ATOM     51  C   UNL A   1      38.393  30.264  28.916  1.00  0.00     0.029 A 
ATOM     52  C   UNL A   1      38.842  30.847  30.181  1.00  0.00     0.049 A 
ATOM     53  H   UNL A   1      40.466  30.244  31.337  1.00  0.00     0.167 HD
ATOM     54  C   UNL A   1      43.891  28.810  33.706  1.00  0.00     0.037 A 
ATOM     55  C   UNL A   1      38.278  31.894  30.819  1.00  0.00     0.037 A 
ATOM     56  C   UNL A   1      43.397  29.955  34.416  1.00  0.00     0.049 A 
ATOM     57  C   UNL A   1      38.880  32.373  32.120  1.00  0.00     0.074 A 
ATOM     58  C   UNL A   1      43.890  30.527  35.573  1.00  0.00     0.029 A 
ATOM     59  N   UNL A   1      42.289  30.697  34.038  1.00  0.00    -0.354 N 
ATOM     60  N   UNL A   1      39.934  31.923  32.760  1.00  0.00    -0.248 NA
ATOM     61  C   UNL A   1      38.215  33.505  32.787  1.00  0.00     0.031 C 
ATOM     62  C   UNL A   1      43.053  31.591  35.921  1.00  0.00     0.029 A 
ATOM     63  C   UNL A   1      42.070  31.712  34.951  1.00  0.00     0.049 A 
ATOM     64  H   UNL A   1      41.739  30.527  33.239  1.00  0.00     0.167 HD
ATOM     65  C   UNL A   1      40.076  32.734  33.883  1.00  0.00     0.074 A 
ATOM     66  C   UNL A   1      39.006  33.708  33.832  1.00  0.00     0.031 C 
ATOM     67  C   UNL A   1      41.007  32.681  34.868  1.00  0.00     0.037 A 
BRANCH  54  68
ATOM     68  C   UNL A   1      45.094  28.090  34.243  1.00  0.00     0.058 A 
ATOM     69  C   UNL A   1      44.969  26.907  34.989  1.00  0.00     0.135 A 
ATOM     70  C   UNL A   1      46.385  28.577  33.991  1.00  0.00     0.135 A 
ATOM     71  F   UNL A   1      43.755  26.420  35.287  1.00  0.00    -0.206 F 
ATOM     72  C   UNL A   1      46.085  26.237  35.477  1.00  0.00     0.059 A 
ATOM     73  C   UNL A   1      47.517  27.909  34.447  1.00  0.00     0.059 A 
ATOM     74  F   UNL A   1      46.556  29.713  33.297  1.00  0.00    -0.206 F 
ATOM     75  C   UNL A   1      47.356  26.744  35.195  1.00  0.00     0.060 A 
BRANCH  75  76
ATOM     76  S   UNL A   1      48.796  25.846  35.809  1.00  0.00     0.124 S 
ATOM     77  O   UNL A   1      48.170  24.695  36.453  1.00  0.00    -0.237 OA
ATOM     78  O   UNL A   1      49.533  25.563  34.582  1.00  0.00    -0.237 OA
ATOM     79  O   UNL A   1      49.432  26.801  36.713  1.00  0.00    -0.744 OA
ENDBRANCH  75  76
ENDBRANCH  54  68
BRANCH  55  80
ATOM     80  C   UNL A   1      37.063  32.554  30.266  1.00  0.00     0.058 A 
ATOM     81  C   UNL A   1      37.159  33.588  29.322  1.00  0.00     0.135 A 
ATOM     82  C   UNL A   1      35.780  32.192  30.705  1.00  0.00     0.135 A 
ATOM     83  F   UNL A   1      38.362  33.984  28.880  1.00  0.00    -0.206 F 
ATOM     84  C   UNL A   1      36.030  34.257  28.853  1.00  0.00     0.059 A 
ATOM     85  C   UNL A   1      34.635  32.827  30.232  1.00  0.00     0.059 A 
ATOM     86  F   UNL A   1      35.629  31.206  31.602  1.00  0.00    -0.206 F 
ATOM     87  C   UNL A   1      34.772  33.870  29.316  1.00  0.00     0.060 A 
BRANCH  87  88
ATOM     88  S   UNL A   1      33.311  34.724  28.684  1.00  0.00     0.124 S 
ATOM     89  O   UNL A   1      33.907  35.893  28.048  1.00  0.00    -0.237 OA
ATOM     90  O   UNL A   1      32.738  33.728  27.785  1.00  0.00    -0.237 OA
ATOM     91  O   UNL A   1      32.533  34.990  29.891  1.00  0.00    -0.744 OA
ENDBRANCH  87  88
ENDBRANCH  55  80
BRANCH  67  92
ATOM     92  C   UNL A   1      40.943  33.726  35.948  1.00  0.00     0.058 A 
ATOM     93  C   UNL A   1      40.291  33.490  37.167  1.00  0.00     0.135 A 
ATOM     94  C   UNL A   1      41.610  34.952  35.787  1.00  0.00     0.135 A 
ATOM     95  F   UNL A   1      39.638  32.335  37.372  1.00  0.00    -0.206 F 
ATOM     96  C   UNL A   1      40.284  34.442  38.183  1.00  0.00     0.059 A 
ATOM     97  C   UNL A   1      41.639  35.907  36.797  1.00  0.00     0.059 A 
ATOM     98  F   UNL A   1      42.263  35.222  34.644  1.00  0.00    -0.206 F 
ATOM     99  C   UNL A   1      40.964  35.646  37.989  1.00  0.00     0.060 A 
BRANCH  99 100
ATOM    100  S   UNL A   1      40.979  36.857  39.327  1.00  0.00     0.124 S 
ATOM    101  O   UNL A   1      42.237  37.554  39.078  1.00  0.00    -0.237 OA
ATOM    102  O   UNL A   1      39.766  37.625  39.069  1.00  0.00    -0.237 OA
ATOM    103  O   UNL A   1      40.947  36.033  40.532  1.00  0.00    -0.744 OA
ENDBRANCH  99 100
ENDBRANCH  67  92
ENDBRANCH  41  42
ENDBRANCH  34  36
ENDBRANCH  33  34
ENDBRANCH  32  33
ENDBRANCH  31  32
ENDBRANCH  30  31
ENDBRANCH  29  30
ENDBRANCH  28  29
ENDBRANCH  27  28
ENDBRANCH   1  27
TORSDOF 27
ENDMDL
MODEL 2
REMARK VINA RESULT:      -6.2      4.445      7.491
REMARK SMILES COC(=O)c1nc(C)cc(N[C@@H]2C=C[C@H](C(=O)OCCOCCOCCOCCOC(=O)c3ccc(-c4c5nc(c(-c6c(F)cc(S(=O)(=O)[O-])cc6F)c6ccc([nH]6)c(-c6c(F)cc(S(=O)(=O)[O-])cc6F)c6nc(c(-c7c(F)cc(S(=O)(=O)[O-])cc7F)c7ccc4[nH]7)C=C6)C=C5)cc3)C2)n1
REMARK SMILES IDX 23 1 22 2 21 3 20 4 19 5 18 6 16 7 17 8 15 9 12 10 13 11
REMARK SMILES IDX 99 12 14 13 11 14 10 16 5 17 6 18 100 19 7 20 8 21 9 22 3 23
REMARK SMILES IDX 4 24 2 25 1 26 24 27 25 28 26 29 27 30 28 31 29 32 30 33
REMARK SMILES IDX 31 34 32 35 33 36 34 37 98 38 35 39 97 40 36 41 37 42 38 43
REMARK SMILES IDX 91 44 39 45 96 46 90 47 92 48 40 49 95 50 89 51 88 52 41 54
REMARK SMILES IDX 75 55 54 56 74 57 55 58 58 59 73 60 93 61 56 62 57 63 72 65
REMARK SMILES IDX 94 66 59 67 42 68 43 69 52 70 44 71 45 72 51 73 53 74 46 75
REMARK SMILES IDX 47 76 48 77 49 78 50 79 76 80 77 81 86 82 78 83 79 84 85 85
REMARK SMILES IDX 87 86 80 87 81 88 82 89 83 90 84 91 60 92 61 93 70 94 62 95
REMARK SMILES IDX 63 96 69 97 71 98 64 99 65 100 66 101 67 102 68 103
REMARK H PARENT 11 15 92 53 58 64
REMARK Flexibility Score: inf
ROOT
ATOM      1  C   UNL A   1      44.618  19.079  24.250  1.00  0.00     0.188 C 
ENDROOT
BRANCH   1   2
ATOM      2  C   UNL A   1      43.597  18.710  25.335  1.00  0.00     0.188 C 
BRANCH   2   3
ATOM      3  O   UNL A   1      42.368  19.406  25.247  1.00  0.00    -0.376 OA
BRANCH   3   4
ATOM      4  C   UNL A   1      41.783  20.004  26.393  1.00  0.00     0.202 C 
BRANCH   4   5
ATOM      5  C   UNL A   1      40.897  21.260  26.355  1.00  0.00     0.261 C 
BRANCH   5   6
ATOM      6  O   UNL A   1      41.584  22.510  26.183  1.00  0.00    -0.463 OA
BRANCH   6   7
ATOM      7  C   UNL A   1      41.632  23.377  27.226  1.00  0.00     0.312 C 
ATOM      8  O   UNL A   1      42.026  23.084  28.347  1.00  0.00    -0.252 OA
BRANCH   7   9
ATOM      9  C   UNL A   1      40.944  24.700  26.857  1.00  0.00     0.124 C 
ATOM     10  C   UNL A   1      41.587  26.892  27.798  1.00  0.00     0.104 C 
ATOM     11  C   UNL A   1      40.426  26.311  28.511  1.00  0.00    -0.006 C 
ATOM     12  C   UNL A   1      41.842  25.930  26.638  1.00  0.00     0.048 C 
ATOM     13  C   UNL A   1      40.042  25.150  27.969  1.00  0.00    -0.014 C 
BRANCH  10  14
ATOM     14  N   UNL A   1      42.728  27.195  28.637  1.00  0.00    -0.364 N 
ATOM     15  H   UNL A   1      42.768  28.134  28.930  1.00  0.00     0.162 HD
BRANCH  14  16
ATOM     16  C   UNL A   1      43.774  26.416  29.107  1.00  0.00     0.131 A 
ATOM     17  C   UNL A   1      45.889  25.518  29.065  1.00  0.00     0.241 A 
ATOM     18  N   UNL A   1      45.746  24.873  30.244  1.00  0.00    -0.227 NA
ATOM     19  N   UNL A   1      44.942  26.287  28.457  1.00  0.00    -0.205 NA
ATOM     20  C   UNL A   1      44.592  25.049  30.889  1.00  0.00     0.044 A 
ATOM     21  C   UNL A   1      44.474  24.414  32.241  1.00  0.00     0.067 C 
ATOM     22  C   UNL A   1      43.583  25.822  30.356  1.00  0.00     0.070 A 
BRANCH  17  23
ATOM     23  C   UNL A   1      47.251  25.331  28.446  1.00  0.00     0.376 C 
ATOM     24  O   UNL A   1      47.565  24.347  27.783  1.00  0.00    -0.242 OA
BRANCH  23  25
ATOM     25  O   UNL A   1      48.103  26.333  28.779  1.00  0.00    -0.463 OA
ATOM     26  C   UNL A   1      49.060  26.641  27.757  1.00  0.00     0.282 C 
ENDBRANCH  23  25
ENDBRANCH  17  23
ENDBRANCH  14  16
ENDBRANCH  10  14
ENDBRANCH   7   9
ENDBRANCH   6   7
ENDBRANCH   5   6
ENDBRANCH   4   5
ENDBRANCH   3   4
ENDBRANCH   2   3
ENDBRANCH   1   2
BRANCH   1  27
ATOM     27  O   UNL A   1      45.479  20.156  24.578  1.00  0.00    -0.377 OA
BRANCH  27  28
ATOM     28  C   UNL A   1      45.033  21.416  24.118  1.00  0.00     0.188 C 
BRANCH  28  29
ATOM     29  C   UNL A   1      44.649  22.424  25.224  1.00  0.00     0.188 C 
BRANCH  29  30
ATOM     30  O   UNL A   1      45.435  23.573  25.539  1.00  0.00    -0.376 OA
BRANCH  30  31
ATOM     31  C   UNL A   1      45.115  24.859  25.040  1.00  0.00     0.202 C 
BRANCH  31  32
ATOM     32  C   UNL A   1      46.182  25.960  25.065  1.00  0.00     0.261 C 
BRANCH  32  33
ATOM     33  O   UNL A   1      45.876  27.071  25.915  1.00  0.00    -0.460 OA
BRANCH  33  34
ATOM     34  C   UNL A   1      46.518  28.232  25.612  1.00  0.00     0.338 C 
ATOM     35  O   UNL A   1      47.183  28.463  24.630  1.00  0.00    -0.246 OA
BRANCH  34  36
ATOM     36  C   UNL A   1      46.090  29.272  26.583  1.00  0.00     0.060 A 
ATOM     37  C   UNL A   1      47.046  29.723  27.507  1.00  0.00     0.016 A 
ATOM     38  C   UNL A   1      44.829  29.873  26.523  1.00  0.00     0.016 A 
ATOM     39  C   UNL A   1      46.737  30.756  28.389  1.00  0.00     0.010 A 
ATOM     40  C   UNL A   1      44.503  30.880  27.438  1.00  0.00     0.010 A 
ATOM     41  C   UNL A   1      45.444  31.297  28.397  1.00  0.00    -0.014 A 
BRANCH  41  42
ATOM     42  C   UNL A   1      44.993  32.031  29.601  1.00  0.00     0.031 A 
ATOM     43  C   UNL A   1      44.521  31.194  30.762  1.00  0.00     0.074 A 
ATOM     44  C   UNL A   1      45.030  33.372  29.692  1.00  0.00     0.049 A 
ATOM     45  N   UNL A   1      44.057  31.567  31.923  1.00  0.00    -0.248 NA
ATOM     46  C   UNL A   1      44.586  29.731  30.581  1.00  0.00     0.031 C 
ATOM     47  C   UNL A   1      45.510  34.285  28.656  1.00  0.00     0.029 A 
ATOM     48  N   UNL A   1      44.645  34.200  30.718  1.00  0.00    -0.354 N 
ATOM     49  C   UNL A   1      43.786  30.390  32.611  1.00  0.00     0.074 A 
ATOM     50  C   UNL A   1      44.105  29.291  31.732  1.00  0.00     0.031 C 
ATOM     51  C   UNL A   1      45.371  35.551  29.093  1.00  0.00     0.029 A 
ATOM     52  C   UNL A   1      44.773  35.538  30.428  1.00  0.00     0.049 A 
ATOM     53  H   UNL A   1      44.308  33.868  31.581  1.00  0.00     0.167 HD
ATOM     54  C   UNL A   1      43.319  30.237  33.871  1.00  0.00     0.037 A 
ATOM     55  C   UNL A   1      44.424  36.621  31.154  1.00  0.00     0.037 A 
ATOM     56  C   UNL A   1      42.980  31.330  34.736  1.00  0.00     0.049 A 
ATOM     57  C   UNL A   1      43.822  36.423  32.527  1.00  0.00     0.074 A 
ATOM     58  C   UNL A   1      42.484  31.284  36.025  1.00  0.00     0.029 A 
ATOM     59  N   UNL A   1      43.095  32.668  34.394  1.00  0.00    -0.354 N 
ATOM     60  N   UNL A   1      43.586  35.305  33.173  1.00  0.00    -0.248 NA
ATOM     61  C   UNL A   1      43.438  37.635  33.269  1.00  0.00     0.031 C 
ATOM     62  C   UNL A   1      42.257  32.597  36.449  1.00  0.00     0.029 A 
ATOM     63  C   UNL A   1      42.661  33.460  35.442  1.00  0.00     0.049 A 
ATOM     64  H   UNL A   1      43.435  33.006  33.535  1.00  0.00     0.167 HD
ATOM     65  C   UNL A   1      43.059  35.680  34.406  1.00  0.00     0.074 A 
ATOM     66  C   UNL A   1      43.018  37.127  34.420  1.00  0.00     0.031 C 
ATOM     67  C   UNL A   1      42.646  34.901  35.437  1.00  0.00     0.037 A 
BRANCH  54  68
ATOM     68  C   UNL A   1      43.124  28.834  34.368  1.00  0.00     0.058 A 
ATOM     69  C   UNL A   1      44.179  28.106  34.941  1.00  0.00     0.135 A 
ATOM     70  C   UNL A   1      41.866  28.220  34.289  1.00  0.00     0.135 A 
ATOM     71  F   UNL A   1      45.410  28.636  35.008  1.00  0.00    -0.206 F 
ATOM     72  C   UNL A   1      43.994  26.810  35.411  1.00  0.00     0.059 A 
ATOM     73  C   UNL A   1      41.651  26.935  34.776  1.00  0.00     0.059 A 
ATOM     74  F   UNL A   1      40.830  28.869  33.734  1.00  0.00    -0.206 F 
ATOM     75  C   UNL A   1      42.723  26.235  35.328  1.00  0.00     0.060 A 
BRANCH  75  76
ATOM     76  S   UNL A   1      42.492  24.564  35.969  1.00  0.00     0.124 S 
ATOM     77  O   UNL A   1      43.774  24.321  36.622  1.00  0.00    -0.237 OA
ATOM     78  O   UNL A   1      41.348  24.728  36.860  1.00  0.00    -0.237 OA
ATOM     79  O   UNL A   1      42.239  23.772  34.769  1.00  0.00    -0.744 OA
ENDBRANCH  75  76
ENDBRANCH  54  68
BRANCH  55  80
ATOM     80  C   UNL A   1      44.602  37.993  30.604  1.00  0.00     0.058 A 
ATOM     81  C   UNL A   1      43.734  38.509  29.630  1.00  0.00     0.135 A 
ATOM     82  C   UNL A   1      45.675  38.801  31.012  1.00  0.00     0.135 A 
ATOM     83  F   UNL A   1      42.701  37.772  29.194  1.00  0.00    -0.206 F 
ATOM     84  C   UNL A   1      43.936  39.764  29.061  1.00  0.00     0.059 A 
ATOM     85  C   UNL A   1      45.883  40.070  30.477  1.00  0.00     0.059 A 
ATOM     86  F   UNL A   1      46.533  38.362  31.944  1.00  0.00    -0.206 F 
ATOM     87  C   UNL A   1      45.016  40.537  29.490  1.00  0.00     0.060 A 
BRANCH  87  88
ATOM     88  S   UNL A   1      45.257  42.174  28.766  1.00  0.00     0.124 S 
ATOM     89  O   UNL A   1      44.066  42.307  27.936  1.00  0.00    -0.237 OA
ATOM     90  O   UNL A   1      45.313  43.027  29.948  1.00  0.00    -0.237 OA
ATOM     91  O   UNL A   1      46.518  42.036  28.042  1.00  0.00    -0.744 OA
ENDBRANCH  87  88
ENDBRANCH  55  80
BRANCH  67  92
ATOM     92  C   UNL A   1      42.156  35.587  36.682  1.00  0.00     0.058 A 
ATOM     93  C   UNL A   1      43.000  35.821  37.778  1.00  0.00     0.135 A 
ATOM     94  C   UNL A   1      40.844  36.084  36.746  1.00  0.00     0.135 A 
ATOM     95  F   UNL A   1      44.263  35.366  37.768  1.00  0.00    -0.206 F 
ATOM     96  C   UNL A   1      42.553  36.505  38.905  1.00  0.00     0.059 A 
ATOM     97  C   UNL A   1      40.384  36.794  37.850  1.00  0.00     0.059 A 
ATOM     98  F   UNL A   1      40.000  35.901  35.717  1.00  0.00    -0.206 F 
ATOM     99  C   UNL A   1      41.244  36.990  38.930  1.00  0.00     0.060 A 
BRANCH  99 100
ATOM    100  S   UNL A   1      40.688  37.909  40.380  1.00  0.00     0.124 S 
ATOM    101  O   UNL A   1      41.480  39.130  40.276  1.00  0.00    -0.237 OA
ATOM    102  O   UNL A   1      39.258  38.057  40.129  1.00  0.00    -0.237 OA
ATOM    103  O   UNL A   1      41.035  37.031  41.493  1.00  0.00    -0.744 OA
ENDBRANCH  99 100
ENDBRANCH  67  92
ENDBRANCH  41  42
ENDBRANCH  34  36
ENDBRANCH  33  34
ENDBRANCH  32  33
ENDBRANCH  31  32
ENDBRANCH  30  31
ENDBRANCH  29  30
ENDBRANCH  28  29
ENDBRANCH  27  28
ENDBRANCH   1  27
TORSDOF 27
ENDMDL
MODEL 3
REMARK VINA RESULT:      -6.1      4.611      9.068
REMARK SMILES COC(=O)c1nc(C)cc(N[C@@H]2C=C[C@H](C(=O)OCCOCCOCCOCCOC(=O)c3ccc(-c4c5nc(c(-c6c(F)cc(S(=O)(=O)[O-])cc6F)c6ccc([nH]6)c(-c6c(F)cc(S(=O)(=O)[O-])cc6F)c6nc(c(-c7c(F)cc(S(=O)(=O)[O-])cc7F)c7ccc4[nH]7)C=C6)C=C5)cc3)C2)n1
REMARK SMILES IDX 23 1 22 2 21 3 20 4 19 5 18 6 16 7 17 8 15 9 12 10 13 11
REMARK SMILES IDX 99 12 14 13 11 14 10 16 5 17 6 18 100 19 7 20 8 21 9 22 3 23
REMARK SMILES IDX 4 24 2 25 1 26 24 27 25 28 26 29 27 30 28 31 29 32 30 33
REMARK SMILES IDX 31 34 32 35 33 36 34 37 98 38 35 39 97 40 36 41 37 42 38 43
REMARK SMILES IDX 91 44 39 45 96 46 90 47 92 48 40 49 95 50 89 51 88 52 41 54
REMARK SMILES IDX 75 55 54 56 74 57 55 58 58 59 73 60 93 61 56 62 57 63 72 65
REMARK SMILES IDX 94 66 59 67 42 68 43 69 52 70 44 71 45 72 51 73 53 74 46 75
REMARK SMILES IDX 47 76 48 77 49 78 50 79 76 80 77 81 86 82 78 83 79 84 85 85
REMARK SMILES IDX 87 86 80 87 81 88 82 89 83 90 84 91 60 92 61 93 70 94 62 95
REMARK SMILES IDX 63 96 69 97 71 98 64 99 65 100 66 101 67 102 68 103
REMARK H PARENT 11 15 92 53 58 64
REMARK Flexibility Score: inf
ROOT
ATOM      1  C   UNL A   1      43.182  34.467  28.867  1.00  0.00     0.188 C 
ENDROOT
BRANCH   1   2
ATOM      2  C   UNL A   1      42.292  35.617  28.378  1.00  0.00     0.188 C 
BRANCH   2   3
ATOM      3  O   UNL A   1      40.904  35.344  28.419  1.00  0.00    -0.376 OA
BRANCH   3   4
ATOM      4  C   UNL A   1      40.337  34.596  29.483  1.00  0.00     0.202 C 
BRANCH   4   5
ATOM      5  C   UNL A   1      39.029  34.969  30.200  1.00  0.00     0.261 C 
BRANCH   5   6
ATOM      6  O   UNL A   1      38.441  33.940  31.012  1.00  0.00    -0.463 OA
BRANCH   6   7
ATOM      7  C   UNL A   1      39.100  33.531  32.126  1.00  0.00     0.312 C 
ATOM      8  O   UNL A   1      39.700  34.280  32.886  1.00  0.00    -0.252 OA
BRANCH   7   9
ATOM      9  C   UNL A   1      39.156  31.997  32.184  1.00  0.00     0.124 C 
ATOM     10  C   UNL A   1      37.190  30.537  31.852  1.00  0.00     0.104 C 
ATOM     11  C   UNL A   1      37.473  30.754  33.289  1.00  0.00    -0.006 C 
ATOM     12  C   UNL A   1      38.352  31.217  31.129  1.00  0.00     0.048 C 
ATOM     13  C   UNL A   1      38.569  31.499  33.472  1.00  0.00    -0.014 C 
BRANCH  10  14
ATOM     14  N   UNL A   1      35.861  30.925  31.428  1.00  0.00    -0.364 N 
ATOM     15  H   UNL A   1      35.239  30.168  31.326  1.00  0.00     0.162 HD
BRANCH  14  16
ATOM     16  C   UNL A   1      35.297  32.158  31.137  1.00  0.00     0.131 A 
ATOM     17  C   UNL A   1      34.735  34.346  31.558  1.00  0.00     0.241 A 
ATOM     18  N   UNL A   1      34.182  34.542  30.340  1.00  0.00    -0.227 NA
ATOM     19  N   UNL A   1      35.292  33.185  32.003  1.00  0.00    -0.205 NA
ATOM     20  C   UNL A   1      34.235  33.520  29.485  1.00  0.00     0.044 A 
ATOM     21  C   UNL A   1      33.711  33.771  28.104  1.00  0.00     0.067 C 
ATOM     22  C   UNL A   1      34.794  32.312  29.845  1.00  0.00     0.070 A 
BRANCH  17  23
ATOM     23  C   UNL A   1      34.706  35.576  32.429  1.00  0.00     0.376 C 
ATOM     24  O   UNL A   1      35.376  35.700  33.449  1.00  0.00    -0.242 OA
BRANCH  23  25
ATOM     25  O   UNL A   1      33.797  36.486  31.996  1.00  0.00    -0.463 OA
ATOM     26  C   UNL A   1      33.821  37.720  32.725  1.00  0.00     0.282 C 
ENDBRANCH  23  25
ENDBRANCH  17  23
ENDBRANCH  14  16
ENDBRANCH  10  14
ENDBRANCH   7   9
ENDBRANCH   6   7
ENDBRANCH   5   6
ENDBRANCH   4   5
ENDBRANCH   3   4
ENDBRANCH   2   3
ENDBRANCH   1   2
BRANCH   1  27
ATOM     27  O   UNL A   1      44.236  34.109  27.990  1.00  0.00    -0.377 OA
BRANCH  27  28
ATOM     28  C   UNL A   1      43.805  33.597  26.745  1.00  0.00     0.188 C 
BRANCH  28  29
ATOM     29  C   UNL A   1      44.555  32.339  26.253  1.00  0.00     0.188 C 
BRANCH  29  30
ATOM     30  O   UNL A   1      44.071  31.012  26.459  1.00  0.00    -0.376 OA
BRANCH  30  31
ATOM     31  C   UNL A   1      43.676  30.550  27.739  1.00  0.00     0.202 C 
BRANCH  31  32
ATOM     32  C   UNL A   1      42.426  29.670  27.864  1.00  0.00     0.261 C 
BRANCH  32  33
ATOM     33  O   UNL A   1      41.588  29.978  28.984  1.00  0.00    -0.460 OA
BRANCH  33  34
ATOM     34  C   UNL A   1      41.162  28.905  29.706  1.00  0.00     0.338 C 
ATOM     35  O   UNL A   1      40.794  27.838  29.278  1.00  0.00    -0.246 OA
BRANCH  34  36
ATOM     36  C   UNL A   1      41.434  29.170  31.143  1.00  0.00     0.060 A 
ATOM     37  C   UNL A   1      42.369  30.172  31.447  1.00  0.00     0.016 A 
ATOM     38  C   UNL A   1      40.718  28.540  32.165  1.00  0.00     0.016 A 
ATOM     39  C   UNL A   1      42.608  30.529  32.772  1.00  0.00     0.010 A 
ATOM     40  C   UNL A   1      40.989  28.867  33.498  1.00  0.00     0.010 A 
ATOM     41  C   UNL A   1      41.962  29.835  33.804  1.00  0.00    -0.014 A 
BRANCH  41  42
ATOM     42  C   UNL A   1      42.547  29.887  35.164  1.00  0.00     0.031 A 
ATOM     43  C   UNL A   1      43.453  28.746  35.551  1.00  0.00     0.074 A 
ATOM     44  C   UNL A   1      42.328  30.908  36.012  1.00  0.00     0.049 A 
ATOM     45  N   UNL A   1      44.079  28.526  36.674  1.00  0.00    -0.248 NA
ATOM     46  C   UNL A   1      43.679  27.714  34.522  1.00  0.00     0.031 C 
ATOM     47  C   UNL A   1      41.512  32.088  35.733  1.00  0.00     0.029 A 
ATOM     48  N   UNL A   1      42.778  31.105  37.294  1.00  0.00    -0.354 N 
ATOM     49  C   UNL A   1      44.779  27.340  36.483  1.00  0.00     0.074 A 
ATOM     50  C   UNL A   1      44.478  26.870  35.151  1.00  0.00     0.031 C 
ATOM     51  C   UNL A   1      41.503  32.879  36.823  1.00  0.00     0.029 A 
ATOM     52  C   UNL A   1      42.294  32.250  37.882  1.00  0.00     0.049 A 
ATOM     53  H   UNL A   1      43.391  30.485  37.751  1.00  0.00     0.167 HD
ATOM     54  C   UNL A   1      45.608  26.701  37.339  1.00  0.00     0.037 A 
ATOM     55  C   UNL A   1      42.456  32.716  39.137  1.00  0.00     0.037 A 
ATOM     56  C   UNL A   1      45.888  27.158  38.670  1.00  0.00     0.049 A 
ATOM     57  C   UNL A   1      43.319  31.939  40.105  1.00  0.00     0.074 A 
ATOM     58  C   UNL A   1      46.702  26.576  39.625  1.00  0.00     0.029 A 
ATOM     59  N   UNL A   1      45.355  28.303  39.237  1.00  0.00    -0.354 N 
ATOM     60  N   UNL A   1      43.989  30.828  39.907  1.00  0.00    -0.248 NA
ATOM     61  C   UNL A   1      43.447  32.479  41.468  1.00  0.00     0.031 C 
ATOM     62  C   UNL A   1      46.625  27.348  40.787  1.00  0.00     0.029 A 
ATOM     63  C   UNL A   1      45.806  28.438  40.538  1.00  0.00     0.049 A 
ATOM     64  H   UNL A   1      44.745  28.929  38.784  1.00  0.00     0.167 HD
ATOM     65  C   UNL A   1      44.642  30.555  41.107  1.00  0.00     0.074 A 
ATOM     66  C   UNL A   1      44.293  31.621  42.022  1.00  0.00     0.031 C 
ATOM     67  C   UNL A   1      45.457  29.519  41.425  1.00  0.00     0.037 A 
BRANCH  54  68
ATOM     68  C   UNL A   1      46.244  25.428  36.862  1.00  0.00     0.058 A 
ATOM     69  C   UNL A   1      45.594  24.190  36.989  1.00  0.00     0.135 A 
ATOM     70  C   UNL A   1      47.507  25.449  36.253  1.00  0.00     0.135 A 
ATOM     71  F   UNL A   1      44.400  24.112  37.595  1.00  0.00    -0.206 F 
ATOM     72  C   UNL A   1      46.182  23.014  36.537  1.00  0.00     0.059 A 
ATOM     73  C   UNL A   1      48.103  24.289  35.770  1.00  0.00     0.059 A 
ATOM     74  F   UNL A   1      48.176  26.606  36.124  1.00  0.00    -0.206 F 
ATOM     75  C   UNL A   1      47.435  23.075  35.924  1.00  0.00     0.060 A 
BRANCH  75  76
ATOM     76  S   UNL A   1      48.171  21.543  35.316  1.00  0.00     0.124 S 
ATOM     77  O   UNL A   1      47.081  20.993  34.516  1.00  0.00    -0.237 OA
ATOM     78  O   UNL A   1      49.325  22.029  34.566  1.00  0.00    -0.237 OA
ATOM     79  O   UNL A   1      48.485  20.808  36.537  1.00  0.00    -0.744 OA
ENDBRANCH  75  76
ENDBRANCH  54  68
BRANCH  55  80
ATOM     80  C   UNL A   1      41.776  33.967  39.576  1.00  0.00     0.058 A 
ATOM     81  C   UNL A   1      40.433  33.964  39.984  1.00  0.00     0.135 A 
ATOM     82  C   UNL A   1      42.446  35.200  39.554  1.00  0.00     0.135 A 
ATOM     83  F   UNL A   1      39.743  32.814  40.008  1.00  0.00    -0.206 F 
ATOM     84  C   UNL A   1      39.771  35.140  40.329  1.00  0.00     0.059 A 
ATOM     85  C   UNL A   1      41.813  36.386  39.920  1.00  0.00     0.059 A 
ATOM     86  F   UNL A   1      43.732  35.261  39.179  1.00  0.00    -0.206 F 
ATOM     87  C   UNL A   1      40.470  36.347  40.292  1.00  0.00     0.060 A 
BRANCH  87  88
ATOM     88  S   UNL A   1      39.612  37.865  40.765  1.00  0.00     0.124 S 
ATOM     89  O   UNL A   1      40.382  38.873  40.048  1.00  0.00    -0.237 OA
ATOM     90  O   UNL A   1      38.261  37.620  40.271  1.00  0.00    -0.237 OA
ATOM     91  O   UNL A   1      39.746  37.883  42.219  1.00  0.00    -0.744 OA
ENDBRANCH  87  88
ENDBRANCH  55  80
BRANCH  67  92
ATOM     92  C   UNL A   1      46.066  29.503  42.799  1.00  0.00     0.058 A 
ATOM     93  C   UNL A   1      47.223  30.235  43.104  1.00  0.00     0.135 A 
ATOM     94  C   UNL A   1      45.438  28.804  43.844  1.00  0.00     0.135 A 
ATOM     95  F   UNL A   1      47.863  30.919  42.142  1.00  0.00    -0.206 F 
ATOM     96  C   UNL A   1      47.749  30.258  44.392  1.00  0.00     0.059 A 
ATOM     97  C   UNL A   1      45.930  28.835  45.144  1.00  0.00     0.059 A 
ATOM     98  F   UNL A   1      44.318  28.100  43.609  1.00  0.00    -0.206 F 
ATOM     99  C   UNL A   1      47.093  29.557  45.406  1.00  0.00     0.060 A 
BRANCH  99 100
ATOM    100  S   UNL A   1      47.764  29.627  47.080  1.00  0.00     0.124 S 
ATOM    101  O   UNL A   1      47.817  31.065  47.317  1.00  0.00    -0.237 OA
ATOM    102  O   UNL A   1      46.763  28.895  47.850  1.00  0.00    -0.237 OA
ATOM    103  O   UNL A   1      49.058  28.963  46.957  1.00  0.00    -0.744 OA
ENDBRANCH  99 100
ENDBRANCH  67  92
ENDBRANCH  41  42
ENDBRANCH  34  36
ENDBRANCH  33  34
ENDBRANCH  32  33
ENDBRANCH  31  32
ENDBRANCH  30  31
ENDBRANCH  29  30
ENDBRANCH  28  29
ENDBRANCH  27  28
ENDBRANCH   1  27
TORSDOF 27
ENDMDL
