MODEL 1
REMARK VINA RESULT:      -9.8      0.000      0.000
REMARK SMILES COc1cc(F)ccc1-c1ccc(=O)n(CC(=O)NCc2ccc(C(=O)OCCOCCOCCOCCOC(=O)c3ccc(-c4c5nc(c(-c6c(F)cc(S(=O)(=O)[O-])cc6F)c6ccc([nH]6)c(-c6c(F)cc(S(=O)(=O)[O-])cc6F)c6nc(c(-c7c(F)cc(S(=O)(=O)[O-])cc7F)c7ccc4[nH]7)C=C6)C=C5)cc3)cc2)n1
REMARK SMILES IDX 31 1 30 2 29 3 28 4 27 5 25 6 26 7 24 8 21 9 22 10 109 11
REMARK SMILES IDX 23 12 108 13 20 14 19 15 17 16 18 17 16 19 15 20 10 21 11 22
REMARK SMILES IDX 110 23 12 24 13 25 14 26 9 27 3 28 4 29 5 30 8 31 6 32 7 33
REMARK SMILES IDX 2 34 1 35 32 36 33 37 34 38 35 39 36 40 37 41 38 42 39 43
REMARK SMILES IDX 40 44 41 45 42 46 43 47 107 48 44 49 106 50 45 51 46 52
REMARK SMILES IDX 47 53 100 54 48 55 105 56 99 57 101 58 49 59 104 60 98 61
REMARK SMILES IDX 97 62 50 64 84 65 63 66 83 67 64 68 67 69 82 70 102 71 65 72
REMARK SMILES IDX 66 73 81 75 103 76 68 77 51 78 52 79 61 80 53 81 54 82 60 83
REMARK SMILES IDX 62 84 55 85 56 86 57 87 58 88 59 89 85 90 86 91 95 92 87 93
REMARK SMILES IDX 88 94 94 95 96 96 89 97 90 98 91 99 92 100 93 101 69 102
REMARK SMILES IDX 70 103 79 104 71 105 72 106 78 107 80 108 73 109 74 110
REMARK SMILES IDX 75 111 76 112 77 113
REMARK H PARENT 19 18 101 63 67 74
REMARK Flexibility Score: inf
ROOT
ATOM      1  C   UNL A   1      34.598  28.932  26.661  1.00  0.00     0.188 C 
ENDROOT
BRANCH   1   2
ATOM      2  O   UNL A   1      33.576  28.258  25.942  1.00  0.00    -0.376 OA
BRANCH   2   3
ATOM      3  C   UNL A   1      32.307  28.896  25.895  1.00  0.00     0.202 C 
BRANCH   3   4
ATOM      4  C   UNL A   1      31.177  28.034  25.315  1.00  0.00     0.261 C 
BRANCH   4   5
ATOM      5  O   UNL A   1      30.682  27.027  26.210  1.00  0.00    -0.460 OA
BRANCH   5   6
ATOM      6  C   UNL A   1      30.248  25.877  25.647  1.00  0.00     0.338 C 
ATOM      7  O   UNL A   1      29.425  25.768  24.755  1.00  0.00    -0.246 OA
BRANCH   6   8
ATOM      8  C   UNL A   1      31.099  24.764  26.135  1.00  0.00     0.060 A 
ATOM      9  C   UNL A   1      32.784  22.732  27.115  1.00  0.00    -0.029 A 
ATOM     10  C   UNL A   1      33.274  24.030  26.903  1.00  0.00     0.006 A 
ATOM     11  C   UNL A   1      31.422  22.482  26.879  1.00  0.00     0.006 A 
ATOM     12  C   UNL A   1      32.443  25.036  26.406  1.00  0.00     0.016 A 
ATOM     13  C   UNL A   1      30.583  23.489  26.388  1.00  0.00     0.016 A 
BRANCH   9  14
ATOM     14  C   UNL A   1      33.679  21.616  27.602  1.00  0.00     0.151 C 
BRANCH  14  15
ATOM     15  N   UNL A   1      34.893  21.511  26.818  1.00  0.00    -0.350 N 
ATOM     16  C   UNL A   1      35.176  20.772  25.709  1.00  0.00     0.242 C 
ATOM     17  O   UNL A   1      36.245  21.016  25.137  1.00  0.00    -0.273 OA
ATOM     18  H   UNL A   1      35.639  22.067  27.141  1.00  0.00     0.163 HD
BRANCH  16  19
ATOM     19  C   UNL A   1      34.155  19.823  25.076  1.00  0.00     0.248 C 
BRANCH  19  20
ATOM     20  N   UNL A   1      33.336  20.418  24.028  1.00  0.00    -0.220 N 
ATOM     21  C   UNL A   1      32.717  22.325  22.938  1.00  0.00     0.095 A 
ATOM     22  C   UNL A   1      31.814  21.599  22.027  1.00  0.00     0.037 A 
ATOM     23  N   UNL A   1      33.433  21.784  23.870  1.00  0.00    -0.169 NA
ATOM     24  C   UNL A   1      31.796  20.271  22.151  1.00  0.00     0.075 A 
ATOM     25  C   UNL A   1      32.618  19.592  23.176  1.00  0.00     0.267 A 
ATOM     26  O   UNL A   1      32.592  18.365  23.240  1.00  0.00    -0.268 OA
BRANCH  21  27
ATOM     27  C   UNL A   1      32.768  23.782  22.755  1.00  0.00     0.044 A 
ATOM     28  C   UNL A   1      33.967  24.477  22.961  1.00  0.00     0.131 A 
ATOM     29  C   UNL A   1      33.990  25.861  22.795  1.00  0.00     0.086 A 
ATOM     30  C   UNL A   1      32.812  26.530  22.472  1.00  0.00     0.126 A 
ATOM     31  C   UNL A   1      31.584  24.460  22.440  1.00  0.00     0.017 A 
ATOM     32  F   UNL A   1      32.841  27.859  22.304  1.00  0.00    -0.207 F 
ATOM     33  C   UNL A   1      31.611  25.846  22.302  1.00  0.00     0.040 A 
BRANCH  28  34
ATOM     34  O   UNL A   1      35.104  23.767  23.240  1.00  0.00    -0.496 OA
ATOM     35  C   UNL A   1      35.742  24.210  24.439  1.00  0.00     0.278 C 
ENDBRANCH  28  34
ENDBRANCH  21  27
ENDBRANCH  19  20
ENDBRANCH  16  19
ENDBRANCH  14  15
ENDBRANCH   9  14
ENDBRANCH   6   8
ENDBRANCH   5   6
ENDBRANCH   4   5
ENDBRANCH   3   4
ENDBRANCH   2   3
ENDBRANCH   1   2
BRANCH   1  36
ATOM     36  C   UNL A   1      34.171  30.272  27.290  1.00  0.00     0.188 C 
BRANCH  36  37
ATOM     37  O   UNL A   1      35.047  30.943  28.180  1.00  0.00    -0.377 OA
BRANCH  37  38
ATOM     38  C   UNL A   1      35.529  32.241  27.847  1.00  0.00     0.188 C 
BRANCH  38  39
ATOM     39  C   UNL A   1      34.773  33.507  28.306  1.00  0.00     0.188 C 
BRANCH  39  40
ATOM     40  O   UNL A   1      34.280  33.449  29.641  1.00  0.00    -0.376 OA
BRANCH  40  41
ATOM     41  C   UNL A   1      35.194  33.850  30.651  1.00  0.00     0.202 C 
BRANCH  41  42
ATOM     42  C   UNL A   1      35.518  32.745  31.662  1.00  0.00     0.261 C 
BRANCH  42  43
ATOM     43  O   UNL A   1      36.382  31.707  31.175  1.00  0.00    -0.460 OA
BRANCH  43  44
ATOM     44  C   UNL A   1      37.198  31.120  32.082  1.00  0.00     0.338 C 
ATOM     45  O   UNL A   1      36.954  30.915  33.258  1.00  0.00    -0.246 OA
BRANCH  44  46
ATOM     46  C   UNL A   1      38.368  30.577  31.356  1.00  0.00     0.060 A 
ATOM     47  C   UNL A   1      38.546  30.836  29.994  1.00  0.00     0.016 A 
ATOM     48  C   UNL A   1      39.280  29.770  32.047  1.00  0.00     0.016 A 
ATOM     49  C   UNL A   1      39.665  30.319  29.335  1.00  0.00     0.010 A 
ATOM     50  C   UNL A   1      40.397  29.249  31.385  1.00  0.00     0.010 A 
ATOM     51  C   UNL A   1      40.612  29.546  30.032  1.00  0.00    -0.014 A 
BRANCH  51  52
ATOM     52  C   UNL A   1      41.924  29.255  29.401  1.00  0.00     0.031 A 
ATOM     53  C   UNL A   1      43.022  30.271  29.302  1.00  0.00     0.074 A 
ATOM     54  C   UNL A   1      42.102  28.021  28.893  1.00  0.00     0.049 A 
ATOM     55  N   UNL A   1      44.250  30.108  28.879  1.00  0.00    -0.248 NA
ATOM     56  C   UNL A   1      42.705  31.645  29.717  1.00  0.00     0.031 C 
ATOM     57  C   UNL A   1      41.081  26.969  28.878  1.00  0.00     0.029 A 
ATOM     58  N   UNL A   1      43.193  27.434  28.305  1.00  0.00    -0.354 N 
ATOM     59  C   UNL A   1      44.866  31.348  28.997  1.00  0.00     0.074 A 
ATOM     60  C   UNL A   1      43.856  32.266  29.487  1.00  0.00     0.031 C 
ATOM     61  C   UNL A   1      41.603  25.858  28.339  1.00  0.00     0.029 A 
ATOM     62  C   UNL A   1      42.987  26.121  27.958  1.00  0.00     0.049 A 
ATOM     63  H   UNL A   1      44.041  27.908  28.147  1.00  0.00     0.167 HD
ATOM     64  C   UNL A   1      46.156  31.676  28.736  1.00  0.00     0.037 A 
ATOM     65  C   UNL A   1      43.821  25.218  27.409  1.00  0.00     0.037 A 
ATOM     66  C   UNL A   1      47.144  30.754  28.227  1.00  0.00     0.049 A 
ATOM     67  C   UNL A   1      45.242  25.609  27.127  1.00  0.00     0.074 A 
ATOM     68  C   UNL A   1      48.490  30.982  27.985  1.00  0.00     0.029 A 
ATOM     69  N   UNL A   1      46.899  29.436  27.866  1.00  0.00    -0.354 N 
ATOM     70  N   UNL A   1      45.835  26.760  27.336  1.00  0.00    -0.248 NA
ATOM     71  C   UNL A   1      46.111  24.576  26.550  1.00  0.00     0.031 C 
ATOM     72  C   UNL A   1      49.043  29.821  27.432  1.00  0.00     0.029 A 
ATOM     73  C   UNL A   1      48.057  28.849  27.377  1.00  0.00     0.049 A 
ATOM     74  H   UNL A   1      46.028  28.983  27.945  1.00  0.00     0.167 HD
ATOM     75  C   UNL A   1      47.151  26.587  26.924  1.00  0.00     0.074 A 
ATOM     76  C   UNL A   1      47.272  25.213  26.481  1.00  0.00     0.031 C 
ATOM     77  C   UNL A   1      48.166  27.488  26.914  1.00  0.00     0.037 A 
BRANCH  64  78
ATOM     78  C   UNL A   1      46.596  33.089  29.014  1.00  0.00     0.058 A 
ATOM     79  C   UNL A   1      46.493  34.084  28.029  1.00  0.00     0.135 A 
ATOM     80  C   UNL A   1      47.211  33.435  30.228  1.00  0.00     0.135 A 
ATOM     81  F   UNL A   1      45.915  33.811  26.849  1.00  0.00    -0.206 F 
ATOM     82  C   UNL A   1      46.996  35.367  28.232  1.00  0.00     0.059 A 
ATOM     83  C   UNL A   1      47.701  34.717  30.462  1.00  0.00     0.059 A 
ATOM     84  F   UNL A   1      47.326  32.526  31.210  1.00  0.00    -0.206 F 
ATOM     85  C   UNL A   1      47.601  35.673  29.452  1.00  0.00     0.060 A 
BRANCH  85  86
ATOM     86  S   UNL A   1      48.226  37.347  29.711  1.00  0.00     0.124 S 
ATOM     87  O   UNL A   1      47.024  38.151  29.522  1.00  0.00    -0.237 OA
ATOM     88  O   UNL A   1      48.736  37.274  31.078  1.00  0.00    -0.237 OA
ATOM     89  O   UNL A   1      49.248  37.489  28.679  1.00  0.00    -0.744 OA
ENDBRANCH  85  86
ENDBRANCH  64  78
BRANCH  65  90
ATOM     90  C   UNL A   1      43.333  23.840  27.153  1.00  0.00     0.058 A 
ATOM     91  C   UNL A   1      42.952  23.432  25.866  1.00  0.00     0.135 A 
ATOM     92  C   UNL A   1      43.182  22.924  28.203  1.00  0.00     0.135 A 
ATOM     93  F   UNL A   1      43.061  24.279  24.830  1.00  0.00    -0.206 F 
ATOM     94  C   UNL A   1      42.414  22.172  25.634  1.00  0.00     0.059 A 
ATOM     95  C   UNL A   1      42.671  21.648  27.992  1.00  0.00     0.059 A 
ATOM     96  F   UNL A   1      43.540  23.270  29.450  1.00  0.00    -0.206 F 
ATOM     97  C   UNL A   1      42.272  21.288  26.705  1.00  0.00     0.060 A 
BRANCH  97  98
ATOM     98  S   UNL A   1      41.553  19.664  26.386  1.00  0.00     0.124 S 
ATOM     99  O   UNL A   1      42.302  19.240  25.207  1.00  0.00    -0.237 OA
ATOM    100  O   UNL A   1      41.855  18.950  27.623  1.00  0.00    -0.237 OA
ATOM    101  O   UNL A   1      40.142  19.958  26.162  1.00  0.00    -0.744 OA
ENDBRANCH  97  98
ENDBRANCH  65  90
BRANCH  77 102
ATOM    102  C   UNL A   1      49.499  27.014  26.398  1.00  0.00     0.058 A 
ATOM    103  C   UNL A   1      50.480  26.536  27.279  1.00  0.00     0.135 A 
ATOM    104  C   UNL A   1      49.811  27.054  25.030  1.00  0.00     0.135 A 
ATOM    105  F   UNL A   1      50.238  26.479  28.598  1.00  0.00    -0.206 F 
ATOM    106  C   UNL A   1      51.726  26.116  26.824  1.00  0.00     0.059 A 
ATOM    107  C   UNL A   1      51.041  26.612  24.548  1.00  0.00     0.059 A 
ATOM    108  F   UNL A   1      48.903  27.490  24.142  1.00  0.00    -0.206 F 
ATOM    109  C   UNL A   1      51.996  26.155  25.455  1.00  0.00     0.060 A 
BRANCH 109 110
ATOM    110  S   UNL A   1      53.598  25.556  24.873  1.00  0.00     0.124 S 
ATOM    111  O   UNL A   1      53.409  24.111  24.915  1.00  0.00    -0.237 OA
ATOM    112  O   UNL A   1      53.684  26.147  23.541  1.00  0.00    -0.237 OA
ATOM    113  O   UNL A   1      54.536  26.097  25.851  1.00  0.00    -0.744 OA
ENDBRANCH 109 110
ENDBRANCH  77 102
ENDBRANCH  51  52
ENDBRANCH  44  46
ENDBRANCH  43  44
ENDBRANCH  42  43
ENDBRANCH  41  42
ENDBRANCH  40  41
ENDBRANCH  39  40
ENDBRANCH  38  39
ENDBRANCH  37  38
ENDBRANCH  36  37
ENDBRANCH   1  36
TORSDOF 29
ENDMDL
MODEL 2
REMARK VINA RESULT:      -9.6      5.735     11.561
REMARK SMILES COc1cc(F)ccc1-c1ccc(=O)n(CC(=O)NCc2ccc(C(=O)OCCOCCOCCOCCOC(=O)c3ccc(-c4c5nc(c(-c6c(F)cc(S(=O)(=O)[O-])cc6F)c6ccc([nH]6)c(-c6c(F)cc(S(=O)(=O)[O-])cc6F)c6nc(c(-c7c(F)cc(S(=O)(=O)[O-])cc7F)c7ccc4[nH]7)C=C6)C=C5)cc3)cc2)n1
REMARK SMILES IDX 31 1 30 2 29 3 28 4 27 5 25 6 26 7 24 8 21 9 22 10 109 11
REMARK SMILES IDX 23 12 108 13 20 14 19 15 17 16 18 17 16 19 15 20 10 21 11 22
REMARK SMILES IDX 110 23 12 24 13 25 14 26 9 27 3 28 4 29 5 30 8 31 6 32 7 33
REMARK SMILES IDX 2 34 1 35 32 36 33 37 34 38 35 39 36 40 37 41 38 42 39 43
REMARK SMILES IDX 40 44 41 45 42 46 43 47 107 48 44 49 106 50 45 51 46 52
REMARK SMILES IDX 47 53 100 54 48 55 105 56 99 57 101 58 49 59 104 60 98 61
REMARK SMILES IDX 97 62 50 64 84 65 63 66 83 67 64 68 67 69 82 70 102 71 65 72
REMARK SMILES IDX 66 73 81 75 103 76 68 77 51 78 52 79 61 80 53 81 54 82 60 83
REMARK SMILES IDX 62 84 55 85 56 86 57 87 58 88 59 89 85 90 86 91 95 92 87 93
REMARK SMILES IDX 88 94 94 95 96 96 89 97 90 98 91 99 92 100 93 101 69 102
REMARK SMILES IDX 70 103 79 104 71 105 72 106 78 107 80 108 73 109 74 110
REMARK SMILES IDX 75 111 76 112 77 113
REMARK H PARENT 19 18 101 63 67 74
REMARK Flexibility Score: inf
ROOT
ATOM      1  C   UNL A   1      40.166  21.647  26.188  1.00  0.00     0.188 C 
ENDROOT
BRANCH   1   2
ATOM      2  O   UNL A   1      38.747  21.610  26.131  1.00  0.00    -0.376 OA
BRANCH   2   3
ATOM      3  C   UNL A   1      38.175  20.759  25.147  1.00  0.00     0.202 C 
BRANCH   3   4
ATOM      4  C   UNL A   1      36.672  20.966  24.917  1.00  0.00     0.261 C 
BRANCH   4   5
ATOM      5  O   UNL A   1      36.070  21.945  25.777  1.00  0.00    -0.460 OA
BRANCH   5   6
ATOM      6  C   UNL A   1      34.742  22.146  25.630  1.00  0.00     0.338 C 
ATOM      7  O   UNL A   1      33.855  21.334  25.832  1.00  0.00    -0.246 OA
BRANCH   6   8
ATOM      8  C   UNL A   1      34.507  23.591  25.392  1.00  0.00     0.060 A 
ATOM      9  C   UNL A   1      34.057  26.350  25.058  1.00  0.00    -0.029 A 
ATOM     10  C   UNL A   1      33.596  25.682  26.202  1.00  0.00     0.006 A 
ATOM     11  C   UNL A   1      34.796  25.625  24.108  1.00  0.00     0.006 A 
ATOM     12  C   UNL A   1      33.807  24.311  26.364  1.00  0.00     0.016 A 
ATOM     13  C   UNL A   1      35.017  24.253  24.270  1.00  0.00     0.016 A 
BRANCH   9  14
ATOM     14  C   UNL A   1      33.793  27.823  24.839  1.00  0.00     0.151 C 
BRANCH  14  15
ATOM     15  N   UNL A   1      33.415  28.496  26.064  1.00  0.00    -0.350 N 
ATOM     16  C   UNL A   1      32.541  29.517  26.288  1.00  0.00     0.242 C 
ATOM     17  O   UNL A   1      32.277  29.774  27.468  1.00  0.00    -0.273 OA
ATOM     18  H   UNL A   1      33.866  28.160  26.873  1.00  0.00     0.163 HD
BRANCH  16  19
ATOM     19  C   UNL A   1      31.766  30.193  25.154  1.00  0.00     0.248 C 
BRANCH  19  20
ATOM     20  N   UNL A   1      30.907  29.303  24.385  1.00  0.00    -0.220 N 
ATOM     21  C   UNL A   1      30.497  27.166  23.698  1.00  0.00     0.095 A 
ATOM     22  C   UNL A   1      29.285  27.558  22.955  1.00  0.00     0.037 A 
ATOM     23  N   UNL A   1      31.256  27.970  24.370  1.00  0.00    -0.169 NA
ATOM     24  C   UNL A   1      28.928  28.839  23.047  1.00  0.00     0.075 A 
ATOM     25  C   UNL A   1      29.737  29.800  23.829  1.00  0.00     0.267 A 
ATOM     26  O   UNL A   1      29.359  30.966  23.911  1.00  0.00    -0.268 OA
BRANCH  21  27
ATOM     27  C   UNL A   1      30.849  25.741  23.632  1.00  0.00     0.044 A 
ATOM     28  C   UNL A   1      31.547  25.238  22.525  1.00  0.00     0.131 A 
ATOM     29  C   UNL A   1      31.860  23.880  22.476  1.00  0.00     0.086 A 
ATOM     30  C   UNL A   1      31.435  23.043  23.505  1.00  0.00     0.126 A 
ATOM     31  C   UNL A   1      30.416  24.894  24.659  1.00  0.00     0.017 A 
ATOM     32  F   UNL A   1      31.747  21.742  23.459  1.00  0.00    -0.207 F 
ATOM     33  C   UNL A   1      30.712  23.534  24.589  1.00  0.00     0.040 A 
BRANCH  28  34
ATOM     34  O   UNL A   1      31.973  26.110  21.559  1.00  0.00    -0.496 OA
ATOM     35  C   UNL A   1      32.635  25.447  20.481  1.00  0.00     0.278 C 
ENDBRANCH  28  34
ENDBRANCH  21  27
ENDBRANCH  19  20
ENDBRANCH  16  19
ENDBRANCH  14  15
ENDBRANCH   9  14
ENDBRANCH   6   8
ENDBRANCH   5   6
ENDBRANCH   4   5
ENDBRANCH   3   4
ENDBRANCH   2   3
ENDBRANCH   1   2
BRANCH   1  36
ATOM     36  C   UNL A   1      40.786  20.908  27.389  1.00  0.00     0.188 C 
BRANCH  36  37
ATOM     37  O   UNL A   1      42.006  20.204  27.229  1.00  0.00    -0.377 OA
BRANCH  37  38
ATOM     38  C   UNL A   1      42.469  19.888  25.921  1.00  0.00     0.188 C 
BRANCH  38  39
ATOM     39  C   UNL A   1      43.898  20.267  25.474  1.00  0.00     0.188 C 
BRANCH  39  40
ATOM     40  O   UNL A   1      44.000  21.538  24.838  1.00  0.00    -0.376 OA
BRANCH  40  41
ATOM     41  C   UNL A   1      44.126  22.652  25.711  1.00  0.00     0.202 C 
BRANCH  41  42
ATOM     42  C   UNL A   1      43.225  23.833  25.334  1.00  0.00     0.261 C 
BRANCH  42  43
ATOM     43  O   UNL A   1      42.443  24.373  26.410  1.00  0.00    -0.460 OA
BRANCH  43  44
ATOM     44  C   UNL A   1      41.752  25.507  26.151  1.00  0.00     0.338 C 
ATOM     45  O   UNL A   1      41.111  25.757  25.145  1.00  0.00    -0.246 OA
BRANCH  44  46
ATOM     46  C   UNL A   1      41.731  26.320  27.388  1.00  0.00     0.060 A 
ATOM     47  C   UNL A   1      42.613  27.391  27.553  1.00  0.00     0.016 A 
ATOM     48  C   UNL A   1      40.834  25.979  28.408  1.00  0.00     0.016 A 
ATOM     49  C   UNL A   1      42.566  28.148  28.726  1.00  0.00     0.010 A 
ATOM     50  C   UNL A   1      40.791  26.735  29.584  1.00  0.00     0.010 A 
ATOM     51  C   UNL A   1      41.635  27.843  29.738  1.00  0.00    -0.014 A 
BRANCH  51  52
ATOM     52  C   UNL A   1      41.400  28.819  30.832  1.00  0.00     0.031 A 
ATOM     53  C   UNL A   1      40.302  29.838  30.790  1.00  0.00     0.074 A 
ATOM     54  C   UNL A   1      42.233  28.769  31.889  1.00  0.00     0.049 A 
ATOM     55  N   UNL A   1      39.922  30.668  31.729  1.00  0.00    -0.248 NA
ATOM     56  C   UNL A   1      39.541  29.954  29.538  1.00  0.00     0.031 C 
ATOM     57  C   UNL A   1      43.375  27.858  32.010  1.00  0.00     0.029 A 
ATOM     58  N   UNL A   1      42.250  29.482  33.060  1.00  0.00    -0.354 N 
ATOM     59  C   UNL A   1      38.862  31.391  31.197  1.00  0.00     0.074 A 
ATOM     60  C   UNL A   1      38.692  30.933  29.832  1.00  0.00     0.031 C 
ATOM     61  C   UNL A   1      43.961  28.045  33.202  1.00  0.00     0.029 A 
ATOM     62  C   UNL A   1      43.249  29.096  33.921  1.00  0.00     0.049 A 
ATOM     63  H   UNL A   1      41.609  30.201  33.263  1.00  0.00     0.167 HD
ATOM     64  C   UNL A   1      38.096  32.332  31.804  1.00  0.00     0.037 A 
ATOM     65  C   UNL A   1      43.551  29.525  35.160  1.00  0.00     0.037 A 
ATOM     66  C   UNL A   1      38.292  32.793  33.158  1.00  0.00     0.049 A 
ATOM     67  C   UNL A   1      42.690  30.571  35.806  1.00  0.00     0.074 A 
ATOM     68  C   UNL A   1      37.532  33.704  33.876  1.00  0.00     0.029 A 
ATOM     69  N   UNL A   1      39.325  32.398  33.997  1.00  0.00    -0.354 N 
ATOM     70  N   UNL A   1      41.631  31.175  35.324  1.00  0.00    -0.248 NA
ATOM     71  C   UNL A   1      43.056  30.982  37.166  1.00  0.00     0.031 C 
ATOM     72  C   UNL A   1      38.133  33.895  35.125  1.00  0.00     0.029 A 
ATOM     73  C   UNL A   1      39.239  33.065  35.210  1.00  0.00     0.049 A 
ATOM     74  H   UNL A   1      40.019  31.739  33.764  1.00  0.00     0.167 HD
ATOM     75  C   UNL A   1      41.196  32.031  36.328  1.00  0.00     0.074 A 
ATOM     76  C   UNL A   1      42.091  31.845  37.452  1.00  0.00     0.031 C 
ATOM     77  C   UNL A   1      40.149  32.894  36.316  1.00  0.00     0.037 A 
BRANCH  64  78
ATOM     78  C   UNL A   1      36.952  32.923  31.022  1.00  0.00     0.058 A 
ATOM     79  C   UNL A   1      35.628  32.521  31.265  1.00  0.00     0.135 A 
ATOM     80  C   UNL A   1      37.178  33.818  29.964  1.00  0.00     0.135 A 
ATOM     81  F   UNL A   1      35.352  31.667  32.262  1.00  0.00    -0.206 F 
ATOM     82  C   UNL A   1      34.572  32.975  30.478  1.00  0.00     0.059 A 
ATOM     83  C   UNL A   1      36.135  34.302  29.179  1.00  0.00     0.059 A 
ATOM     84  F   UNL A   1      38.423  34.245  29.695  1.00  0.00    -0.206 F 
ATOM     85  C   UNL A   1      34.837  33.863  29.435  1.00  0.00     0.060 A 
BRANCH  85  86
ATOM     86  S   UNL A   1      33.455  34.463  28.438  1.00  0.00     0.124 S 
ATOM     87  O   UNL A   1      33.046  33.254  27.731  1.00  0.00    -0.237 OA
ATOM     88  O   UNL A   1      32.531  34.948  29.459  1.00  0.00    -0.237 OA
ATOM     89  O   UNL A   1      34.062  35.501  27.611  1.00  0.00    -0.744 OA
ENDBRANCH  85  86
ENDBRANCH  64  78
BRANCH  65  90
ATOM     90  C   UNL A   1      44.693  28.909  35.883  1.00  0.00     0.058 A 
ATOM     91  C   UNL A   1      46.003  29.378  35.705  1.00  0.00     0.135 A 
ATOM     92  C   UNL A   1      44.500  27.801  36.720  1.00  0.00     0.135 A 
ATOM     93  F   UNL A   1      46.240  30.426  34.901  1.00  0.00    -0.206 F 
ATOM     94  C   UNL A   1      47.086  28.754  36.311  1.00  0.00     0.059 A 
ATOM     95  C   UNL A   1      45.565  27.174  37.358  1.00  0.00     0.059 A 
ATOM     96  F   UNL A   1      43.263  27.323  36.923  1.00  0.00    -0.206 F 
ATOM     97  C   UNL A   1      46.857  27.649  37.132  1.00  0.00     0.060 A 
BRANCH  97  98
ATOM     98  S   UNL A   1      48.279  26.838  37.895  1.00  0.00     0.124 S 
ATOM     99  O   UNL A   1      48.082  27.171  39.303  1.00  0.00    -0.237 OA
ATOM    100  O   UNL A   1      48.061  25.440  37.536  1.00  0.00    -0.237 OA
ATOM    101  O   UNL A   1      49.419  27.480  37.250  1.00  0.00    -0.744 OA
ENDBRANCH  97  98
ENDBRANCH  65  90
BRANCH  77 102
ATOM    102  C   UNL A   1      39.920  33.712  37.560  1.00  0.00     0.058 A 
ATOM    103  C   UNL A   1      40.648  34.890  37.788  1.00  0.00     0.135 A 
ATOM    104  C   UNL A   1      38.994  33.317  38.538  1.00  0.00     0.135 A 
ATOM    105  F   UNL A   1      41.550  35.315  36.889  1.00  0.00    -0.206 F 
ATOM    106  C   UNL A   1      40.467  35.647  38.941  1.00  0.00     0.059 A 
ATOM    107  C   UNL A   1      38.775  34.073  39.687  1.00  0.00     0.059 A 
ATOM    108  F   UNL A   1      38.261  32.205  38.364  1.00  0.00    -0.206 F 
ATOM    109  C   UNL A   1      39.525  35.231  39.884  1.00  0.00     0.060 A 
BRANCH 109 110
ATOM    110  S   UNL A   1      39.263  36.253  41.351  1.00  0.00     0.124 S 
ATOM    111  O   UNL A   1      40.586  36.241  41.963  1.00  0.00    -0.237 OA
ATOM    112  O   UNL A   1      38.842  37.524  40.771  1.00  0.00    -0.237 OA
ATOM    113  O   UNL A   1      38.224  35.533  42.082  1.00  0.00    -0.744 OA
ENDBRANCH 109 110
ENDBRANCH  77 102
ENDBRANCH  51  52
ENDBRANCH  44  46
ENDBRANCH  43  44
ENDBRANCH  42  43
ENDBRANCH  41  42
ENDBRANCH  40  41
ENDBRANCH  39  40
ENDBRANCH  38  39
ENDBRANCH  37  38
ENDBRANCH  36  37
ENDBRANCH   1  36
TORSDOF 29
ENDMDL
MODEL 3
REMARK VINA RESULT:      -9.2      5.608     10.626
REMARK SMILES COc1cc(F)ccc1-c1ccc(=O)n(CC(=O)NCc2ccc(C(=O)OCCOCCOCCOCCOC(=O)c3ccc(-c4c5nc(c(-c6c(F)cc(S(=O)(=O)[O-])cc6F)c6ccc([nH]6)c(-c6c(F)cc(S(=O)(=O)[O-])cc6F)c6nc(c(-c7c(F)cc(S(=O)(=O)[O-])cc7F)c7ccc4[nH]7)C=C6)C=C5)cc3)cc2)n1
REMARK SMILES IDX 31 1 30 2 29 3 28 4 27 5 25 6 26 7 24 8 21 9 22 10 109 11
REMARK SMILES IDX 23 12 108 13 20 14 19 15 17 16 18 17 16 19 15 20 10 21 11 22
REMARK SMILES IDX 110 23 12 24 13 25 14 26 9 27 3 28 4 29 5 30 8 31 6 32 7 33
REMARK SMILES IDX 2 34 1 35 32 36 33 37 34 38 35 39 36 40 37 41 38 42 39 43
REMARK SMILES IDX 40 44 41 45 42 46 43 47 107 48 44 49 106 50 45 51 46 52
REMARK SMILES IDX 47 53 100 54 48 55 105 56 99 57 101 58 49 59 104 60 98 61
REMARK SMILES IDX 97 62 50 64 84 65 63 66 83 67 64 68 67 69 82 70 102 71 65 72
REMARK SMILES IDX 66 73 81 75 103 76 68 77 51 78 52 79 61 80 53 81 54 82 60 83
REMARK SMILES IDX 62 84 55 85 56 86 57 87 58 88 59 89 85 90 86 91 95 92 87 93
REMARK SMILES IDX 88 94 94 95 96 96 89 97 90 98 91 99 92 100 93 101 69 102
REMARK SMILES IDX 70 103 79 104 71 105 72 106 78 107 80 108 73 109 74 110
REMARK SMILES IDX 75 111 76 112 77 113
REMARK H PARENT 19 18 101 63 67 74
REMARK Flexibility Score: inf
ROOT
ATOM      1  C   UNL A   1      31.713  29.082  26.340  1.00  0.00     0.188 C 
ENDROOT
BRANCH   1   2
ATOM      2  O   UNL A   1      31.424  28.397  25.130  1.00  0.00    -0.376 OA
BRANCH   2   3
ATOM      3  C   UNL A   1      31.612  26.988  25.139  1.00  0.00     0.202 C 
BRANCH   3   4
ATOM      4  C   UNL A   1      30.840  26.247  26.238  1.00  0.00     0.261 C 
BRANCH   4   5
ATOM      5  O   UNL A   1      31.557  25.154  26.831  1.00  0.00    -0.460 OA
BRANCH   5   6
ATOM      6  C   UNL A   1      31.470  23.960  26.203  1.00  0.00     0.338 C 
ATOM      7  O   UNL A   1      30.459  23.304  26.022  1.00  0.00    -0.246 OA
BRANCH   6   8
ATOM      8  C   UNL A   1      32.776  23.666  25.565  1.00  0.00     0.060 A 
ATOM      9  C   UNL A   1      35.197  23.067  24.258  1.00  0.00    -0.029 A 
ATOM     10  C   UNL A   1      34.026  22.352  23.962  1.00  0.00     0.006 A 
ATOM     11  C   UNL A   1      35.124  24.123  25.181  1.00  0.00     0.006 A 
ATOM     12  C   UNL A   1      32.828  22.640  24.617  1.00  0.00     0.016 A 
ATOM     13  C   UNL A   1      33.923  24.420  25.835  1.00  0.00     0.016 A 
BRANCH   9  14
ATOM     14  C   UNL A   1      36.517  22.736  23.598  1.00  0.00     0.151 C 
BRANCH  14  15
ATOM     15  N   UNL A   1      37.194  21.637  24.257  1.00  0.00    -0.350 N 
ATOM     16  C   UNL A   1      38.093  21.630  25.280  1.00  0.00     0.242 C 
ATOM     17  O   UNL A   1      38.372  20.528  25.767  1.00  0.00    -0.273 OA
ATOM     18  H   UNL A   1      36.966  20.746  23.906  1.00  0.00     0.163 HD
BRANCH  16  19
ATOM     19  C   UNL A   1      38.594  22.918  25.938  1.00  0.00     0.248 C 
BRANCH  19  20
ATOM     20  N   UNL A   1      39.879  22.800  26.615  1.00  0.00    -0.220 N 
ATOM     21  C   UNL A   1      41.943  21.828  26.639  1.00  0.00     0.095 A 
ATOM     22  C   UNL A   1      42.354  22.557  27.852  1.00  0.00     0.037 A 
ATOM     23  N   UNL A   1      40.794  21.936  26.054  1.00  0.00    -0.169 NA
ATOM     24  C   UNL A   1      41.479  23.441  28.331  1.00  0.00     0.075 A 
ATOM     25  C   UNL A   1      40.162  23.636  27.685  1.00  0.00     0.267 A 
ATOM     26  O   UNL A   1      39.395  24.479  28.143  1.00  0.00    -0.268 OA
BRANCH  21  27
ATOM     27  C   UNL A   1      42.937  20.895  26.091  1.00  0.00     0.044 A 
ATOM     28  C   UNL A   1      44.039  21.380  25.373  1.00  0.00     0.131 A 
ATOM     29  C   UNL A   1      44.963  20.478  24.850  1.00  0.00     0.086 A 
ATOM     30  C   UNL A   1      44.751  19.111  25.012  1.00  0.00     0.126 A 
ATOM     31  C   UNL A   1      42.722  19.520  26.242  1.00  0.00     0.017 A 
ATOM     32  F   UNL A   1      45.647  18.248  24.516  1.00  0.00    -0.207 F 
ATOM     33  C   UNL A   1      43.638  18.624  25.694  1.00  0.00     0.040 A 
BRANCH  28  34
ATOM     34  O   UNL A   1      44.220  22.735  25.276  1.00  0.00    -0.496 OA
ATOM     35  C   UNL A   1      45.393  23.177  25.961  1.00  0.00     0.278 C 
ENDBRANCH  28  34
ENDBRANCH  21  27
ENDBRANCH  19  20
ENDBRANCH  16  19
ENDBRANCH  14  15
ENDBRANCH   9  14
ENDBRANCH   6   8
ENDBRANCH   5   6
ENDBRANCH   4   5
ENDBRANCH   3   4
ENDBRANCH   2   3
ENDBRANCH   1   2
BRANCH   1  36
ATOM     36  C   UNL A   1      32.771  30.195  26.218  1.00  0.00     0.188 C 
BRANCH  36  37
ATOM     37  O   UNL A   1      32.898  31.163  27.246  1.00  0.00    -0.377 OA
BRANCH  37  38
ATOM     38  C   UNL A   1      34.186  31.470  27.767  1.00  0.00     0.188 C 
BRANCH  38  39
ATOM     39  C   UNL A   1      34.606  32.934  28.027  1.00  0.00     0.188 C 
BRANCH  39  40
ATOM     40  O   UNL A   1      33.519  33.844  28.165  1.00  0.00    -0.376 OA
BRANCH  40  41
ATOM     41  C   UNL A   1      33.854  35.127  28.676  1.00  0.00     0.202 C 
BRANCH  41  42
ATOM     42  C   UNL A   1      32.752  35.753  29.537  1.00  0.00     0.261 C 
BRANCH  42  43
ATOM     43  O   UNL A   1      33.189  36.286  30.796  1.00  0.00    -0.460 OA
BRANCH  43  44
ATOM     44  C   UNL A   1      33.022  35.495  31.882  1.00  0.00     0.338 C 
ATOM     45  O   UNL A   1      31.982  35.295  32.486  1.00  0.00    -0.246 OA
BRANCH  44  46
ATOM     46  C   UNL A   1      34.279  34.743  32.095  1.00  0.00     0.060 A 
ATOM     47  C   UNL A   1      35.519  35.341  31.851  1.00  0.00     0.016 A 
ATOM     48  C   UNL A   1      34.208  33.408  32.513  1.00  0.00     0.016 A 
ATOM     49  C   UNL A   1      36.690  34.611  32.070  1.00  0.00     0.010 A 
ATOM     50  C   UNL A   1      35.381  32.677  32.726  1.00  0.00     0.010 A 
ATOM     51  C   UNL A   1      36.630  33.284  32.535  1.00  0.00    -0.014 A 
BRANCH  51  52
ATOM     52  C   UNL A   1      37.866  32.629  33.036  1.00  0.00     0.031 A 
ATOM     53  C   UNL A   1      38.713  31.733  32.184  1.00  0.00     0.074 A 
ATOM     54  C   UNL A   1      38.208  32.862  34.317  1.00  0.00     0.049 A 
ATOM     55  N   UNL A   1      39.872  31.195  32.466  1.00  0.00    -0.248 NA
ATOM     56  C   UNL A   1      38.193  31.383  30.854  1.00  0.00     0.031 C 
ATOM     57  C   UNL A   1      37.426  33.669  35.258  1.00  0.00     0.029 A 
ATOM     58  N   UNL A   1      39.295  32.458  35.049  1.00  0.00    -0.354 N 
ATOM     59  C   UNL A   1      40.240  30.462  31.345  1.00  0.00     0.074 A 
ATOM     60  C   UNL A   1      39.151  30.586  30.395  1.00  0.00     0.031 C 
ATOM     61  C   UNL A   1      38.073  33.727  36.431  1.00  0.00     0.029 A 
ATOM     62  C   UNL A   1      39.305  32.951  36.331  1.00  0.00     0.049 A 
ATOM     63  H   UNL A   1      39.999  31.870  34.691  1.00  0.00     0.167 HD
ATOM     64  C   UNL A   1      41.386  29.769  31.130  1.00  0.00     0.037 A 
ATOM     65  C   UNL A   1      40.212  32.813  37.316  1.00  0.00     0.037 A 
ATOM     66  C   UNL A   1      42.452  29.637  32.096  1.00  0.00     0.049 A 
ATOM     67  C   UNL A   1      41.470  32.038  37.052  1.00  0.00     0.074 A 
ATOM     68  C   UNL A   1      43.674  29.001  31.947  1.00  0.00     0.029 A 
ATOM     69  N   UNL A   1      42.423  30.132  33.392  1.00  0.00    -0.354 N 
ATOM     70  N   UNL A   1      41.846  31.431  35.952  1.00  0.00    -0.248 NA
ATOM     71  C   UNL A   1      42.431  31.941  38.157  1.00  0.00     0.031 C 
ATOM     72  C   UNL A   1      44.360  29.068  33.166  1.00  0.00     0.029 A 
ATOM     73  C   UNL A   1      43.589  29.791  34.062  1.00  0.00     0.049 A 
ATOM     74  H   UNL A   1      41.681  30.650  33.782  1.00  0.00     0.167 HD
ATOM     75  C   UNL A   1      43.094  30.889  36.229  1.00  0.00     0.074 A 
ATOM     76  C   UNL A   1      43.420  31.263  37.591  1.00  0.00     0.031 C 
ATOM     77  C   UNL A   1      43.897  30.145  35.426  1.00  0.00     0.037 A 
BRANCH  64  78
ATOM     78  C   UNL A   1      41.572  29.110  29.789  1.00  0.00     0.058 A 
ATOM     79  C   UNL A   1      41.191  27.774  29.582  1.00  0.00     0.135 A 
ATOM     80  C   UNL A   1      42.221  29.773  28.735  1.00  0.00     0.135 A 
ATOM     81  F   UNL A   1      40.568  27.089  30.554  1.00  0.00    -0.206 F 
ATOM     82  C   UNL A   1      41.456  27.117  28.383  1.00  0.00     0.059 A 
ATOM     83  C   UNL A   1      42.476  29.143  27.520  1.00  0.00     0.059 A 
ATOM     84  F   UNL A   1      42.597  31.055  28.873  1.00  0.00    -0.206 F 
ATOM     85  C   UNL A   1      42.103  27.810  27.359  1.00  0.00     0.060 A 
BRANCH  85  86
ATOM     86  S   UNL A   1      42.419  26.953  25.801  1.00  0.00     0.124 S 
ATOM     87  O   UNL A   1      43.027  28.006  24.995  1.00  0.00    -0.237 OA
ATOM     88  O   UNL A   1      43.311  25.875  26.220  1.00  0.00    -0.237 OA
ATOM     89  O   UNL A   1      41.090  26.524  25.376  1.00  0.00    -0.744 OA
ENDBRANCH  85  86
ENDBRANCH  64  78
BRANCH  65  90
ATOM     90  C   UNL A   1      39.975  33.482  38.620  1.00  0.00     0.058 A 
ATOM     91  C   UNL A   1      38.982  33.027  39.500  1.00  0.00     0.135 A 
ATOM     92  C   UNL A   1      40.699  34.626  38.983  1.00  0.00     0.135 A 
ATOM     93  F   UNL A   1      38.250  31.946  39.189  1.00  0.00    -0.206 F 
ATOM     94  C   UNL A   1      38.697  33.699  40.683  1.00  0.00     0.059 A 
ATOM     95  C   UNL A   1      40.451  35.301  40.173  1.00  0.00     0.059 A 
ATOM     96  F   UNL A   1      41.663  35.093  38.174  1.00  0.00    -0.206 F 
ATOM     97  C   UNL A   1      39.434  34.839  41.008  1.00  0.00     0.060 A 
BRANCH  97  98
ATOM     98  S   UNL A   1      39.035  35.709  42.539  1.00  0.00     0.124 S 
ATOM     99  O   UNL A   1      37.634  35.343  42.724  1.00  0.00    -0.237 OA
ATOM    100  O   UNL A   1      39.977  35.115  43.481  1.00  0.00    -0.237 OA
ATOM    101  O   UNL A   1      39.280  37.108  42.205  1.00  0.00    -0.744 OA
ENDBRANCH  97  98
ENDBRANCH  65  90
BRANCH  77 102
ATOM    102  C   UNL A   1      45.206  29.680  36.005  1.00  0.00     0.058 A 
ATOM    103  C   UNL A   1      46.301  30.553  36.097  1.00  0.00     0.135 A 
ATOM    104  C   UNL A   1      45.383  28.360  36.451  1.00  0.00     0.135 A 
ATOM    105  F   UNL A   1      46.191  31.825  35.683  1.00  0.00    -0.206 F 
ATOM    106  C   UNL A   1      47.525  30.134  36.608  1.00  0.00     0.059 A 
ATOM    107  C   UNL A   1      46.590  27.927  36.993  1.00  0.00     0.059 A 
ATOM    108  F   UNL A   1      44.364  27.487  36.398  1.00  0.00    -0.206 F 
ATOM    109  C   UNL A   1      47.659  28.819  37.057  1.00  0.00     0.060 A 
BRANCH 109 110
ATOM    110  S   UNL A   1      49.239  28.306  37.768  1.00  0.00     0.124 S 
ATOM    111  O   UNL A   1      50.188  28.815  36.785  1.00  0.00    -0.237 OA
ATOM    112  O   UNL A   1      49.233  28.988  39.058  1.00  0.00    -0.237 OA
ATOM    113  O   UNL A   1      49.122  26.852  37.836  1.00  0.00    -0.744 OA
ENDBRANCH 109 110
ENDBRANCH  77 102
ENDBRANCH  51  52
ENDBRANCH  44  46
ENDBRANCH  43  44
ENDBRANCH  42  43
ENDBRANCH  41  42
ENDBRANCH  40  41
ENDBRANCH  39  40
ENDBRANCH  38  39
ENDBRANCH  37  38
ENDBRANCH  36  37
ENDBRANCH   1  36
TORSDOF 29
ENDMDL
