MODEL 1
REMARK VINA RESULT:     -11.0      0.000      0.000
REMARK SMILES O=C(OCCOCCOCCOCCOC(=O)c1ccc(-c2c3nc(c(-c4c(F)cc(S(=O)(=O)[O-])cc4F)c4ccc([nH]4)c(-c4c(F)cc(S(=O)(=O)[O-])cc4F)c4nc(c(-c5c(F)cc(S(=O)(=O)[O-])cc5F)c5ccc2[nH]5)C=C4)C=C3)cc1)C1=Cc2cc(Cl)cc(Cl)c2O[C@@H]1C(F)(F)F
REMARK SMILES IDX 10 1 9 2 8 3 7 4 6 5 5 6 4 7 3 8 2 9 1 10 84 11 85 12 95 13
REMARK SMILES IDX 86 14 94 15 87 16 93 17 88 18 91 19 89 20 90 21 92 22 96 23
REMARK SMILES IDX 97 24 98 25 99 26 11 27 12 28 13 29 14 30 15 31 16 32 17 33
REMARK SMILES IDX 18 34 19 35 83 36 20 37 82 38 21 39 22 40 23 41 76 42 24 43
REMARK SMILES IDX 81 44 75 45 77 46 25 47 80 48 74 49 73 50 26 52 60 53 39 54
REMARK SMILES IDX 59 55 40 56 43 57 58 58 78 59 41 60 42 61 57 63 79 64 44 65
REMARK SMILES IDX 27 66 28 67 37 68 29 69 30 70 36 71 38 72 31 73 32 74 33 75
REMARK SMILES IDX 34 76 35 77 61 78 62 79 71 80 63 81 64 82 70 83 72 84 65 85
REMARK SMILES IDX 66 86 67 87 68 88 69 89 45 90 46 91 55 92 47 93 48 94 54 95
REMARK SMILES IDX 56 96 49 97 50 98 51 99 52 100 53 101
REMARK H PARENT 77 51 43 62
REMARK Flexibility Score: inf
ROOT
ATOM      1  C   UNL A   1      33.232  29.196  25.170  1.00  0.00     0.188 C 
ENDROOT
BRANCH   1   2
ATOM      2  O   UNL A   1      32.627  28.688  24.003  1.00  0.00    -0.377 OA
BRANCH   2   3
ATOM      3  C   UNL A   1      31.266  29.032  23.916  1.00  0.00     0.188 C 
BRANCH   3   4
ATOM      4  C   UNL A   1      30.456  28.173  22.937  1.00  0.00     0.188 C 
BRANCH   4   5
ATOM      5  O   UNL A   1      29.732  26.954  23.311  1.00  0.00    -0.376 OA
BRANCH   5   6
ATOM      6  C   UNL A   1      29.135  26.381  24.733  1.00  0.00     0.202 C 
BRANCH   6   7
ATOM      7  C   UNL A   1      30.108  25.032  26.148  1.00  0.00     0.261 C 
BRANCH   7   8
ATOM      8  O   UNL A   1      31.547  25.107  26.622  1.00  0.00    -0.460 OA
BRANCH   8   9
ATOM      9  C   UNL A   1      32.160  23.919  26.586  1.00  0.00     0.338 C 
ATOM     10  O   UNL A   1      32.251  23.095  27.461  1.00  0.00    -0.246 OA
BRANCH   9  11
ATOM     11  C   UNL A   1      33.010  24.198  25.441  1.00  0.00     0.087 C 
ATOM     12  C   UNL A   1      34.390  24.574  25.797  1.00  0.00     0.027 C 
ATOM     13  C   UNL A   1      32.516  22.576  24.532  1.00  0.00     0.316 C 
ATOM     14  C   UNL A   1      35.812  23.471  25.645  1.00  0.00     0.020 A 
ATOM     15  O   UNL A   1      34.001  21.319  24.474  1.00  0.00    -0.474 OA
ATOM     16  C   UNL A   1      37.040  23.899  26.069  1.00  0.00     0.032 A 
ATOM     17  C   UNL A   1      35.650  21.831  25.105  1.00  0.00     0.146 A 
ATOM     18  C   UNL A   1      38.068  22.938  26.004  1.00  0.00     0.043 A 
ATOM     19  C   UNL A   1      36.708  20.954  25.140  1.00  0.00     0.085 A 
ATOM     20  Cl  UNL A   1      39.644  23.457  26.518  1.00  0.00    -0.084 Cl
ATOM     21  C   UNL A   1      37.916  21.555  25.576  1.00  0.00     0.045 A 
ATOM     22  Cl  UNL A   1      36.636  19.286  24.813  1.00  0.00    -0.080 Cl
BRANCH  13  23
ATOM     23  C   UNL A   1      31.683  23.373  23.341  1.00  0.00     0.430 C 
ATOM     24  F   UNL A   1      32.148  24.565  22.928  1.00  0.00    -0.167 F 
ATOM     25  F   UNL A   1      31.760  22.586  22.222  1.00  0.00    -0.167 F 
ATOM     26  F   UNL A   1      30.350  23.500  23.560  1.00  0.00    -0.167 F 
ENDBRANCH  13  23
ENDBRANCH   9  11
ENDBRANCH   8   9
ENDBRANCH   7   8
ENDBRANCH   6   7
ENDBRANCH   5   6
ENDBRANCH   4   5
ENDBRANCH   3   4
ENDBRANCH   2   3
ENDBRANCH   1   2
BRANCH   1  27
ATOM     27  C   UNL A   1      32.297  29.854  26.189  1.00  0.00     0.188 C 
BRANCH  27  28
ATOM     28  O   UNL A   1      32.772  30.591  27.302  1.00  0.00    -0.376 OA
BRANCH  28  29
ATOM     29  C   UNL A   1      34.086  31.119  27.331  1.00  0.00     0.202 C 
BRANCH  29  30
ATOM     30  C   UNL A   1      34.968  31.048  28.588  1.00  0.00     0.261 C 
BRANCH  30  31
ATOM     31  O   UNL A   1      35.755  29.863  28.753  1.00  0.00    -0.460 OA
BRANCH  31  32
ATOM     32  C   UNL A   1      36.460  29.784  29.904  1.00  0.00     0.338 C 
ATOM     33  O   UNL A   1      36.016  29.579  31.020  1.00  0.00    -0.246 OA
BRANCH  32  34
ATOM     34  C   UNL A   1      37.909  29.803  29.597  1.00  0.00     0.060 A 
ATOM     35  C   UNL A   1      38.314  29.681  28.257  1.00  0.00     0.016 A 
ATOM     36  C   UNL A   1      38.860  29.908  30.613  1.00  0.00     0.016 A 
ATOM     37  C   UNL A   1      39.666  29.609  27.930  1.00  0.00     0.010 A 
ATOM     38  C   UNL A   1      40.212  29.786  30.292  1.00  0.00     0.010 A 
ATOM     39  C   UNL A   1      40.612  29.582  28.957  1.00  0.00    -0.014 A 
BRANCH  39  40
ATOM     40  C   UNL A   1      41.964  29.038  28.694  1.00  0.00     0.031 A 
ATOM     41  C   UNL A   1      43.107  30.016  28.682  1.00  0.00     0.074 A 
ATOM     42  C   UNL A   1      42.174  27.735  28.450  1.00  0.00     0.049 A 
ATOM     43  N   UNL A   1      44.347  29.843  28.312  1.00  0.00    -0.248 NA
ATOM     44  C   UNL A   1      42.796  31.385  29.130  1.00  0.00     0.031 C 
ATOM     45  C   UNL A   1      41.156  26.691  28.500  1.00  0.00     0.029 A 
ATOM     46  N   UNL A   1      43.320  27.078  28.078  1.00  0.00    -0.354 N 
ATOM     47  C   UNL A   1      44.955  31.086  28.450  1.00  0.00     0.074 A 
ATOM     48  C   UNL A   1      43.942  32.008  28.913  1.00  0.00     0.031 C 
ATOM     49  C   UNL A   1      41.714  25.524  28.134  1.00  0.00     0.029 A 
ATOM     50  C   UNL A   1      43.115  25.753  27.777  1.00  0.00     0.049 A 
ATOM     51  H   UNL A   1      44.202  27.514  28.030  1.00  0.00     0.167 HD
ATOM     52  C   UNL A   1      46.242  31.427  28.208  1.00  0.00     0.037 A 
ATOM     53  C   UNL A   1      43.952  24.848  27.231  1.00  0.00     0.037 A 
ATOM     54  C   UNL A   1      47.231  30.496  27.734  1.00  0.00     0.049 A 
ATOM     55  C   UNL A   1      45.363  25.260  26.891  1.00  0.00     0.074 A 
ATOM     56  C   UNL A   1      48.568  30.725  27.468  1.00  0.00     0.029 A 
ATOM     57  N   UNL A   1      46.984  29.164  27.433  1.00  0.00    -0.354 N 
ATOM     58  N   UNL A   1      45.936  26.434  27.029  1.00  0.00    -0.248 NA
ATOM     59  C   UNL A   1      46.241  24.228  26.323  1.00  0.00     0.031 C 
ATOM     60  C   UNL A   1      49.111  29.553  26.935  1.00  0.00     0.029 A 
ATOM     61  C   UNL A   1      48.137  28.565  26.956  1.00  0.00     0.049 A 
ATOM     62  H   UNL A   1      46.117  28.710  27.544  1.00  0.00     0.167 HD
ATOM     63  C   UNL A   1      47.253  26.269  26.607  1.00  0.00     0.074 A 
ATOM     64  C   UNL A   1      47.389  24.885  26.203  1.00  0.00     0.031 C 
ATOM     65  C   UNL A   1      48.260  27.178  26.572  1.00  0.00     0.037 A 
BRANCH  52  66
ATOM     66  C   UNL A   1      46.628  32.870  28.397  1.00  0.00     0.058 A 
ATOM     67  C   UNL A   1      47.053  33.378  29.637  1.00  0.00     0.135 A 
ATOM     68  C   UNL A   1      46.570  33.764  27.315  1.00  0.00     0.135 A 
ATOM     69  F   UNL A   1      47.112  32.575  30.713  1.00  0.00    -0.206 F 
ATOM     70  C   UNL A   1      47.360  34.723  29.807  1.00  0.00     0.059 A 
ATOM     71  C   UNL A   1      46.914  35.105  27.452  1.00  0.00     0.059 A 
ATOM     72  F   UNL A   1      46.169  33.338  26.107  1.00  0.00    -0.206 F 
ATOM     73  C   UNL A   1      47.288  35.580  28.707  1.00  0.00     0.060 A 
BRANCH  73  74
ATOM     74  S   UNL A   1      47.679  37.325  28.947  1.00  0.00     0.124 S 
ATOM     75  O   UNL A   1      49.139  37.297  28.963  1.00  0.00    -0.237 OA
ATOM     76  O   UNL A   1      47.071  37.943  27.774  1.00  0.00    -0.237 OA
ATOM     77  O   UNL A   1      47.045  37.645  30.222  1.00  0.00    -0.744 OA
ENDBRANCH  73  74
ENDBRANCH  52  66
BRANCH  53  78
ATOM     78  C   UNL A   1      43.468  23.467  26.965  1.00  0.00     0.058 A 
ATOM     79  C   UNL A   1      43.103  23.063  25.672  1.00  0.00     0.135 A 
ATOM     80  C   UNL A   1      43.393  22.512  27.992  1.00  0.00     0.135 A 
ATOM     81  F   UNL A   1      43.141  23.943  24.660  1.00  0.00    -0.206 F 
ATOM     82  C   UNL A   1      42.687  21.763  25.404  1.00  0.00     0.059 A 
ATOM     83  C   UNL A   1      43.009  21.197  27.744  1.00  0.00     0.059 A 
ATOM     84  F   UNL A   1      43.736  22.843  29.247  1.00  0.00    -0.206 F 
ATOM     85  C   UNL A   1      42.657  20.833  26.444  1.00  0.00     0.060 A 
BRANCH  85  86
ATOM     86  S   UNL A   1      42.204  19.127  26.063  1.00  0.00     0.124 S 
ATOM     87  O   UNL A   1      40.788  19.261  25.742  1.00  0.00    -0.237 OA
ATOM     88  O   UNL A   1      43.089  18.825  24.942  1.00  0.00    -0.237 OA
ATOM     89  O   UNL A   1      42.507  18.413  27.300  1.00  0.00    -0.744 OA
ENDBRANCH  85  86
ENDBRANCH  53  78
BRANCH  65  90
ATOM     90  C   UNL A   1      49.628  26.704  26.153  1.00  0.00     0.058 A 
ATOM     91  C   UNL A   1      50.084  26.793  24.829  1.00  0.00     0.135 A 
ATOM     92  C   UNL A   1      50.532  26.238  27.125  1.00  0.00     0.135 A 
ATOM     93  F   UNL A   1      49.264  27.224  23.858  1.00  0.00    -0.206 F 
ATOM     94  C   UNL A   1      51.381  26.425  24.481  1.00  0.00     0.059 A 
ATOM     95  C   UNL A   1      51.842  25.901  26.807  1.00  0.00     0.059 A 
ATOM     96  F   UNL A   1      50.152  26.141  28.410  1.00  0.00    -0.206 F 
ATOM     97  C   UNL A   1      52.256  25.991  25.481  1.00  0.00     0.060 A 
BRANCH  97  98
ATOM     98  S   UNL A   1      53.953  25.576  25.025  1.00  0.00     0.124 S 
ATOM     99  O   UNL A   1      54.714  26.253  26.070  1.00  0.00    -0.237 OA
ATOM    100  O   UNL A   1      53.944  24.119  25.090  1.00  0.00    -0.237 OA
ATOM    101  O   UNL A   1      54.094  26.138  23.684  1.00  0.00    -0.744 OA
ENDBRANCH  97  98
ENDBRANCH  65  90
ENDBRANCH  39  40
ENDBRANCH  32  34
ENDBRANCH  31  32
ENDBRANCH  30  31
ENDBRANCH  29  30
ENDBRANCH  28  29
ENDBRANCH  27  28
ENDBRANCH   1  27
TORSDOF 24
ENDMDL
MODEL 2
REMARK VINA RESULT:     -10.1      1.362      2.145
REMARK SMILES O=C(OCCOCCOCCOCCOC(=O)c1ccc(-c2c3nc(c(-c4c(F)cc(S(=O)(=O)[O-])cc4F)c4ccc([nH]4)c(-c4c(F)cc(S(=O)(=O)[O-])cc4F)c4nc(c(-c5c(F)cc(S(=O)(=O)[O-])cc5F)c5ccc2[nH]5)C=C4)C=C3)cc1)C1=Cc2cc(Cl)cc(Cl)c2O[C@@H]1C(F)(F)F
REMARK SMILES IDX 10 1 9 2 8 3 7 4 6 5 5 6 4 7 3 8 2 9 1 10 84 11 85 12 95 13
REMARK SMILES IDX 86 14 94 15 87 16 93 17 88 18 91 19 89 20 90 21 92 22 96 23
REMARK SMILES IDX 97 24 98 25 99 26 11 27 12 28 13 29 14 30 15 31 16 32 17 33
REMARK SMILES IDX 18 34 19 35 83 36 20 37 82 38 21 39 22 40 23 41 76 42 24 43
REMARK SMILES IDX 81 44 75 45 77 46 25 47 80 48 74 49 73 50 26 52 60 53 39 54
REMARK SMILES IDX 59 55 40 56 43 57 58 58 78 59 41 60 42 61 57 63 79 64 44 65
REMARK SMILES IDX 27 66 28 67 37 68 29 69 30 70 36 71 38 72 31 73 32 74 33 75
REMARK SMILES IDX 34 76 35 77 61 78 62 79 71 80 63 81 64 82 70 83 72 84 65 85
REMARK SMILES IDX 66 86 67 87 68 88 69 89 45 90 46 91 55 92 47 93 48 94 54 95
REMARK SMILES IDX 56 96 49 97 50 98 51 99 52 100 53 101
REMARK H PARENT 77 51 43 62
REMARK Flexibility Score: inf
ROOT
ATOM      1  C   UNL A   1      33.846  29.403  26.503  1.00  0.00     0.188 C 
ENDROOT
BRANCH   1   2
ATOM      2  O   UNL A   1      33.103  28.239  26.225  1.00  0.00    -0.377 OA
BRANCH   2   3
ATOM      3  C   UNL A   1      31.949  28.511  25.467  1.00  0.00     0.188 C 
BRANCH   3   4
ATOM      4  C   UNL A   1      31.927  27.850  24.084  1.00  0.00     0.188 C 
BRANCH   4   5
ATOM      5  O   UNL A   1      33.092  27.226  23.447  1.00  0.00    -0.376 OA
BRANCH   5   6
ATOM      6  C   UNL A   1      33.307  26.393  22.045  1.00  0.00     0.202 C 
BRANCH   6   7
ATOM      7  C   UNL A   1      33.151  24.238  21.729  1.00  0.00     0.261 C 
BRANCH   7   8
ATOM      8  O   UNL A   1      32.708  23.207  22.750  1.00  0.00    -0.460 OA
BRANCH   8   9
ATOM      9  C   UNL A   1      31.528  23.508  23.302  1.00  0.00     0.338 C 
ATOM     10  O   UNL A   1      30.726  24.337  22.953  1.00  0.00    -0.246 OA
BRANCH   9  11
ATOM     11  C   UNL A   1      31.791  22.918  24.604  1.00  0.00     0.087 C 
ATOM     12  C   UNL A   1      32.567  21.667  24.548  1.00  0.00     0.027 C 
ATOM     13  C   UNL A   1      32.429  24.572  25.353  1.00  0.00     0.316 C 
ATOM     14  C   UNL A   1      34.321  21.542  24.962  1.00  0.00     0.020 A 
ATOM     15  O   UNL A   1      34.346  24.502  25.685  1.00  0.00    -0.474 OA
ATOM     16  C   UNL A   1      34.962  20.343  24.811  1.00  0.00     0.032 A 
ATOM     17  C   UNL A   1      35.258  22.928  25.419  1.00  0.00     0.146 A 
ATOM     18  C   UNL A   1      36.348  20.366  25.062  1.00  0.00     0.043 A 
ATOM     19  C   UNL A   1      36.621  22.854  25.581  1.00  0.00     0.085 A 
ATOM     20  Cl  UNL A   1      37.186  18.854  24.896  1.00  0.00    -0.084 Cl
ATOM     21  C   UNL A   1      37.130  21.541  25.417  1.00  0.00     0.045 A 
ATOM     22  Cl  UNL A   1      37.670  24.165  25.847  1.00  0.00    -0.080 Cl
BRANCH  13  23
ATOM     23  C   UNL A   1      31.128  24.737  26.367  1.00  0.00     0.430 C 
ATOM     24  F   UNL A   1      30.837  23.722  27.199  1.00  0.00    -0.167 F 
ATOM     25  F   UNL A   1      31.422  25.777  27.208  1.00  0.00    -0.167 F 
ATOM     26  F   UNL A   1      29.976  25.121  25.762  1.00  0.00    -0.167 F 
ENDBRANCH  13  23
ENDBRANCH   9  11
ENDBRANCH   8   9
ENDBRANCH   7   8
ENDBRANCH   6   7
ENDBRANCH   5   6
ENDBRANCH   4   5
ENDBRANCH   3   4
ENDBRANCH   2   3
ENDBRANCH   1   2
BRANCH   1  27
ATOM     27  C   UNL A   1      33.045  30.632  26.943  1.00  0.00     0.188 C 
BRANCH  27  28
ATOM     28  O   UNL A   1      33.637  31.737  27.604  1.00  0.00    -0.376 OA
BRANCH  28  29
ATOM     29  C   UNL A   1      34.770  31.578  28.439  1.00  0.00     0.202 C 
BRANCH  29  30
ATOM     30  C   UNL A   1      34.812  32.131  29.872  1.00  0.00     0.261 C 
BRANCH  30  31
ATOM     31  O   UNL A   1      35.966  31.801  30.654  1.00  0.00    -0.460 OA
BRANCH  31  32
ATOM     32  C   UNL A   1      37.108  32.435  30.309  1.00  0.00     0.338 C 
ATOM     33  O   UNL A   1      37.321  33.635  30.357  1.00  0.00    -0.246 OA
BRANCH  32  34
ATOM     34  C   UNL A   1      38.163  31.435  30.023  1.00  0.00     0.060 A 
ATOM     35  C   UNL A   1      39.039  31.068  31.059  1.00  0.00     0.016 A 
ATOM     36  C   UNL A   1      38.311  30.886  28.749  1.00  0.00     0.016 A 
ATOM     37  C   UNL A   1      40.096  30.195  30.816  1.00  0.00     0.010 A 
ATOM     38  C   UNL A   1      39.399  30.050  28.493  1.00  0.00     0.010 A 
ATOM     39  C   UNL A   1      40.322  29.749  29.512  1.00  0.00    -0.014 A 
BRANCH  39  40
ATOM     40  C   UNL A   1      41.659  29.238  29.134  1.00  0.00     0.031 A 
ATOM     41  C   UNL A   1      42.780  30.239  29.061  1.00  0.00     0.074 A 
ATOM     42  C   UNL A   1      41.873  27.946  28.839  1.00  0.00     0.049 A 
ATOM     43  N   UNL A   1      43.991  30.099  28.594  1.00  0.00    -0.248 NA
ATOM     44  C   UNL A   1      42.480  31.589  29.568  1.00  0.00     0.031 C 
ATOM     45  C   UNL A   1      40.880  26.881  28.939  1.00  0.00     0.029 A 
ATOM     46  N   UNL A   1      42.998  27.321  28.364  1.00  0.00    -0.354 N 
ATOM     47  C   UNL A   1      44.586  31.350  28.718  1.00  0.00     0.074 A 
ATOM     48  C   UNL A   1      43.595  32.239  29.281  1.00  0.00     0.031 C 
ATOM     49  C   UNL A   1      41.430  25.735  28.500  1.00  0.00     0.029 A 
ATOM     50  C   UNL A   1      42.795  26.001  28.044  1.00  0.00     0.049 A 
ATOM     51  H   UNL A   1      43.866  27.775  28.262  1.00  0.00     0.167 HD
ATOM     52  C   UNL A   1      45.844  31.722  28.389  1.00  0.00     0.037 A 
ATOM     53  C   UNL A   1      43.604  25.126  27.413  1.00  0.00     0.037 A 
ATOM     54  C   UNL A   1      46.811  30.823  27.816  1.00  0.00     0.049 A 
ATOM     55  C   UNL A   1      44.976  25.574  26.977  1.00  0.00     0.074 A 
ATOM     56  C   UNL A   1      48.119  31.084  27.456  1.00  0.00     0.029 A 
ATOM     57  N   UNL A   1      46.565  29.494  27.500  1.00  0.00    -0.354 N 
ATOM     58  N   UNL A   1      45.538  26.755  27.103  1.00  0.00    -0.248 NA
ATOM     59  C   UNL A   1      45.827  24.575  26.318  1.00  0.00     0.031 C 
ATOM     60  C   UNL A   1      48.641  29.937  26.853  1.00  0.00     0.029 A 
ATOM     61  C   UNL A   1      47.689  28.931  26.920  1.00  0.00     0.049 A 
ATOM     62  H   UNL A   1      45.717  29.021  27.664  1.00  0.00     0.167 HD
ATOM     63  C   UNL A   1      46.822  26.627  26.578  1.00  0.00     0.074 A 
ATOM     64  C   UNL A   1      46.951  25.257  26.129  1.00  0.00     0.031 C 
ATOM     65  C   UNL A   1      47.807  27.556  26.491  1.00  0.00     0.037 A 
BRANCH  52  66
ATOM     66  C   UNL A   1      46.219  33.167  28.586  1.00  0.00     0.058 A 
ATOM     67  C   UNL A   1      46.801  33.636  29.777  1.00  0.00     0.135 A 
ATOM     68  C   UNL A   1      45.987  34.103  27.565  1.00  0.00     0.135 A 
ATOM     69  F   UNL A   1      47.030  32.793  30.796  1.00  0.00    -0.206 F 
ATOM     70  C   UNL A   1      47.097  34.982  29.962  1.00  0.00     0.059 A 
ATOM     71  C   UNL A   1      46.314  35.447  27.712  1.00  0.00     0.059 A 
ATOM     72  F   UNL A   1      45.430  33.715  26.406  1.00  0.00    -0.206 F 
ATOM     73  C   UNL A   1      46.849  35.880  28.922  1.00  0.00     0.060 A 
BRANCH  73  74
ATOM     74  S   UNL A   1      47.228  37.625  29.183  1.00  0.00     0.124 S 
ATOM     75  O   UNL A   1      46.816  38.208  27.909  1.00  0.00    -0.237 OA
ATOM     76  O   UNL A   1      46.391  37.956  30.331  1.00  0.00    -0.237 OA
ATOM     77  O   UNL A   1      48.666  37.628  29.437  1.00  0.00    -0.744 OA
ENDBRANCH  73  74
ENDBRANCH  52  66
BRANCH  53  78
ATOM     78  C   UNL A   1      43.125  23.743  27.147  1.00  0.00     0.058 A 
ATOM     79  C   UNL A   1      42.727  23.348  25.862  1.00  0.00     0.135 A 
ATOM     80  C   UNL A   1      43.089  22.777  28.166  1.00  0.00     0.135 A 
ATOM     81  F   UNL A   1      42.727  24.238  24.857  1.00  0.00    -0.206 F 
ATOM     82  C   UNL A   1      42.315  22.047  25.593  1.00  0.00     0.059 A 
ATOM     83  C   UNL A   1      42.710  21.462  27.917  1.00  0.00     0.059 A 
ATOM     84  F   UNL A   1      43.465  23.100  29.414  1.00  0.00    -0.206 F 
ATOM     85  C   UNL A   1      42.324  21.106  26.625  1.00  0.00     0.060 A 
BRANCH  85  86
ATOM     86  S   UNL A   1      41.877  19.400  26.240  1.00  0.00     0.124 S 
ATOM     87  O   UNL A   1      40.435  19.507  26.048  1.00  0.00    -0.237 OA
ATOM     88  O   UNL A   1      42.666  19.146  25.038  1.00  0.00    -0.237 OA
ATOM     89  O   UNL A   1      42.302  18.663  27.427  1.00  0.00    -0.744 OA
ENDBRANCH  85  86
ENDBRANCH  53  78
BRANCH  65  90
ATOM     90  C   UNL A   1      49.147  27.120  25.958  1.00  0.00     0.058 A 
ATOM     91  C   UNL A   1      49.513  27.283  24.613  1.00  0.00     0.135 A 
ATOM     92  C   UNL A   1      50.118  26.614  26.841  1.00  0.00     0.135 A 
ATOM     93  F   UNL A   1      48.626  27.756  23.723  1.00  0.00    -0.206 F 
ATOM     94  C   UNL A   1      50.786  26.949  24.160  1.00  0.00     0.059 A 
ATOM     95  C   UNL A   1      51.406  26.307  26.419  1.00  0.00     0.059 A 
ATOM     96  F   UNL A   1      49.826  26.445  28.142  1.00  0.00    -0.206 F 
ATOM     97  C   UNL A   1      51.730  26.472  25.074  1.00  0.00     0.060 A 
BRANCH  97  98
ATOM     98  S   UNL A   1      53.395  26.101  24.485  1.00  0.00     0.124 S 
ATOM     99  O   UNL A   1      54.080  27.368  24.717  1.00  0.00    -0.237 OA
ATOM    100  O   UNL A   1      53.791  24.997  25.352  1.00  0.00    -0.237 OA
ATOM    101  O   UNL A   1      53.190  25.748  23.082  1.00  0.00    -0.744 OA
ENDBRANCH  97  98
ENDBRANCH  65  90
ENDBRANCH  39  40
ENDBRANCH  32  34
ENDBRANCH  31  32
ENDBRANCH  30  31
ENDBRANCH  29  30
ENDBRANCH  28  29
ENDBRANCH  27  28
ENDBRANCH   1  27
TORSDOF 24
ENDMDL
MODEL 3
REMARK VINA RESULT:      -9.8      2.477      3.011
REMARK SMILES O=C(OCCOCCOCCOCCOC(=O)c1ccc(-c2c3nc(c(-c4c(F)cc(S(=O)(=O)[O-])cc4F)c4ccc([nH]4)c(-c4c(F)cc(S(=O)(=O)[O-])cc4F)c4nc(c(-c5c(F)cc(S(=O)(=O)[O-])cc5F)c5ccc2[nH]5)C=C4)C=C3)cc1)C1=Cc2cc(Cl)cc(Cl)c2O[C@@H]1C(F)(F)F
REMARK SMILES IDX 10 1 9 2 8 3 7 4 6 5 5 6 4 7 3 8 2 9 1 10 84 11 85 12 95 13
REMARK SMILES IDX 86 14 94 15 87 16 93 17 88 18 91 19 89 20 90 21 92 22 96 23
REMARK SMILES IDX 97 24 98 25 99 26 11 27 12 28 13 29 14 30 15 31 16 32 17 33
REMARK SMILES IDX 18 34 19 35 83 36 20 37 82 38 21 39 22 40 23 41 76 42 24 43
REMARK SMILES IDX 81 44 75 45 77 46 25 47 80 48 74 49 73 50 26 52 60 53 39 54
REMARK SMILES IDX 59 55 40 56 43 57 58 58 78 59 41 60 42 61 57 63 79 64 44 65
REMARK SMILES IDX 27 66 28 67 37 68 29 69 30 70 36 71 38 72 31 73 32 74 33 75
REMARK SMILES IDX 34 76 35 77 61 78 62 79 71 80 63 81 64 82 70 83 72 84 65 85
REMARK SMILES IDX 66 86 67 87 68 88 69 89 45 90 46 91 55 92 47 93 48 94 54 95
REMARK SMILES IDX 56 96 49 97 50 98 51 99 52 100 53 101
REMARK H PARENT 77 51 43 62
REMARK Flexibility Score: inf
ROOT
ATOM      1  C   UNL A   1      32.047  30.068  25.795  1.00  0.00     0.188 C 
ENDROOT
BRANCH   1   2
ATOM      2  O   UNL A   1      31.265  29.087  25.154  1.00  0.00    -0.377 OA
BRANCH   2   3
ATOM      3  C   UNL A   1      30.474  29.626  24.122  1.00  0.00     0.188 C 
BRANCH   3   4
ATOM      4  C   UNL A   1      30.356  28.734  22.881  1.00  0.00     0.188 C 
BRANCH   4   5
ATOM      5  O   UNL A   1      30.130  27.285  22.923  1.00  0.00    -0.376 OA
BRANCH   5   6
ATOM      6  C   UNL A   1      29.476  26.271  24.042  1.00  0.00     0.202 C 
BRANCH   6   7
ATOM      7  C   UNL A   1      30.336  25.646  25.949  1.00  0.00     0.261 C 
BRANCH   7   8
ATOM      8  O   UNL A   1      31.812  25.496  26.267  1.00  0.00    -0.460 OA
BRANCH   8   9
ATOM      9  C   UNL A   1      32.226  24.226  26.183  1.00  0.00     0.338 C 
ATOM     10  O   UNL A   1      32.139  23.354  27.010  1.00  0.00    -0.246 OA
BRANCH   9  11
ATOM     11  C   UNL A   1      33.164  24.422  25.091  1.00  0.00     0.087 C 
ATOM     12  C   UNL A   1      34.537  24.726  25.530  1.00  0.00     0.027 C 
ATOM     13  C   UNL A   1      32.633  22.807  24.190  1.00  0.00     0.316 C 
ATOM     14  C   UNL A   1      35.897  23.538  25.501  1.00  0.00     0.020 A 
ATOM     15  O   UNL A   1      34.040  21.464  24.263  1.00  0.00    -0.474 OA
ATOM     16  C   UNL A   1      37.119  23.905  25.995  1.00  0.00     0.032 A 
ATOM     17  C   UNL A   1      35.672  21.895  24.990  1.00  0.00     0.146 A 
ATOM     18  C   UNL A   1      38.088  22.883  26.023  1.00  0.00     0.043 A 
ATOM     19  C   UNL A   1      36.670  20.959  25.118  1.00  0.00     0.085 A 
ATOM     20  Cl  UNL A   1      39.656  23.323  26.628  1.00  0.00    -0.084 Cl
ATOM     21  C   UNL A   1      37.881  21.500  25.619  1.00  0.00     0.045 A 
ATOM     22  Cl  UNL A   1      36.519  19.290  24.827  1.00  0.00    -0.080 Cl
BRANCH  13  23
ATOM     23  C   UNL A   1      31.930  23.618  22.927  1.00  0.00     0.430 C 
ATOM     24  F   UNL A   1      32.095  23.128  21.686  1.00  0.00    -0.167 F 
ATOM     25  F   UNL A   1      30.576  23.551  23.130  1.00  0.00    -0.167 F 
ATOM     26  F   UNL A   1      32.188  24.950  22.886  1.00  0.00    -0.167 F 
ENDBRANCH  13  23
ENDBRANCH   9  11
ENDBRANCH   8   9
ENDBRANCH   7   8
ENDBRANCH   6   7
ENDBRANCH   5   6
ENDBRANCH   4   5
ENDBRANCH   3   4
ENDBRANCH   2   3
ENDBRANCH   1   2
BRANCH   1  27
ATOM     27  C   UNL A   1      31.371  31.418  26.048  1.00  0.00     0.188 C 
BRANCH  27  28
ATOM     28  O   UNL A   1      31.707  32.251  27.145  1.00  0.00    -0.376 OA
BRANCH  28  29
ATOM     29  C   UNL A   1      33.042  32.663  27.376  1.00  0.00     0.202 C 
BRANCH  29  30
ATOM     30  C   UNL A   1      34.049  31.784  28.136  1.00  0.00     0.261 C 
BRANCH  30  31
ATOM     31  O   UNL A   1      34.911  30.962  27.341  1.00  0.00    -0.460 OA
BRANCH  31  32
ATOM     32  C   UNL A   1      35.193  29.743  27.852  1.00  0.00     0.338 C 
ATOM     33  O   UNL A   1      34.510  28.737  27.760  1.00  0.00    -0.246 OA
BRANCH  32  34
ATOM     34  C   UNL A   1      36.568  29.744  28.403  1.00  0.00     0.060 A 
ATOM     35  C   UNL A   1      37.613  30.236  27.602  1.00  0.00     0.016 A 
ATOM     36  C   UNL A   1      36.834  29.241  29.677  1.00  0.00     0.016 A 
ATOM     37  C   UNL A   1      38.931  30.179  28.046  1.00  0.00     0.010 A 
ATOM     38  C   UNL A   1      38.159  29.138  30.102  1.00  0.00     0.010 A 
ATOM     39  C   UNL A   1      39.211  29.557  29.264  1.00  0.00    -0.014 A 
BRANCH  39  40
ATOM     40  C   UNL A   1      40.578  29.058  29.536  1.00  0.00     0.031 A 
ATOM     41  C   UNL A   1      41.548  30.022  30.164  1.00  0.00     0.074 A 
ATOM     42  C   UNL A   1      40.960  27.811  29.218  1.00  0.00     0.049 A 
ATOM     43  N   UNL A   1      42.836  29.907  30.346  1.00  0.00    -0.248 NA
ATOM     44  C   UNL A   1      40.984  31.301  30.629  1.00  0.00     0.031 C 
ATOM     45  C   UNL A   1      40.090  26.775  28.669  1.00  0.00     0.029 A 
ATOM     46  N   UNL A   1      42.196  27.219  29.286  1.00  0.00    -0.354 N 
ATOM     47  C   UNL A   1      43.241  31.109  30.914  1.00  0.00     0.074 A 
ATOM     48  C   UNL A   1      42.069  31.947  31.023  1.00  0.00     0.031 C 
ATOM     49  C   UNL A   1      40.829  25.681  28.413  1.00  0.00     0.029 A 
ATOM     50  C   UNL A   1      42.229  25.961  28.736  1.00  0.00     0.049 A 
ATOM     51  H   UNL A   1      42.982  27.654  29.690  1.00  0.00     0.167 HD
ATOM     52  C   UNL A   1      44.482  31.481  31.306  1.00  0.00     0.037 A 
ATOM     53  C   UNL A   1      43.278  25.152  28.479  1.00  0.00     0.037 A 
ATOM     54  C   UNL A   1      45.639  30.635  31.176  1.00  0.00     0.049 A 
ATOM     55  C   UNL A   1      44.667  25.610  28.848  1.00  0.00     0.074 A 
ATOM     56  C   UNL A   1      46.943  30.899  31.552  1.00  0.00     0.029 A 
ATOM     57  N   UNL A   1      45.634  29.369  30.606  1.00  0.00    -0.354 N 
ATOM     58  N   UNL A   1      45.047  26.744  29.391  1.00  0.00    -0.248 NA
ATOM     59  C   UNL A   1      45.771  24.681  28.572  1.00  0.00     0.031 C 
ATOM     60  C   UNL A   1      47.739  29.827  31.140  1.00  0.00     0.029 A 
ATOM     61  C   UNL A   1      46.919  28.853  30.592  1.00  0.00     0.049 A 
ATOM     62  H   UNL A   1      44.836  28.907  30.262  1.00  0.00     0.167 HD
ATOM     63  C   UNL A   1      46.425  26.646  29.562  1.00  0.00     0.074 A 
ATOM     64  C   UNL A   1      46.813  25.344  29.058  1.00  0.00     0.031 C 
ATOM     65  C   UNL A   1      47.287  27.545  30.100  1.00  0.00     0.037 A 
BRANCH  52  66
ATOM     66  C   UNL A   1      44.653  32.872  31.854  1.00  0.00     0.058 A 
ATOM     67  C   UNL A   1      44.644  33.144  33.233  1.00  0.00     0.135 A 
ATOM     68  C   UNL A   1      44.827  33.959  30.980  1.00  0.00     0.135 A 
ATOM     69  F   UNL A   1      44.463  32.149  34.117  1.00  0.00    -0.206 F 
ATOM     70  C   UNL A   1      44.755  34.441  33.721  1.00  0.00     0.059 A 
ATOM     71  C   UNL A   1      44.982  35.260  31.448  1.00  0.00     0.059 A 
ATOM     72  F   UNL A   1      44.841  33.762  29.651  1.00  0.00    -0.206 F 
ATOM     73  C   UNL A   1      44.924  35.493  32.819  1.00  0.00     0.060 A 
BRANCH  73  74
ATOM     74  S   UNL A   1      45.055  37.172  33.469  1.00  0.00     0.124 S 
ATOM     75  O   UNL A   1      43.881  37.807  32.876  1.00  0.00    -0.237 OA
ATOM     76  O   UNL A   1      44.995  36.952  34.910  1.00  0.00    -0.237 OA
ATOM     77  O   UNL A   1      46.342  37.635  32.960  1.00  0.00    -0.744 OA
ENDBRANCH  73  74
ENDBRANCH  52  66
BRANCH  53  78
ATOM     78  C   UNL A   1      43.047  23.835  27.830  1.00  0.00     0.058 A 
ATOM     79  C   UNL A   1      43.242  23.661  26.452  1.00  0.00     0.135 A 
ATOM     80  C   UNL A   1      42.662  22.711  28.580  1.00  0.00     0.135 A 
ATOM     81  F   UNL A   1      43.594  24.707  25.689  1.00  0.00    -0.206 F 
ATOM     82  C   UNL A   1      43.069  22.424  25.841  1.00  0.00     0.059 A 
ATOM     83  C   UNL A   1      42.512  21.457  27.998  1.00  0.00     0.059 A 
ATOM     84  F   UNL A   1      42.468  22.820  29.904  1.00  0.00    -0.206 F 
ATOM     85  C   UNL A   1      42.717  21.324  26.624  1.00  0.00     0.060 A 
BRANCH  85  86
ATOM     86  S   UNL A   1      42.587  19.707  25.832  1.00  0.00     0.124 S 
ATOM     87  O   UNL A   1      41.188  19.690  25.420  1.00  0.00    -0.237 OA
ATOM     88  O   UNL A   1      43.570  19.819  24.758  1.00  0.00    -0.237 OA
ATOM     89  O   UNL A   1      42.942  18.777  26.901  1.00  0.00    -0.744 OA
ENDBRANCH  85  86
ENDBRANCH  53  78
BRANCH  65  90
ATOM     90  C   UNL A   1      48.730  27.141  30.250  1.00  0.00     0.058 A 
ATOM     91  C   UNL A   1      49.709  27.474  29.302  1.00  0.00     0.135 A 
ATOM     92  C   UNL A   1      49.153  26.486  31.421  1.00  0.00     0.135 A 
ATOM     93  F   UNL A   1      49.364  28.093  28.162  1.00  0.00    -0.206 F 
ATOM     94  C   UNL A   1      51.051  27.161  29.501  1.00  0.00     0.059 A 
ATOM     95  C   UNL A   1      50.492  26.197  31.659  1.00  0.00     0.059 A 
ATOM     96  F   UNL A   1      48.260  26.151  32.368  1.00  0.00    -0.206 F 
ATOM     97  C   UNL A   1      51.434  26.533  30.690  1.00  0.00     0.060 A 
BRANCH  97  98
ATOM     98  S   UNL A   1      53.185  26.189  30.962  1.00  0.00     0.124 S 
ATOM     99  O   UNL A   1      53.125  24.985  31.784  1.00  0.00    -0.237 OA
ATOM    100  O   UNL A   1      53.679  26.004  29.602  1.00  0.00    -0.237 OA
ATOM    101  O   UNL A   1      53.667  27.388  31.641  1.00  0.00    -0.744 OA
ENDBRANCH  97  98
ENDBRANCH  65  90
ENDBRANCH  39  40
ENDBRANCH  32  34
ENDBRANCH  31  32
ENDBRANCH  30  31
ENDBRANCH  29  30
ENDBRANCH  28  29
ENDBRANCH  27  28
ENDBRANCH   1  27
TORSDOF 24
ENDMDL
