MODEL 1
REMARK VINA RESULT:      -9.5      0.000      0.000
REMARK SMILES O=C(OCCOCCOCCOCCOC(=O)c1ccc(N2C(=O)[C@@H]3N=NC(c4ccccc4)=C3[C@H]2c2cccc(Br)c2)cc1)c1ccc(-c2c3nc(c(-c4c(F)cc(S(=O)(=O)[O-])cc4F)c4ccc([nH]4)c(-c4c(F)cc(S(=O)(=O)[O-])cc4F)c4nc(c(-c5c(F)cc(S(=O)(=O)[O-])cc5F)c5ccc2[nH]5)C=C4)C=C3)cc1
REMARK SMILES IDX 8 1 7 2 6 3 5 4 4 5 3 6 2 7 1 8 46 9 47 10 111 11 48 12
REMARK SMILES IDX 110 13 49 14 50 15 51 16 104 17 52 18 109 19 103 20 105 21
REMARK SMILES IDX 53 22 108 23 102 24 101 25 54 27 88 28 67 29 87 30 68 31
REMARK SMILES IDX 71 32 86 33 106 34 69 35 70 36 85 38 107 39 72 40 55 41
REMARK SMILES IDX 56 42 65 43 57 44 58 45 64 46 66 47 59 48 60 49 61 50 62 51
REMARK SMILES IDX 63 52 89 53 90 54 99 55 91 56 92 57 98 58 100 59 93 60 94 61
REMARK SMILES IDX 95 62 96 63 97 64 73 65 74 66 83 67 75 68 76 69 82 70 84 71
REMARK SMILES IDX 77 72 78 73 79 74 80 75 81 76 9 77 10 78 11 79 12 80 13 81
REMARK SMILES IDX 14 82 15 83 16 84 17 85 18 86 19 87 45 88 20 89 44 90 21 91
REMARK SMILES IDX 22 92 23 93 36 94 25 95 24 96 35 97 26 98 28 99 27 100
REMARK SMILES IDX 37 101 38 102 43 103 39 104 41 105 40 106 42 107 29 108
REMARK SMILES IDX 30 109 34 110 31 111 33 112 32 113
REMARK H PARENT 105 26 71 37
REMARK Flexibility Score: inf
ROOT
ATOM      1  C   UNL A   1      34.538  30.430  27.978  1.00  0.00     0.188 C 
ENDROOT
BRANCH   1   2
ATOM      2  C   UNL A   1      35.623  31.524  28.080  1.00  0.00     0.188 C 
BRANCH   2   3
ATOM      3  O   UNL A   1      35.395  32.916  28.228  1.00  0.00    -0.376 OA
BRANCH   3   4
ATOM      4  C   UNL A   1      34.203  33.671  28.206  1.00  0.00     0.202 C 
BRANCH   4   5
ATOM      5  C   UNL A   1      33.770  34.706  29.243  1.00  0.00     0.261 C 
BRANCH   5   6
ATOM      6  O   UNL A   1      33.829  34.277  30.590  1.00  0.00    -0.460 OA
BRANCH   6   7
ATOM      7  C   UNL A   1      34.661  33.363  31.125  1.00  0.00     0.338 C 
ATOM      8  O   UNL A   1      34.229  32.221  31.279  1.00  0.00    -0.246 OA
BRANCH   7   9
ATOM      9  C   UNL A   1      36.033  33.659  31.621  1.00  0.00     0.060 A 
ATOM     10  C   UNL A   1      37.006  34.449  31.001  1.00  0.00     0.016 A 
ATOM     11  C   UNL A   1      36.355  33.016  32.832  1.00  0.00     0.016 A 
ATOM     12  C   UNL A   1      38.320  34.371  31.410  1.00  0.00     0.010 A 
ATOM     13  C   UNL A   1      37.656  32.969  33.275  1.00  0.00     0.010 A 
ATOM     14  C   UNL A   1      38.635  33.548  32.482  1.00  0.00    -0.014 A 
BRANCH  14  15
ATOM     15  C   UNL A   1      40.032  33.296  32.746  1.00  0.00     0.031 A 
ATOM     16  C   UNL A   1      40.616  34.196  33.764  1.00  0.00     0.074 A 
ATOM     17  C   UNL A   1      40.658  32.284  32.115  1.00  0.00     0.049 A 
ATOM     18  N   UNL A   1      41.482  35.136  33.582  1.00  0.00    -0.248 NA
ATOM     19  C   UNL A   1      40.014  34.188  35.108  1.00  0.00     0.031 C 
ATOM     20  C   UNL A   1      40.068  31.242  31.267  1.00  0.00     0.029 A 
ATOM     21  N   UNL A   1      41.960  31.909  32.189  1.00  0.00    -0.354 N 
ATOM     22  C   UNL A   1      41.730  35.657  34.847  1.00  0.00     0.074 A 
ATOM     23  C   UNL A   1      40.657  35.202  35.690  1.00  0.00     0.031 C 
ATOM     24  C   UNL A   1      40.951  30.230  31.122  1.00  0.00     0.029 A 
ATOM     25  C   UNL A   1      42.206  30.613  31.741  1.00  0.00     0.049 A 
ATOM     26  H   UNL A   1      42.670  32.501  32.529  1.00  0.00     0.167 HD
ATOM     27  C   UNL A   1      42.946  36.184  35.161  1.00  0.00     0.037 A 
ATOM     28  C   UNL A   1      43.339  29.902  31.977  1.00  0.00     0.037 A 
ATOM     29  C   UNL A   1      43.701  36.491  33.974  1.00  0.00     0.049 A 
ATOM     30  C   UNL A   1      44.400  30.897  32.309  1.00  0.00     0.074 A 
ATOM     31  C   UNL A   1      43.509  37.331  32.895  1.00  0.00     0.029 A 
ATOM     32  N   UNL A   1      44.666  35.592  33.588  1.00  0.00    -0.354 N 
ATOM     33  N   UNL A   1      44.857  31.772  31.451  1.00  0.00    -0.248 NA
ATOM     34  C   UNL A   1      44.569  31.258  33.710  1.00  0.00     0.031 C 
ATOM     35  C   UNL A   1      44.006  36.608  31.772  1.00  0.00     0.029 A 
ATOM     36  C   UNL A   1      44.546  35.407  32.234  1.00  0.00     0.049 A 
ATOM     37  H   UNL A   1      45.325  35.158  34.176  1.00  0.00     0.167 HD
ATOM     38  C   UNL A   1      44.977  32.954  32.170  1.00  0.00     0.074 A 
ATOM     39  C   UNL A   1      44.840  32.559  33.572  1.00  0.00     0.031 C 
ATOM     40  C   UNL A   1      44.875  34.171  31.557  1.00  0.00     0.037 A 
BRANCH  27  41
ATOM     41  C   UNL A   1      43.596  36.044  36.516  1.00  0.00     0.058 A 
ATOM     42  C   UNL A   1      44.123  37.190  37.147  1.00  0.00     0.135 A 
ATOM     43  C   UNL A   1      43.978  34.806  37.081  1.00  0.00     0.135 A 
ATOM     44  F   UNL A   1      43.833  38.417  36.685  1.00  0.00    -0.206 F 
ATOM     45  C   UNL A   1      45.018  37.108  38.212  1.00  0.00     0.059 A 
ATOM     46  C   UNL A   1      44.825  34.705  38.178  1.00  0.00     0.059 A 
ATOM     47  F   UNL A   1      43.635  33.632  36.542  1.00  0.00    -0.206 F 
ATOM     48  C   UNL A   1      45.372  35.858  38.712  1.00  0.00     0.060 A 
BRANCH  48  49
ATOM     49  S   UNL A   1      46.594  35.743  40.028  1.00  0.00     0.124 S 
ATOM     50  O   UNL A   1      45.799  35.184  41.116  1.00  0.00    -0.237 OA
ATOM     51  O   UNL A   1      47.588  34.854  39.437  1.00  0.00    -0.237 OA
ATOM     52  O   UNL A   1      47.026  37.126  40.207  1.00  0.00    -0.744 OA
ENDBRANCH  48  49
ENDBRANCH  27  41
BRANCH  28  53
ATOM     53  C   UNL A   1      43.429  28.462  32.349  1.00  0.00     0.058 A 
ATOM     54  C   UNL A   1      44.298  27.586  31.675  1.00  0.00     0.135 A 
ATOM     55  C   UNL A   1      42.871  27.974  33.549  1.00  0.00     0.135 A 
ATOM     56  F   UNL A   1      44.894  27.972  30.536  1.00  0.00    -0.206 F 
ATOM     57  C   UNL A   1      44.630  26.321  32.183  1.00  0.00     0.059 A 
ATOM     58  C   UNL A   1      43.177  26.717  34.070  1.00  0.00     0.059 A 
ATOM     59  F   UNL A   1      42.077  28.741  34.309  1.00  0.00    -0.206 F 
ATOM     60  C   UNL A   1      44.078  25.905  33.395  1.00  0.00     0.060 A 
BRANCH  60  61
ATOM     61  S   UNL A   1      44.635  24.356  34.148  1.00  0.00     0.124 S 
ATOM     62  O   UNL A   1      45.864  24.770  34.818  1.00  0.00    -0.237 OA
ATOM     63  O   UNL A   1      43.516  24.017  35.020  1.00  0.00    -0.237 OA
ATOM     64  O   UNL A   1      44.819  23.469  33.002  1.00  0.00    -0.744 OA
ENDBRANCH  60  61
ENDBRANCH  28  53
BRANCH  40  65
ATOM     65  C   UNL A   1      44.904  34.221  30.051  1.00  0.00     0.058 A 
ATOM     66  C   UNL A   1      46.076  34.232  29.272  1.00  0.00     0.135 A 
ATOM     67  C   UNL A   1      43.686  34.078  29.370  1.00  0.00     0.135 A 
ATOM     68  F   UNL A   1      47.286  34.259  29.850  1.00  0.00    -0.206 F 
ATOM     69  C   UNL A   1      46.034  34.144  27.878  1.00  0.00     0.059 A 
ATOM     70  C   UNL A   1      43.622  33.956  27.985  1.00  0.00     0.059 A 
ATOM     71  F   UNL A   1      42.537  33.994  30.060  1.00  0.00    -0.206 F 
ATOM     72  C   UNL A   1      44.800  34.004  27.243  1.00  0.00     0.060 A 
BRANCH  72  73
ATOM     73  S   UNL A   1      44.743  33.819  25.447  1.00  0.00     0.124 S 
ATOM     74  O   UNL A   1      43.586  34.633  25.091  1.00  0.00    -0.237 OA
ATOM     75  O   UNL A   1      46.040  34.347  25.034  1.00  0.00    -0.237 OA
ATOM     76  O   UNL A   1      44.577  32.380  25.256  1.00  0.00    -0.744 OA
ENDBRANCH  72  73
ENDBRANCH  40  65
ENDBRANCH  14  15
ENDBRANCH   7   9
ENDBRANCH   6   7
ENDBRANCH   5   6
ENDBRANCH   4   5
ENDBRANCH   3   4
ENDBRANCH   2   3
ENDBRANCH   1   2
BRANCH   1  77
ATOM     77  O   UNL A   1      34.056  30.065  26.697  1.00  0.00    -0.377 OA
BRANCH  77  78
ATOM     78  C   UNL A   1      32.895  29.266  26.727  1.00  0.00     0.188 C 
BRANCH  78  79
ATOM     79  C   UNL A   1      31.816  29.743  25.738  1.00  0.00     0.188 C 
BRANCH  79  80
ATOM     80  O   UNL A   1      30.945  28.820  25.110  1.00  0.00    -0.376 OA
BRANCH  80  81
ATOM     81  C   UNL A   1      30.432  29.078  23.813  1.00  0.00     0.202 C 
BRANCH  81  82
ATOM     82  C   UNL A   1      31.326  29.189  22.558  1.00  0.00     0.261 C 
BRANCH  82  83
ATOM     83  O   UNL A   1      32.754  29.142  22.722  1.00  0.00    -0.460 OA
BRANCH  83  84
ATOM     84  C   UNL A   1      33.384  28.109  22.128  1.00  0.00     0.338 C 
ATOM     85  O   UNL A   1      34.223  28.171  21.232  1.00  0.00    -0.246 OA
BRANCH  84  86
ATOM     86  C   UNL A   1      33.044  26.833  22.794  1.00  0.00     0.060 A 
ATOM     87  C   UNL A   1      33.755  26.469  23.942  1.00  0.00     0.018 A 
ATOM     88  C   UNL A   1      32.114  25.946  22.245  1.00  0.00     0.018 A 
ATOM     89  C   UNL A   1      33.545  25.226  24.532  1.00  0.00     0.027 A 
ATOM     90  C   UNL A   1      31.954  24.662  22.804  1.00  0.00     0.027 A 
ATOM     91  C   UNL A   1      32.683  24.294  23.939  1.00  0.00     0.045 A 
BRANCH  91  92
ATOM     92  N   UNL A   1      32.606  22.980  24.489  1.00  0.00    -0.299 N 
ATOM     93  C   UNL A   1      32.232  22.887  25.870  1.00  0.00     0.259 C 
ATOM     94  C   UNL A   1      33.688  22.010  24.178  1.00  0.00     0.152 C 
ATOM     95  C   UNL A   1      33.040  21.781  26.488  1.00  0.00     0.248 C 
ATOM     96  O   UNL A   1      31.440  23.607  26.462  1.00  0.00    -0.271 OA
ATOM     97  C   UNL A   1      34.195  21.845  25.560  1.00  0.00     0.021 C 
ATOM     98  N   UNL A   1      33.660  22.076  27.783  1.00  0.00    -0.170 NA
ATOM     99  C   UNL A   1      35.280  21.971  26.321  1.00  0.00     0.097 C 
ATOM    100  N   UNL A   1      34.918  22.035  27.656  1.00  0.00    -0.154 NA
BRANCH  94 101
ATOM    101  C   UNL A   1      33.179  20.663  23.621  1.00  0.00    -0.020 A 
ATOM    102  C   UNL A   1      32.303  20.612  22.507  1.00  0.00     0.006 A 
ATOM    103  C   UNL A   1      33.533  19.437  24.206  1.00  0.00     0.022 A 
ATOM    104  C   UNL A   1      31.865  19.410  21.951  1.00  0.00     0.002 A 
ATOM    105  C   UNL A   1      33.056  18.230  23.666  1.00  0.00     0.018 A 
ATOM    106  C   UNL A   1      32.242  18.211  22.534  1.00  0.00     0.016 A 
ATOM    107  Br  UNL A   1      33.500  16.584  24.489  1.00  0.00    -0.051 Br
ENDBRANCH  94 101
BRANCH  99 108
ATOM    108  C   UNL A   1      36.681  22.259  26.007  1.00  0.00     0.002 A 
ATOM    109  C   UNL A   1      37.582  21.230  25.704  1.00  0.00     0.010 A 
ATOM    110  C   UNL A   1      37.181  23.525  26.350  1.00  0.00     0.010 A 
ATOM    111  C   UNL A   1      38.960  21.440  25.853  1.00  0.00     0.001 A 
ATOM    112  C   UNL A   1      38.552  23.729  26.502  1.00  0.00     0.001 A 
ATOM    113  C   UNL A   1      39.438  22.678  26.284  1.00  0.00     0.000 A 
ENDBRANCH  99 108
ENDBRANCH  91  92
ENDBRANCH  84  86
ENDBRANCH  83  84
ENDBRANCH  82  83
ENDBRANCH  81  82
ENDBRANCH  80  81
ENDBRANCH  79  80
ENDBRANCH  78  79
ENDBRANCH  77  78
ENDBRANCH   1  77
TORSDOF 26
ENDMDL
MODEL 2
REMARK VINA RESULT:      -9.3      5.880     12.594
REMARK SMILES O=C(OCCOCCOCCOCCOC(=O)c1ccc(N2C(=O)[C@@H]3N=NC(c4ccccc4)=C3[C@H]2c2cccc(Br)c2)cc1)c1ccc(-c2c3nc(c(-c4c(F)cc(S(=O)(=O)[O-])cc4F)c4ccc([nH]4)c(-c4c(F)cc(S(=O)(=O)[O-])cc4F)c4nc(c(-c5c(F)cc(S(=O)(=O)[O-])cc5F)c5ccc2[nH]5)C=C4)C=C3)cc1
REMARK SMILES IDX 8 1 7 2 6 3 5 4 4 5 3 6 2 7 1 8 46 9 47 10 111 11 48 12
REMARK SMILES IDX 110 13 49 14 50 15 51 16 104 17 52 18 109 19 103 20 105 21
REMARK SMILES IDX 53 22 108 23 102 24 101 25 54 27 88 28 67 29 87 30 68 31
REMARK SMILES IDX 71 32 86 33 106 34 69 35 70 36 85 38 107 39 72 40 55 41
REMARK SMILES IDX 56 42 65 43 57 44 58 45 64 46 66 47 59 48 60 49 61 50 62 51
REMARK SMILES IDX 63 52 89 53 90 54 99 55 91 56 92 57 98 58 100 59 93 60 94 61
REMARK SMILES IDX 95 62 96 63 97 64 73 65 74 66 83 67 75 68 76 69 82 70 84 71
REMARK SMILES IDX 77 72 78 73 79 74 80 75 81 76 9 77 10 78 11 79 12 80 13 81
REMARK SMILES IDX 14 82 15 83 16 84 17 85 18 86 19 87 45 88 20 89 44 90 21 91
REMARK SMILES IDX 22 92 23 93 36 94 25 95 24 96 35 97 26 98 28 99 27 100
REMARK SMILES IDX 37 101 38 102 43 103 39 104 41 105 40 106 42 107 29 108
REMARK SMILES IDX 30 109 34 110 31 111 33 112 32 113
REMARK H PARENT 105 26 71 37
REMARK Flexibility Score: inf
ROOT
ATOM      1  C   UNL A   1      35.459  32.729  32.961  1.00  0.00     0.188 C 
ENDROOT
BRANCH   1   2
ATOM      2  C   UNL A   1      35.663  33.976  32.073  1.00  0.00     0.188 C 
BRANCH   2   3
ATOM      3  O   UNL A   1      34.933  34.296  30.901  1.00  0.00    -0.376 OA
BRANCH   3   4
ATOM      4  C   UNL A   1      34.446  33.481  29.856  1.00  0.00     0.202 C 
BRANCH   4   5
ATOM      5  C   UNL A   1      34.512  33.792  28.362  1.00  0.00     0.261 C 
BRANCH   5   6
ATOM      6  O   UNL A   1      35.324  32.921  27.597  1.00  0.00    -0.460 OA
BRANCH   6   7
ATOM      7  C   UNL A   1      35.506  31.599  27.775  1.00  0.00     0.338 C 
ATOM      8  O   UNL A   1      34.628  30.842  27.361  1.00  0.00    -0.246 OA
BRANCH   7   9
ATOM      9  C   UNL A   1      36.650  30.996  28.514  1.00  0.00     0.060 A 
ATOM     10  C   UNL A   1      37.552  31.652  29.357  1.00  0.00     0.016 A 
ATOM     11  C   UNL A   1      36.827  29.621  28.272  1.00  0.00     0.016 A 
ATOM     12  C   UNL A   1      38.736  31.038  29.710  1.00  0.00     0.010 A 
ATOM     13  C   UNL A   1      37.983  28.985  28.659  1.00  0.00     0.010 A 
ATOM     14  C   UNL A   1      38.972  29.745  29.264  1.00  0.00    -0.014 A 
BRANCH  14  15
ATOM     15  C   UNL A   1      40.301  29.208  29.441  1.00  0.00     0.031 A 
ATOM     16  C   UNL A   1      40.719  29.111  30.856  1.00  0.00     0.074 A 
ATOM     17  C   UNL A   1      41.009  28.812  28.366  1.00  0.00     0.049 A 
ATOM     18  N   UNL A   1      41.618  29.811  31.463  1.00  0.00    -0.248 NA
ATOM     19  C   UNL A   1      39.900  28.280  31.754  1.00  0.00     0.031 C 
ATOM     20  C   UNL A   1      40.554  28.693  26.976  1.00  0.00     0.029 A 
ATOM     21  N   UNL A   1      42.274  28.325  28.310  1.00  0.00    -0.354 N 
ATOM     22  C   UNL A   1      41.657  29.313  32.761  1.00  0.00     0.074 A 
ATOM     23  C   UNL A   1      40.451  28.550  32.939  1.00  0.00     0.031 C 
ATOM     24  C   UNL A   1      41.434  27.939  26.280  1.00  0.00     0.029 A 
ATOM     25  C   UNL A   1      42.572  27.647  27.130  1.00  0.00     0.049 A 
ATOM     26  H   UNL A   1      42.926  28.441  29.040  1.00  0.00     0.167 HD
ATOM     27  C   UNL A   1      42.811  29.335  33.485  1.00  0.00     0.037 A 
ATOM     28  C   UNL A   1      43.638  26.826  26.944  1.00  0.00     0.037 A 
ATOM     29  C   UNL A   1      43.760  30.260  32.921  1.00  0.00     0.049 A 
ATOM     30  C   UNL A   1      44.643  27.197  27.982  1.00  0.00     0.074 A 
ATOM     31  C   UNL A   1      43.764  31.622  32.692  1.00  0.00     0.029 A 
ATOM     32  N   UNL A   1      44.762  29.741  32.137  1.00  0.00    -0.354 N 
ATOM     33  N   UNL A   1      45.251  28.355  28.009  1.00  0.00    -0.248 NA
ATOM     34  C   UNL A   1      44.580  26.501  29.260  1.00  0.00     0.031 C 
ATOM     35  C   UNL A   1      44.432  31.784  31.444  1.00  0.00     0.029 A 
ATOM     36  C   UNL A   1      44.868  30.528  31.019  1.00  0.00     0.049 A 
ATOM     37  H   UNL A   1      45.306  28.945  32.341  1.00  0.00     0.167 HD
ATOM     38  C   UNL A   1      45.266  28.723  29.349  1.00  0.00     0.074 A 
ATOM     39  C   UNL A   1      44.890  27.512  30.078  1.00  0.00     0.031 C 
ATOM     40  C   UNL A   1      45.288  30.037  29.725  1.00  0.00     0.037 A 
BRANCH  27  41
ATOM     41  C   UNL A   1      43.222  28.243  34.441  1.00  0.00     0.058 A 
ATOM     42  C   UNL A   1      43.514  28.576  35.780  1.00  0.00     0.135 A 
ATOM     43  C   UNL A   1      43.617  26.948  34.035  1.00  0.00     0.135 A 
ATOM     44  F   UNL A   1      43.192  29.785  36.268  1.00  0.00    -0.206 F 
ATOM     45  C   UNL A   1      44.210  27.715  36.627  1.00  0.00     0.059 A 
ATOM     46  C   UNL A   1      44.262  26.054  34.880  1.00  0.00     0.059 A 
ATOM     47  F   UNL A   1      43.491  26.519  32.775  1.00  0.00    -0.206 F 
ATOM     48  C   UNL A   1      44.590  26.460  36.161  1.00  0.00     0.060 A 
BRANCH  48  49
ATOM     49  S   UNL A   1      45.566  25.380  37.220  1.00  0.00     0.124 S 
ATOM     50  O   UNL A   1      45.303  24.074  36.626  1.00  0.00    -0.237 OA
ATOM     51  O   UNL A   1      46.912  25.911  37.031  1.00  0.00    -0.237 OA
ATOM     52  O   UNL A   1      44.992  25.600  38.544  1.00  0.00    -0.744 OA
ENDBRANCH  48  49
ENDBRANCH  27  41
BRANCH  28  53
ATOM     53  C   UNL A   1      43.642  25.512  26.241  1.00  0.00     0.058 A 
ATOM     54  C   UNL A   1      44.608  25.208  25.265  1.00  0.00     0.135 A 
ATOM     55  C   UNL A   1      42.871  24.425  26.704  1.00  0.00     0.135 A 
ATOM     56  F   UNL A   1      45.404  26.174  24.781  1.00  0.00    -0.206 F 
ATOM     57  C   UNL A   1      44.827  23.900  24.810  1.00  0.00     0.059 A 
ATOM     58  C   UNL A   1      43.063  23.117  26.260  1.00  0.00     0.059 A 
ATOM     59  F   UNL A   1      41.962  24.582  27.677  1.00  0.00    -0.206 F 
ATOM     60  C   UNL A   1      44.061  22.857  25.331  1.00  0.00     0.060 A 
BRANCH  60  61
ATOM     61  S   UNL A   1      44.455  21.147  24.887  1.00  0.00     0.124 S 
ATOM     62  O   UNL A   1      45.723  20.939  25.577  1.00  0.00    -0.237 OA
ATOM     63  O   UNL A   1      43.310  20.418  25.422  1.00  0.00    -0.237 OA
ATOM     64  O   UNL A   1      44.538  21.186  23.429  1.00  0.00    -0.744 OA
ENDBRANCH  60  61
ENDBRANCH  28  53
BRANCH  40  65
ATOM     65  C   UNL A   1      45.570  31.079  28.673  1.00  0.00     0.058 A 
ATOM     66  C   UNL A   1      44.600  31.639  27.821  1.00  0.00     0.135 A 
ATOM     67  C   UNL A   1      46.848  31.655  28.651  1.00  0.00     0.135 A 
ATOM     68  F   UNL A   1      43.327  31.218  27.857  1.00  0.00    -0.206 F 
ATOM     69  C   UNL A   1      44.901  32.697  26.959  1.00  0.00     0.059 A 
ATOM     70  C   UNL A   1      47.162  32.730  27.825  1.00  0.00     0.059 A 
ATOM     71  F   UNL A   1      47.800  31.210  29.489  1.00  0.00    -0.206 F 
ATOM     72  C   UNL A   1      46.186  33.239  26.971  1.00  0.00     0.060 A 
BRANCH  72  73
ATOM     73  S   UNL A   1      46.563  34.652  25.910  1.00  0.00     0.124 S 
ATOM     74  O   UNL A   1      46.382  35.776  26.822  1.00  0.00    -0.237 OA
ATOM     75  O   UNL A   1      47.938  34.383  25.501  1.00  0.00    -0.237 OA
ATOM     76  O   UNL A   1      45.573  34.550  24.841  1.00  0.00    -0.744 OA
ENDBRANCH  72  73
ENDBRANCH  40  65
ENDBRANCH  14  15
ENDBRANCH   7   9
ENDBRANCH   6   7
ENDBRANCH   5   6
ENDBRANCH   4   5
ENDBRANCH   3   4
ENDBRANCH   2   3
ENDBRANCH   1   2
BRANCH   1  77
ATOM     77  O   UNL A   1      36.547  31.840  33.147  1.00  0.00    -0.377 OA
BRANCH  77  78
ATOM     78  C   UNL A   1      37.183  31.969  34.398  1.00  0.00     0.188 C 
BRANCH  78  79
ATOM     79  C   UNL A   1      38.703  32.182  34.275  1.00  0.00     0.188 C 
BRANCH  79  80
ATOM     80  O   UNL A   1      39.576  31.826  35.331  1.00  0.00    -0.376 OA
BRANCH  80  81
ATOM     81  C   UNL A   1      39.878  32.752  36.363  1.00  0.00     0.202 C 
BRANCH  81  82
ATOM     82  C   UNL A   1      41.194  33.560  36.414  1.00  0.00     0.261 C 
BRANCH  82  83
ATOM     83  O   UNL A   1      41.940  33.739  35.197  1.00  0.00    -0.460 OA
BRANCH  83  84
ATOM     84  C   UNL A   1      41.461  34.661  34.338  1.00  0.00     0.338 C 
ATOM     85  O   UNL A   1      40.283  34.856  34.047  1.00  0.00    -0.246 OA
BRANCH  84  86
ATOM     86  C   UNL A   1      42.543  35.547  33.860  1.00  0.00     0.060 A 
ATOM     87  C   UNL A   1      42.405  36.927  34.043  1.00  0.00     0.018 A 
ATOM     88  C   UNL A   1      43.634  35.049  33.143  1.00  0.00     0.018 A 
ATOM     89  C   UNL A   1      43.345  37.803  33.507  1.00  0.00     0.027 A 
ATOM     90  C   UNL A   1      44.546  35.941  32.543  1.00  0.00     0.027 A 
ATOM     91  C   UNL A   1      44.392  37.321  32.710  1.00  0.00     0.045 A 
BRANCH  91  92
ATOM     92  N   UNL A   1      45.248  38.257  32.057  1.00  0.00    -0.299 N 
ATOM     93  C   UNL A   1      45.199  39.608  32.536  1.00  0.00     0.259 C 
ATOM     94  C   UNL A   1      45.333  38.235  30.574  1.00  0.00     0.152 C 
ATOM     95  C   UNL A   1      45.319  40.519  31.346  1.00  0.00     0.248 C 
ATOM     96  O   UNL A   1      45.036  39.967  33.694  1.00  0.00    -0.271 OA
ATOM     97  C   UNL A   1      44.770  39.584  30.334  1.00  0.00     0.021 C 
ATOM     98  N   UNL A   1      44.373  41.637  31.287  1.00  0.00    -0.170 NA
ATOM     99  C   UNL A   1      43.785  40.235  29.718  1.00  0.00     0.097 C 
ATOM    100  N   UNL A   1      43.627  41.492  30.276  1.00  0.00    -0.154 NA
BRANCH  94 101
ATOM    101  C   UNL A   1      46.775  38.143  30.031  1.00  0.00    -0.020 A 
ATOM    102  C   UNL A   1      47.089  38.544  28.707  1.00  0.00     0.006 A 
ATOM    103  C   UNL A   1      47.829  37.635  30.807  1.00  0.00     0.022 A 
ATOM    104  C   UNL A   1      48.390  38.518  28.205  1.00  0.00     0.002 A 
ATOM    105  C   UNL A   1      49.131  37.573  30.282  1.00  0.00     0.018 A 
ATOM    106  C   UNL A   1      49.418  38.030  28.995  1.00  0.00     0.016 A 
ATOM    107  Br  UNL A   1      50.537  36.843  31.317  1.00  0.00    -0.051 Br
ENDBRANCH  94 101
BRANCH  99 108
ATOM    108  C   UNL A   1      42.758  39.806  28.766  1.00  0.00     0.002 A 
ATOM    109  C   UNL A   1      42.779  38.521  28.208  1.00  0.00     0.010 A 
ATOM    110  C   UNL A   1      41.968  40.799  28.166  1.00  0.00     0.010 A 
ATOM    111  C   UNL A   1      42.106  38.271  27.005  1.00  0.00     0.001 A 
ATOM    112  C   UNL A   1      41.304  40.547  26.965  1.00  0.00     0.001 A 
ATOM    113  C   UNL A   1      41.399  39.293  26.369  1.00  0.00     0.000 A 
ENDBRANCH  99 108
ENDBRANCH  91  92
ENDBRANCH  84  86
ENDBRANCH  83  84
ENDBRANCH  82  83
ENDBRANCH  81  82
ENDBRANCH  80  81
ENDBRANCH  79  80
ENDBRANCH  78  79
ENDBRANCH  77  78
ENDBRANCH   1  77
TORSDOF 26
ENDMDL
MODEL 3
REMARK VINA RESULT:      -9.2      5.867     12.900
REMARK SMILES O=C(OCCOCCOCCOCCOC(=O)c1ccc(N2C(=O)[C@@H]3N=NC(c4ccccc4)=C3[C@H]2c2cccc(Br)c2)cc1)c1ccc(-c2c3nc(c(-c4c(F)cc(S(=O)(=O)[O-])cc4F)c4ccc([nH]4)c(-c4c(F)cc(S(=O)(=O)[O-])cc4F)c4nc(c(-c5c(F)cc(S(=O)(=O)[O-])cc5F)c5ccc2[nH]5)C=C4)C=C3)cc1
REMARK SMILES IDX 8 1 7 2 6 3 5 4 4 5 3 6 2 7 1 8 46 9 47 10 111 11 48 12
REMARK SMILES IDX 110 13 49 14 50 15 51 16 104 17 52 18 109 19 103 20 105 21
REMARK SMILES IDX 53 22 108 23 102 24 101 25 54 27 88 28 67 29 87 30 68 31
REMARK SMILES IDX 71 32 86 33 106 34 69 35 70 36 85 38 107 39 72 40 55 41
REMARK SMILES IDX 56 42 65 43 57 44 58 45 64 46 66 47 59 48 60 49 61 50 62 51
REMARK SMILES IDX 63 52 89 53 90 54 99 55 91 56 92 57 98 58 100 59 93 60 94 61
REMARK SMILES IDX 95 62 96 63 97 64 73 65 74 66 83 67 75 68 76 69 82 70 84 71
REMARK SMILES IDX 77 72 78 73 79 74 80 75 81 76 9 77 10 78 11 79 12 80 13 81
REMARK SMILES IDX 14 82 15 83 16 84 17 85 18 86 19 87 45 88 20 89 44 90 21 91
REMARK SMILES IDX 22 92 23 93 36 94 25 95 24 96 35 97 26 98 28 99 27 100
REMARK SMILES IDX 37 101 38 102 43 103 39 104 41 105 40 106 42 107 29 108
REMARK SMILES IDX 30 109 34 110 31 111 33 112 32 113
REMARK H PARENT 105 26 71 37
REMARK Flexibility Score: inf
ROOT
ATOM      1  C   UNL A   1      35.508  32.903  32.904  1.00  0.00     0.188 C 
ENDROOT
BRANCH   1   2
ATOM      2  C   UNL A   1      35.494  34.160  32.006  1.00  0.00     0.188 C 
BRANCH   2   3
ATOM      3  O   UNL A   1      34.714  34.343  30.837  1.00  0.00    -0.376 OA
BRANCH   3   4
ATOM      4  C   UNL A   1      34.411  33.465  29.773  1.00  0.00     0.202 C 
BRANCH   4   5
ATOM      5  C   UNL A   1      34.563  33.764  28.283  1.00  0.00     0.261 C 
BRANCH   5   6
ATOM      6  O   UNL A   1      35.428  32.896  27.576  1.00  0.00    -0.460 OA
BRANCH   6   7
ATOM      7  C   UNL A   1      35.641  31.586  27.801  1.00  0.00     0.338 C 
ATOM      8  O   UNL A   1      34.779  30.795  27.417  1.00  0.00    -0.246 OA
BRANCH   7   9
ATOM      9  C   UNL A   1      36.801  31.037  28.557  1.00  0.00     0.060 A 
ATOM     10  C   UNL A   1      37.738  31.753  29.307  1.00  0.00     0.016 A 
ATOM     11  C   UNL A   1      36.951  29.641  28.440  1.00  0.00     0.016 A 
ATOM     12  C   UNL A   1      38.925  31.156  29.678  1.00  0.00     0.010 A 
ATOM     13  C   UNL A   1      38.112  29.027  28.848  1.00  0.00     0.010 A 
ATOM     14  C   UNL A   1      39.130  29.823  29.349  1.00  0.00    -0.014 A 
BRANCH  14  15
ATOM     15  C   UNL A   1      40.456  29.284  29.533  1.00  0.00     0.031 A 
ATOM     16  C   UNL A   1      40.837  29.118  30.953  1.00  0.00     0.074 A 
ATOM     17  C   UNL A   1      41.194  28.946  28.459  1.00  0.00     0.049 A 
ATOM     18  N   UNL A   1      41.716  29.790  31.618  1.00  0.00    -0.248 NA
ATOM     19  C   UNL A   1      39.999  28.239  31.786  1.00  0.00     0.031 C 
ATOM     20  C   UNL A   1      40.776  28.894  27.053  1.00  0.00     0.029 A 
ATOM     21  N   UNL A   1      42.463  28.467  28.412  1.00  0.00    -0.354 N 
ATOM     22  C   UNL A   1      41.724  29.228  32.889  1.00  0.00     0.074 A 
ATOM     23  C   UNL A   1      40.518  28.452  32.997  1.00  0.00     0.031 C 
ATOM     24  C   UNL A   1      41.678  28.180  26.344  1.00  0.00     0.029 A 
ATOM     25  C   UNL A   1      42.795  27.850  27.208  1.00  0.00     0.049 A 
ATOM     26  H   UNL A   1      43.095  28.549  29.164  1.00  0.00     0.167 HD
ATOM     27  C   UNL A   1      42.858  29.218  33.644  1.00  0.00     0.037 A 
ATOM     28  C   UNL A   1      43.870  27.044  27.009  1.00  0.00     0.037 A 
ATOM     29  C   UNL A   1      43.816  30.175  33.152  1.00  0.00     0.049 A 
ATOM     30  C   UNL A   1      44.846  27.367  28.092  1.00  0.00     0.074 A 
ATOM     31  C   UNL A   1      43.819  31.546  32.992  1.00  0.00     0.029 A 
ATOM     32  N   UNL A   1      44.842  29.699  32.370  1.00  0.00    -0.354 N 
ATOM     33  N   UNL A   1      45.447  28.525  28.193  1.00  0.00    -0.248 NA
ATOM     34  C   UNL A   1      44.753  26.607  29.331  1.00  0.00     0.031 C 
ATOM     35  C   UNL A   1      44.519  31.774  31.771  1.00  0.00     0.029 A 
ATOM     36  C   UNL A   1      44.973  30.543  31.296  1.00  0.00     0.049 A 
ATOM     37  H   UNL A   1      45.385  28.897  32.548  1.00  0.00     0.167 HD
ATOM     38  C   UNL A   1      45.425  28.825  29.549  1.00  0.00     0.074 A 
ATOM     39  C   UNL A   1      45.036  27.577  30.206  1.00  0.00     0.031 C 
ATOM     40  C   UNL A   1      45.429  30.118  29.990  1.00  0.00     0.037 A 
BRANCH  27  41
ATOM     41  C   UNL A   1      43.250  28.081  34.555  1.00  0.00     0.058 A 
ATOM     42  C   UNL A   1      43.615  28.363  35.887  1.00  0.00     0.135 A 
ATOM     43  C   UNL A   1      43.559  26.779  34.101  1.00  0.00     0.135 A 
ATOM     44  F   UNL A   1      43.378  29.574  36.418  1.00  0.00    -0.206 F 
ATOM     45  C   UNL A   1      44.299  27.445  36.682  1.00  0.00     0.059 A 
ATOM     46  C   UNL A   1      44.189  25.830  34.895  1.00  0.00     0.059 A 
ATOM     47  F   UNL A   1      43.357  26.391  32.837  1.00  0.00    -0.206 F 
ATOM     48  C   UNL A   1      44.592  26.184  36.170  1.00  0.00     0.060 A 
BRANCH  48  49
ATOM     49  S   UNL A   1      45.552  25.028  37.160  1.00  0.00     0.124 S 
ATOM     50  O   UNL A   1      46.880  25.176  36.575  1.00  0.00    -0.237 OA
ATOM     51  O   UNL A   1      45.379  25.568  38.505  1.00  0.00    -0.237 OA
ATOM     52  O   UNL A   1      44.893  23.748  36.915  1.00  0.00    -0.744 OA
ENDBRANCH  48  49
ENDBRANCH  27  41
BRANCH  28  53
ATOM     53  C   UNL A   1      43.900  25.768  26.242  1.00  0.00     0.058 A 
ATOM     54  C   UNL A   1      44.929  25.490  25.325  1.00  0.00     0.135 A 
ATOM     55  C   UNL A   1      43.075  24.677  26.591  1.00  0.00     0.135 A 
ATOM     56  F   UNL A   1      45.779  26.459  24.951  1.00  0.00    -0.206 F 
ATOM     57  C   UNL A   1      45.156  24.201  24.820  1.00  0.00     0.059 A 
ATOM     58  C   UNL A   1      43.274  23.389  26.096  1.00  0.00     0.059 A 
ATOM     59  F   UNL A   1      42.101  24.807  27.502  1.00  0.00    -0.206 F 
ATOM     60  C   UNL A   1      44.333  23.152  25.230  1.00  0.00     0.060 A 
BRANCH  60  61
ATOM     61  S   UNL A   1      44.723  21.457  24.728  1.00  0.00     0.124 S 
ATOM     62  O   UNL A   1      46.045  21.264  25.317  1.00  0.00    -0.237 OA
ATOM     63  O   UNL A   1      43.637  20.697  25.335  1.00  0.00    -0.237 OA
ATOM     64  O   UNL A   1      44.695  21.521  23.268  1.00  0.00    -0.744 OA
ENDBRANCH  60  61
ENDBRANCH  28  53
BRANCH  40  65
ATOM     65  C   UNL A   1      45.733  31.213  29.000  1.00  0.00     0.058 A 
ATOM     66  C   UNL A   1      44.773  31.849  28.191  1.00  0.00     0.135 A 
ATOM     67  C   UNL A   1      47.027  31.754  29.002  1.00  0.00     0.135 A 
ATOM     68  F   UNL A   1      43.489  31.462  28.213  1.00  0.00    -0.206 F 
ATOM     69  C   UNL A   1      45.097  32.949  27.391  1.00  0.00     0.059 A 
ATOM     70  C   UNL A   1      47.365  32.868  28.238  1.00  0.00     0.059 A 
ATOM     71  F   UNL A   1      47.971  31.234  29.803  1.00  0.00    -0.206 F 
ATOM     72  C   UNL A   1      46.397  33.453  27.424  1.00  0.00     0.060 A 
BRANCH  72  73
ATOM     73  S   UNL A   1      46.806  34.916  26.446  1.00  0.00     0.124 S 
ATOM     74  O   UNL A   1      47.019  34.348  25.119  1.00  0.00    -0.237 OA
ATOM     75  O   UNL A   1      45.611  35.741  26.598  1.00  0.00    -0.237 OA
ATOM     76  O   UNL A   1      48.002  35.441  27.099  1.00  0.00    -0.744 OA
ENDBRANCH  72  73
ENDBRANCH  40  65
ENDBRANCH  14  15
ENDBRANCH   7   9
ENDBRANCH   6   7
ENDBRANCH   5   6
ENDBRANCH   4   5
ENDBRANCH   3   4
ENDBRANCH   2   3
ENDBRANCH   1   2
BRANCH   1  77
ATOM     77  O   UNL A   1      36.625  32.034  32.842  1.00  0.00    -0.377 OA
BRANCH  77  78
ATOM     78  C   UNL A   1      37.603  32.287  33.825  1.00  0.00     0.188 C 
BRANCH  78  79
ATOM     79  C   UNL A   1      38.885  32.911  33.245  1.00  0.00     0.188 C 
BRANCH  79  80
ATOM     80  O   UNL A   1      40.158  32.363  33.536  1.00  0.00    -0.376 OA
BRANCH  80  81
ATOM     81  C   UNL A   1      40.917  32.841  34.634  1.00  0.00     0.202 C 
BRANCH  81  82
ATOM     82  C   UNL A   1      41.338  31.948  35.823  1.00  0.00     0.261 C 
BRANCH  82  83
ATOM     83  O   UNL A   1      42.203  32.503  36.829  1.00  0.00    -0.460 OA
BRANCH  83  84
ATOM     84  C   UNL A   1      41.936  33.769  37.208  1.00  0.00     0.338 C 
ATOM     85  O   UNL A   1      42.353  34.800  36.684  1.00  0.00    -0.246 OA
BRANCH  84  86
ATOM     86  C   UNL A   1      40.931  33.792  38.292  1.00  0.00     0.060 A 
ATOM     87  C   UNL A   1      39.850  34.673  38.180  1.00  0.00     0.018 A 
ATOM     88  C   UNL A   1      41.096  33.042  39.460  1.00  0.00     0.018 A 
ATOM     89  C   UNL A   1      38.945  34.809  39.229  1.00  0.00     0.027 A 
ATOM     90  C   UNL A   1      40.217  33.232  40.545  1.00  0.00     0.027 A 
ATOM     91  C   UNL A   1      39.151  34.130  40.437  1.00  0.00     0.045 A 
BRANCH  91  92
ATOM     92  N   UNL A   1      38.287  34.407  41.539  1.00  0.00    -0.299 N 
ATOM     93  C   UNL A   1      38.592  35.576  42.311  1.00  0.00     0.259 C 
ATOM     94  C   UNL A   1      37.884  33.287  42.429  1.00  0.00     0.152 C 
ATOM     95  C   UNL A   1      38.324  35.253  43.754  1.00  0.00     0.248 C 
ATOM     96  O   UNL A   1      39.040  36.633  41.889  1.00  0.00    -0.271 OA
ATOM     97  C   UNL A   1      38.532  33.787  43.664  1.00  0.00     0.021 C 
ATOM     98  N   UNL A   1      39.356  35.659  44.712  1.00  0.00    -0.170 NA
ATOM     99  C   UNL A   1      39.430  33.478  44.598  1.00  0.00     0.097 C 
ATOM    100  N   UNL A   1      39.846  34.626  45.252  1.00  0.00    -0.154 NA
BRANCH  94 101
ATOM    101  C   UNL A   1      36.357  33.165  42.628  1.00  0.00    -0.020 A 
ATOM    102  C   UNL A   1      35.814  32.598  43.809  1.00  0.00     0.006 A 
ATOM    103  C   UNL A   1      35.446  33.579  41.644  1.00  0.00     0.022 A 
ATOM    104  C   UNL A   1      34.440  32.518  44.038  1.00  0.00     0.002 A 
ATOM    105  C   UNL A   1      34.063  33.459  41.864  1.00  0.00     0.018 A 
ATOM    106  C   UNL A   1      33.558  32.950  43.061  1.00  0.00     0.016 A 
ATOM    107  Br  UNL A   1      32.841  33.975  40.513  1.00  0.00    -0.051 Br
ENDBRANCH  94 101
BRANCH  99 108
ATOM    108  C   UNL A   1      40.173  32.251  44.889  1.00  0.00     0.002 A 
ATOM    109  C   UNL A   1      41.264  31.861  44.102  1.00  0.00     0.010 A 
ATOM    110  C   UNL A   1      39.571  31.308  45.737  1.00  0.00     0.010 A 
ATOM    111  C   UNL A   1      41.670  30.520  44.085  1.00  0.00     0.001 A 
ATOM    112  C   UNL A   1      39.975  29.973  45.714  1.00  0.00     0.001 A 
ATOM    113  C   UNL A   1      41.003  29.574  44.865  1.00  0.00     0.000 A 
ENDBRANCH  99 108
ENDBRANCH  91  92
ENDBRANCH  84  86
ENDBRANCH  83  84
ENDBRANCH  82  83
ENDBRANCH  81  82
ENDBRANCH  80  81
ENDBRANCH  79  80
ENDBRANCH  78  79
ENDBRANCH  77  78
ENDBRANCH   1  77
TORSDOF 26
ENDMDL
