MODEL 1
REMARK VINA RESULT:      -6.5      0.000      0.000
REMARK SMILES O=C(CN(CC(F)(F)F)S(=O)(=O)c1cccc(F)c1)OCCOCCOCCOCCOC(=O)c1ccc(-c2c3nc(c(-c4c(F)cc(S(=O)(=O)[O-])cc4F)c4ccc([nH]4)c(-c4c(F)cc(S(=O)(=O)[O-])cc4F)c4nc(c(-c5c(F)cc(S(=O)(=O)[O-])cc5F)c5ccc2[nH]5)C=C4)C=C3)cc1
REMARK SMILES IDX 26 1 25 2 24 3 23 4 22 5 21 6 20 7 2 8 1 9 3 10 4 11 5 12
REMARK SMILES IDX 6 13 7 14 8 15 9 16 10 17 11 18 12 19 13 20 14 21 19 22
REMARK SMILES IDX 15 23 17 24 16 25 18 26 27 27 28 28 29 29 30 30 31 31 32 32
REMARK SMILES IDX 33 33 34 34 35 35 36 36 100 37 37 38 99 39 38 40 39 41 40 42
REMARK SMILES IDX 93 43 41 44 98 45 92 46 94 47 42 48 97 49 91 50 90 51 43 53
REMARK SMILES IDX 77 54 56 55 76 56 57 57 60 58 75 59 95 60 58 61 59 62 74 64
REMARK SMILES IDX 96 65 61 66 44 67 45 68 54 69 46 70 47 71 53 72 55 73 48 74
REMARK SMILES IDX 49 75 50 76 51 77 52 78 78 79 79 80 88 81 80 82 81 83 87 84
REMARK SMILES IDX 89 85 82 86 83 87 84 88 85 89 86 90 62 91 63 92 72 93 64 94
REMARK SMILES IDX 65 95 71 96 73 97 66 98 67 99 68 100 69 101 70 102
REMARK H PARENT 94 52 60 63
REMARK Flexibility Score: inf
ROOT
ATOM      1  O   UNL A   1      39.637  30.196  31.939  1.00  0.00    -0.377 OA
ENDROOT
BRANCH   1   2
ATOM      2  C   UNL A   1      40.299  29.891  33.154  1.00  0.00     0.188 C 
BRANCH   2   3
ATOM      3  C   UNL A   1      41.331  30.878  33.716  1.00  0.00     0.188 C 
BRANCH   3   4
ATOM      4  O   UNL A   1      41.406  31.348  35.064  1.00  0.00    -0.376 OA
BRANCH   4   5
ATOM      5  C   UNL A   1      42.195  30.840  36.120  1.00  0.00     0.202 C 
BRANCH   5   6
ATOM      6  C   UNL A   1      42.954  29.524  35.992  1.00  0.00     0.261 C 
BRANCH   6   7
ATOM      7  O   UNL A   1      42.440  28.434  36.754  1.00  0.00    -0.462 OA
BRANCH   7   8
ATOM      8  C   UNL A   1      42.001  27.267  36.228  1.00  0.00     0.321 C 
ATOM      9  O   UNL A   1      41.079  27.295  35.414  1.00  0.00    -0.251 OA
BRANCH   8  10
ATOM     10  C   UNL A   1      42.493  25.950  36.797  1.00  0.00     0.225 C 
BRANCH  10  11
ATOM     11  N   UNL A   1      43.797  25.411  36.315  1.00  0.00    -0.178 NA
BRANCH  11  12
ATOM     12  C   UNL A   1      44.826  25.387  37.437  1.00  0.00     0.218 C 
BRANCH  12  13
ATOM     13  C   UNL A   1      45.531  26.695  37.826  1.00  0.00     0.402 C 
ATOM     14  F   UNL A   1      45.719  27.516  36.780  1.00  0.00    -0.170 F 
ATOM     15  F   UNL A   1      44.759  27.373  38.713  1.00  0.00    -0.170 F 
ATOM     16  F   UNL A   1      46.718  26.472  38.428  1.00  0.00    -0.170 F 
ENDBRANCH  12  13
ENDBRANCH  11  12
BRANCH  11  17
ATOM     17  S   UNL A   1      43.519  24.003  35.397  1.00  0.00     0.244 S 
ATOM     18  O   UNL A   1      44.461  23.001  35.824  1.00  0.00    -0.207 OA
ATOM     19  O   UNL A   1      42.093  23.757  35.473  1.00  0.00    -0.207 OA
BRANCH  17  20
ATOM     20  C   UNL A   1      43.875  24.426  33.720  1.00  0.00     0.085 A 
ATOM     21  C   UNL A   1      43.943  23.405  32.762  1.00  0.00     0.022 A 
ATOM     22  C   UNL A   1      44.225  25.733  33.386  1.00  0.00     0.061 A 
ATOM     23  C   UNL A   1      44.355  23.698  31.462  1.00  0.00     0.004 A 
ATOM     24  C   UNL A   1      44.592  26.014  32.077  1.00  0.00     0.124 A 
ATOM     25  C   UNL A   1      44.672  25.010  31.117  1.00  0.00     0.039 A 
ATOM     26  F   UNL A   1      44.897  27.274  31.742  1.00  0.00    -0.207 F 
ENDBRANCH  17  20
ENDBRANCH  11  17
ENDBRANCH  10  11
ENDBRANCH   8  10
ENDBRANCH   7   8
ENDBRANCH   6   7
ENDBRANCH   5   6
ENDBRANCH   4   5
ENDBRANCH   3   4
ENDBRANCH   2   3
ENDBRANCH   1   2
BRANCH   1  27
ATOM     27  C   UNL A   1      38.711  31.262  32.019  1.00  0.00     0.188 C 
BRANCH  27  28
ATOM     28  C   UNL A   1      38.865  32.253  30.852  1.00  0.00     0.188 C 
BRANCH  28  29
ATOM     29  O   UNL A   1      37.675  32.970  30.574  1.00  0.00    -0.376 OA
BRANCH  29  30
ATOM     30  C   UNL A   1      36.410  32.340  30.726  1.00  0.00     0.202 C 
BRANCH  30  31
ATOM     31  C   UNL A   1      35.706  31.498  29.637  1.00  0.00     0.261 C 
BRANCH  31  32
ATOM     32  O   UNL A   1      36.456  31.093  28.492  1.00  0.00    -0.460 OA
BRANCH  32  33
ATOM     33  C   UNL A   1      36.399  29.798  28.131  1.00  0.00     0.338 C 
ATOM     34  O   UNL A   1      35.432  29.208  27.686  1.00  0.00    -0.246 OA
BRANCH  33  35
ATOM     35  C   UNL A   1      37.788  29.284  28.127  1.00  0.00     0.060 A 
ATOM     36  C   UNL A   1      38.202  28.514  29.224  1.00  0.00     0.016 A 
ATOM     37  C   UNL A   1      38.652  29.499  27.047  1.00  0.00     0.016 A 
ATOM     38  C   UNL A   1      39.499  28.018  29.276  1.00  0.00     0.010 A 
ATOM     39  C   UNL A   1      39.968  29.034  27.116  1.00  0.00     0.010 A 
ATOM     40  C   UNL A   1      40.406  28.344  28.261  1.00  0.00    -0.014 A 
BRANCH  40  41
ATOM     41  C   UNL A   1      41.850  28.244  28.572  1.00  0.00     0.031 A 
ATOM     42  C   UNL A   1      42.585  27.043  28.036  1.00  0.00     0.074 A 
ATOM     43  C   UNL A   1      42.510  29.229  29.205  1.00  0.00     0.049 A 
ATOM     44  N   UNL A   1      43.853  26.741  28.115  1.00  0.00    -0.248 NA
ATOM     45  C   UNL A   1      41.776  26.052  27.304  1.00  0.00     0.031 C 
ATOM     46  C   UNL A   1      41.910  30.463  29.706  1.00  0.00     0.029 A 
ATOM     47  N   UNL A   1      43.840  29.345  29.518  1.00  0.00    -0.354 N 
ATOM     48  C   UNL A   1      43.992  25.535  27.437  1.00  0.00     0.074 A 
ATOM     49  C   UNL A   1      42.677  25.136  26.994  1.00  0.00     0.031 C 
ATOM     50  C   UNL A   1      42.873  31.217  30.265  1.00  0.00     0.029 A 
ATOM     51  C   UNL A   1      44.151  30.507  30.181  1.00  0.00     0.049 A 
ATOM     52  H   UNL A   1      44.510  28.661  29.288  1.00  0.00     0.167 HD
ATOM     53  C   UNL A   1      45.120  24.832  27.186  1.00  0.00     0.037 A 
ATOM     54  C   UNL A   1      45.331  30.939  30.670  1.00  0.00     0.037 A 
ATOM     55  C   UNL A   1      46.423  25.232  27.640  1.00  0.00     0.049 A 
ATOM     56  C   UNL A   1      46.563  30.098  30.460  1.00  0.00     0.074 A 
ATOM     57  C   UNL A   1      47.632  24.584  27.464  1.00  0.00     0.029 A 
ATOM     58  N   UNL A   1      46.687  26.385  28.367  1.00  0.00    -0.354 N 
ATOM     59  N   UNL A   1      46.683  28.954  29.825  1.00  0.00    -0.248 NA
ATOM     60  C   UNL A   1      47.822  30.606  31.022  1.00  0.00     0.031 C 
ATOM     61  C   UNL A   1      48.618  25.318  28.129  1.00  0.00     0.029 A 
ATOM     62  C   UNL A   1      48.037  26.458  28.663  1.00  0.00     0.049 A 
ATOM     63  H   UNL A   1      46.014  27.052  28.632  1.00  0.00     0.167 HD
ATOM     64  C   UNL A   1      48.033  28.620  29.889  1.00  0.00     0.074 A 
ATOM     65  C   UNL A   1      48.689  29.689  30.616  1.00  0.00     0.031 C 
ATOM     66  C   UNL A   1      48.672  27.532  29.387  1.00  0.00     0.037 A 
BRANCH  53  67
ATOM     67  C   UNL A   1      44.982  23.551  26.410  1.00  0.00     0.058 A 
ATOM     68  C   UNL A   1      44.432  22.410  27.014  1.00  0.00     0.135 A 
ATOM     69  C   UNL A   1      45.407  23.445  25.076  1.00  0.00     0.135 A 
ATOM     70  F   UNL A   1      43.995  22.458  28.281  1.00  0.00    -0.206 F 
ATOM     71  C   UNL A   1      44.319  21.206  26.327  1.00  0.00     0.059 A 
ATOM     72  C   UNL A   1      45.276  22.259  24.359  1.00  0.00     0.059 A 
ATOM     73  F   UNL A   1      45.910  24.515  24.440  1.00  0.00    -0.206 F 
ATOM     74  C   UNL A   1      44.743  21.141  24.999  1.00  0.00     0.060 A 
BRANCH  74  75
ATOM     75  S   UNL A   1      44.548  19.582  24.110  1.00  0.00     0.124 S 
ATOM     76  O   UNL A   1      43.275  19.097  24.631  1.00  0.00    -0.237 OA
ATOM     77  O   UNL A   1      44.540  20.023  22.718  1.00  0.00    -0.237 OA
ATOM     78  O   UNL A   1      45.726  18.815  24.508  1.00  0.00    -0.744 OA
ENDBRANCH  74  75
ENDBRANCH  53  67
BRANCH  54  79
ATOM     79  C   UNL A   1      45.395  32.239  31.390  1.00  0.00     0.058 A 
ATOM     80  C   UNL A   1      45.113  32.321  32.763  1.00  0.00     0.135 A 
ATOM     81  C   UNL A   1      45.691  33.432  30.713  1.00  0.00     0.135 A 
ATOM     82  F   UNL A   1      44.822  31.211  33.458  1.00  0.00    -0.206 F 
ATOM     83  C   UNL A   1      45.083  33.541  33.430  1.00  0.00     0.059 A 
ATOM     84  C   UNL A   1      45.693  34.662  31.365  1.00  0.00     0.059 A 
ATOM     85  F   UNL A   1      45.984  33.403  29.404  1.00  0.00    -0.206 F 
ATOM     86  C   UNL A   1      45.364  34.709  32.719  1.00  0.00     0.060 A 
BRANCH  86  87
ATOM     87  S   UNL A   1      45.268  36.286  33.592  1.00  0.00     0.124 S 
ATOM     88  O   UNL A   1      46.316  36.127  34.596  1.00  0.00    -0.237 OA
ATOM     89  O   UNL A   1      45.547  37.242  32.526  1.00  0.00    -0.237 OA
ATOM     90  O   UNL A   1      43.903  36.304  34.109  1.00  0.00    -0.744 OA
ENDBRANCH  86  87
ENDBRANCH  54  79
BRANCH  66  91
ATOM     91  C   UNL A   1      50.164  27.447  29.573  1.00  0.00     0.058 A 
ATOM     92  C   UNL A   1      51.028  28.010  28.620  1.00  0.00     0.135 A 
ATOM     93  C   UNL A   1      50.738  26.744  30.644  1.00  0.00     0.135 A 
ATOM     94  F   UNL A   1      50.533  28.683  27.569  1.00  0.00    -0.206 F 
ATOM     95  C   UNL A   1      52.408  27.870  28.715  1.00  0.00     0.059 A 
ATOM     96  C   UNL A   1      52.118  26.619  30.776  1.00  0.00     0.059 A 
ATOM     97  F   UNL A   1      49.957  26.192  31.585  1.00  0.00    -0.206 F 
ATOM     98  C   UNL A   1      52.944  27.173  29.798  1.00  0.00     0.060 A 
BRANCH  98  99
ATOM     99  S   UNL A   1      54.739  27.029  29.920  1.00  0.00     0.124 S 
ATOM    100  O   UNL A   1      55.187  28.069  29.001  1.00  0.00    -0.237 OA
ATOM    101  O   UNL A   1      54.974  27.288  31.338  1.00  0.00    -0.237 OA
ATOM    102  O   UNL A   1      54.998  25.657  29.490  1.00  0.00    -0.744 OA
ENDBRANCH  98  99
ENDBRANCH  66  91
ENDBRANCH  40  41
ENDBRANCH  33  35
ENDBRANCH  32  33
ENDBRANCH  31  32
ENDBRANCH  30  31
ENDBRANCH  29  30
ENDBRANCH  28  29
ENDBRANCH  27  28
ENDBRANCH   1  27
TORSDOF 28
ENDMDL
MODEL 2
REMARK VINA RESULT:      -6.4      4.641     11.075
REMARK SMILES O=C(CN(CC(F)(F)F)S(=O)(=O)c1cccc(F)c1)OCCOCCOCCOCCOC(=O)c1ccc(-c2c3nc(c(-c4c(F)cc(S(=O)(=O)[O-])cc4F)c4ccc([nH]4)c(-c4c(F)cc(S(=O)(=O)[O-])cc4F)c4nc(c(-c5c(F)cc(S(=O)(=O)[O-])cc5F)c5ccc2[nH]5)C=C4)C=C3)cc1
REMARK SMILES IDX 26 1 25 2 24 3 23 4 22 5 21 6 20 7 2 8 1 9 3 10 4 11 5 12
REMARK SMILES IDX 6 13 7 14 8 15 9 16 10 17 11 18 12 19 13 20 14 21 19 22
REMARK SMILES IDX 15 23 17 24 16 25 18 26 27 27 28 28 29 29 30 30 31 31 32 32
REMARK SMILES IDX 33 33 34 34 35 35 36 36 100 37 37 38 99 39 38 40 39 41 40 42
REMARK SMILES IDX 93 43 41 44 98 45 92 46 94 47 42 48 97 49 91 50 90 51 43 53
REMARK SMILES IDX 77 54 56 55 76 56 57 57 60 58 75 59 95 60 58 61 59 62 74 64
REMARK SMILES IDX 96 65 61 66 44 67 45 68 54 69 46 70 47 71 53 72 55 73 48 74
REMARK SMILES IDX 49 75 50 76 51 77 52 78 78 79 79 80 88 81 80 82 81 83 87 84
REMARK SMILES IDX 89 85 82 86 83 87 84 88 85 89 86 90 62 91 63 92 72 93 64 94
REMARK SMILES IDX 65 95 71 96 73 97 66 98 67 99 68 100 69 101 70 102
REMARK H PARENT 94 52 60 63
REMARK Flexibility Score: inf
ROOT
ATOM      1  O   UNL A   1      47.867  26.063  27.526  1.00  0.00    -0.377 OA
ENDROOT
BRANCH   1   2
ATOM      2  C   UNL A   1      49.206  26.074  27.988  1.00  0.00     0.188 C 
BRANCH   2   3
ATOM      3  C   UNL A   1      49.570  25.293  29.258  1.00  0.00     0.188 C 
BRANCH   3   4
ATOM      4  O   UNL A   1      50.550  25.666  30.229  1.00  0.00    -0.376 OA
BRANCH   4   5
ATOM      5  C   UNL A   1      50.575  25.352  31.606  1.00  0.00     0.202 C 
BRANCH   5   6
ATOM      6  C   UNL A   1      49.294  25.250  32.428  1.00  0.00     0.261 C 
BRANCH   6   7
ATOM      7  O   UNL A   1      49.229  24.161  33.345  1.00  0.00    -0.462 OA
BRANCH   7   8
ATOM      8  C   UNL A   1      48.253  23.989  34.266  1.00  0.00     0.321 C 
ATOM      9  O   UNL A   1      47.737  24.984  34.775  1.00  0.00    -0.251 OA
BRANCH   8  10
ATOM     10  C   UNL A   1      47.963  22.604  34.811  1.00  0.00     0.225 C 
BRANCH  10  11
ATOM     11  N   UNL A   1      46.698  22.391  35.571  1.00  0.00    -0.178 NA
BRANCH  11  12
ATOM     12  C   UNL A   1      45.483  22.675  34.700  1.00  0.00     0.218 C 
BRANCH  12  13
ATOM     13  C   UNL A   1      44.428  23.674  35.199  1.00  0.00     0.402 C 
ATOM     14  F   UNL A   1      44.655  24.928  34.772  1.00  0.00    -0.170 F 
ATOM     15  F   UNL A   1      43.210  23.318  34.716  1.00  0.00    -0.170 F 
ATOM     16  F   UNL A   1      44.331  23.680  36.545  1.00  0.00    -0.170 F 
ENDBRANCH  12  13
ENDBRANCH  11  12
BRANCH  11  17
ATOM     17  S   UNL A   1      46.796  20.920  36.425  1.00  0.00     0.244 S 
ATOM     18  O   UNL A   1      45.667  20.848  37.317  1.00  0.00    -0.207 OA
ATOM     19  O   UNL A   1      47.014  19.895  35.424  1.00  0.00    -0.207 OA
BRANCH  17  20
ATOM     20  C   UNL A   1      48.269  21.007  37.395  1.00  0.00     0.085 A 
ATOM     21  C   UNL A   1      48.532  22.174  38.126  1.00  0.00     0.022 A 
ATOM     22  C   UNL A   1      49.220  19.992  37.319  1.00  0.00     0.061 A 
ATOM     23  C   UNL A   1      49.752  22.319  38.788  1.00  0.00     0.004 A 
ATOM     24  C   UNL A   1      50.410  20.134  38.019  1.00  0.00     0.124 A 
ATOM     25  C   UNL A   1      50.689  21.290  38.742  1.00  0.00     0.039 A 
ATOM     26  F   UNL A   1      51.313  19.146  37.977  1.00  0.00    -0.207 F 
ENDBRANCH  17  20
ENDBRANCH  11  17
ENDBRANCH  10  11
ENDBRANCH   8  10
ENDBRANCH   7   8
ENDBRANCH   6   7
ENDBRANCH   5   6
ENDBRANCH   4   5
ENDBRANCH   3   4
ENDBRANCH   2   3
ENDBRANCH   1   2
BRANCH   1  27
ATOM     27  C   UNL A   1      47.564  25.028  26.611  1.00  0.00     0.188 C 
BRANCH  27  28
ATOM     28  C   UNL A   1      47.011  25.574  25.282  1.00  0.00     0.188 C 
BRANCH  28  29
ATOM     29  O   UNL A   1      45.615  25.811  25.319  1.00  0.00    -0.376 OA
BRANCH  29  30
ATOM     30  C   UNL A   1      44.703  24.734  25.148  1.00  0.00     0.202 C 
BRANCH  30  31
ATOM     31  C   UNL A   1      43.829  24.129  26.271  1.00  0.00     0.261 C 
BRANCH  31  32
ATOM     32  O   UNL A   1      42.428  24.404  26.273  1.00  0.00    -0.460 OA
BRANCH  32  33
ATOM     33  C   UNL A   1      42.038  25.672  26.056  1.00  0.00     0.338 C 
ATOM     34  O   UNL A   1      41.573  26.126  25.026  1.00  0.00    -0.246 OA
BRANCH  33  35
ATOM     35  C   UNL A   1      42.030  26.358  27.369  1.00  0.00     0.060 A 
ATOM     36  C   UNL A   1      41.120  25.906  28.335  1.00  0.00     0.016 A 
ATOM     37  C   UNL A   1      42.933  27.385  27.671  1.00  0.00     0.016 A 
ATOM     38  C   UNL A   1      41.063  26.524  29.579  1.00  0.00     0.010 A 
ATOM     39  C   UNL A   1      42.849  28.031  28.907  1.00  0.00     0.010 A 
ATOM     40  C   UNL A   1      41.872  27.636  29.838  1.00  0.00    -0.014 A 
BRANCH  40  41
ATOM     41  C   UNL A   1      41.452  28.553  30.923  1.00  0.00     0.031 A 
ATOM     42  C   UNL A   1      42.286  28.556  32.177  1.00  0.00     0.074 A 
ATOM     43  C   UNL A   1      40.445  29.428  30.764  1.00  0.00     0.049 A 
ATOM     44  N   UNL A   1      42.174  29.295  33.249  1.00  0.00    -0.248 NA
ATOM     45  C   UNL A   1      43.406  27.598  32.223  1.00  0.00     0.031 C 
ATOM     46  C   UNL A   1      39.616  29.555  29.567  1.00  0.00     0.029 A 
ATOM     47  N   UNL A   1      39.961  30.387  31.616  1.00  0.00    -0.354 N 
ATOM     48  C   UNL A   1      43.209  28.897  34.086  1.00  0.00     0.074 A 
ATOM     49  C   UNL A   1      43.911  27.822  33.424  1.00  0.00     0.031 C 
ATOM     50  C   UNL A   1      38.723  30.542  29.762  1.00  0.00     0.029 A 
ATOM     51  C   UNL A   1      38.903  31.097  31.104  1.00  0.00     0.049 A 
ATOM     52  H   UNL A   1      40.337  30.551  32.511  1.00  0.00     0.167 HD
ATOM     53  C   UNL A   1      43.559  29.397  35.293  1.00  0.00     0.037 A 
ATOM     54  C   UNL A   1      38.163  32.077  31.663  1.00  0.00     0.037 A 
ATOM     55  C   UNL A   1      42.849  30.460  35.949  1.00  0.00     0.049 A 
ATOM     56  C   UNL A   1      38.512  32.560  33.047  1.00  0.00     0.074 A 
ATOM     57  C   UNL A   1      43.101  31.030  37.183  1.00  0.00     0.029 A 
ATOM     58  N   UNL A   1      41.740  31.111  35.424  1.00  0.00    -0.354 N 
ATOM     59  N   UNL A   1      39.488  32.172  33.835  1.00  0.00    -0.248 NA
ATOM     60  C   UNL A   1      37.668  33.620  33.615  1.00  0.00     0.031 C 
ATOM     61  C   UNL A   1      42.115  31.988  37.428  1.00  0.00     0.029 A 
ATOM     62  C   UNL A   1      41.286  32.064  36.319  1.00  0.00     0.049 A 
ATOM     63  H   UNL A   1      41.338  30.922  34.547  1.00  0.00     0.167 HD
ATOM     64  C   UNL A   1      39.392  32.957  34.980  1.00  0.00     0.074 A 
ATOM     65  C   UNL A   1      38.268  33.849  34.776  1.00  0.00     0.031 C 
ATOM     66  C   UNL A   1      40.165  32.945  36.096  1.00  0.00     0.037 A 
BRANCH  53  67
ATOM     67  C   UNL A   1      44.744  28.780  35.984  1.00  0.00     0.058 A 
ATOM     68  C   UNL A   1      46.029  29.316  35.807  1.00  0.00     0.135 A 
ATOM     69  C   UNL A   1      44.614  27.649  36.807  1.00  0.00     0.135 A 
ATOM     70  F   UNL A   1      46.209  30.405  35.044  1.00  0.00    -0.206 F 
ATOM     71  C   UNL A   1      47.144  28.747  36.412  1.00  0.00     0.059 A 
ATOM     72  C   UNL A   1      45.713  27.081  37.446  1.00  0.00     0.059 A 
ATOM     73  F   UNL A   1      43.404  27.115  37.036  1.00  0.00    -0.206 F 
ATOM     74  C   UNL A   1      46.976  27.630  37.231  1.00  0.00     0.060 A 
BRANCH  74  75
ATOM     75  S   UNL A   1      48.430  26.932  38.043  1.00  0.00     0.124 S 
ATOM     76  O   UNL A   1      49.394  26.897  36.951  1.00  0.00    -0.237 OA
ATOM     77  O   UNL A   1      48.692  27.912  39.094  1.00  0.00    -0.237 OA
ATOM     78  O   UNL A   1      47.962  25.631  38.514  1.00  0.00    -0.744 OA
ENDBRANCH  74  75
ENDBRANCH  53  67
BRANCH  54  79
ATOM     79  C   UNL A   1      37.033  32.668  30.898  1.00  0.00     0.058 A 
ATOM     80  C   UNL A   1      37.239  33.734  30.009  1.00  0.00     0.135 A 
ATOM     81  C   UNL A   1      35.717  32.212  31.075  1.00  0.00     0.135 A 
ATOM     82  F   UNL A   1      38.477  34.210  29.804  1.00  0.00    -0.206 F 
ATOM     83  C   UNL A   1      36.180  34.354  29.354  1.00  0.00     0.059 A 
ATOM     84  C   UNL A   1      34.644  32.798  30.410  1.00  0.00     0.059 A 
ATOM     85  F   UNL A   1      35.471  31.184  31.900  1.00  0.00    -0.206 F 
ATOM     86  C   UNL A   1      34.883  33.885  29.568  1.00  0.00     0.060 A 
BRANCH  86  87
ATOM     87  S   UNL A   1      33.519  34.737  28.750  1.00  0.00     0.124 S 
ATOM     88  O   UNL A   1      33.075  33.724  27.796  1.00  0.00    -0.237 OA
ATOM     89  O   UNL A   1      32.614  35.003  29.863  1.00  0.00    -0.237 OA
ATOM     90  O   UNL A   1      34.155  35.912  28.165  1.00  0.00    -0.744 OA
ENDBRANCH  86  87
ENDBRANCH  54  79
BRANCH  66  91
ATOM     91  C   UNL A   1      39.852  33.945  37.177  1.00  0.00     0.058 A 
ATOM     92  C   UNL A   1      40.528  35.175  37.220  1.00  0.00     0.135 A 
ATOM     93  C   UNL A   1      38.948  33.658  38.212  1.00  0.00     0.135 A 
ATOM     94  F   UNL A   1      41.412  35.497  36.262  1.00  0.00    -0.206 F 
ATOM     95  C   UNL A   1      40.328  36.080  38.256  1.00  0.00     0.059 A 
ATOM     96  C   UNL A   1      38.708  34.564  39.242  1.00  0.00     0.059 A 
ATOM     97  F   UNL A   1      38.271  32.498  38.216  1.00  0.00    -0.206 F 
ATOM     98  C   UNL A   1      39.414  35.766  39.263  1.00  0.00     0.060 A 
BRANCH  98  99
ATOM     99  S   UNL A   1      39.146  36.969  40.582  1.00  0.00     0.124 S 
ATOM    100  O   UNL A   1      38.251  37.925  39.939  1.00  0.00    -0.237 OA
ATOM    101  O   UNL A   1      38.551  36.147  41.631  1.00  0.00    -0.237 OA
ATOM    102  O   UNL A   1      40.490  37.462  40.868  1.00  0.00    -0.744 OA
ENDBRANCH  98  99
ENDBRANCH  66  91
ENDBRANCH  40  41
ENDBRANCH  33  35
ENDBRANCH  32  33
ENDBRANCH  31  32
ENDBRANCH  30  31
ENDBRANCH  29  30
ENDBRANCH  28  29
ENDBRANCH  27  28
ENDBRANCH   1  27
TORSDOF 28
ENDMDL
MODEL 3
REMARK VINA RESULT:      -6.2      6.334     11.801
REMARK SMILES O=C(CN(CC(F)(F)F)S(=O)(=O)c1cccc(F)c1)OCCOCCOCCOCCOC(=O)c1ccc(-c2c3nc(c(-c4c(F)cc(S(=O)(=O)[O-])cc4F)c4ccc([nH]4)c(-c4c(F)cc(S(=O)(=O)[O-])cc4F)c4nc(c(-c5c(F)cc(S(=O)(=O)[O-])cc5F)c5ccc2[nH]5)C=C4)C=C3)cc1
REMARK SMILES IDX 26 1 25 2 24 3 23 4 22 5 21 6 20 7 2 8 1 9 3 10 4 11 5 12
REMARK SMILES IDX 6 13 7 14 8 15 9 16 10 17 11 18 12 19 13 20 14 21 19 22
REMARK SMILES IDX 15 23 17 24 16 25 18 26 27 27 28 28 29 29 30 30 31 31 32 32
REMARK SMILES IDX 33 33 34 34 35 35 36 36 100 37 37 38 99 39 38 40 39 41 40 42
REMARK SMILES IDX 93 43 41 44 98 45 92 46 94 47 42 48 97 49 91 50 90 51 43 53
REMARK SMILES IDX 77 54 56 55 76 56 57 57 60 58 75 59 95 60 58 61 59 62 74 64
REMARK SMILES IDX 96 65 61 66 44 67 45 68 54 69 46 70 47 71 53 72 55 73 48 74
REMARK SMILES IDX 49 75 50 76 51 77 52 78 78 79 79 80 88 81 80 82 81 83 87 84
REMARK SMILES IDX 89 85 82 86 83 87 84 88 85 89 86 90 62 91 63 92 72 93 64 94
REMARK SMILES IDX 65 95 71 96 73 97 66 98 67 99 68 100 69 101 70 102
REMARK H PARENT 94 52 60 63
REMARK Flexibility Score: inf
ROOT
ATOM      1  O   UNL A   1      49.879  22.288  38.912  1.00  0.00    -0.377 OA
ENDROOT
BRANCH   1   2
ATOM      2  C   UNL A   1      49.489  21.603  40.090  1.00  0.00     0.188 C 
BRANCH   2   3
ATOM      3  C   UNL A   1      48.613  20.348  39.973  1.00  0.00     0.188 C 
BRANCH   3   4
ATOM      4  O   UNL A   1      47.377  20.114  40.651  1.00  0.00    -0.376 OA
BRANCH   4   5
ATOM      5  C   UNL A   1      46.104  20.647  40.349  1.00  0.00     0.202 C 
BRANCH   5   6
ATOM      6  C   UNL A   1      44.963  20.620  41.361  1.00  0.00     0.261 C 
BRANCH   6   7
ATOM      7  O   UNL A   1      45.326  20.286  42.698  1.00  0.00    -0.462 OA
BRANCH   7   8
ATOM      8  C   UNL A   1      44.454  19.899  43.658  1.00  0.00     0.321 C 
ATOM      9  O   UNL A   1      44.170  20.693  44.554  1.00  0.00    -0.251 OA
BRANCH   8  10
ATOM     10  C   UNL A   1      44.014  18.450  43.739  1.00  0.00     0.225 C 
BRANCH  10  11
ATOM     11  N   UNL A   1      44.915  17.471  44.413  1.00  0.00    -0.178 NA
BRANCH  11  12
ATOM     12  C   UNL A   1      44.811  17.587  45.927  1.00  0.00     0.218 C 
BRANCH  12  13
ATOM     13  C   UNL A   1      45.974  18.219  46.706  1.00  0.00     0.402 C 
ATOM     14  F   UNL A   1      46.255  19.468  46.298  1.00  0.00    -0.170 F 
ATOM     15  F   UNL A   1      45.638  18.310  48.018  1.00  0.00    -0.170 F 
ATOM     16  F   UNL A   1      47.096  17.472  46.638  1.00  0.00    -0.170 F 
ENDBRANCH  12  13
ENDBRANCH  11  12
BRANCH  11  17
ATOM     17  S   UNL A   1      44.745  15.947  43.671  1.00  0.00     0.244 S 
ATOM     18  O   UNL A   1      45.854  15.126  44.084  1.00  0.00    -0.207 OA
ATOM     19  O   UNL A   1      43.381  15.531  43.930  1.00  0.00    -0.207 OA
BRANCH  17  20
ATOM     20  C   UNL A   1      44.873  16.225  41.933  1.00  0.00     0.085 A 
ATOM     21  C   UNL A   1      46.109  16.612  41.396  1.00  0.00     0.022 A 
ATOM     22  C   UNL A   1      43.732  16.201  41.133  1.00  0.00     0.061 A 
ATOM     23  C   UNL A   1      46.201  16.969  40.050  1.00  0.00     0.004 A 
ATOM     24  C   UNL A   1      43.851  16.517  39.787  1.00  0.00     0.124 A 
ATOM     25  C   UNL A   1      45.069  16.911  39.241  1.00  0.00     0.039 A 
ATOM     26  F   UNL A   1      42.764  16.463  39.006  1.00  0.00    -0.207 F 
ENDBRANCH  17  20
ENDBRANCH  11  17
ENDBRANCH  10  11
ENDBRANCH   8  10
ENDBRANCH   7   8
ENDBRANCH   6   7
ENDBRANCH   5   6
ENDBRANCH   4   5
ENDBRANCH   3   4
ENDBRANCH   2   3
ENDBRANCH   1   2
BRANCH   1  27
ATOM     27  C   UNL A   1      48.861  22.424  37.941  1.00  0.00     0.188 C 
BRANCH  27  28
ATOM     28  C   UNL A   1      49.363  22.094  36.523  1.00  0.00     0.188 C 
BRANCH  28  29
ATOM     29  O   UNL A   1      50.267  23.060  36.018  1.00  0.00    -0.376 OA
BRANCH  29  30
ATOM     30  C   UNL A   1      49.826  24.024  35.071  1.00  0.00     0.202 C 
BRANCH  30  31
ATOM     31  C   UNL A   1      50.032  25.551  35.203  1.00  0.00     0.261 C 
BRANCH  31  32
ATOM     32  O   UNL A   1      48.882  26.396  35.253  1.00  0.00    -0.460 OA
BRANCH  32  33
ATOM     33  C   UNL A   1      48.125  26.359  36.365  1.00  0.00     0.338 C 
ATOM     34  O   UNL A   1      48.419  25.848  37.430  1.00  0.00    -0.246 OA
BRANCH  33  35
ATOM     35  C   UNL A   1      46.981  27.273  36.145  1.00  0.00     0.060 A 
ATOM     36  C   UNL A   1      45.689  26.736  36.239  1.00  0.00     0.016 A 
ATOM     37  C   UNL A   1      47.164  28.641  35.907  1.00  0.00     0.016 A 
ATOM     38  C   UNL A   1      44.581  27.548  36.029  1.00  0.00     0.010 A 
ATOM     39  C   UNL A   1      46.051  29.449  35.658  1.00  0.00     0.010 A 
ATOM     40  C   UNL A   1      44.762  28.886  35.660  1.00  0.00    -0.014 A 
BRANCH  40  41
ATOM     41  C   UNL A   1      43.642  29.567  34.972  1.00  0.00     0.031 A 
ATOM     42  C   UNL A   1      43.357  29.153  33.552  1.00  0.00     0.074 A 
ATOM     43  C   UNL A   1      42.839  30.435  35.610  1.00  0.00     0.049 A 
ATOM     44  N   UNL A   1      42.409  29.546  32.745  1.00  0.00    -0.248 NA
ATOM     45  C   UNL A   1      44.265  28.149  32.968  1.00  0.00     0.031 C 
ATOM     46  C   UNL A   1      42.984  30.856  37.002  1.00  0.00     0.029 A 
ATOM     47  N   UNL A   1      41.728  31.105  35.166  1.00  0.00    -0.354 N 
ATOM     48  C   UNL A   1      42.601  28.833  31.567  1.00  0.00     0.074 A 
ATOM     49  C   UNL A   1      43.781  28.019  31.744  1.00  0.00     0.031 C 
ATOM     50  C   UNL A   1      41.993  31.715  37.300  1.00  0.00     0.029 A 
ATOM     51  C   UNL A   1      41.161  31.922  36.113  1.00  0.00     0.049 A 
ATOM     52  H   UNL A   1      41.370  31.009  34.254  1.00  0.00     0.167 HD
ATOM     53  C   UNL A   1      41.849  28.840  30.443  1.00  0.00     0.037 A 
ATOM     54  C   UNL A   1      40.097  32.747  36.025  1.00  0.00     0.037 A 
ATOM     55  C   UNL A   1      40.683  29.662  30.273  1.00  0.00     0.049 A 
ATOM     56  C   UNL A   1      39.324  32.809  34.733  1.00  0.00     0.074 A 
ATOM     57  C   UNL A   1      39.859  29.766  29.168  1.00  0.00     0.029 A 
ATOM     58  N   UNL A   1      40.178  30.526  31.235  1.00  0.00    -0.354 N 
ATOM     59  N   UNL A   1      39.519  32.137  33.621  1.00  0.00    -0.248 NA
ATOM     60  C   UNL A   1      38.182  33.731  34.684  1.00  0.00     0.031 C 
ATOM     61  C   UNL A   1      38.887  30.731  29.442  1.00  0.00     0.029 A 
ATOM     62  C   UNL A   1      39.063  31.182  30.742  1.00  0.00     0.049 A 
ATOM     63  H   UNL A   1      40.556  30.654  32.134  1.00  0.00     0.167 HD
ATOM     64  C   UNL A   1      38.509  32.536  32.750  1.00  0.00     0.074 A 
ATOM     65  C   UNL A   1      37.700  33.500  33.470  1.00  0.00     0.031 C 
ATOM     66  C   UNL A   1      38.269  32.137  31.475  1.00  0.00     0.037 A 
BRANCH  53  67
ATOM     67  C   UNL A   1      42.285  27.952  29.311  1.00  0.00     0.058 A 
ATOM     68  C   UNL A   1      41.564  26.788  29.003  1.00  0.00     0.135 A 
ATOM     69  C   UNL A   1      43.424  28.240  28.540  1.00  0.00     0.135 A 
ATOM     70  F   UNL A   1      40.460  26.472  29.696  1.00  0.00    -0.206 F 
ATOM     71  C   UNL A   1      41.963  25.936  27.979  1.00  0.00     0.059 A 
ATOM     72  C   UNL A   1      43.824  27.417  27.491  1.00  0.00     0.059 A 
ATOM     73  F   UNL A   1      44.131  29.358  28.771  1.00  0.00    -0.206 F 
ATOM     74  C   UNL A   1      43.093  26.259  27.227  1.00  0.00     0.060 A 
BRANCH  74  75
ATOM     75  S   UNL A   1      43.569  25.163  25.874  1.00  0.00     0.124 S 
ATOM     76  O   UNL A   1      44.290  26.072  24.992  1.00  0.00    -0.237 OA
ATOM     77  O   UNL A   1      44.381  24.163  26.562  1.00  0.00    -0.237 OA
ATOM     78  O   UNL A   1      42.288  24.676  25.367  1.00  0.00    -0.744 OA
ENDBRANCH  74  75
ENDBRANCH  53  67
BRANCH  54  79
ATOM     79  C   UNL A   1      39.702  33.562  37.204  1.00  0.00     0.058 A 
ATOM     80  C   UNL A   1      40.289  34.814  37.448  1.00  0.00     0.135 A 
ATOM     81  C   UNL A   1      38.767  33.088  38.136  1.00  0.00     0.135 A 
ATOM     82  F   UNL A   1      41.190  35.315  36.588  1.00  0.00    -0.206 F 
ATOM     83  C   UNL A   1      39.994  35.548  38.592  1.00  0.00     0.059 A 
ATOM     84  C   UNL A   1      38.436  33.816  39.276  1.00  0.00     0.059 A 
ATOM     85  F   UNL A   1      38.167  31.905  37.939  1.00  0.00    -0.206 F 
ATOM     86  C   UNL A   1      39.073  35.036  39.506  1.00  0.00     0.060 A 
BRANCH  86  87
ATOM     87  S   UNL A   1      38.744  35.979  41.010  1.00  0.00     0.124 S 
ATOM     88  O   UNL A   1      39.982  35.773  41.757  1.00  0.00    -0.237 OA
ATOM     89  O   UNL A   1      38.534  37.324  40.486  1.00  0.00    -0.237 OA
ATOM     90  O   UNL A   1      37.562  35.330  41.565  1.00  0.00    -0.744 OA
ENDBRANCH  86  87
ENDBRANCH  54  79
BRANCH  66  91
ATOM     91  C   UNL A   1      37.067  32.712  30.774  1.00  0.00     0.058 A 
ATOM     92  C   UNL A   1      37.201  33.846  29.955  1.00  0.00     0.135 A 
ATOM     93  C   UNL A   1      35.776  32.196  30.973  1.00  0.00     0.135 A 
ATOM     94  F   UNL A   1      38.410  34.388  29.740  1.00  0.00    -0.206 F 
ATOM     95  C   UNL A   1      36.098  34.454  29.368  1.00  0.00     0.059 A 
ATOM     96  C   UNL A   1      34.662  32.770  30.368  1.00  0.00     0.059 A 
ATOM     97  F   UNL A   1      35.594  31.111  31.742  1.00  0.00    -0.206 F 
ATOM     98  C   UNL A   1      34.831  33.908  29.580  1.00  0.00     0.060 A 
BRANCH  98  99
ATOM     99  S   UNL A   1      33.415  34.695  28.782  1.00  0.00     0.124 S 
ATOM    100  O   UNL A   1      32.916  33.621  27.931  1.00  0.00    -0.237 OA
ATOM    101  O   UNL A   1      32.575  35.045  29.924  1.00  0.00    -0.237 OA
ATOM    102  O   UNL A   1      34.010  35.829  28.080  1.00  0.00    -0.744 OA
ENDBRANCH  98  99
ENDBRANCH  66  91
ENDBRANCH  40  41
ENDBRANCH  33  35
ENDBRANCH  32  33
ENDBRANCH  31  32
ENDBRANCH  30  31
ENDBRANCH  29  30
ENDBRANCH  28  29
ENDBRANCH  27  28
ENDBRANCH   1  27
TORSDOF 28
ENDMDL
