MODEL 1
REMARK VINA RESULT:      -7.1      0.000      0.000
REMARK SMILES CSc1ccc(/C=C2\C(C)=C(CC(=O)OCCOCCOCCOCCOC(=O)c3ccc(-c4c5nc(c(-c6c(F)cc(S(=O)(=O)[O-])cc6F)c6ccc([nH]6)c(-c6c(F)cc(S(=O)(=O)[O-])cc6F)c6nc(c(-c7c(F)cc(S(=O)(=O)[O-])cc7F)c7ccc4[nH]7)C=C6)C=C5)cc3)c3cc(F)ccc32)cc1
REMARK SMILES IDX 21 1 20 2 19 3 18 4 17 5 16 6 15 7 13 8 14 9 12 10 11 11
REMARK SMILES IDX 7 12 8 13 9 14 102 15 10 16 96 17 101 18 97 19 100 20 98 21
REMARK SMILES IDX 99 22 6 23 3 24 4 25 104 26 5 27 103 28 2 29 1 30 22 31
REMARK SMILES IDX 23 32 24 33 25 34 26 35 27 36 28 37 29 38 30 39 31 40 95 41
REMARK SMILES IDX 32 42 94 43 33 44 34 45 35 46 88 47 36 48 93 49 87 50 89 51
REMARK SMILES IDX 37 52 92 53 86 54 85 55 38 57 72 58 51 59 71 60 52 61 55 62
REMARK SMILES IDX 70 63 90 64 53 65 54 66 69 68 91 69 56 70 39 71 40 72 49 73
REMARK SMILES IDX 41 74 42 75 48 76 50 77 43 78 44 79 45 80 46 81 47 82 73 83
REMARK SMILES IDX 74 84 83 85 75 86 76 87 82 88 84 89 77 90 78 91 79 92 80 93
REMARK SMILES IDX 81 94 57 95 58 96 67 97 59 98 60 99 66 100 68 101 61 102
REMARK SMILES IDX 62 103 63 104 64 105 65 106
REMARK H PARENT 89 56 55 67
REMARK Flexibility Score: inf
ROOT
ATOM      1  O   UNL A   1      49.188  39.081  28.132  1.00  0.00    -0.377 OA
ENDROOT
BRANCH   1   2
ATOM      2  C   UNL A   1      49.516  38.647  26.824  1.00  0.00     0.188 C 
BRANCH   2   3
ATOM      3  C   UNL A   1      48.340  38.012  26.085  1.00  0.00     0.188 C 
BRANCH   3   4
ATOM      4  O   UNL A   1      48.050  36.661  26.411  1.00  0.00    -0.376 OA
BRANCH   4   5
ATOM      5  C   UNL A   1      46.777  36.139  26.029  1.00  0.00     0.202 C 
BRANCH   5   6
ATOM      6  C   UNL A   1      46.660  34.626  25.778  1.00  0.00     0.261 C 
BRANCH   6   7
ATOM      7  O   UNL A   1      45.454  34.258  25.067  1.00  0.00    -0.463 OA
BRANCH   7   8
ATOM      8  C   UNL A   1      44.512  33.593  25.778  1.00  0.00     0.310 C 
ATOM      9  O   UNL A   1      43.819  32.685  25.319  1.00  0.00    -0.252 OA
BRANCH   8  10
ATOM     10  C   UNL A   1      44.303  34.066  27.209  1.00  0.00     0.159 C 
BRANCH  10  11
ATOM     11  C   UNL A   1      43.002  34.733  27.672  1.00  0.00    -0.025 C 
ATOM     12  C   UNL A   1      44.257  35.578  30.768  1.00  0.00     0.017 C 
ATOM     13  C   UNL A   1      43.549  35.654  29.631  1.00  0.00    -0.014 C 
ATOM     14  C   UNL A   1      42.633  34.673  28.989  1.00  0.00    -0.039 C 
ATOM     15  C   UNL A   1      43.570  36.798  28.694  1.00  0.00    -0.010 A 
ATOM     16  C   UNL A   1      41.158  34.957  29.325  1.00  0.00     0.045 C 
ATOM     17  C   UNL A   1      43.069  36.232  27.509  1.00  0.00    -0.011 A 
ATOM     18  C   UNL A   1      43.361  38.142  29.007  1.00  0.00     0.012 A 
ATOM     19  C   UNL A   1      42.294  36.998  26.655  1.00  0.00     0.048 A 
ATOM     20  C   UNL A   1      42.579  38.906  28.134  1.00  0.00     0.040 A 
ATOM     21  C   UNL A   1      42.038  38.324  26.984  1.00  0.00     0.123 A 
ATOM     22  F   UNL A   1      41.152  39.012  26.250  1.00  0.00    -0.207 F 
BRANCH  12  23
ATOM     23  C   UNL A   1      43.860  34.908  32.033  1.00  0.00    -0.025 A 
ATOM     24  C   UNL A   1      43.824  35.303  34.791  1.00  0.00     0.007 A 
ATOM     25  C   UNL A   1      42.672  35.528  34.045  1.00  0.00     0.015 A 
ATOM     26  C   UNL A   1      44.889  34.619  34.204  1.00  0.00     0.015 A 
ATOM     27  C   UNL A   1      42.674  35.259  32.680  1.00  0.00     0.009 A 
ATOM     28  C   UNL A   1      44.907  34.416  32.821  1.00  0.00     0.009 A 
BRANCH  24  29
ATOM     29  S   UNL A   1      43.994  36.026  36.408  1.00  0.00    -0.130 SA
ATOM     30  C   UNL A   1      45.202  37.328  35.986  1.00  0.00     0.091 C 
ENDBRANCH  24  29
ENDBRANCH  12  23
ENDBRANCH  10  11
ENDBRANCH   8  10
ENDBRANCH   7   8
ENDBRANCH   6   7
ENDBRANCH   5   6
ENDBRANCH   4   5
ENDBRANCH   3   4
ENDBRANCH   2   3
ENDBRANCH   1   2
BRANCH   1  31
ATOM     31  C   UNL A   1      49.635  40.339  28.633  1.00  0.00     0.188 C 
BRANCH  31  32
ATOM     32  C   UNL A   1      49.432  40.652  30.118  1.00  0.00     0.188 C 
BRANCH  32  33
ATOM     33  O   UNL A   1      50.312  40.028  31.060  1.00  0.00    -0.376 OA
BRANCH  33  34
ATOM     34  C   UNL A   1      49.851  38.880  31.765  1.00  0.00     0.202 C 
BRANCH  34  35
ATOM     35  C   UNL A   1      50.053  37.534  31.072  1.00  0.00     0.261 C 
BRANCH  35  36
ATOM     36  O   UNL A   1      48.834  37.027  30.514  1.00  0.00    -0.460 OA
BRANCH  36  37
ATOM     37  C   UNL A   1      48.102  36.286  31.381  1.00  0.00     0.338 C 
ATOM     38  O   UNL A   1      47.517  36.673  32.373  1.00  0.00    -0.246 OA
BRANCH  37  39
ATOM     39  C   UNL A   1      47.973  34.912  30.865  1.00  0.00     0.060 A 
ATOM     40  C   UNL A   1      47.388  34.756  29.603  1.00  0.00     0.016 A 
ATOM     41  C   UNL A   1      48.324  33.803  31.638  1.00  0.00     0.016 A 
ATOM     42  C   UNL A   1      47.099  33.485  29.128  1.00  0.00     0.010 A 
ATOM     43  C   UNL A   1      48.017  32.525  31.166  1.00  0.00     0.010 A 
ATOM     44  C   UNL A   1      47.362  32.370  29.933  1.00  0.00    -0.014 A 
BRANCH  44  45
ATOM     45  C   UNL A   1      46.751  31.077  29.560  1.00  0.00     0.031 A 
ATOM     46  C   UNL A   1      47.630  30.036  28.924  1.00  0.00     0.074 A 
ATOM     47  C   UNL A   1      45.461  30.828  29.843  1.00  0.00     0.049 A 
ATOM     48  N   UNL A   1      47.320  28.839  28.501  1.00  0.00    -0.248 NA
ATOM     49  C   UNL A   1      49.049  30.387  28.739  1.00  0.00     0.031 C 
ATOM     50  C   UNL A   1      44.546  31.763  30.499  1.00  0.00     0.029 A 
ATOM     51  N   UNL A   1      44.696  29.717  29.610  1.00  0.00    -0.354 N 
ATOM     52  C   UNL A   1      48.495  28.306  27.985  1.00  0.00     0.074 A 
ATOM     53  C   UNL A   1      49.523  29.309  28.132  1.00  0.00     0.031 C 
ATOM     54  C   UNL A   1      43.334  31.191  30.597  1.00  0.00     0.029 A 
ATOM     55  C   UNL A   1      43.381  29.868  29.981  1.00  0.00     0.049 A 
ATOM     56  H   UNL A   1      45.053  28.889  29.214  1.00  0.00     0.167 HD
ATOM     57  C   UNL A   1      48.689  27.085  27.436  1.00  0.00     0.037 A 
ATOM     58  C   UNL A   1      42.333  29.038  29.807  1.00  0.00     0.037 A 
ATOM     59  C   UNL A   1      47.654  26.094  27.321  1.00  0.00     0.049 A 
ATOM     60  C   UNL A   1      42.574  27.699  29.158  1.00  0.00     0.074 A 
ATOM     61  C   UNL A   1      47.750  24.806  26.824  1.00  0.00     0.029 A 
ATOM     62  N   UNL A   1      46.332  26.283  27.699  1.00  0.00    -0.354 N 
ATOM     63  N   UNL A   1      43.698  27.189  28.711  1.00  0.00    -0.248 NA
ATOM     64  C   UNL A   1      41.409  26.818  28.993  1.00  0.00     0.031 C 
ATOM     65  C   UNL A   1      46.472  24.241  26.839  1.00  0.00     0.029 A 
ATOM     66  C   UNL A   1      45.593  25.149  27.411  1.00  0.00     0.049 A 
ATOM     67  H   UNL A   1      45.973  27.102  28.109  1.00  0.00     0.167 HD
ATOM     68  C   UNL A   1      43.381  25.919  28.242  1.00  0.00     0.074 A 
ATOM     69  C   UNL A   1      41.964  25.732  28.475  1.00  0.00     0.031 C 
ATOM     70  C   UNL A   1      44.185  24.987  27.670  1.00  0.00     0.037 A 
BRANCH  57  71
ATOM     71  C   UNL A   1      50.048  26.756  26.885  1.00  0.00     0.058 A 
ATOM     72  C   UNL A   1      50.438  27.119  25.587  1.00  0.00     0.135 A 
ATOM     73  C   UNL A   1      51.005  26.138  27.707  1.00  0.00     0.135 A 
ATOM     74  F   UNL A   1      49.557  27.687  24.748  1.00  0.00    -0.206 F 
ATOM     75  C   UNL A   1      51.732  26.887  25.125  1.00  0.00     0.059 A 
ATOM     76  C   UNL A   1      52.310  25.921  27.277  1.00  0.00     0.059 A 
ATOM     77  F   UNL A   1      50.680  25.757  28.953  1.00  0.00    -0.206 F 
ATOM     78  C   UNL A   1      52.664  26.299  25.983  1.00  0.00     0.060 A 
BRANCH  78  79
ATOM     79  S   UNL A   1      54.354  26.066  25.393  1.00  0.00     0.124 S 
ATOM     80  O   UNL A   1      54.311  24.688  24.914  1.00  0.00    -0.237 OA
ATOM     81  O   UNL A   1      54.466  27.093  24.362  1.00  0.00    -0.237 OA
ATOM     82  O   UNL A   1      55.166  26.288  26.586  1.00  0.00    -0.744 OA
ENDBRANCH  78  79
ENDBRANCH  57  71
BRANCH  58  83
ATOM     83  C   UNL A   1      40.963  29.462  30.208  1.00  0.00     0.058 A 
ATOM     84  C   UNL A   1      40.046  29.964  29.274  1.00  0.00     0.135 A 
ATOM     85  C   UNL A   1      40.557  29.403  31.552  1.00  0.00     0.135 A 
ATOM     86  F   UNL A   1      40.384  30.044  27.978  1.00  0.00    -0.206 F 
ATOM     87  C   UNL A   1      38.792  30.429  29.660  1.00  0.00     0.059 A 
ATOM     88  C   UNL A   1      39.297  29.830  31.957  1.00  0.00     0.059 A 
ATOM     89  F   UNL A   1      41.387  28.916  32.486  1.00  0.00    -0.206 F 
ATOM     90  C   UNL A   1      38.428  30.362  31.006  1.00  0.00     0.060 A 
BRANCH  90  91
ATOM     91  S   UNL A   1      36.800  30.967  31.498  1.00  0.00     0.124 S 
ATOM     92  O   UNL A   1      36.505  30.115  32.644  1.00  0.00    -0.237 OA
ATOM     93  O   UNL A   1      37.073  32.370  31.797  1.00  0.00    -0.237 OA
ATOM     94  O   UNL A   1      35.984  30.735  30.311  1.00  0.00    -0.744 OA
ENDBRANCH  90  91
ENDBRANCH  58  83
BRANCH  70  95
ATOM     95  C   UNL A   1      43.565  23.668  27.302  1.00  0.00     0.058 A 
ATOM     96  C   UNL A   1      43.240  23.346  25.975  1.00  0.00     0.135 A 
ATOM     97  C   UNL A   1      43.349  22.690  28.287  1.00  0.00     0.135 A 
ATOM     98  F   UNL A   1      43.422  24.247  24.997  1.00  0.00    -0.206 F 
ATOM     99  C   UNL A   1      42.696  22.111  25.642  1.00  0.00     0.059 A 
ATOM    100  C   UNL A   1      42.839  21.436  27.971  1.00  0.00     0.059 A 
ATOM    101  F   UNL A   1      43.657  22.942  29.569  1.00  0.00    -0.206 F 
ATOM    102  C   UNL A   1      42.503  21.161  26.647  1.00  0.00     0.060 A 
BRANCH 102 103
ATOM    103  S   UNL A   1      41.828  19.550  26.194  1.00  0.00     0.124 S 
ATOM    104  O   UNL A   1      42.169  18.749  27.366  1.00  0.00    -0.237 OA
ATOM    105  O   UNL A   1      40.409  19.845  26.019  1.00  0.00    -0.237 OA
ATOM    106  O   UNL A   1      42.547  19.210  24.972  1.00  0.00    -0.744 OA
ENDBRANCH 102 103
ENDBRANCH  70  95
ENDBRANCH  44  45
ENDBRANCH  37  39
ENDBRANCH  36  37
ENDBRANCH  35  36
ENDBRANCH  34  35
ENDBRANCH  33  34
ENDBRANCH  32  33
ENDBRANCH  31  32
ENDBRANCH   1  31
TORSDOF 26
ENDMDL
MODEL 2
REMARK VINA RESULT:      -7.0      6.610     14.818
REMARK SMILES CSc1ccc(/C=C2\C(C)=C(CC(=O)OCCOCCOCCOCCOC(=O)c3ccc(-c4c5nc(c(-c6c(F)cc(S(=O)(=O)[O-])cc6F)c6ccc([nH]6)c(-c6c(F)cc(S(=O)(=O)[O-])cc6F)c6nc(c(-c7c(F)cc(S(=O)(=O)[O-])cc7F)c7ccc4[nH]7)C=C6)C=C5)cc3)c3cc(F)ccc32)cc1
REMARK SMILES IDX 21 1 20 2 19 3 18 4 17 5 16 6 15 7 13 8 14 9 12 10 11 11
REMARK SMILES IDX 7 12 8 13 9 14 102 15 10 16 96 17 101 18 97 19 100 20 98 21
REMARK SMILES IDX 99 22 6 23 3 24 4 25 104 26 5 27 103 28 2 29 1 30 22 31
REMARK SMILES IDX 23 32 24 33 25 34 26 35 27 36 28 37 29 38 30 39 31 40 95 41
REMARK SMILES IDX 32 42 94 43 33 44 34 45 35 46 88 47 36 48 93 49 87 50 89 51
REMARK SMILES IDX 37 52 92 53 86 54 85 55 38 57 72 58 51 59 71 60 52 61 55 62
REMARK SMILES IDX 70 63 90 64 53 65 54 66 69 68 91 69 56 70 39 71 40 72 49 73
REMARK SMILES IDX 41 74 42 75 48 76 50 77 43 78 44 79 45 80 46 81 47 82 73 83
REMARK SMILES IDX 74 84 83 85 75 86 76 87 82 88 84 89 77 90 78 91 79 92 80 93
REMARK SMILES IDX 81 94 57 95 58 96 67 97 59 98 60 99 66 100 68 101 61 102
REMARK SMILES IDX 62 103 63 104 64 105 65 106
REMARK H PARENT 89 56 55 67
REMARK Flexibility Score: inf
ROOT
ATOM      1  O   UNL A   1      44.727  23.301  26.452  1.00  0.00    -0.377 OA
ENDROOT
BRANCH   1   2
ATOM      2  C   UNL A   1      44.388  24.564  25.906  1.00  0.00     0.188 C 
BRANCH   2   3
ATOM      3  C   UNL A   1      44.017  25.599  26.965  1.00  0.00     0.188 C 
BRANCH   3   4
ATOM      4  O   UNL A   1      45.099  26.220  27.642  1.00  0.00    -0.376 OA
BRANCH   4   5
ATOM      5  C   UNL A   1      45.133  26.137  29.067  1.00  0.00     0.202 C 
BRANCH   5   6
ATOM      6  C   UNL A   1      46.321  25.414  29.723  1.00  0.00     0.261 C 
BRANCH   6   7
ATOM      7  O   UNL A   1      46.980  26.207  30.739  1.00  0.00    -0.463 OA
BRANCH   7   8
ATOM      8  C   UNL A   1      47.028  25.676  31.984  1.00  0.00     0.310 C 
ATOM      9  O   UNL A   1      47.934  24.945  32.385  1.00  0.00    -0.252 OA
BRANCH   8  10
ATOM     10  C   UNL A   1      45.844  25.993  32.887  1.00  0.00     0.159 C 
BRANCH  10  11
ATOM     11  C   UNL A   1      44.802  24.938  33.275  1.00  0.00    -0.025 C 
ATOM     12  C   UNL A   1      46.871  23.384  35.549  1.00  0.00     0.017 C 
ATOM     13  C   UNL A   1      45.752  23.860  34.983  1.00  0.00    -0.014 C 
ATOM     14  C   UNL A   1      45.201  23.673  33.614  1.00  0.00    -0.039 C 
ATOM     15  C   UNL A   1      44.789  24.768  35.642  1.00  0.00    -0.010 A 
ATOM     16  C   UNL A   1      44.140  22.559  33.566  1.00  0.00     0.045 C 
ATOM     17  C   UNL A   1      44.091  25.316  34.552  1.00  0.00    -0.011 A 
ATOM     18  C   UNL A   1      44.177  24.584  36.883  1.00  0.00     0.012 A 
ATOM     19  C   UNL A   1      42.748  25.627  34.681  1.00  0.00     0.048 A 
ATOM     20  C   UNL A   1      42.820  24.904  37.000  1.00  0.00     0.040 A 
ATOM     21  C   UNL A   1      42.118  25.399  35.898  1.00  0.00     0.123 A 
ATOM     22  F   UNL A   1      40.786  25.537  35.973  1.00  0.00    -0.207 F 
BRANCH  12  23
ATOM     23  C   UNL A   1      47.501  22.057  35.323  1.00  0.00    -0.025 A 
ATOM     24  C   UNL A   1      49.841  20.638  35.842  1.00  0.00     0.007 A 
ATOM     25  C   UNL A   1      48.725  20.451  36.650  1.00  0.00     0.015 A 
ATOM     26  C   UNL A   1      49.694  21.307  34.627  1.00  0.00     0.015 A 
ATOM     27  C   UNL A   1      47.537  21.105  36.344  1.00  0.00     0.009 A 
ATOM     28  C   UNL A   1      48.519  22.017  34.363  1.00  0.00     0.009 A 
BRANCH  24  29
ATOM     29  S   UNL A   1      51.456  20.177  36.432  1.00  0.00    -0.130 SA
ATOM     30  C   UNL A   1      52.375  20.387  34.869  1.00  0.00     0.091 C 
ENDBRANCH  24  29
ENDBRANCH  12  23
ENDBRANCH  10  11
ENDBRANCH   8  10
ENDBRANCH   7   8
ENDBRANCH   6   7
ENDBRANCH   5   6
ENDBRANCH   4   5
ENDBRANCH   3   4
ENDBRANCH   2   3
ENDBRANCH   1   2
BRANCH   1  31
ATOM     31  C   UNL A   1      43.931  22.144  26.204  1.00  0.00     0.188 C 
BRANCH  31  32
ATOM     32  C   UNL A   1      42.537  22.065  26.831  1.00  0.00     0.188 C 
BRANCH  32  33
ATOM     33  O   UNL A   1      41.416  21.902  25.955  1.00  0.00    -0.376 OA
BRANCH  33  34
ATOM     34  C   UNL A   1      40.114  22.185  26.456  1.00  0.00     0.202 C 
BRANCH  34  35
ATOM     35  C   UNL A   1      40.027  23.236  27.560  1.00  0.00     0.261 C 
BRANCH  35  36
ATOM     36  O   UNL A   1      39.268  24.383  27.153  1.00  0.00    -0.460 OA
BRANCH  36  37
ATOM     37  C   UNL A   1      40.028  25.466  26.859  1.00  0.00     0.338 C 
ATOM     38  O   UNL A   1      40.680  25.660  25.852  1.00  0.00    -0.246 OA
BRANCH  37  39
ATOM     39  C   UNL A   1      39.840  26.495  27.896  1.00  0.00     0.060 A 
ATOM     40  C   UNL A   1      40.397  27.756  27.654  1.00  0.00     0.016 A 
ATOM     41  C   UNL A   1      39.223  26.203  29.115  1.00  0.00     0.016 A 
ATOM     42  C   UNL A   1      40.388  28.719  28.652  1.00  0.00     0.010 A 
ATOM     43  C   UNL A   1      39.229  27.167  30.125  1.00  0.00     0.010 A 
ATOM     44  C   UNL A   1      39.854  28.406  29.908  1.00  0.00    -0.014 A 
BRANCH  44  45
ATOM     45  C   UNL A   1      40.150  29.311  31.039  1.00  0.00     0.031 A 
ATOM     46  C   UNL A   1      39.134  30.362  31.391  1.00  0.00     0.074 A 
ATOM     47  C   UNL A   1      41.270  29.147  31.764  1.00  0.00     0.049 A 
ATOM     48  N   UNL A   1      39.177  31.271  32.328  1.00  0.00    -0.248 NA
ATOM     49  C   UNL A   1      37.903  30.393  30.581  1.00  0.00     0.031 C 
ATOM     50  C   UNL A   1      42.289  28.125  31.522  1.00  0.00     0.029 A 
ATOM     51  N   UNL A   1      41.740  29.841  32.846  1.00  0.00    -0.354 N 
ATOM     52  C   UNL A   1      37.994  31.992  32.206  1.00  0.00     0.074 A 
ATOM     53  C   UNL A   1      37.258  31.428  31.100  1.00  0.00     0.031 C 
ATOM     54  C   UNL A   1      43.278  28.274  32.420  1.00  0.00     0.029 A 
ATOM     55  C   UNL A   1      42.977  29.420  33.275  1.00  0.00     0.049 A 
ATOM     56  H   UNL A   1      41.241  30.573  33.277  1.00  0.00     0.167 HD
ATOM     57  C   UNL A   1      37.570  33.034  32.957  1.00  0.00     0.037 A 
ATOM     58  C   UNL A   1      43.781  29.929  34.227  1.00  0.00     0.037 A 
ATOM     59  C   UNL A   1      38.311  33.564  34.069  1.00  0.00     0.049 A 
ATOM     60  C   UNL A   1      43.296  31.115  35.023  1.00  0.00     0.074 A 
ATOM     61  C   UNL A   1      37.954  34.588  34.929  1.00  0.00     0.029 A 
ATOM     62  N   UNL A   1      39.563  33.120  34.470  1.00  0.00    -0.354 N 
ATOM     63  N   UNL A   1      42.158  31.763  34.927  1.00  0.00    -0.248 NA
ATOM     64  C   UNL A   1      44.197  31.638  36.058  1.00  0.00     0.031 C 
ATOM     65  C   UNL A   1      39.020  34.807  35.806  1.00  0.00     0.029 A 
ATOM     66  C   UNL A   1      40.010  33.873  35.541  1.00  0.00     0.049 A 
ATOM     67  H   UNL A   1      40.059  32.379  34.054  1.00  0.00     0.167 HD
ATOM     68  C   UNL A   1      42.194  32.747  35.908  1.00  0.00     0.074 A 
ATOM     69  C   UNL A   1      43.460  32.599  36.597  1.00  0.00     0.031 C 
ATOM     70  C   UNL A   1      41.269  33.690  36.217  1.00  0.00     0.037 A 
BRANCH  57  71
ATOM     71  C   UNL A   1      36.272  33.698  32.592  1.00  0.00     0.058 A 
ATOM     72  C   UNL A   1      35.173  33.725  33.463  1.00  0.00     0.135 A 
ATOM     73  C   UNL A   1      36.160  34.393  31.376  1.00  0.00     0.135 A 
ATOM     74  F   UNL A   1      35.213  33.055  34.626  1.00  0.00    -0.206 F 
ATOM     75  C   UNL A   1      34.010  34.423  33.145  1.00  0.00     0.059 A 
ATOM     76  C   UNL A   1      35.020  35.120  31.049  1.00  0.00     0.059 A 
ATOM     77  F   UNL A   1      37.177  34.388  30.499  1.00  0.00    -0.206 F 
ATOM     78  C   UNL A   1      33.949  35.129  31.941  1.00  0.00     0.060 A 
BRANCH  78  79
ATOM     79  S   UNL A   1      32.462  36.083  31.574  1.00  0.00     0.124 S 
ATOM     80  O   UNL A   1      32.771  37.362  32.205  1.00  0.00    -0.237 OA
ATOM     81  O   UNL A   1      32.446  36.083  30.115  1.00  0.00    -0.237 OA
ATOM     82  O   UNL A   1      31.396  35.313  32.210  1.00  0.00    -0.744 OA
ENDBRANCH  78  79
ENDBRANCH  57  71
BRANCH  58  83
ATOM     83  C   UNL A   1      45.138  29.358  34.453  1.00  0.00     0.058 A 
ATOM     84  C   UNL A   1      45.395  28.463  35.501  1.00  0.00     0.135 A 
ATOM     85  C   UNL A   1      46.219  29.730  33.635  1.00  0.00     0.135 A 
ATOM     86  F   UNL A   1      44.398  28.078  36.313  1.00  0.00    -0.206 F 
ATOM     87  C   UNL A   1      46.677  27.988  35.757  1.00  0.00     0.059 A 
ATOM     88  C   UNL A   1      47.503  29.241  33.850  1.00  0.00     0.059 A 
ATOM     89  F   UNL A   1      46.028  30.570  32.607  1.00  0.00    -0.206 F 
ATOM     90  C   UNL A   1      47.727  28.387  34.927  1.00  0.00     0.060 A 
BRANCH  90  91
ATOM     91  S   UNL A   1      49.388  27.766  35.266  1.00  0.00     0.124 S 
ATOM     92  O   UNL A   1      49.983  27.782  33.936  1.00  0.00    -0.237 OA
ATOM     93  O   UNL A   1      49.898  28.757  36.208  1.00  0.00    -0.237 OA
ATOM     94  O   UNL A   1      49.141  26.443  35.832  1.00  0.00    -0.744 OA
ENDBRANCH  90  91
ENDBRANCH  58  83
BRANCH  70  95
ATOM     95  C   UNL A   1      41.567  34.601  37.375  1.00  0.00     0.058 A 
ATOM     96  C   UNL A   1      42.227  35.828  37.203  1.00  0.00     0.135 A 
ATOM     97  C   UNL A   1      41.130  34.265  38.667  1.00  0.00     0.135 A 
ATOM     98  F   UNL A   1      42.669  36.193  35.989  1.00  0.00    -0.206 F 
ATOM     99  C   UNL A   1      42.468  36.677  38.277  1.00  0.00     0.059 A 
ATOM    100  C   UNL A   1      41.330  35.115  39.749  1.00  0.00     0.059 A 
ATOM    101  F   UNL A   1      40.481  33.110  38.884  1.00  0.00    -0.206 F 
ATOM    102  C   UNL A   1      42.012  36.313  39.546  1.00  0.00     0.060 A 
BRANCH 102 103
ATOM    103  S   UNL A   1      42.304  37.440  40.925  1.00  0.00     0.124 S 
ATOM    104  O   UNL A   1      43.424  36.793  41.601  1.00  0.00    -0.237 OA
ATOM    105  O   UNL A   1      42.614  38.693  40.243  1.00  0.00    -0.237 OA
ATOM    106  O   UNL A   1      41.038  37.425  41.650  1.00  0.00    -0.744 OA
ENDBRANCH 102 103
ENDBRANCH  70  95
ENDBRANCH  44  45
ENDBRANCH  37  39
ENDBRANCH  36  37
ENDBRANCH  35  36
ENDBRANCH  34  35
ENDBRANCH  33  34
ENDBRANCH  32  33
ENDBRANCH  31  32
ENDBRANCH   1  31
TORSDOF 26
ENDMDL
MODEL 3
REMARK VINA RESULT:      -6.8      4.158     11.068
REMARK SMILES CSc1ccc(/C=C2\C(C)=C(CC(=O)OCCOCCOCCOCCOC(=O)c3ccc(-c4c5nc(c(-c6c(F)cc(S(=O)(=O)[O-])cc6F)c6ccc([nH]6)c(-c6c(F)cc(S(=O)(=O)[O-])cc6F)c6nc(c(-c7c(F)cc(S(=O)(=O)[O-])cc7F)c7ccc4[nH]7)C=C6)C=C5)cc3)c3cc(F)ccc32)cc1
REMARK SMILES IDX 21 1 20 2 19 3 18 4 17 5 16 6 15 7 13 8 14 9 12 10 11 11
REMARK SMILES IDX 7 12 8 13 9 14 102 15 10 16 96 17 101 18 97 19 100 20 98 21
REMARK SMILES IDX 99 22 6 23 3 24 4 25 104 26 5 27 103 28 2 29 1 30 22 31
REMARK SMILES IDX 23 32 24 33 25 34 26 35 27 36 28 37 29 38 30 39 31 40 95 41
REMARK SMILES IDX 32 42 94 43 33 44 34 45 35 46 88 47 36 48 93 49 87 50 89 51
REMARK SMILES IDX 37 52 92 53 86 54 85 55 38 57 72 58 51 59 71 60 52 61 55 62
REMARK SMILES IDX 70 63 90 64 53 65 54 66 69 68 91 69 56 70 39 71 40 72 49 73
REMARK SMILES IDX 41 74 42 75 48 76 50 77 43 78 44 79 45 80 46 81 47 82 73 83
REMARK SMILES IDX 74 84 83 85 75 86 76 87 82 88 84 89 77 90 78 91 79 92 80 93
REMARK SMILES IDX 81 94 57 95 58 96 67 97 59 98 60 99 66 100 68 101 61 102
REMARK SMILES IDX 62 103 63 104 64 105 65 106
REMARK H PARENT 89 56 55 67
REMARK Flexibility Score: inf
ROOT
ATOM      1  O   UNL A   1      42.290  25.269  27.390  1.00  0.00    -0.377 OA
ENDROOT
BRANCH   1   2
ATOM      2  C   UNL A   1      42.767  26.496  26.865  1.00  0.00     0.188 C 
BRANCH   2   3
ATOM      3  C   UNL A   1      42.036  27.716  27.421  1.00  0.00     0.188 C 
BRANCH   3   4
ATOM      4  O   UNL A   1      41.829  27.737  28.825  1.00  0.00    -0.376 OA
BRANCH   4   5
ATOM      5  C   UNL A   1      42.576  28.679  29.597  1.00  0.00     0.202 C 
BRANCH   5   6
ATOM      6  C   UNL A   1      42.310  30.176  29.367  1.00  0.00     0.261 C 
BRANCH   6   7
ATOM      7  O   UNL A   1      42.559  30.985  30.542  1.00  0.00    -0.463 OA
BRANCH   7   8
ATOM      8  C   UNL A   1      41.639  31.937  30.826  1.00  0.00     0.310 C 
ATOM      9  O   UNL A   1      41.859  32.914  31.543  1.00  0.00    -0.252 OA
BRANCH   8  10
ATOM     10  C   UNL A   1      40.251  31.715  30.241  1.00  0.00     0.159 C 
BRANCH  10  11
ATOM     11  C   UNL A   1      39.118  32.734  30.407  1.00  0.00    -0.025 C 
ATOM     12  C   UNL A   1      36.651  30.488  29.546  1.00  0.00     0.017 C 
ATOM     13  C   UNL A   1      37.267  31.511  30.158  1.00  0.00    -0.014 C 
ATOM     14  C   UNL A   1      38.014  32.670  29.599  1.00  0.00    -0.039 C 
ATOM     15  C   UNL A   1      37.371  31.684  31.623  1.00  0.00    -0.010 A 
ATOM     16  C   UNL A   1      37.135  33.928  29.498  1.00  0.00     0.045 C 
ATOM     17  C   UNL A   1      38.442  32.586  31.749  1.00  0.00    -0.011 A 
ATOM     18  C   UNL A   1      36.325  31.659  32.547  1.00  0.00     0.012 A 
ATOM     19  C   UNL A   1      38.440  33.519  32.772  1.00  0.00     0.048 A 
ATOM     20  C   UNL A   1      36.336  32.605  33.578  1.00  0.00     0.040 A 
ATOM     21  C   UNL A   1      37.376  33.534  33.667  1.00  0.00     0.123 A 
ATOM     22  F   UNL A   1      37.288  34.540  34.549  1.00  0.00    -0.207 F 
BRANCH  12  23
ATOM     23  C   UNL A   1      35.913  30.522  28.257  1.00  0.00    -0.025 A 
ATOM     24  C   UNL A   1      33.479  29.791  27.118  1.00  0.00     0.007 A 
ATOM     25  C   UNL A   1      33.684  31.104  27.529  1.00  0.00     0.015 A 
ATOM     26  C   UNL A   1      34.573  28.933  27.018  1.00  0.00     0.015 A 
ATOM     27  C   UNL A   1      34.926  31.481  28.029  1.00  0.00     0.009 A 
ATOM     28  C   UNL A   1      35.798  29.299  27.586  1.00  0.00     0.009 A 
BRANCH  24  29
ATOM     29  S   UNL A   1      31.824  29.178  26.890  1.00  0.00    -0.130 SA
ATOM     30  C   UNL A   1      31.432  30.054  25.336  1.00  0.00     0.091 C 
ENDBRANCH  24  29
ENDBRANCH  12  23
ENDBRANCH  10  11
ENDBRANCH   8  10
ENDBRANCH   7   8
ENDBRANCH   6   7
ENDBRANCH   5   6
ENDBRANCH   4   5
ENDBRANCH   3   4
ENDBRANCH   2   3
ENDBRANCH   1   2
BRANCH   1  31
ATOM     31  C   UNL A   1      41.367  24.457  26.667  1.00  0.00     0.188 C 
BRANCH  31  32
ATOM     32  C   UNL A   1      40.697  23.286  27.390  1.00  0.00     0.188 C 
BRANCH  32  33
ATOM     33  O   UNL A   1      41.281  21.987  27.246  1.00  0.00    -0.376 OA
BRANCH  33  34
ATOM     34  C   UNL A   1      41.816  21.618  25.980  1.00  0.00     0.202 C 
BRANCH  34  35
ATOM     35  C   UNL A   1      43.287  21.208  25.959  1.00  0.00     0.261 C 
BRANCH  35  36
ATOM     36  O   UNL A   1      44.102  22.087  26.745  1.00  0.00    -0.460 OA
BRANCH  36  37
ATOM     37  C   UNL A   1      45.330  22.314  26.216  1.00  0.00     0.338 C 
ATOM     38  O   UNL A   1      46.020  21.533  25.591  1.00  0.00    -0.246 OA
BRANCH  37  39
ATOM     39  C   UNL A   1      45.678  23.736  26.373  1.00  0.00     0.060 A 
ATOM     40  C   UNL A   1      45.701  24.520  25.213  1.00  0.00     0.016 A 
ATOM     41  C   UNL A   1      46.066  24.265  27.606  1.00  0.00     0.016 A 
ATOM     42  C   UNL A   1      46.167  25.825  25.270  1.00  0.00     0.010 A 
ATOM     43  C   UNL A   1      46.552  25.573  27.659  1.00  0.00     0.010 A 
ATOM     44  C   UNL A   1      46.646  26.335  26.483  1.00  0.00    -0.014 A 
BRANCH  44  45
ATOM     45  C   UNL A   1      47.434  27.585  26.454  1.00  0.00     0.031 A 
ATOM     46  C   UNL A   1      48.919  27.482  26.237  1.00  0.00     0.074 A 
ATOM     47  C   UNL A   1      46.822  28.776  26.557  1.00  0.00     0.049 A 
ATOM     48  N   UNL A   1      49.814  28.432  26.186  1.00  0.00    -0.248 NA
ATOM     49  C   UNL A   1      49.470  26.128  26.051  1.00  0.00     0.031 C 
ATOM     50  C   UNL A   1      45.381  28.973  26.724  1.00  0.00     0.029 A 
ATOM     51  N   UNL A   1      47.333  30.046  26.541  1.00  0.00    -0.354 N 
ATOM     52  C   UNL A   1      51.031  27.791  25.984  1.00  0.00     0.074 A 
ATOM     53  C   UNL A   1      50.767  26.372  25.934  1.00  0.00     0.031 C 
ATOM     54  C   UNL A   1      45.127  30.289  26.817  1.00  0.00     0.029 A 
ATOM     55  C   UNL A   1      46.389  31.023  26.750  1.00  0.00     0.049 A 
ATOM     56  H   UNL A   1      48.287  30.242  26.395  1.00  0.00     0.167 HD
ATOM     57  C   UNL A   1      52.257  28.347  25.854  1.00  0.00     0.037 A 
ATOM     58  C   UNL A   1      46.540  32.353  26.903  1.00  0.00     0.037 A 
ATOM     59  C   UNL A   1      52.492  29.765  25.885  1.00  0.00     0.049 A 
ATOM     60  C   UNL A   1      47.924  32.939  26.791  1.00  0.00     0.074 A 
ATOM     61  C   UNL A   1      53.687  30.442  25.717  1.00  0.00     0.029 A 
ATOM     62  N   UNL A   1      51.514  30.725  26.106  1.00  0.00    -0.354 N 
ATOM     63  N   UNL A   1      49.062  32.328  26.557  1.00  0.00    -0.248 NA
ATOM     64  C   UNL A   1      48.048  34.394  26.955  1.00  0.00     0.031 C 
ATOM     65  C   UNL A   1      53.443  31.804  25.905  1.00  0.00     0.029 A 
ATOM     66  C   UNL A   1      52.084  31.985  26.118  1.00  0.00     0.049 A 
ATOM     67  H   UNL A   1      50.557  30.536  26.237  1.00  0.00     0.167 HD
ATOM     68  C   UNL A   1      50.031  33.326  26.517  1.00  0.00     0.074 A 
ATOM     69  C   UNL A   1      49.341  34.581  26.732  1.00  0.00     0.031 C 
ATOM     70  C   UNL A   1      51.368  33.219  26.319  1.00  0.00     0.037 A 
BRANCH  57  71
ATOM     71  C   UNL A   1      53.444  27.437  25.704  1.00  0.00     0.058 A 
ATOM     72  C   UNL A   1      54.096  27.253  24.476  1.00  0.00     0.135 A 
ATOM     73  C   UNL A   1      53.987  26.805  26.835  1.00  0.00     0.135 A 
ATOM     74  F   UNL A   1      53.606  27.811  23.357  1.00  0.00    -0.206 F 
ATOM     75  C   UNL A   1      55.250  26.479  24.375  1.00  0.00     0.059 A 
ATOM     76  C   UNL A   1      55.152  26.049  26.763  1.00  0.00     0.059 A 
ATOM     77  F   UNL A   1      53.394  26.936  28.032  1.00  0.00    -0.206 F 
ATOM     78  C   UNL A   1      55.777  25.891  25.528  1.00  0.00     0.060 A 
BRANCH  78  79
ATOM     79  S   UNL A   1      57.309  24.946  25.392  1.00  0.00     0.124 S 
ATOM     80  O   UNL A   1      58.218  25.741  26.211  1.00  0.00    -0.237 OA
ATOM     81  O   UNL A   1      56.924  23.651  25.944  1.00  0.00    -0.237 OA
ATOM     82  O   UNL A   1      57.589  24.955  23.958  1.00  0.00    -0.744 OA
ENDBRANCH  78  79
ENDBRANCH  57  71
BRANCH  58  83
ATOM     83  C   UNL A   1      45.366  33.212  27.223  1.00  0.00     0.058 A 
ATOM     84  C   UNL A   1      44.682  33.923  26.227  1.00  0.00     0.135 A 
ATOM     85  C   UNL A   1      44.928  33.366  28.549  1.00  0.00     0.135 A 
ATOM     86  F   UNL A   1      45.061  33.814  24.945  1.00  0.00    -0.206 F 
ATOM     87  C   UNL A   1      43.633  34.784  26.536  1.00  0.00     0.059 A 
ATOM     88  C   UNL A   1      43.860  34.193  28.879  1.00  0.00     0.059 A 
ATOM     89  F   UNL A   1      45.535  32.696  29.541  1.00  0.00    -0.206 F 
ATOM     90  C   UNL A   1      43.232  34.916  27.867  1.00  0.00     0.060 A 
BRANCH  90  91
ATOM     91  S   UNL A   1      41.871  36.035  28.258  1.00  0.00     0.124 S 
ATOM     92  O   UNL A   1      42.581  37.168  28.839  1.00  0.00    -0.237 OA
ATOM     93  O   UNL A   1      41.273  36.260  26.946  1.00  0.00    -0.237 OA
ATOM     94  O   UNL A   1      41.054  35.258  29.185  1.00  0.00    -0.744 OA
ENDBRANCH  90  91
ENDBRANCH  58  83
BRANCH  70  95
ATOM     95  C   UNL A   1      52.167  34.493  26.278  1.00  0.00     0.058 A 
ATOM     96  C   UNL A   1      52.410  35.177  25.077  1.00  0.00     0.135 A 
ATOM     97  C   UNL A   1      52.643  35.065  27.468  1.00  0.00     0.135 A 
ATOM     98  F   UNL A   1      51.980  34.670  23.910  1.00  0.00    -0.206 F 
ATOM     99  C   UNL A   1      53.123  36.371  25.055  1.00  0.00     0.059 A 
ATOM    100  C   UNL A   1      53.327  36.276  27.474  1.00  0.00     0.059 A 
ATOM    101  F   UNL A   1      52.425  34.459  28.646  1.00  0.00    -0.206 F 
ATOM    102  C   UNL A   1      53.574  36.914  26.260  1.00  0.00     0.060 A 
BRANCH 102 103
ATOM    103  S   UNL A   1      54.468  38.481  26.219  1.00  0.00     0.124 S 
ATOM    104  O   UNL A   1      55.750  38.072  25.653  1.00  0.00    -0.237 OA
ATOM    105  O   UNL A   1      53.624  39.299  25.354  1.00  0.00    -0.237 OA
ATOM    106  O   UNL A   1      54.502  38.889  27.620  1.00  0.00    -0.744 OA
ENDBRANCH 102 103
ENDBRANCH  70  95
ENDBRANCH  44  45
ENDBRANCH  37  39
ENDBRANCH  36  37
ENDBRANCH  35  36
ENDBRANCH  34  35
ENDBRANCH  33  34
ENDBRANCH  32  33
ENDBRANCH  31  32
ENDBRANCH   1  31
TORSDOF 26
ENDMDL
