MODEL 1
REMARK VINA RESULT:     -10.5      0.000      0.000
REMARK SMILES Cc1ccccc1OCC(=O)N[C@@H](Cc1c[nH]c2ccccc12)C(=O)OCCOCCOCCOCCOC(=O)c1ccc(-c2c3nc(c(-c4c(F)cc(S(=O)(=O)[O-])cc4F)c4ccc([nH]4)c(-c4c(F)cc(S(=O)(=O)[O-])cc4F)c4nc(c(-c5c(F)cc(S(=O)(=O)[O-])cc5F)c5ccc2[nH]5)C=C4)C=C3)cc1
REMARK SMILES IDX 31 1 30 2 29 3 28 4 27 5 26 6 24 7 25 8 13 9 12 10 10 11
REMARK SMILES IDX 11 12 9 14 8 15 7 16 1 17 2 18 3 19 4 20 6 21 5 22 14 23
REMARK SMILES IDX 15 24 16 25 23 26 17 27 18 28 22 29 19 31 21 32 20 33 32 34
REMARK SMILES IDX 33 35 34 36 35 37 36 38 37 39 38 40 39 41 40 42 41 43 42 44
REMARK SMILES IDX 106 45 43 46 105 47 44 48 45 49 46 50 99 51 47 52 104 53
REMARK SMILES IDX 98 54 100 55 48 56 103 57 97 58 96 59 49 61 83 62 62 63
REMARK SMILES IDX 82 64 63 65 66 66 81 67 101 68 64 69 65 70 80 72 102 73
REMARK SMILES IDX 67 74 50 75 51 76 60 77 52 78 53 79 59 80 61 81 54 82 55 83
REMARK SMILES IDX 56 84 57 85 58 86 84 87 85 88 94 89 86 90 87 91 93 92 95 93
REMARK SMILES IDX 88 94 89 95 90 96 91 97 92 98 68 99 69 100 78 101 70 102
REMARK SMILES IDX 71 103 77 104 79 105 72 106 73 107 74 108 75 109 76 110
REMARK H PARENT 12 13 17 30 100 60 66 71
REMARK Flexibility Score: inf
ROOT
ATOM      1  C   UNL A   1      35.692  19.360  24.975  1.00  0.00     0.188 C 
ENDROOT
BRANCH   1   2
ATOM      2  C   UNL A   1      34.955  18.132  24.414  1.00  0.00     0.188 C 
BRANCH   2   3
ATOM      3  O   UNL A   1      33.675  18.065  24.978  1.00  0.00    -0.376 OA
BRANCH   3   4
ATOM      4  C   UNL A   1      32.579  18.586  24.254  1.00  0.00     0.202 C 
BRANCH   4   5
ATOM      5  C   UNL A   1      32.316  20.060  24.041  1.00  0.00     0.261 C 
BRANCH   5   6
ATOM      6  O   UNL A   1      32.684  20.880  25.117  1.00  0.00    -0.462 OA
BRANCH   6   7
ATOM      7  C   UNL A   1      31.960  22.010  25.140  1.00  0.00     0.329 C 
ATOM      8  O   UNL A   1      30.785  22.114  25.519  1.00  0.00    -0.250 OA
BRANCH   7   9
ATOM      9  C   UNL A   1      32.713  23.126  24.478  1.00  0.00     0.196 C 
BRANCH   9  10
ATOM     10  N   UNL A   1      34.161  22.916  24.505  1.00  0.00    -0.339 N 
ATOM     11  C   UNL A   1      35.113  23.813  24.890  1.00  0.00     0.258 C 
ATOM     12  O   UNL A   1      36.287  23.447  24.969  1.00  0.00    -0.271 OA
ATOM     13  H   UNL A   1      34.482  22.032  24.214  1.00  0.00     0.164 HD
BRANCH  11  14
ATOM     14  C   UNL A   1      34.693  25.255  25.273  1.00  0.00     0.329 C 
BRANCH  14  15
ATOM     15  O   UNL A   1      33.425  25.639  25.786  1.00  0.00    -0.484 OA
BRANCH  15  16
ATOM     16  C   UNL A   1      33.067  26.925  25.511  1.00  0.00     0.122 A 
ATOM     17  C   UNL A   1      31.063  26.903  27.094  1.00  0.00     0.048 C 
ATOM     18  C   UNL A   1      31.996  27.576  26.129  1.00  0.00    -0.009 A 
ATOM     19  C   UNL A   1      31.792  28.933  25.835  1.00  0.00     0.007 A 
ATOM     20  C   UNL A   1      32.615  29.606  24.928  1.00  0.00     0.001 A 
ATOM     21  C   UNL A   1      33.838  27.576  24.540  1.00  0.00     0.047 A 
ATOM     22  C   UNL A   1      33.634  28.925  24.271  1.00  0.00     0.004 A 
ENDBRANCH  15  16
ENDBRANCH  14  15
ENDBRANCH  11  14
ENDBRANCH   9  10
BRANCH   9  23
ATOM     23  C   UNL A   1      32.113  23.317  23.076  1.00  0.00     0.074 C 
BRANCH  23  24
ATOM     24  C   UNL A   1      32.024  24.736  22.593  1.00  0.00    -0.020 A 
ATOM     25  C   UNL A   1      32.857  25.383  21.701  1.00  0.00     0.087 A 
ATOM     26  C   UNL A   1      31.007  25.674  22.956  1.00  0.00     0.003 A 
ATOM     27  N   UNL A   1      32.403  26.667  21.535  1.00  0.00    -0.361 N 
ATOM     28  C   UNL A   1      31.244  26.853  22.253  1.00  0.00     0.046 A 
ATOM     29  C   UNL A   1      29.902  25.611  23.828  1.00  0.00     0.010 A 
ATOM     30  H   UNL A   1      32.843  27.354  20.984  1.00  0.00     0.166 HD
ATOM     31  C   UNL A   1      30.398  27.965  22.345  1.00  0.00     0.026 A 
ATOM     32  C   UNL A   1      29.056  26.716  23.944  1.00  0.00     0.001 A 
ATOM     33  C   UNL A   1      29.294  27.869  23.201  1.00  0.00     0.002 A 
ENDBRANCH  23  24
ENDBRANCH   9  23
ENDBRANCH   7   9
ENDBRANCH   6   7
ENDBRANCH   5   6
ENDBRANCH   4   5
ENDBRANCH   3   4
ENDBRANCH   2   3
ENDBRANCH   1   2
BRANCH   1  34
ATOM     34  O   UNL A   1      36.838  19.831  24.272  1.00  0.00    -0.377 OA
BRANCH  34  35
ATOM     35  C   UNL A   1      37.967  20.124  25.063  1.00  0.00     0.188 C 
BRANCH  35  36
ATOM     36  C   UNL A   1      38.737  18.895  25.554  1.00  0.00     0.188 C 
BRANCH  36  37
ATOM     37  O   UNL A   1      40.140  19.032  25.729  1.00  0.00    -0.376 OA
BRANCH  37  38
ATOM     38  C   UNL A   1      40.563  20.346  26.154  1.00  0.00     0.202 C 
BRANCH  38  39
ATOM     39  C   UNL A   1      41.020  20.515  27.640  1.00  0.00     0.261 C 
BRANCH  39  40
ATOM     40  O   UNL A   1      42.075  21.516  27.705  1.00  0.00    -0.460 OA
BRANCH  40  41
ATOM     41  C   UNL A   1      41.913  22.849  27.878  1.00  0.00     0.338 C 
ATOM     42  O   UNL A   1      41.997  23.377  28.978  1.00  0.00    -0.246 OA
BRANCH  41  43
ATOM     43  C   UNL A   1      41.081  23.477  26.741  1.00  0.00     0.060 A 
ATOM     44  C   UNL A   1      41.809  24.242  25.841  1.00  0.00     0.016 A 
ATOM     45  C   UNL A   1      39.796  23.947  26.957  1.00  0.00     0.016 A 
ATOM     46  C   UNL A   1      41.591  25.629  25.791  1.00  0.00     0.010 A 
ATOM     47  C   UNL A   1      39.580  25.329  26.932  1.00  0.00     0.010 A 
ATOM     48  C   UNL A   1      40.657  26.177  26.671  1.00  0.00    -0.014 A 
BRANCH  48  49
ATOM     49  C   UNL A   1      41.151  27.050  27.830  1.00  0.00     0.031 A 
ATOM     50  C   UNL A   1      40.278  28.161  28.452  1.00  0.00     0.074 A 
ATOM     51  C   UNL A   1      42.328  26.636  28.402  1.00  0.00     0.049 A 
ATOM     52  N   UNL A   1      40.611  29.412  28.689  1.00  0.00    -0.248 NA
ATOM     53  C   UNL A   1      38.879  27.920  28.816  1.00  0.00     0.031 C 
ATOM     54  C   UNL A   1      42.820  26.760  29.754  1.00  0.00     0.029 A 
ATOM     55  N   UNL A   1      43.446  26.040  27.794  1.00  0.00    -0.354 N 
ATOM     56  C   UNL A   1      39.571  30.031  29.430  1.00  0.00     0.074 A 
ATOM     57  C   UNL A   1      38.497  29.068  29.381  1.00  0.00     0.031 C 
ATOM     58  C   UNL A   1      44.149  26.684  29.833  1.00  0.00     0.029 A 
ATOM     59  C   UNL A   1      44.595  26.417  28.512  1.00  0.00     0.049 A 
ATOM     60  H   UNL A   1      43.428  25.457  27.002  1.00  0.00     0.167 HD
ATOM     61  C   UNL A   1      39.710  31.160  30.232  1.00  0.00     0.037 A 
ATOM     62  C   UNL A   1      45.660  26.990  27.926  1.00  0.00     0.037 A 
ATOM     63  C   UNL A   1      41.136  31.529  30.450  1.00  0.00     0.049 A 
ATOM     64  C   UNL A   1      45.754  28.480  28.231  1.00  0.00     0.074 A 
ATOM     65  C   UNL A   1      41.867  31.763  31.612  1.00  0.00     0.029 A 
ATOM     66  N   UNL A   1      42.099  31.440  29.435  1.00  0.00    -0.354 N 
ATOM     67  N   UNL A   1      44.833  29.252  28.787  1.00  0.00    -0.248 NA
ATOM     68  C   UNL A   1      46.992  29.206  27.967  1.00  0.00     0.031 C 
ATOM     69  C   UNL A   1      43.247  31.737  31.311  1.00  0.00     0.029 A 
ATOM     70  C   UNL A   1      43.383  31.526  29.952  1.00  0.00     0.049 A 
ATOM     71  H   UNL A   1      41.891  31.330  28.479  1.00  0.00     0.167 HD
ATOM     72  C   UNL A   1      45.289  30.565  28.798  1.00  0.00     0.074 A 
ATOM     73  C   UNL A   1      46.673  30.444  28.372  1.00  0.00     0.031 C 
ATOM     74  C   UNL A   1      44.560  31.692  29.117  1.00  0.00     0.037 A 
BRANCH  61  75
ATOM     75  C   UNL A   1      38.570  31.763  31.176  1.00  0.00     0.058 A 
ATOM     76  C   UNL A   1      37.932  33.013  30.927  1.00  0.00     0.135 A 
ATOM     77  C   UNL A   1      38.038  31.139  32.328  1.00  0.00     0.135 A 
ATOM     78  F   UNL A   1      38.036  33.636  29.748  1.00  0.00    -0.206 F 
ATOM     79  C   UNL A   1      37.058  33.666  31.821  1.00  0.00     0.059 A 
ATOM     80  C   UNL A   1      37.162  31.767  33.248  1.00  0.00     0.059 A 
ATOM     81  F   UNL A   1      38.250  29.838  32.568  1.00  0.00    -0.206 F 
ATOM     82  C   UNL A   1      36.698  33.050  33.004  1.00  0.00     0.060 A 
BRANCH  82  83
ATOM     83  S   UNL A   1      35.508  33.865  34.102  1.00  0.00     0.124 S 
ATOM     84  O   UNL A   1      35.679  35.272  33.753  1.00  0.00    -0.237 OA
ATOM     85  O   UNL A   1      34.242  33.262  33.697  1.00  0.00    -0.237 OA
ATOM     86  O   UNL A   1      35.970  33.496  35.438  1.00  0.00    -0.744 OA
ENDBRANCH  82  83
ENDBRANCH  61  75
BRANCH  62  87
ATOM     87  C   UNL A   1      46.109  26.096  26.807  1.00  0.00     0.058 A 
ATOM     88  C   UNL A   1      46.751  24.896  27.225  1.00  0.00     0.135 A 
ATOM     89  C   UNL A   1      45.399  26.024  25.600  1.00  0.00     0.135 A 
ATOM     90  F   UNL A   1      47.465  24.894  28.365  1.00  0.00    -0.206 F 
ATOM     91  C   UNL A   1      46.526  23.661  26.606  1.00  0.00     0.059 A 
ATOM     92  C   UNL A   1      45.187  24.795  24.946  1.00  0.00     0.059 A 
ATOM     93  F   UNL A   1      44.746  27.104  25.144  1.00  0.00    -0.206 F 
ATOM     94  C   UNL A   1      45.699  23.609  25.489  1.00  0.00     0.060 A 
BRANCH  94  95
ATOM     95  S   UNL A   1      45.170  21.980  24.854  1.00  0.00     0.124 S 
ATOM     96  O   UNL A   1      46.398  21.199  24.961  1.00  0.00    -0.237 OA
ATOM     97  O   UNL A   1      44.098  21.581  25.758  1.00  0.00    -0.237 OA
ATOM     98  O   UNL A   1      44.734  22.275  23.491  1.00  0.00    -0.744 OA
ENDBRANCH  94  95
ENDBRANCH  62  87
BRANCH  74  99
ATOM     99  C   UNL A   1      44.946  33.158  28.817  1.00  0.00     0.058 A 
ATOM    100  C   UNL A   1      44.574  33.858  27.658  1.00  0.00     0.135 A 
ATOM    101  C   UNL A   1      45.594  33.975  29.796  1.00  0.00     0.135 A 
ATOM    102  F   UNL A   1      43.815  33.298  26.709  1.00  0.00    -0.206 F 
ATOM    103  C   UNL A   1      44.901  35.203  27.441  1.00  0.00     0.059 A 
ATOM    104  C   UNL A   1      45.892  35.324  29.619  1.00  0.00     0.059 A 
ATOM    105  F   UNL A   1      45.938  33.520  31.007  1.00  0.00    -0.206 F 
ATOM    106  C   UNL A   1      45.560  35.929  28.426  1.00  0.00     0.060 A 
BRANCH 106 107
ATOM    107  S   UNL A   1      45.875  37.682  28.184  1.00  0.00     0.124 S 
ATOM    108  O   UNL A   1      46.818  37.959  29.264  1.00  0.00    -0.237 OA
ATOM    109  O   UNL A   1      46.430  37.717  26.834  1.00  0.00    -0.237 OA
ATOM    110  O   UNL A   1      44.556  38.291  28.327  1.00  0.00    -0.744 OA
ENDBRANCH 106 107
ENDBRANCH  74  99
ENDBRANCH  48  49
ENDBRANCH  41  43
ENDBRANCH  40  41
ENDBRANCH  39  40
ENDBRANCH  38  39
ENDBRANCH  37  38
ENDBRANCH  36  37
ENDBRANCH  35  36
ENDBRANCH  34  35
ENDBRANCH   1  34
TORSDOF 29
ENDMDL
MODEL 2
REMARK VINA RESULT:     -10.2      1.347      3.311
REMARK SMILES Cc1ccccc1OCC(=O)N[C@@H](Cc1c[nH]c2ccccc12)C(=O)OCCOCCOCCOCCOC(=O)c1ccc(-c2c3nc(c(-c4c(F)cc(S(=O)(=O)[O-])cc4F)c4ccc([nH]4)c(-c4c(F)cc(S(=O)(=O)[O-])cc4F)c4nc(c(-c5c(F)cc(S(=O)(=O)[O-])cc5F)c5ccc2[nH]5)C=C4)C=C3)cc1
REMARK SMILES IDX 31 1 30 2 29 3 28 4 27 5 26 6 24 7 25 8 13 9 12 10 10 11
REMARK SMILES IDX 11 12 9 14 8 15 7 16 1 17 2 18 3 19 4 20 6 21 5 22 14 23
REMARK SMILES IDX 15 24 16 25 23 26 17 27 18 28 22 29 19 31 21 32 20 33 32 34
REMARK SMILES IDX 33 35 34 36 35 37 36 38 37 39 38 40 39 41 40 42 41 43 42 44
REMARK SMILES IDX 106 45 43 46 105 47 44 48 45 49 46 50 99 51 47 52 104 53
REMARK SMILES IDX 98 54 100 55 48 56 103 57 97 58 96 59 49 61 83 62 62 63
REMARK SMILES IDX 82 64 63 65 66 66 81 67 101 68 64 69 65 70 80 72 102 73
REMARK SMILES IDX 67 74 50 75 51 76 60 77 52 78 53 79 59 80 61 81 54 82 55 83
REMARK SMILES IDX 56 84 57 85 58 86 84 87 85 88 94 89 86 90 87 91 93 92 95 93
REMARK SMILES IDX 88 94 89 95 90 96 91 97 92 98 68 99 69 100 78 101 70 102
REMARK SMILES IDX 71 103 77 104 79 105 72 106 73 107 74 108 75 109 76 110
REMARK H PARENT 12 13 17 30 100 60 66 71
REMARK Flexibility Score: inf
ROOT
ATOM      1  C   UNL A   1      36.566  22.066  23.745  1.00  0.00     0.188 C 
ENDROOT
BRANCH   1   2
ATOM      2  C   UNL A   1      36.194  23.551  23.595  1.00  0.00     0.188 C 
BRANCH   2   3
ATOM      3  O   UNL A   1      34.820  23.659  23.348  1.00  0.00    -0.376 OA
BRANCH   3   4
ATOM      4  C   UNL A   1      34.319  24.844  22.762  1.00  0.00     0.202 C 
BRANCH   4   5
ATOM      5  C   UNL A   1      32.875  25.061  22.370  1.00  0.00     0.261 C 
BRANCH   5   6
ATOM      6  O   UNL A   1      31.990  25.186  23.451  1.00  0.00    -0.462 OA
BRANCH   6   7
ATOM      7  C   UNL A   1      31.088  24.191  23.459  1.00  0.00     0.329 C 
ATOM      8  O   UNL A   1      30.005  24.185  22.857  1.00  0.00    -0.250 OA
BRANCH   7   9
ATOM      9  C   UNL A   1      31.487  23.133  24.444  1.00  0.00     0.196 C 
BRANCH   9  10
ATOM     10  N   UNL A   1      30.532  23.005  25.545  1.00  0.00    -0.339 N 
ATOM     11  C   UNL A   1      30.372  23.859  26.596  1.00  0.00     0.258 C 
ATOM     12  O   UNL A   1      29.442  23.676  27.384  1.00  0.00    -0.271 OA
ATOM     13  H   UNL A   1      29.942  22.216  25.526  1.00  0.00     0.164 HD
BRANCH  11  14
ATOM     14  C   UNL A   1      31.326  25.072  26.747  1.00  0.00     0.329 C 
BRANCH  14  15
ATOM     15  O   UNL A   1      30.924  26.423  26.926  1.00  0.00    -0.484 OA
BRANCH  15  16
ATOM     16  C   UNL A   1      31.634  27.327  26.195  1.00  0.00     0.122 A 
ATOM     17  C   UNL A   1      29.875  27.498  24.351  1.00  0.00     0.048 C 
ATOM     18  C   UNL A   1      31.168  27.893  25.005  1.00  0.00    -0.009 A 
ATOM     19  C   UNL A   1      31.948  28.889  24.399  1.00  0.00     0.007 A 
ATOM     20  C   UNL A   1      33.171  29.282  24.950  1.00  0.00     0.001 A 
ATOM     21  C   UNL A   1      32.897  27.661  26.700  1.00  0.00     0.047 A 
ATOM     22  C   UNL A   1      33.653  28.660  26.097  1.00  0.00     0.004 A 
ENDBRANCH  15  16
ENDBRANCH  14  15
ENDBRANCH  11  14
ENDBRANCH   9  10
BRANCH   9  23
ATOM     23  C   UNL A   1      31.738  21.839  23.652  1.00  0.00     0.074 C 
BRANCH  23  24
ATOM     24  C   UNL A   1      32.693  20.865  24.281  1.00  0.00    -0.020 A 
ATOM     25  C   UNL A   1      33.485  21.053  25.397  1.00  0.00     0.087 A 
ATOM     26  C   UNL A   1      32.920  19.524  23.840  1.00  0.00     0.003 A 
ATOM     27  N   UNL A   1      34.193  19.900  25.627  1.00  0.00    -0.361 N 
ATOM     28  C   UNL A   1      33.826  18.933  24.719  1.00  0.00     0.046 A 
ATOM     29  C   UNL A   1      32.425  18.764  22.762  1.00  0.00     0.010 A 
ATOM     30  H   UNL A   1      34.864  19.782  26.337  1.00  0.00     0.166 HD
ATOM     31  C   UNL A   1      34.229  17.598  24.597  1.00  0.00     0.026 A 
ATOM     32  C   UNL A   1      32.827  17.435  22.616  1.00  0.00     0.001 A 
ATOM     33  C   UNL A   1      33.704  16.859  23.531  1.00  0.00     0.002 A 
ENDBRANCH  23  24
ENDBRANCH   9  23
ENDBRANCH   7   9
ENDBRANCH   6   7
ENDBRANCH   5   6
ENDBRANCH   4   5
ENDBRANCH   3   4
ENDBRANCH   2   3
ENDBRANCH   1   2
BRANCH   1  34
ATOM     34  O   UNL A   1      37.505  21.711  24.755  1.00  0.00    -0.377 OA
BRANCH  34  35
ATOM     35  C   UNL A   1      37.629  20.331  25.022  1.00  0.00     0.188 C 
BRANCH  35  36
ATOM     36  C   UNL A   1      39.062  19.860  25.282  1.00  0.00     0.188 C 
BRANCH  36  37
ATOM     37  O   UNL A   1      39.659  20.240  26.514  1.00  0.00    -0.376 OA
BRANCH  37  38
ATOM     38  C   UNL A   1      41.068  19.935  26.614  1.00  0.00     0.202 C 
BRANCH  38  39
ATOM     39  C   UNL A   1      41.834  20.452  27.875  1.00  0.00     0.261 C 
BRANCH  39  40
ATOM     40  O   UNL A   1      42.541  21.678  27.535  1.00  0.00    -0.460 OA
BRANCH  40  41
ATOM     41  C   UNL A   1      42.134  22.943  27.793  1.00  0.00     0.338 C 
ATOM     42  O   UNL A   1      41.997  23.363  28.934  1.00  0.00    -0.246 OA
BRANCH  41  43
ATOM     43  C   UNL A   1      41.344  23.543  26.612  1.00  0.00     0.060 A 
ATOM     44  C   UNL A   1      42.094  24.332  25.751  1.00  0.00     0.016 A 
ATOM     45  C   UNL A   1      40.034  23.968  26.756  1.00  0.00     0.016 A 
ATOM     46  C   UNL A   1      41.832  25.711  25.687  1.00  0.00     0.010 A 
ATOM     47  C   UNL A   1      39.773  25.343  26.717  1.00  0.00     0.010 A 
ATOM     48  C   UNL A   1      40.833  26.227  26.514  1.00  0.00    -0.014 A 
BRANCH  48  49
ATOM     49  C   UNL A   1      41.233  27.115  27.696  1.00  0.00     0.031 A 
ATOM     50  C   UNL A   1      40.315  28.237  28.229  1.00  0.00     0.074 A 
ATOM     51  C   UNL A   1      42.359  26.709  28.369  1.00  0.00     0.049 A 
ATOM     52  N   UNL A   1      40.631  29.491  28.475  1.00  0.00    -0.248 NA
ATOM     53  C   UNL A   1      38.891  28.003  28.481  1.00  0.00     0.031 C 
ATOM     54  C   UNL A   1      42.739  26.852  29.755  1.00  0.00     0.029 A 
ATOM     55  N   UNL A   1      43.521  26.102  27.863  1.00  0.00    -0.354 N 
ATOM     56  C   UNL A   1      39.536  30.122  29.120  1.00  0.00     0.074 A 
ATOM     57  C   UNL A   1      38.466  29.160  28.996  1.00  0.00     0.031 C 
ATOM     58  C   UNL A   1      44.057  26.775  29.943  1.00  0.00     0.029 A 
ATOM     59  C   UNL A   1      44.608  26.488  28.667  1.00  0.00     0.049 A 
ATOM     60  H   UNL A   1      43.566  25.507  27.080  1.00  0.00     0.167 HD
ATOM     61  C   UNL A   1      39.611  31.262  29.914  1.00  0.00     0.037 A 
ATOM     62  C   UNL A   1      45.719  27.051  28.161  1.00  0.00     0.037 A 
ATOM     63  C   UNL A   1      41.016  31.633  30.242  1.00  0.00     0.049 A 
ATOM     64  C   UNL A   1      45.792  28.545  28.452  1.00  0.00     0.074 A 
ATOM     65  C   UNL A   1      41.650  31.882  31.456  1.00  0.00     0.029 A 
ATOM     66  N   UNL A   1      42.058  31.527  29.310  1.00  0.00    -0.354 N 
ATOM     67  N   UNL A   1      44.830  29.326  28.919  1.00  0.00    -0.248 NA
ATOM     68  C   UNL A   1      47.049  29.266  28.279  1.00  0.00     0.031 C 
ATOM     69  C   UNL A   1      43.050  31.850  31.270  1.00  0.00     0.029 A 
ATOM     70  C   UNL A   1      43.295  31.619  29.929  1.00  0.00     0.049 A 
ATOM     71  H   UNL A   1      41.929  31.404  28.342  1.00  0.00     0.167 HD
ATOM     72  C   UNL A   1      45.287  30.639  28.948  1.00  0.00     0.074 A 
ATOM     73  C   UNL A   1      46.701  30.509  28.638  1.00  0.00     0.031 C 
ATOM     74  C   UNL A   1      44.538  31.771  29.190  1.00  0.00     0.037 A 
BRANCH  61  75
ATOM     75  C   UNL A   1      38.400  31.881  30.752  1.00  0.00     0.058 A 
ATOM     76  C   UNL A   1      37.356  32.652  30.163  1.00  0.00     0.135 A 
ATOM     77  C   UNL A   1      38.193  31.720  32.142  1.00  0.00     0.135 A 
ATOM     78  F   UNL A   1      37.161  32.680  28.839  1.00  0.00    -0.206 F 
ATOM     79  C   UNL A   1      36.373  33.364  30.881  1.00  0.00     0.059 A 
ATOM     80  C   UNL A   1      37.218  32.422  32.894  1.00  0.00     0.059 A 
ATOM     81  F   UNL A   1      38.854  30.783  32.834  1.00  0.00    -0.206 F 
ATOM     82  C   UNL A   1      36.327  33.273  32.259  1.00  0.00     0.060 A 
BRANCH  82  83
ATOM     83  S   UNL A   1      35.007  34.126  33.160  1.00  0.00     0.124 S 
ATOM     84  O   UNL A   1      34.648  33.148  34.182  1.00  0.00    -0.237 OA
ATOM     85  O   UNL A   1      35.681  35.327  33.644  1.00  0.00    -0.237 OA
ATOM     86  O   UNL A   1      33.990  34.357  32.137  1.00  0.00    -0.744 OA
ENDBRANCH  82  83
ENDBRANCH  61  75
BRANCH  62  87
ATOM     87  C   UNL A   1      46.256  26.140  27.096  1.00  0.00     0.058 A 
ATOM     88  C   UNL A   1      46.645  24.850  27.556  1.00  0.00     0.135 A 
ATOM     89  C   UNL A   1      45.787  26.205  25.776  1.00  0.00     0.135 A 
ATOM     90  F   UNL A   1      47.120  24.714  28.807  1.00  0.00    -0.206 F 
ATOM     91  C   UNL A   1      46.386  23.679  26.836  1.00  0.00     0.059 A 
ATOM     92  C   UNL A   1      45.548  25.039  25.024  1.00  0.00     0.059 A 
ATOM     93  F   UNL A   1      45.379  27.378  25.270  1.00  0.00    -0.206 F 
ATOM     94  C   UNL A   1      45.790  23.777  25.583  1.00  0.00     0.060 A 
BRANCH  94  95
ATOM     95  S   UNL A   1      45.187  22.257  24.769  1.00  0.00     0.124 S 
ATOM     96  O   UNL A   1      44.262  22.792  23.775  1.00  0.00    -0.237 OA
ATOM     97  O   UNL A   1      46.394  21.643  24.229  1.00  0.00    -0.237 OA
ATOM     98  O   UNL A   1      44.566  21.513  25.862  1.00  0.00    -0.744 OA
ENDBRANCH  94  95
ENDBRANCH  62  87
BRANCH  74  99
ATOM     99  C   UNL A   1      44.950  33.232  28.902  1.00  0.00     0.058 A 
ATOM    100  C   UNL A   1      45.814  33.990  29.709  1.00  0.00     0.135 A 
ATOM    101  C   UNL A   1      44.594  33.881  27.678  1.00  0.00     0.135 A 
ATOM    102  F   UNL A   1      46.380  33.479  30.808  1.00  0.00    -0.206 F 
ATOM    103  C   UNL A   1      46.204  35.298  29.391  1.00  0.00     0.059 A 
ATOM    104  C   UNL A   1      45.005  35.163  27.322  1.00  0.00     0.059 A 
ATOM    105  F   UNL A   1      43.860  33.287  26.729  1.00  0.00    -0.206 F 
ATOM    106  C   UNL A   1      45.795  35.877  28.197  1.00  0.00     0.060 A 
BRANCH 106 107
ATOM    107  S   UNL A   1      46.392  37.512  27.746  1.00  0.00     0.124 S 
ATOM    108  O   UNL A   1      45.509  37.847  26.632  1.00  0.00    -0.237 OA
ATOM    109  O   UNL A   1      46.179  38.272  28.974  1.00  0.00    -0.237 OA
ATOM    110  O   UNL A   1      47.790  37.282  27.394  1.00  0.00    -0.744 OA
ENDBRANCH 106 107
ENDBRANCH  74  99
ENDBRANCH  48  49
ENDBRANCH  41  43
ENDBRANCH  40  41
ENDBRANCH  39  40
ENDBRANCH  38  39
ENDBRANCH  37  38
ENDBRANCH  36  37
ENDBRANCH  35  36
ENDBRANCH  34  35
ENDBRANCH   1  34
TORSDOF 29
ENDMDL
MODEL 3
REMARK VINA RESULT:      -9.9      4.038      9.743
REMARK SMILES Cc1ccccc1OCC(=O)N[C@@H](Cc1c[nH]c2ccccc12)C(=O)OCCOCCOCCOCCOC(=O)c1ccc(-c2c3nc(c(-c4c(F)cc(S(=O)(=O)[O-])cc4F)c4ccc([nH]4)c(-c4c(F)cc(S(=O)(=O)[O-])cc4F)c4nc(c(-c5c(F)cc(S(=O)(=O)[O-])cc5F)c5ccc2[nH]5)C=C4)C=C3)cc1
REMARK SMILES IDX 31 1 30 2 29 3 28 4 27 5 26 6 24 7 25 8 13 9 12 10 10 11
REMARK SMILES IDX 11 12 9 14 8 15 7 16 1 17 2 18 3 19 4 20 6 21 5 22 14 23
REMARK SMILES IDX 15 24 16 25 23 26 17 27 18 28 22 29 19 31 21 32 20 33 32 34
REMARK SMILES IDX 33 35 34 36 35 37 36 38 37 39 38 40 39 41 40 42 41 43 42 44
REMARK SMILES IDX 106 45 43 46 105 47 44 48 45 49 46 50 99 51 47 52 104 53
REMARK SMILES IDX 98 54 100 55 48 56 103 57 97 58 96 59 49 61 83 62 62 63
REMARK SMILES IDX 82 64 63 65 66 66 81 67 101 68 64 69 65 70 80 72 102 73
REMARK SMILES IDX 67 74 50 75 51 76 60 77 52 78 53 79 59 80 61 81 54 82 55 83
REMARK SMILES IDX 56 84 57 85 58 86 84 87 85 88 94 89 86 90 87 91 93 92 95 93
REMARK SMILES IDX 88 94 89 95 90 96 91 97 92 98 68 99 69 100 78 101 70 102
REMARK SMILES IDX 71 103 77 104 79 105 72 106 73 107 74 108 75 109 76 110
REMARK H PARENT 12 13 17 30 100 60 66 71
REMARK Flexibility Score: inf
ROOT
ATOM      1  C   UNL A   1      35.693  22.470  23.434  1.00  0.00     0.188 C 
ENDROOT
BRANCH   1   2
ATOM      2  C   UNL A   1      35.179  23.708  22.679  1.00  0.00     0.188 C 
BRANCH   2   3
ATOM      3  O   UNL A   1      34.023  23.365  21.966  1.00  0.00    -0.376 OA
BRANCH   3   4
ATOM      4  C   UNL A   1      33.272  24.388  21.345  1.00  0.00     0.202 C 
BRANCH   4   5
ATOM      5  C   UNL A   1      32.254  25.253  22.053  1.00  0.00     0.261 C 
BRANCH   5   6
ATOM      6  O   UNL A   1      32.060  24.937  23.405  1.00  0.00    -0.462 OA
BRANCH   6   7
ATOM      7  C   UNL A   1      31.080  24.032  23.559  1.00  0.00     0.329 C 
ATOM      8  O   UNL A   1      29.937  24.109  23.087  1.00  0.00    -0.250 OA
BRANCH   7   9
ATOM      9  C   UNL A   1      31.497  22.971  24.533  1.00  0.00     0.196 C 
BRANCH   9  10
ATOM     10  N   UNL A   1      30.576  22.856  25.664  1.00  0.00    -0.339 N 
ATOM     11  C   UNL A   1      30.341  23.788  26.631  1.00  0.00     0.258 C 
ATOM     12  O   UNL A   1      29.446  23.590  27.453  1.00  0.00    -0.271 OA
ATOM     13  H   UNL A   1      30.069  22.013  25.734  1.00  0.00     0.164 HD
BRANCH  11  14
ATOM     14  C   UNL A   1      31.166  25.101  26.641  1.00  0.00     0.329 C 
BRANCH  14  15
ATOM     15  O   UNL A   1      30.629  26.416  26.666  1.00  0.00    -0.484 OA
BRANCH  15  16
ATOM     16  C   UNL A   1      31.442  27.371  26.134  1.00  0.00     0.122 A 
ATOM     17  C   UNL A   1      30.060  27.626  24.002  1.00  0.00     0.048 C 
ATOM     18  C   UNL A   1      31.196  27.999  24.910  1.00  0.00    -0.009 A 
ATOM     19  C   UNL A   1      32.052  29.040  24.520  1.00  0.00     0.007 A 
ATOM     20  C   UNL A   1      33.139  29.416  25.314  1.00  0.00     0.001 A 
ATOM     21  C   UNL A   1      32.578  27.691  26.888  1.00  0.00     0.047 A 
ATOM     22  C   UNL A   1      33.410  28.734  26.496  1.00  0.00     0.004 A 
ENDBRANCH  15  16
ENDBRANCH  14  15
ENDBRANCH  11  14
ENDBRANCH   9  10
BRANCH   9  23
ATOM     23  C   UNL A   1      31.710  21.674  23.737  1.00  0.00     0.074 C 
BRANCH  23  24
ATOM     24  C   UNL A   1      32.702  20.707  24.318  1.00  0.00    -0.020 A 
ATOM     25  C   UNL A   1      33.505  20.880  25.428  1.00  0.00     0.087 A 
ATOM     26  C   UNL A   1      32.961  19.389  23.827  1.00  0.00     0.003 A 
ATOM     27  N   UNL A   1      34.249  19.741  25.608  1.00  0.00    -0.361 N 
ATOM     28  C   UNL A   1      33.898  18.796  24.672  1.00  0.00     0.046 A 
ATOM     29  C   UNL A   1      32.472  18.653  22.730  1.00  0.00     0.010 A 
ATOM     30  H   UNL A   1      34.935  19.619  26.304  1.00  0.00     0.166 HD
ATOM     31  C   UNL A   1      34.337  17.478  24.498  1.00  0.00     0.026 A 
ATOM     32  C   UNL A   1      32.911  17.342  22.532  1.00  0.00     0.001 A 
ATOM     33  C   UNL A   1      33.818  16.761  23.413  1.00  0.00     0.002 A 
ENDBRANCH  23  24
ENDBRANCH   9  23
ENDBRANCH   7   9
ENDBRANCH   6   7
ENDBRANCH   5   6
ENDBRANCH   4   5
ENDBRANCH   3   4
ENDBRANCH   2   3
ENDBRANCH   1   2
BRANCH   1  34
ATOM     34  O   UNL A   1      37.070  22.434  23.799  1.00  0.00    -0.377 OA
BRANCH  34  35
ATOM     35  C   UNL A   1      37.428  21.459  24.752  1.00  0.00     0.188 C 
BRANCH  35  36
ATOM     36  C   UNL A   1      38.454  21.928  25.787  1.00  0.00     0.188 C 
BRANCH  36  37
ATOM     37  O   UNL A   1      39.373  20.961  26.277  1.00  0.00    -0.376 OA
BRANCH  37  38
ATOM     38  C   UNL A   1      40.574  21.519  26.854  1.00  0.00     0.202 C 
BRANCH  38  39
ATOM     39  C   UNL A   1      41.295  22.660  26.064  1.00  0.00     0.261 C 
BRANCH  39  40
ATOM     40  O   UNL A   1      40.786  23.948  26.512  1.00  0.00    -0.460 OA
BRANCH  40  41
ATOM     41  C   UNL A   1      41.521  25.018  26.895  1.00  0.00     0.338 C 
ATOM     42  O   UNL A   1      42.405  24.933  27.736  1.00  0.00    -0.246 OA
BRANCH  41  43
ATOM     43  C   UNL A   1      40.779  26.345  26.634  1.00  0.00     0.060 A 
ATOM     44  C   UNL A   1      41.497  27.280  25.902  1.00  0.00     0.016 A 
ATOM     45  C   UNL A   1      39.943  26.908  27.584  1.00  0.00     0.016 A 
ATOM     46  C   UNL A   1      41.908  28.469  26.529  1.00  0.00     0.010 A 
ATOM     47  C   UNL A   1      40.360  28.079  28.227  1.00  0.00     0.010 A 
ATOM     48  C   UNL A   1      41.586  28.644  27.875  1.00  0.00    -0.014 A 
BRANCH  48  49
ATOM     49  C   UNL A   1      42.705  28.586  28.920  1.00  0.00     0.031 A 
ATOM     50  C   UNL A   1      44.076  27.941  28.620  1.00  0.00     0.074 A 
ATOM     51  C   UNL A   1      42.475  29.324  30.054  1.00  0.00     0.049 A 
ATOM     52  N   UNL A   1      44.725  27.051  29.340  1.00  0.00    -0.248 NA
ATOM     53  C   UNL A   1      44.811  28.247  27.390  1.00  0.00     0.031 C 
ATOM     54  C   UNL A   1      43.388  29.996  30.949  1.00  0.00     0.029 A 
ATOM     55  N   UNL A   1      41.263  29.564  30.723  1.00  0.00    -0.354 N 
ATOM     56  C   UNL A   1      46.020  26.871  28.790  1.00  0.00     0.074 A 
ATOM     57  C   UNL A   1      45.956  27.573  27.530  1.00  0.00     0.031 C 
ATOM     58  C   UNL A   1      42.874  30.193  32.164  1.00  0.00     0.029 A 
ATOM     59  C   UNL A   1      41.537  29.722  32.093  1.00  0.00     0.049 A 
ATOM     60  H   UNL A   1      40.374  29.615  30.303  1.00  0.00     0.167 HD
ATOM     61  C   UNL A   1      47.129  26.379  29.472  1.00  0.00     0.037 A 
ATOM     62  C   UNL A   1      40.923  28.995  33.042  1.00  0.00     0.037 A 
ATOM     63  C   UNL A   1      46.897  26.288  30.940  1.00  0.00     0.049 A 
ATOM     64  C   UNL A   1      41.836  27.927  33.632  1.00  0.00     0.074 A 
ATOM     65  C   UNL A   1      47.617  26.780  32.026  1.00  0.00     0.029 A 
ATOM     66  N   UNL A   1      45.673  25.871  31.483  1.00  0.00    -0.354 N 
ATOM     67  N   UNL A   1      43.012  27.526  33.174  1.00  0.00    -0.248 NA
ATOM     68  C   UNL A   1      41.476  27.261  34.879  1.00  0.00     0.031 C 
ATOM     69  C   UNL A   1      46.811  26.731  33.185  1.00  0.00     0.029 A 
ATOM     70  C   UNL A   1      45.596  26.170  32.835  1.00  0.00     0.049 A 
ATOM     71  H   UNL A   1      44.961  25.424  30.972  1.00  0.00     0.167 HD
ATOM     72  C   UNL A   1      43.464  26.468  33.955  1.00  0.00     0.074 A 
ATOM     73  C   UNL A   1      42.513  26.430  35.053  1.00  0.00     0.031 C 
ATOM     74  C   UNL A   1      44.548  25.654  33.699  1.00  0.00     0.037 A 
BRANCH  61  75
ATOM     75  C   UNL A   1      48.615  26.316  28.888  1.00  0.00     0.058 A 
ATOM     76  C   UNL A   1      49.601  27.311  29.153  1.00  0.00     0.135 A 
ATOM     77  C   UNL A   1      49.140  25.279  28.083  1.00  0.00     0.135 A 
ATOM     78  F   UNL A   1      49.446  28.215  30.127  1.00  0.00    -0.206 F 
ATOM     79  C   UNL A   1      50.858  27.391  28.520  1.00  0.00     0.059 A 
ATOM     80  C   UNL A   1      50.397  25.330  27.429  1.00  0.00     0.059 A 
ATOM     81  F   UNL A   1      48.509  24.102  27.975  1.00  0.00    -0.206 F 
ATOM     82  C   UNL A   1      51.243  26.410  27.627  1.00  0.00     0.060 A 
BRANCH  82  83
ATOM     83  S   UNL A   1      52.895  26.483  26.886  1.00  0.00     0.124 S 
ATOM     84  O   UNL A   1      53.761  26.234  28.034  1.00  0.00    -0.237 OA
ATOM     85  O   UNL A   1      52.841  25.416  25.891  1.00  0.00    -0.237 OA
ATOM     86  O   UNL A   1      52.963  27.836  26.339  1.00  0.00    -0.744 OA
ENDBRANCH  82  83
ENDBRANCH  61  75
BRANCH  62  87
ATOM     87  C   UNL A   1      39.441  29.157  32.864  1.00  0.00     0.058 A 
ATOM     88  C   UNL A   1      38.942  30.452  33.181  1.00  0.00     0.135 A 
ATOM     89  C   UNL A   1      38.745  28.458  31.868  1.00  0.00     0.135 A 
ATOM     90  F   UNL A   1      39.549  31.175  34.139  1.00  0.00    -0.206 F 
ATOM     91  C   UNL A   1      37.959  31.093  32.418  1.00  0.00     0.059 A 
ATOM     92  C   UNL A   1      37.733  29.076  31.108  1.00  0.00     0.059 A 
ATOM     93  F   UNL A   1      39.162  27.240  31.492  1.00  0.00    -0.206 F 
ATOM     94  C   UNL A   1      37.389  30.414  31.347  1.00  0.00     0.060 A 
BRANCH  94  95
ATOM     95  S   UNL A   1      36.329  31.334  30.178  1.00  0.00     0.124 S 
ATOM     96  O   UNL A   1      35.188  31.686  31.016  1.00  0.00    -0.237 OA
ATOM     97  O   UNL A   1      37.161  32.455  29.755  1.00  0.00    -0.237 OA
ATOM     98  O   UNL A   1      36.054  30.355  29.129  1.00  0.00    -0.744 OA
ENDBRANCH  94  95
ENDBRANCH  62  87
BRANCH  74  99
ATOM     99  C   UNL A   1      44.861  24.295  34.363  1.00  0.00     0.058 A 
ATOM    100  C   UNL A   1      44.453  23.049  33.858  1.00  0.00     0.135 A 
ATOM    101  C   UNL A   1      45.743  24.196  35.484  1.00  0.00     0.135 A 
ATOM    102  F   UNL A   1      43.762  22.944  32.716  1.00  0.00    -0.206 F 
ATOM    103  C   UNL A   1      44.796  21.832  34.460  1.00  0.00     0.059 A 
ATOM    104  C   UNL A   1      46.130  22.995  36.073  1.00  0.00     0.059 A 
ATOM    105  F   UNL A   1      46.321  25.263  36.048  1.00  0.00    -0.206 F 
ATOM    106  C   UNL A   1      45.634  21.813  35.567  1.00  0.00     0.060 A 
BRANCH 106 107
ATOM    107  S   UNL A   1      46.158  20.241  36.265  1.00  0.00     0.124 S 
ATOM    108  O   UNL A   1      45.282  19.306  35.566  1.00  0.00    -0.237 OA
ATOM    109  O   UNL A   1      47.569  20.189  35.892  1.00  0.00    -0.237 OA
ATOM    110  O   UNL A   1      45.901  20.397  37.694  1.00  0.00    -0.744 OA
ENDBRANCH 106 107
ENDBRANCH  74  99
ENDBRANCH  48  49
ENDBRANCH  41  43
ENDBRANCH  40  41
ENDBRANCH  39  40
ENDBRANCH  38  39
ENDBRANCH  37  38
ENDBRANCH  36  37
ENDBRANCH  35  36
ENDBRANCH  34  35
ENDBRANCH   1  34
TORSDOF 29
ENDMDL
