MODEL 1
REMARK VINA RESULT:      -9.7      0.000      0.000
REMARK SMILES Cc1nc2n(n1)[C@@H](c1ccc([N+](=O)[O-])o1)CC(C(=O)OCCOCCOCCOCCOC(=O)c1ccc(-c3c4nc(c(-c5c(F)cc(S(=O)(=O)[O-])cc5F)c5ccc([nH]5)c(-c5c(F)cc(S(=O)(=O)[O-])cc5F)c5nc(c(-c6c(F)cc(S(=O)(=O)[O-])cc6F)c6ccc3[nH]6)C=C5)C=C4)cc1)=N2
REMARK SMILES IDX 27 1 26 2 25 3 24 4 23 5 22 6 21 7 20 8 18 9 19 10 17 11
REMARK SMILES IDX 1 12 2 13 3 14 6 15 4 16 5 17 101 18 7 19 16 20 8 21 9 22
REMARK SMILES IDX 15 23 10 24 11 25 12 26 13 27 14 28 28 29 29 30 30 31 31 32
REMARK SMILES IDX 32 33 33 34 34 35 35 36 36 37 100 38 37 39 99 40 38 41 39 42
REMARK SMILES IDX 40 43 93 44 41 45 98 46 92 47 94 48 42 49 97 50 91 51 90 52
REMARK SMILES IDX 43 54 77 55 56 56 76 57 57 58 60 59 75 60 95 61 58 62 59 63
REMARK SMILES IDX 74 65 96 66 61 67 44 68 45 69 54 70 46 71 47 72 53 73 55 74
REMARK SMILES IDX 48 75 49 76 50 77 51 78 52 79 78 80 79 81 88 82 80 83 81 84
REMARK SMILES IDX 87 85 89 86 82 87 83 88 84 89 85 90 86 91 62 92 63 93 72 94
REMARK SMILES IDX 64 95 65 96 71 97 73 98 66 99 67 100 68 101 69 102 70 103
REMARK H PARENT 94 53 60 64
REMARK Flexibility Score: inf
ROOT
ATOM      1  C   UNL A   1      35.548  21.864  26.126  1.00  0.00     0.188 C 
ENDROOT
BRANCH   1   2
ATOM      2  O   UNL A   1      34.898  23.095  25.801  1.00  0.00    -0.377 OA
BRANCH   2   3
ATOM      3  C   UNL A   1      34.083  23.636  26.828  1.00  0.00     0.188 C 
BRANCH   3   4
ATOM      4  C   UNL A   1      32.617  23.143  26.850  1.00  0.00     0.188 C 
BRANCH   4   5
ATOM      5  O   UNL A   1      31.753  23.262  25.721  1.00  0.00    -0.376 OA
BRANCH   5   6
ATOM      6  C   UNL A   1      31.433  22.134  24.918  1.00  0.00     0.202 C 
BRANCH   6   7
ATOM      7  C   UNL A   1      32.272  21.878  23.661  1.00  0.00     0.261 C 
BRANCH   7   8
ATOM      8  O   UNL A   1      32.228  22.975  22.742  1.00  0.00    -0.459 OA
BRANCH   8   9
ATOM      9  C   UNL A   1      33.326  23.745  22.687  1.00  0.00     0.352 C 
ATOM     10  O   UNL A   1      34.465  23.428  22.409  1.00  0.00    -0.245 OA
BRANCH   9  11
ATOM     11  C   UNL A   1      32.922  25.191  22.940  1.00  0.00     0.132 C 
ATOM     12  C   UNL A   1      29.783  29.909  21.839  1.00  0.00     0.092 C 
ATOM     13  C   UNL A   1      30.654  28.826  22.338  1.00  0.00     0.149 A 
ATOM     14  N   UNL A   1      30.435  27.515  22.022  1.00  0.00    -0.195 NA
ATOM     15  N   UNL A   1      31.754  29.052  23.066  1.00  0.00    -0.154 NA
ATOM     16  C   UNL A   1      31.456  26.879  22.552  1.00  0.00     0.249 A 
ATOM     17  N   UNL A   1      32.204  27.792  23.245  1.00  0.00    -0.219 N 
ATOM     18  N   UNL A   1      31.810  25.587  22.406  1.00  0.00    -0.209 NA
ATOM     19  C   UNL A   1      33.450  27.490  23.925  1.00  0.00     0.184 C 
ATOM     20  C   UNL A   1      33.836  26.008  23.818  1.00  0.00     0.100 C 
BRANCH  19  21
ATOM     21  C   UNL A   1      33.429  27.971  25.355  1.00  0.00     0.136 A 
ATOM     22  C   UNL A   1      32.664  27.679  26.475  1.00  0.00     0.056 A 
ATOM     23  O   UNL A   1      34.314  28.974  25.661  1.00  0.00    -0.404 OA
ATOM     24  C   UNL A   1      33.092  28.545  27.515  1.00  0.00     0.134 A 
ATOM     25  C   UNL A   1      34.097  29.300  26.965  1.00  0.00     0.433 A 
BRANCH  25  26
ATOM     26  N   UNL A   1      34.898  30.354  27.504  1.00  0.00     0.102 N 
ATOM     27  O   UNL A   1      34.286  31.293  28.030  1.00  0.00    -0.256 OA
ATOM     28  O   UNL A   1      36.126  30.255  27.392  1.00  0.00    -0.256 OA
ENDBRANCH  25  26
ENDBRANCH  19  21
ENDBRANCH   9  11
ENDBRANCH   8   9
ENDBRANCH   7   8
ENDBRANCH   6   7
ENDBRANCH   5   6
ENDBRANCH   4   5
ENDBRANCH   3   4
ENDBRANCH   2   3
ENDBRANCH   1   2
BRANCH   1  29
ATOM     29  C   UNL A   1      35.943  20.984  24.927  1.00  0.00     0.188 C 
BRANCH  29  30
ATOM     30  O   UNL A   1      37.360  20.894  24.767  1.00  0.00    -0.376 OA
BRANCH  30  31
ATOM     31  C   UNL A   1      38.154  21.624  25.699  1.00  0.00     0.202 C 
BRANCH  31  32
ATOM     32  C   UNL A   1      39.473  20.942  26.093  1.00  0.00     0.261 C 
BRANCH  32  33
ATOM     33  O   UNL A   1      40.030  21.411  27.332  1.00  0.00    -0.460 OA
BRANCH  33  34
ATOM     34  C   UNL A   1      41.293  21.880  27.249  1.00  0.00     0.338 C 
ATOM     35  O   UNL A   1      42.316  21.237  27.121  1.00  0.00    -0.246 OA
BRANCH  34  36
ATOM     36  C   UNL A   1      41.248  23.339  27.243  1.00  0.00     0.060 A 
ATOM     37  C   UNL A   1      41.480  24.029  26.050  1.00  0.00     0.016 A 
ATOM     38  C   UNL A   1      41.165  23.997  28.466  1.00  0.00     0.016 A 
ATOM     39  C   UNL A   1      41.709  25.398  26.095  1.00  0.00     0.010 A 
ATOM     40  C   UNL A   1      41.429  25.359  28.509  1.00  0.00     0.010 A 
ATOM     41  C   UNL A   1      41.751  26.058  27.334  1.00  0.00    -0.014 A 
BRANCH  41  42
ATOM     42  C   UNL A   1      42.294  27.435  27.382  1.00  0.00     0.031 A 
ATOM     43  C   UNL A   1      41.352  28.507  27.819  1.00  0.00     0.074 A 
ATOM     44  C   UNL A   1      43.599  27.601  27.700  1.00  0.00     0.049 A 
ATOM     45  N   UNL A   1      41.006  28.644  29.065  1.00  0.00    -0.248 NA
ATOM     46  C   UNL A   1      40.549  29.304  26.894  1.00  0.00     0.031 C 
ATOM     47  C   UNL A   1      44.386  26.589  28.430  1.00  0.00     0.029 A 
ATOM     48  N   UNL A   1      44.413  28.708  27.683  1.00  0.00    -0.354 N 
ATOM     49  C   UNL A   1      39.888  29.450  29.097  1.00  0.00     0.074 A 
ATOM     50  C   UNL A   1      39.665  29.873  27.732  1.00  0.00     0.031 C 
ATOM     51  C   UNL A   1      45.482  27.176  28.945  1.00  0.00     0.029 A 
ATOM     52  C   UNL A   1      45.559  28.549  28.463  1.00  0.00     0.049 A 
ATOM     53  H   UNL A   1      44.209  29.527  27.175  1.00  0.00     0.167 HD
ATOM     54  C   UNL A   1      39.190  29.678  30.238  1.00  0.00     0.037 A 
ATOM     55  C   UNL A   1      46.213  29.543  29.120  1.00  0.00     0.037 A 
ATOM     56  C   UNL A   1      39.688  29.030  31.417  1.00  0.00     0.049 A 
ATOM     57  C   UNL A   1      45.215  29.887  30.197  1.00  0.00     0.074 A 
ATOM     58  C   UNL A   1      39.434  27.865  32.108  1.00  0.00     0.029 A 
ATOM     59  N   UNL A   1      40.742  29.610  32.083  1.00  0.00    -0.354 N 
ATOM     60  N   UNL A   1      45.029  29.227  31.311  1.00  0.00    -0.248 NA
ATOM     61  C   UNL A   1      44.133  30.813  29.854  1.00  0.00     0.031 C 
ATOM     62  C   UNL A   1      40.621  27.597  32.858  1.00  0.00     0.029 A 
ATOM     63  C   UNL A   1      41.544  28.589  32.530  1.00  0.00     0.049 A 
ATOM     64  H   UNL A   1      40.893  30.575  32.214  1.00  0.00     0.167 HD
ATOM     65  C   UNL A   1      43.693  29.445  31.653  1.00  0.00     0.074 A 
ATOM     66  C   UNL A   1      43.213  30.463  30.743  1.00  0.00     0.031 C 
ATOM     67  C   UNL A   1      42.990  28.656  32.519  1.00  0.00     0.037 A 
BRANCH  54  68
ATOM     68  C   UNL A   1      38.047  30.599  30.354  1.00  0.00     0.058 A 
ATOM     69  C   UNL A   1      38.313  31.974  30.405  1.00  0.00     0.135 A 
ATOM     70  C   UNL A   1      36.752  30.156  30.639  1.00  0.00     0.135 A 
ATOM     71  F   UNL A   1      39.551  32.428  30.146  1.00  0.00    -0.206 F 
ATOM     72  C   UNL A   1      37.338  32.884  30.783  1.00  0.00     0.059 A 
ATOM     73  C   UNL A   1      35.755  31.052  31.017  1.00  0.00     0.059 A 
ATOM     74  F   UNL A   1      36.461  28.846  30.609  1.00  0.00    -0.206 F 
ATOM     75  C   UNL A   1      36.070  32.410  31.114  1.00  0.00     0.060 A 
BRANCH  75  76
ATOM     76  S   UNL A   1      34.858  33.601  31.723  1.00  0.00     0.124 S 
ATOM     77  O   UNL A   1      35.698  34.519  32.482  1.00  0.00    -0.237 OA
ATOM     78  O   UNL A   1      34.300  34.128  30.481  1.00  0.00    -0.237 OA
ATOM     79  O   UNL A   1      33.946  32.781  32.516  1.00  0.00    -0.744 OA
ENDBRANCH  75  76
ENDBRANCH  54  68
BRANCH  55  80
ATOM     80  C   UNL A   1      46.876  30.534  28.215  1.00  0.00     0.058 A 
ATOM     81  C   UNL A   1      46.051  31.461  27.536  1.00  0.00     0.135 A 
ATOM     82  C   UNL A   1      48.253  30.654  27.985  1.00  0.00     0.135 A 
ATOM     83  F   UNL A   1      44.714  31.344  27.589  1.00  0.00    -0.206 F 
ATOM     84  C   UNL A   1      46.565  32.533  26.815  1.00  0.00     0.059 A 
ATOM     85  C   UNL A   1      48.795  31.734  27.286  1.00  0.00     0.059 A 
ATOM     86  F   UNL A   1      49.116  29.742  28.449  1.00  0.00    -0.206 F 
ATOM     87  C   UNL A   1      47.944  32.688  26.735  1.00  0.00     0.060 A 
BRANCH  87  88
ATOM     88  S   UNL A   1      48.597  34.182  25.965  1.00  0.00     0.124 S 
ATOM     89  O   UNL A   1      47.528  34.536  25.039  1.00  0.00    -0.237 OA
ATOM     90  O   UNL A   1      48.762  35.065  27.116  1.00  0.00    -0.237 OA
ATOM     91  O   UNL A   1      49.842  33.728  25.351  1.00  0.00    -0.744 OA
ENDBRANCH  87  88
ENDBRANCH  55  80
BRANCH  67  92
ATOM     92  C   UNL A   1      43.779  27.651  33.291  1.00  0.00     0.058 A 
ATOM     93  C   UNL A   1      44.162  27.919  34.612  1.00  0.00     0.135 A 
ATOM     94  C   UNL A   1      44.078  26.382  32.767  1.00  0.00     0.135 A 
ATOM     95  F   UNL A   1      43.892  29.113  35.166  1.00  0.00    -0.206 F 
ATOM     96  C   UNL A   1      44.778  26.951  35.401  1.00  0.00     0.059 A 
ATOM     97  C   UNL A   1      44.673  25.392  33.544  1.00  0.00     0.059 A 
ATOM     98  F   UNL A   1      43.750  26.069  31.503  1.00  0.00    -0.206 F 
ATOM     99  C   UNL A   1      45.011  25.684  34.865  1.00  0.00     0.060 A 
BRANCH  99 100
ATOM    100  S   UNL A   1      45.668  24.395  35.945  1.00  0.00     0.124 S 
ATOM    101  O   UNL A   1      44.733  23.299  35.717  1.00  0.00    -0.237 OA
ATOM    102  O   UNL A   1      47.015  24.198  35.417  1.00  0.00    -0.237 OA
ATOM    103  O   UNL A   1      45.612  25.001  37.274  1.00  0.00    -0.744 OA
ENDBRANCH  99 100
ENDBRANCH  67  92
ENDBRANCH  41  42
ENDBRANCH  34  36
ENDBRANCH  33  34
ENDBRANCH  32  33
ENDBRANCH  31  32
ENDBRANCH  30  31
ENDBRANCH  29  30
ENDBRANCH   1  29
TORSDOF 25
ENDMDL
MODEL 2
REMARK VINA RESULT:      -9.5      2.134      3.162
REMARK SMILES Cc1nc2n(n1)[C@@H](c1ccc([N+](=O)[O-])o1)CC(C(=O)OCCOCCOCCOCCOC(=O)c1ccc(-c3c4nc(c(-c5c(F)cc(S(=O)(=O)[O-])cc5F)c5ccc([nH]5)c(-c5c(F)cc(S(=O)(=O)[O-])cc5F)c5nc(c(-c6c(F)cc(S(=O)(=O)[O-])cc6F)c6ccc3[nH]6)C=C5)C=C4)cc1)=N2
REMARK SMILES IDX 27 1 26 2 25 3 24 4 23 5 22 6 21 7 20 8 18 9 19 10 17 11
REMARK SMILES IDX 1 12 2 13 3 14 6 15 4 16 5 17 101 18 7 19 16 20 8 21 9 22
REMARK SMILES IDX 15 23 10 24 11 25 12 26 13 27 14 28 28 29 29 30 30 31 31 32
REMARK SMILES IDX 32 33 33 34 34 35 35 36 36 37 100 38 37 39 99 40 38 41 39 42
REMARK SMILES IDX 40 43 93 44 41 45 98 46 92 47 94 48 42 49 97 50 91 51 90 52
REMARK SMILES IDX 43 54 77 55 56 56 76 57 57 58 60 59 75 60 95 61 58 62 59 63
REMARK SMILES IDX 74 65 96 66 61 67 44 68 45 69 54 70 46 71 47 72 53 73 55 74
REMARK SMILES IDX 48 75 49 76 50 77 51 78 52 79 78 80 79 81 88 82 80 83 81 84
REMARK SMILES IDX 87 85 89 86 82 87 83 88 84 89 85 90 86 91 62 92 63 93 72 94
REMARK SMILES IDX 64 95 65 96 71 97 73 98 66 99 67 100 68 101 69 102 70 103
REMARK H PARENT 94 53 60 64
REMARK Flexibility Score: inf
ROOT
ATOM      1  C   UNL A   1      35.189  23.116  25.800  1.00  0.00     0.188 C 
ENDROOT
BRANCH   1   2
ATOM      2  O   UNL A   1      35.160  24.496  25.428  1.00  0.00    -0.377 OA
BRANCH   2   3
ATOM      3  C   UNL A   1      33.949  25.173  25.722  1.00  0.00     0.188 C 
BRANCH   3   4
ATOM      4  C   UNL A   1      32.680  24.290  25.766  1.00  0.00     0.188 C 
BRANCH   4   5
ATOM      5  O   UNL A   1      31.441  24.701  25.191  1.00  0.00    -0.376 OA
BRANCH   5   6
ATOM      6  C   UNL A   1      30.989  24.161  23.957  1.00  0.00     0.202 C 
BRANCH   6   7
ATOM      7  C   UNL A   1      31.889  24.312  22.726  1.00  0.00     0.261 C 
BRANCH   7   8
ATOM      8  O   UNL A   1      31.637  25.527  22.011  1.00  0.00    -0.459 OA
BRANCH   8   9
ATOM      9  C   UNL A   1      32.632  26.427  22.003  1.00  0.00     0.352 C 
ATOM     10  O   UNL A   1      33.615  26.469  21.293  1.00  0.00    -0.245 OA
BRANCH   9  11
ATOM     11  C   UNL A   1      32.304  27.526  23.005  1.00  0.00     0.132 C 
ATOM     12  C   UNL A   1      33.522  30.831  27.579  1.00  0.00     0.092 C 
ATOM     13  C   UNL A   1      33.018  30.154  26.367  1.00  0.00     0.149 A 
ATOM     14  N   UNL A   1      33.835  29.425  25.549  1.00  0.00    -0.195 NA
ATOM     15  N   UNL A   1      31.724  30.141  26.024  1.00  0.00    -0.154 NA
ATOM     16  C   UNL A   1      33.021  28.904  24.660  1.00  0.00     0.249 A 
ATOM     17  N   UNL A   1      31.766  29.397  24.898  1.00  0.00    -0.219 N 
ATOM     18  N   UNL A   1      33.287  27.980  23.716  1.00  0.00    -0.209 NA
ATOM     19  C   UNL A   1      30.577  29.014  24.162  1.00  0.00     0.184 C 
ATOM     20  C   UNL A   1      30.874  28.005  23.043  1.00  0.00     0.100 C 
BRANCH  19  21
ATOM     21  C   UNL A   1      29.828  30.221  23.655  1.00  0.00     0.136 A 
ATOM     22  C   UNL A   1      29.414  31.422  24.213  1.00  0.00     0.056 A 
ATOM     23  O   UNL A   1      29.375  30.145  22.362  1.00  0.00    -0.404 OA
ATOM     24  C   UNL A   1      28.667  32.112  23.224  1.00  0.00     0.134 A 
ATOM     25  C   UNL A   1      28.684  31.293  22.122  1.00  0.00     0.433 A 
BRANCH  25  26
ATOM     26  N   UNL A   1      28.091  31.426  20.828  1.00  0.00     0.102 N 
ATOM     27  O   UNL A   1      27.929  32.582  20.417  1.00  0.00    -0.256 OA
ATOM     28  O   UNL A   1      27.776  30.388  20.233  1.00  0.00    -0.256 OA
ENDBRANCH  25  26
ENDBRANCH  19  21
ENDBRANCH   9  11
ENDBRANCH   8   9
ENDBRANCH   7   8
ENDBRANCH   6   7
ENDBRANCH   5   6
ENDBRANCH   4   5
ENDBRANCH   3   4
ENDBRANCH   2   3
ENDBRANCH   1   2
BRANCH   1  29
ATOM     29  C   UNL A   1      35.482  22.127  24.657  1.00  0.00     0.188 C 
BRANCH  29  30
ATOM     30  O   UNL A   1      36.882  21.900  24.486  1.00  0.00    -0.376 OA
BRANCH  30  31
ATOM     31  C   UNL A   1      37.752  22.555  25.406  1.00  0.00     0.202 C 
BRANCH  31  32
ATOM     32  C   UNL A   1      38.954  21.715  25.865  1.00  0.00     0.261 C 
BRANCH  32  33
ATOM     33  O   UNL A   1      39.601  22.213  27.047  1.00  0.00    -0.460 OA
BRANCH  33  34
ATOM     34  C   UNL A   1      40.856  22.675  26.858  1.00  0.00     0.338 C 
ATOM     35  O   UNL A   1      41.759  22.139  26.247  1.00  0.00    -0.246 OA
BRANCH  34  36
ATOM     36  C   UNL A   1      40.954  24.009  27.443  1.00  0.00     0.060 A 
ATOM     37  C   UNL A   1      40.277  25.074  26.842  1.00  0.00     0.016 A 
ATOM     38  C   UNL A   1      41.872  24.210  28.469  1.00  0.00     0.016 A 
ATOM     39  C   UNL A   1      40.583  26.372  27.226  1.00  0.00     0.010 A 
ATOM     40  C   UNL A   1      42.200  25.510  28.824  1.00  0.00     0.010 A 
ATOM     41  C   UNL A   1      41.597  26.599  28.172  1.00  0.00    -0.014 A 
BRANCH  41  42
ATOM     42  C   UNL A   1      42.114  27.977  28.337  1.00  0.00     0.031 A 
ATOM     43  C   UNL A   1      41.254  28.923  29.107  1.00  0.00     0.074 A 
ATOM     44  C   UNL A   1      43.453  28.153  28.429  1.00  0.00     0.049 A 
ATOM     45  N   UNL A   1      41.150  28.852  30.400  1.00  0.00    -0.248 NA
ATOM     46  C   UNL A   1      40.275  29.813  28.485  1.00  0.00     0.031 C 
ATOM     47  C   UNL A   1      44.382  27.081  28.830  1.00  0.00     0.029 A 
ATOM     48  N   UNL A   1      44.229  29.288  28.438  1.00  0.00    -0.354 N 
ATOM     49  C   UNL A   1      40.045  29.589  30.767  1.00  0.00     0.074 A 
ATOM     50  C   UNL A   1      39.558  30.205  29.552  1.00  0.00     0.031 C 
ATOM     51  C   UNL A   1      45.546  27.634  29.218  1.00  0.00     0.029 A 
ATOM     52  C   UNL A   1      45.506  29.066  28.955  1.00  0.00     0.049 A 
ATOM     53  H   UNL A   1      43.917  30.164  28.113  1.00  0.00     0.167 HD
ATOM     54  C   UNL A   1      39.574  29.608  32.040  1.00  0.00     0.037 A 
ATOM     55  C   UNL A   1      46.255  29.979  29.629  1.00  0.00     0.037 A 
ATOM     56  C   UNL A   1      40.299  28.811  32.987  1.00  0.00     0.049 A 
ATOM     57  C   UNL A   1      45.475  30.106  30.913  1.00  0.00     0.074 A 
ATOM     58  C   UNL A   1      40.202  27.544  33.520  1.00  0.00     0.029 A 
ATOM     59  N   UNL A   1      41.451  29.332  33.529  1.00  0.00    -0.354 N 
ATOM     60  N   UNL A   1      45.517  29.276  31.923  1.00  0.00    -0.248 NA
ATOM     61  C   UNL A   1      44.332  31.021  30.929  1.00  0.00     0.031 C 
ATOM     62  C   UNL A   1      41.516  27.221  33.984  1.00  0.00     0.029 A 
ATOM     63  C   UNL A   1      42.341  28.294  33.651  1.00  0.00     0.049 A 
ATOM     64  H   UNL A   1      41.606  30.272  33.781  1.00  0.00     0.167 HD
ATOM     65  C   UNL A   1      44.267  29.375  32.538  1.00  0.00     0.074 A 
ATOM     66  C   UNL A   1      43.605  30.496  31.906  1.00  0.00     0.031 C 
ATOM     67  C   UNL A   1      43.757  28.431  33.383  1.00  0.00     0.037 A 
BRANCH  54  68
ATOM     68  C   UNL A   1      38.458  30.444  32.511  1.00  0.00     0.058 A 
ATOM     69  C   UNL A   1      37.163  30.108  32.093  1.00  0.00     0.135 A 
ATOM     70  C   UNL A   1      38.656  31.668  33.156  1.00  0.00     0.135 A 
ATOM     71  F   UNL A   1      36.944  28.943  31.460  1.00  0.00    -0.206 F 
ATOM     72  C   UNL A   1      36.100  30.982  32.257  1.00  0.00     0.059 A 
ATOM     73  C   UNL A   1      37.603  32.562  33.337  1.00  0.00     0.059 A 
ATOM     74  F   UNL A   1      39.883  32.029  33.563  1.00  0.00    -0.206 F 
ATOM     75  C   UNL A   1      36.337  32.219  32.857  1.00  0.00     0.060 A 
BRANCH  75  76
ATOM     76  S   UNL A   1      34.965  33.388  32.945  1.00  0.00     0.124 S 
ATOM     77  O   UNL A   1      33.930  32.691  32.191  1.00  0.00    -0.237 OA
ATOM     78  O   UNL A   1      34.744  33.488  34.385  1.00  0.00    -0.237 OA
ATOM     79  O   UNL A   1      35.501  34.590  32.313  1.00  0.00    -0.744 OA
ENDBRANCH  75  76
ENDBRANCH  54  68
BRANCH  55  80
ATOM     80  C   UNL A   1      46.715  31.126  28.785  1.00  0.00     0.058 A 
ATOM     81  C   UNL A   1      46.817  30.918  27.390  1.00  0.00     0.135 A 
ATOM     82  C   UNL A   1      47.036  32.412  29.239  1.00  0.00     0.135 A 
ATOM     83  F   UNL A   1      46.657  29.688  26.875  1.00  0.00    -0.206 F 
ATOM     84  C   UNL A   1      47.058  31.953  26.494  1.00  0.00     0.059 A 
ATOM     85  C   UNL A   1      47.258  33.474  28.361  1.00  0.00     0.059 A 
ATOM     86  F   UNL A   1      47.124  32.684  30.547  1.00  0.00    -0.206 F 
ATOM     87  C   UNL A   1      47.232  33.241  26.988  1.00  0.00     0.060 A 
BRANCH  87  88
ATOM     88  S   UNL A   1      47.350  34.604  25.813  1.00  0.00     0.124 S 
ATOM     89  O   UNL A   1      48.643  34.350  25.187  1.00  0.00    -0.237 OA
ATOM     90  O   UNL A   1      46.180  34.377  24.970  1.00  0.00    -0.237 OA
ATOM     91  O   UNL A   1      47.281  35.789  26.663  1.00  0.00    -0.744 OA
ENDBRANCH  87  88
ENDBRANCH  55  80
BRANCH  67  92
ATOM     92  C   UNL A   1      44.697  27.358  33.825  1.00  0.00     0.058 A 
ATOM     93  C   UNL A   1      45.420  27.502  35.017  1.00  0.00     0.135 A 
ATOM     94  C   UNL A   1      44.817  26.144  33.128  1.00  0.00     0.135 A 
ATOM     95  F   UNL A   1      45.334  28.638  35.728  1.00  0.00    -0.206 F 
ATOM     96  C   UNL A   1      46.197  26.465  35.524  1.00  0.00     0.059 A 
ATOM     97  C   UNL A   1      45.571  25.086  33.628  1.00  0.00     0.059 A 
ATOM     98  F   UNL A   1      44.161  25.951  31.972  1.00  0.00    -0.206 F 
ATOM     99  C   UNL A   1      46.251  25.253  34.833  1.00  0.00     0.060 A 
BRANCH  99 100
ATOM    100  S   UNL A   1      47.138  23.869  35.581  1.00  0.00     0.124 S 
ATOM    101  O   UNL A   1      47.802  23.273  34.427  1.00  0.00    -0.237 OA
ATOM    102  O   UNL A   1      48.012  24.537  36.541  1.00  0.00    -0.237 OA
ATOM    103  O   UNL A   1      46.074  23.063  36.177  1.00  0.00    -0.744 OA
ENDBRANCH  99 100
ENDBRANCH  67  92
ENDBRANCH  41  42
ENDBRANCH  34  36
ENDBRANCH  33  34
ENDBRANCH  32  33
ENDBRANCH  31  32
ENDBRANCH  30  31
ENDBRANCH  29  30
ENDBRANCH   1  29
TORSDOF 25
ENDMDL
MODEL 3
REMARK VINA RESULT:      -9.2      3.447      5.332
REMARK SMILES Cc1nc2n(n1)[C@@H](c1ccc([N+](=O)[O-])o1)CC(C(=O)OCCOCCOCCOCCOC(=O)c1ccc(-c3c4nc(c(-c5c(F)cc(S(=O)(=O)[O-])cc5F)c5ccc([nH]5)c(-c5c(F)cc(S(=O)(=O)[O-])cc5F)c5nc(c(-c6c(F)cc(S(=O)(=O)[O-])cc6F)c6ccc3[nH]6)C=C5)C=C4)cc1)=N2
REMARK SMILES IDX 27 1 26 2 25 3 24 4 23 5 22 6 21 7 20 8 18 9 19 10 17 11
REMARK SMILES IDX 1 12 2 13 3 14 6 15 4 16 5 17 101 18 7 19 16 20 8 21 9 22
REMARK SMILES IDX 15 23 10 24 11 25 12 26 13 27 14 28 28 29 29 30 30 31 31 32
REMARK SMILES IDX 32 33 33 34 34 35 35 36 36 37 100 38 37 39 99 40 38 41 39 42
REMARK SMILES IDX 40 43 93 44 41 45 98 46 92 47 94 48 42 49 97 50 91 51 90 52
REMARK SMILES IDX 43 54 77 55 56 56 76 57 57 58 60 59 75 60 95 61 58 62 59 63
REMARK SMILES IDX 74 65 96 66 61 67 44 68 45 69 54 70 46 71 47 72 53 73 55 74
REMARK SMILES IDX 48 75 49 76 50 77 51 78 52 79 78 80 79 81 88 82 80 83 81 84
REMARK SMILES IDX 87 85 89 86 82 87 83 88 84 89 85 90 86 91 62 92 63 93 72 94
REMARK SMILES IDX 64 95 65 96 71 97 73 98 66 99 67 100 68 101 69 102 70 103
REMARK H PARENT 94 53 60 64
REMARK Flexibility Score: inf
ROOT
ATOM      1  C   UNL A   1      35.996  20.694  25.007  1.00  0.00     0.188 C 
ENDROOT
BRANCH   1   2
ATOM      2  O   UNL A   1      35.338  19.458  24.719  1.00  0.00    -0.377 OA
BRANCH   2   3
ATOM      3  C   UNL A   1      33.921  19.516  24.715  1.00  0.00     0.188 C 
BRANCH   3   4
ATOM      4  C   UNL A   1      33.306  20.902  25.021  1.00  0.00     0.188 C 
BRANCH   4   5
ATOM      5  O   UNL A   1      32.744  21.731  24.005  1.00  0.00    -0.376 OA
BRANCH   5   6
ATOM      6  C   UNL A   1      33.329  22.981  23.668  1.00  0.00     0.202 C 
BRANCH   6   7
ATOM      7  C   UNL A   1      33.218  23.466  22.219  1.00  0.00     0.261 C 
BRANCH   7   8
ATOM      8  O   UNL A   1      32.200  24.460  22.052  1.00  0.00    -0.459 OA
BRANCH   8   9
ATOM      9  C   UNL A   1      32.571  25.588  21.427  1.00  0.00     0.352 C 
ATOM     10  O   UNL A   1      33.193  25.715  20.393  1.00  0.00    -0.245 OA
BRANCH   9  11
ATOM     11  C   UNL A   1      31.989  26.777  22.179  1.00  0.00     0.132 C 
ATOM     12  C   UNL A   1      27.878  30.707  23.171  1.00  0.00     0.092 C 
ATOM     13  C   UNL A   1      29.026  29.778  23.146  1.00  0.00     0.149 A 
ATOM     14  N   UNL A   1      28.975  28.580  22.491  1.00  0.00    -0.195 NA
ATOM     15  N   UNL A   1      30.213  30.071  23.691  1.00  0.00    -0.154 NA
ATOM     16  C   UNL A   1      30.192  28.098  22.603  1.00  0.00     0.249 A 
ATOM     17  N   UNL A   1      30.913  28.956  23.390  1.00  0.00    -0.219 N 
ATOM     18  N   UNL A   1      30.726  27.014  22.008  1.00  0.00    -0.209 NA
ATOM     19  C   UNL A   1      32.321  28.803  23.702  1.00  0.00     0.184 C 
ATOM     20  C   UNL A   1      32.929  27.538  23.079  1.00  0.00     0.100 C 
BRANCH  19  21
ATOM     21  C   UNL A   1      32.569  28.880  25.188  1.00  0.00     0.136 A 
ATOM     22  C   UNL A   1      32.288  28.060  26.272  1.00  0.00     0.056 A 
ATOM     23  O   UNL A   1      33.155  30.037  25.638  1.00  0.00    -0.404 OA
ATOM     24  C   UNL A   1      32.712  28.745  27.440  1.00  0.00     0.134 A 
ATOM     25  C   UNL A   1      33.236  29.932  26.993  1.00  0.00     0.433 A 
BRANCH  25  26
ATOM     26  N   UNL A   1      33.797  31.047  27.689  1.00  0.00     0.102 N 
ATOM     27  O   UNL A   1      33.206  32.127  27.560  1.00  0.00    -0.256 OA
ATOM     28  O   UNL A   1      34.827  30.852  28.348  1.00  0.00    -0.256 OA
ENDBRANCH  25  26
ENDBRANCH  19  21
ENDBRANCH   9  11
ENDBRANCH   8   9
ENDBRANCH   7   8
ENDBRANCH   6   7
ENDBRANCH   5   6
ENDBRANCH   4   5
ENDBRANCH   3   4
ENDBRANCH   2   3
ENDBRANCH   1   2
BRANCH   1  29
ATOM     29  C   UNL A   1      37.531  20.671  24.893  1.00  0.00     0.188 C 
BRANCH  29  30
ATOM     30  O   UNL A   1      38.143  21.713  25.654  1.00  0.00    -0.376 OA
BRANCH  30  31
ATOM     31  C   UNL A   1      39.491  21.495  26.065  1.00  0.00     0.202 C 
BRANCH  31  32
ATOM     32  C   UNL A   1      40.029  22.521  27.074  1.00  0.00     0.261 C 
BRANCH  32  33
ATOM     33  O   UNL A   1      40.895  23.513  26.499  1.00  0.00    -0.460 OA
BRANCH  33  34
ATOM     34  C   UNL A   1      40.428  24.779  26.555  1.00  0.00     0.338 C 
ATOM     35  O   UNL A   1      39.281  25.139  26.733  1.00  0.00    -0.246 OA
BRANCH  34  36
ATOM     36  C   UNL A   1      41.558  25.697  26.454  1.00  0.00     0.060 A 
ATOM     37  C   UNL A   1      42.396  25.635  25.336  1.00  0.00     0.016 A 
ATOM     38  C   UNL A   1      41.874  26.474  27.564  1.00  0.00     0.016 A 
ATOM     39  C   UNL A   1      43.612  26.306  25.365  1.00  0.00     0.010 A 
ATOM     40  C   UNL A   1      43.104  27.113  27.601  1.00  0.00     0.010 A 
ATOM     41  C   UNL A   1      44.001  26.993  26.526  1.00  0.00    -0.014 A 
BRANCH  41  42
ATOM     42  C   UNL A   1      45.410  27.434  26.647  1.00  0.00     0.031 A 
ATOM     43  C   UNL A   1      45.632  28.833  27.117  1.00  0.00     0.074 A 
ATOM     44  C   UNL A   1      46.343  26.517  26.995  1.00  0.00     0.049 A 
ATOM     45  N   UNL A   1      45.464  29.169  28.361  1.00  0.00    -0.248 NA
ATOM     46  C   UNL A   1      45.790  29.973  26.215  1.00  0.00     0.031 C 
ATOM     47  C   UNL A   1      46.016  25.259  27.691  1.00  0.00     0.029 A 
ATOM     48  N   UNL A   1      47.715  26.578  27.042  1.00  0.00    -0.354 N 
ATOM     49  C   UNL A   1      45.388  30.544  28.411  1.00  0.00     0.074 A 
ATOM     50  C   UNL A   1      45.640  31.005  27.063  1.00  0.00     0.031 C 
ATOM     51  C   UNL A   1      47.137  24.766  28.250  1.00  0.00     0.029 A 
ATOM     52  C   UNL A   1      48.274  25.574  27.833  1.00  0.00     0.049 A 
ATOM     53  H   UNL A   1      48.247  27.259  26.568  1.00  0.00     0.167 HD
ATOM     54  C   UNL A   1      45.074  31.214  29.549  1.00  0.00     0.037 A 
ATOM     55  C   UNL A   1      49.427  25.679  28.546  1.00  0.00     0.037 A 
ATOM     56  C   UNL A   1      44.828  30.402  30.705  1.00  0.00     0.049 A 
ATOM     57  C   UNL A   1      49.019  26.655  29.620  1.00  0.00     0.074 A 
ATOM     58  C   UNL A   1      43.732  29.858  31.338  1.00  0.00     0.029 A 
ATOM     59  N   UNL A   1      45.910  29.935  31.415  1.00  0.00    -0.354 N 
ATOM     60  N   UNL A   1      48.337  26.369  30.700  1.00  0.00    -0.248 NA
ATOM     61  C   UNL A   1      49.075  28.083  29.301  1.00  0.00     0.031 C 
ATOM     62  C   UNL A   1      44.233  28.754  32.095  1.00  0.00     0.029 A 
ATOM     63  C   UNL A   1      45.598  28.663  31.828  1.00  0.00     0.049 A 
ATOM     64  H   UNL A   1      46.748  30.421  31.592  1.00  0.00     0.167 HD
ATOM     65  C   UNL A   1      47.652  27.540  31.029  1.00  0.00     0.074 A 
ATOM     66  C   UNL A   1      48.185  28.566  30.157  1.00  0.00     0.031 C 
ATOM     67  C   UNL A   1      46.558  27.579  31.845  1.00  0.00     0.037 A 
BRANCH  54  68
ATOM     68  C   UNL A   1      45.067  32.680  29.687  1.00  0.00     0.058 A 
ATOM     69  C   UNL A   1      43.871  33.359  29.418  1.00  0.00     0.135 A 
ATOM     70  C   UNL A   1      46.239  33.425  29.848  1.00  0.00     0.135 A 
ATOM     71  F   UNL A   1      42.731  32.669  29.247  1.00  0.00    -0.206 F 
ATOM     72  C   UNL A   1      43.842  34.736  29.257  1.00  0.00     0.059 A 
ATOM     73  C   UNL A   1      46.234  34.810  29.695  1.00  0.00     0.059 A 
ATOM     74  F   UNL A   1      47.405  32.809  30.098  1.00  0.00    -0.206 F 
ATOM     75  C   UNL A   1      45.035  35.449  29.370  1.00  0.00     0.060 A 
BRANCH  75  76
ATOM     76  S   UNL A   1      44.992  37.221  29.032  1.00  0.00     0.124 S 
ATOM     77  O   UNL A   1      46.054  37.716  29.900  1.00  0.00    -0.237 OA
ATOM     78  O   UNL A   1      45.271  37.262  27.599  1.00  0.00    -0.237 OA
ATOM     79  O   UNL A   1      43.637  37.608  29.413  1.00  0.00    -0.744 OA
ENDBRANCH  75  76
ENDBRANCH  54  68
BRANCH  55  80
ATOM     80  C   UNL A   1      50.655  25.798  27.698  1.00  0.00     0.058 A 
ATOM     81  C   UNL A   1      51.868  26.141  28.339  1.00  0.00     0.135 A 
ATOM     82  C   UNL A   1      50.731  25.578  26.316  1.00  0.00     0.135 A 
ATOM     83  F   UNL A   1      51.872  26.498  29.634  1.00  0.00    -0.206 F 
ATOM     84  C   UNL A   1      53.095  26.104  27.688  1.00  0.00     0.059 A 
ATOM     85  C   UNL A   1      51.953  25.511  25.644  1.00  0.00     0.059 A 
ATOM     86  F   UNL A   1      49.628  25.398  25.580  1.00  0.00    -0.206 F 
ATOM     87  C   UNL A   1      53.133  25.742  26.347  1.00  0.00     0.060 A 
BRANCH  87  88
ATOM     88  S   UNL A   1      54.740  25.510  25.563  1.00  0.00     0.124 S 
ATOM     89  O   UNL A   1      54.964  24.081  25.754  1.00  0.00    -0.237 OA
ATOM     90  O   UNL A   1      54.470  25.935  24.192  1.00  0.00    -0.237 OA
ATOM     91  O   UNL A   1      55.617  26.395  26.324  1.00  0.00    -0.744 OA
ENDBRANCH  87  88
ENDBRANCH  55  80
BRANCH  67  92
ATOM     92  C   UNL A   1      46.236  26.323  32.584  1.00  0.00     0.058 A 
ATOM     93  C   UNL A   1      46.722  26.125  33.884  1.00  0.00     0.135 A 
ATOM     94  C   UNL A   1      45.370  25.351  32.053  1.00  0.00     0.135 A 
ATOM     95  F   UNL A   1      47.545  27.027  34.444  1.00  0.00    -0.206 F 
ATOM     96  C   UNL A   1      46.328  25.029  34.647  1.00  0.00     0.059 A 
ATOM     97  C   UNL A   1      44.947  24.260  32.807  1.00  0.00     0.059 A 
ATOM     98  F   UNL A   1      44.883  25.477  30.808  1.00  0.00    -0.206 F 
ATOM     99  C   UNL A   1      45.424  24.112  34.108  1.00  0.00     0.060 A 
BRANCH  99 100
ATOM    100  S   UNL A   1      44.805  22.784  35.162  1.00  0.00     0.124 S 
ATOM    101  O   UNL A   1      43.362  22.967  35.069  1.00  0.00    -0.237 OA
ATOM    102  O   UNL A   1      45.336  21.591  34.510  1.00  0.00    -0.237 OA
ATOM    103  O   UNL A   1      45.392  23.082  36.468  1.00  0.00    -0.744 OA
ENDBRANCH  99 100
ENDBRANCH  67  92
ENDBRANCH  41  42
ENDBRANCH  34  36
ENDBRANCH  33  34
ENDBRANCH  32  33
ENDBRANCH  31  32
ENDBRANCH  30  31
ENDBRANCH  29  30
ENDBRANCH   1  29
TORSDOF 25
ENDMDL
