MODEL 1
REMARK VINA RESULT:      -9.9      0.000      0.000
REMARK SMILES [NH3+][C@]1(C(=O)OCCOCCOCCOCCOC(=O)c2ccc(-c3c4nc(c(-c5c(F)cc(S(=O)(=O)[O-])cc5F)c5ccc([nH]5)c(-c5c(F)cc(S(=O)(=O)[O-])cc5F)c5nc(c(-c6c(F)cc(S(=O)(=O)[O-])cc6F)c6ccc3[nH]6)C=C5)C=C4)cc2)CC[C@@H](Sc2cc3ccccc3[nH]2)C1
REMARK SMILES IDX 12 1 11 2 10 3 9 4 8 5 7 6 6 7 5 8 3 9 4 10 2 11 86 12 99 13
REMARK SMILES IDX 87 14 88 15 1 16 89 20 90 21 91 22 98 23 92 24 97 25 93 27
REMARK SMILES IDX 96 28 94 29 95 30 13 31 14 32 15 33 16 34 17 35 18 36 19 37
REMARK SMILES IDX 20 38 21 39 85 40 22 41 84 42 23 43 24 44 25 45 78 46 26 47
REMARK SMILES IDX 83 48 77 49 79 50 27 51 82 52 76 53 75 54 28 56 62 57 41 58
REMARK SMILES IDX 61 59 42 60 45 61 60 62 80 63 43 64 44 65 59 67 81 68 46 69
REMARK SMILES IDX 29 70 30 71 39 72 31 73 32 74 38 75 40 76 33 77 34 78 35 79
REMARK SMILES IDX 36 80 37 81 63 82 64 83 73 84 65 85 66 86 72 87 74 88 67 89
REMARK SMILES IDX 68 90 69 91 70 92 71 93 47 94 48 95 57 96 49 97 50 98 56 99
REMARK SMILES IDX 58 100 51 101 52 102 53 103 54 104 55 105
REMARK H PARENT 1 17 1 18 1 19 98 26 79 55 45 66
REMARK Flexibility Score: inf
ROOT
ATOM      1  C   UNL A   1      31.787  28.817  26.714  1.00  0.00     0.188 C 
ENDROOT
BRANCH   1   2
ATOM      2  O   UNL A   1      31.820  27.994  25.556  1.00  0.00    -0.377 OA
BRANCH   2   3
ATOM      3  C   UNL A   1      31.649  28.667  24.327  1.00  0.00     0.188 C 
BRANCH   3   4
ATOM      4  C   UNL A   1      32.959  28.955  23.566  1.00  0.00     0.188 C 
BRANCH   4   5
ATOM      5  O   UNL A   1      33.676  27.932  22.892  1.00  0.00    -0.376 OA
BRANCH   5   6
ATOM      6  C   UNL A   1      33.015  26.839  22.274  1.00  0.00     0.202 C 
BRANCH   6   7
ATOM      7  C   UNL A   1      33.436  25.377  22.514  1.00  0.00     0.261 C 
BRANCH   7   8
ATOM      8  O   UNL A   1      32.933  24.739  23.692  1.00  0.00    -0.459 OA
BRANCH   8   9
ATOM      9  C   UNL A   1      31.597  24.516  23.733  1.00  0.00     0.368 C 
ATOM     10  O   UNL A   1      30.885  24.369  22.744  1.00  0.00    -0.245 OA
BRANCH   9  11
ATOM     11  C   UNL A   1      31.066  24.345  25.182  1.00  0.00     0.193 C 
ATOM     12  C   UNL A   1      30.600  22.925  25.561  1.00  0.00     0.082 C 
ATOM     13  C   UNL A   1      32.217  24.670  26.141  1.00  0.00     0.096 C 
ATOM     14  C   UNL A   1      30.937  22.787  27.032  1.00  0.00     0.022 C 
ATOM     15  C   UNL A   1      32.230  23.567  27.193  1.00  0.00     0.060 C 
BRANCH  11  16
ATOM     16  N   UNL A   1      29.998  25.339  25.482  1.00  0.00    -0.343 N 
ATOM     17  H   UNL A   1      30.279  25.911  26.278  1.00  0.00     0.345 HD
ATOM     18  H   UNL A   1      29.130  24.851  25.703  1.00  0.00     0.345 HD
ATOM     19  H   UNL A   1      29.853  25.938  24.668  1.00  0.00     0.345 HD
ENDBRANCH  11  16
BRANCH  15  20
ATOM     20  S   UNL A   1      33.792  22.701  27.019  1.00  0.00    -0.105 SA
BRANCH  20  21
ATOM     21  C   UNL A   1      34.689  23.455  25.723  1.00  0.00     0.073 A 
ATOM     22  C   UNL A   1      35.687  24.408  25.843  1.00  0.00     0.043 A 
ATOM     23  N   UNL A   1      35.153  22.593  24.755  1.00  0.00    -0.350 N 
ATOM     24  C   UNL A   1      36.878  23.619  25.680  1.00  0.00     0.001 A 
ATOM     25  C   UNL A   1      36.488  22.423  25.072  1.00  0.00     0.046 A 
ATOM     26  H   UNL A   1      34.650  22.191  24.009  1.00  0.00     0.167 HD
ATOM     27  C   UNL A   1      38.192  23.730  26.163  1.00  0.00     0.010 A 
ATOM     28  C   UNL A   1      37.297  21.292  24.989  1.00  0.00     0.027 A 
ATOM     29  C   UNL A   1      38.996  22.581  26.159  1.00  0.00     0.001 A 
ATOM     30  C   UNL A   1      38.545  21.381  25.603  1.00  0.00     0.002 A 
ENDBRANCH  20  21
ENDBRANCH  15  20
ENDBRANCH   9  11
ENDBRANCH   8   9
ENDBRANCH   7   8
ENDBRANCH   6   7
ENDBRANCH   5   6
ENDBRANCH   4   5
ENDBRANCH   3   4
ENDBRANCH   2   3
ENDBRANCH   1   2
BRANCH   1  31
ATOM     31  C   UNL A   1      31.756  30.341  26.480  1.00  0.00     0.188 C 
BRANCH  31  32
ATOM     32  O   UNL A   1      32.654  31.066  27.316  1.00  0.00    -0.376 OA
BRANCH  32  33
ATOM     33  C   UNL A   1      34.050  30.857  27.166  1.00  0.00     0.202 C 
BRANCH  33  34
ATOM     34  C   UNL A   1      34.905  30.925  28.441  1.00  0.00     0.261 C 
BRANCH  34  35
ATOM     35  O   UNL A   1      35.622  29.732  28.789  1.00  0.00    -0.460 OA
BRANCH  35  36
ATOM     36  C   UNL A   1      36.330  29.748  29.943  1.00  0.00     0.338 C 
ATOM     37  O   UNL A   1      35.893  29.684  31.067  1.00  0.00    -0.246 OA
BRANCH  36  38
ATOM     38  C   UNL A   1      37.763  29.637  29.583  1.00  0.00     0.060 A 
ATOM     39  C   UNL A   1      38.105  29.479  28.233  1.00  0.00     0.016 A 
ATOM     40  C   UNL A   1      38.755  29.699  30.563  1.00  0.00     0.016 A 
ATOM     41  C   UNL A   1      39.442  29.343  27.864  1.00  0.00     0.010 A 
ATOM     42  C   UNL A   1      40.093  29.536  30.195  1.00  0.00     0.010 A 
ATOM     43  C   UNL A   1      40.437  29.319  28.849  1.00  0.00    -0.014 A 
BRANCH  43  44
ATOM     44  C   UNL A   1      41.795  28.835  28.500  1.00  0.00     0.031 A 
ATOM     45  C   UNL A   1      42.920  29.835  28.502  1.00  0.00     0.074 A 
ATOM     46  C   UNL A   1      42.033  27.540  28.224  1.00  0.00     0.049 A 
ATOM     47  N   UNL A   1      44.179  29.671  28.194  1.00  0.00    -0.248 NA
ATOM     48  C   UNL A   1      42.574  31.209  28.907  1.00  0.00     0.031 C 
ATOM     49  C   UNL A   1      41.035  26.472  28.241  1.00  0.00     0.029 A 
ATOM     50  N   UNL A   1      43.198  26.907  27.870  1.00  0.00    -0.354 N 
ATOM     51  C   UNL A   1      44.775  30.915  28.370  1.00  0.00     0.074 A 
ATOM     52  C   UNL A   1      43.733  31.833  28.770  1.00  0.00     0.031 C 
ATOM     53  C   UNL A   1      41.630  25.315  27.899  1.00  0.00     0.029 A 
ATOM     54  C   UNL A   1      43.041  25.566  27.610  1.00  0.00     0.049 A 
ATOM     55  H   UNL A   1      44.065  27.370  27.809  1.00  0.00     0.167 HD
ATOM     56  C   UNL A   1      46.077  31.257  28.224  1.00  0.00     0.037 A 
ATOM     57  C   UNL A   1      43.933  24.656  27.168  1.00  0.00     0.037 A 
ATOM     58  C   UNL A   1      47.107  30.341  27.815  1.00  0.00     0.049 A 
ATOM     59  C   UNL A   1      45.360  25.085  26.920  1.00  0.00     0.074 A 
ATOM     60  C   UNL A   1      48.455  30.588  27.629  1.00  0.00     0.029 A 
ATOM     61  N   UNL A   1      46.903  28.999  27.524  1.00  0.00    -0.354 N 
ATOM     62  N   UNL A   1      45.914  26.261  27.100  1.00  0.00    -0.248 NA
ATOM     63  C   UNL A   1      46.284  24.060  26.415  1.00  0.00     0.031 C 
ATOM     64  C   UNL A   1      49.056  29.409  27.175  1.00  0.00     0.029 A 
ATOM     65  C   UNL A   1      48.095  28.412  27.138  1.00  0.00     0.049 A 
ATOM     66  H   UNL A   1      46.037  28.535  27.582  1.00  0.00     0.167 HD
ATOM     67  C   UNL A   1      47.257  26.107  26.766  1.00  0.00     0.074 A 
ATOM     68  C   UNL A   1      47.432  24.721  26.383  1.00  0.00     0.031 C 
ATOM     69  C   UNL A   1      48.256  27.025  26.776  1.00  0.00     0.037 A 
BRANCH  56  70
ATOM     70  C   UNL A   1      46.451  32.690  28.489  1.00  0.00     0.058 A 
ATOM     71  C   UNL A   1      46.864  33.123  29.759  1.00  0.00     0.135 A 
ATOM     72  C   UNL A   1      46.422  33.637  27.452  1.00  0.00     0.135 A 
ATOM     73  F   UNL A   1      46.888  32.266  30.792  1.00  0.00    -0.206 F 
ATOM     74  C   UNL A   1      47.212  34.449  29.998  1.00  0.00     0.059 A 
ATOM     75  C   UNL A   1      46.795  34.962  27.662  1.00  0.00     0.059 A 
ATOM     76  F   UNL A   1      46.028  33.279  26.221  1.00  0.00    -0.206 F 
ATOM     77  C   UNL A   1      47.176  35.360  28.942  1.00  0.00     0.060 A 
BRANCH  77  78
ATOM     78  S   UNL A   1      47.640  37.074  29.268  1.00  0.00     0.124 S 
ATOM     79  O   UNL A   1      46.614  37.799  28.526  1.00  0.00    -0.237 OA
ATOM     80  O   UNL A   1      47.543  37.150  30.722  1.00  0.00    -0.237 OA
ATOM     81  O   UNL A   1      48.992  37.171  28.726  1.00  0.00    -0.744 OA
ENDBRANCH  77  78
ENDBRANCH  56  70
BRANCH  57  82
ATOM     82  C   UNL A   1      43.512  23.251  26.913  1.00  0.00     0.058 A 
ATOM     83  C   UNL A   1      43.290  22.357  27.973  1.00  0.00     0.135 A 
ATOM     84  C   UNL A   1      43.353  22.763  25.607  1.00  0.00     0.135 A 
ATOM     85  F   UNL A   1      43.440  22.770  29.240  1.00  0.00    -0.206 F 
ATOM     86  C   UNL A   1      42.952  21.026  27.747  1.00  0.00     0.059 A 
ATOM     87  C   UNL A   1      42.985  21.444  25.356  1.00  0.00     0.059 A 
ATOM     88  F   UNL A   1      43.546  23.576  24.557  1.00  0.00    -0.206 F 
ATOM     89  C   UNL A   1      42.801  20.579  26.433  1.00  0.00     0.060 A 
BRANCH  89  90
ATOM     90  S   UNL A   1      42.340  18.855  26.156  1.00  0.00     0.124 S 
ATOM     91  O   UNL A   1      42.612  18.264  27.461  1.00  0.00    -0.237 OA
ATOM     92  O   UNL A   1      40.932  18.972  25.787  1.00  0.00    -0.237 OA
ATOM     93  O   UNL A   1      43.230  18.438  25.077  1.00  0.00    -0.744 OA
ENDBRANCH  89  90
ENDBRANCH  57  82
BRANCH  69  94
ATOM     94  C   UNL A   1      49.640  26.556  26.412  1.00  0.00     0.058 A 
ATOM     95  C   UNL A   1      50.520  26.026  27.368  1.00  0.00     0.135 A 
ATOM     96  C   UNL A   1      50.071  26.590  25.075  1.00  0.00     0.135 A 
ATOM     97  F   UNL A   1      50.162  25.972  28.661  1.00  0.00    -0.206 F 
ATOM     98  C   UNL A   1      51.789  25.573  27.016  1.00  0.00     0.059 A 
ATOM     99  C   UNL A   1      51.321  26.113  24.695  1.00  0.00     0.059 A 
ATOM    100  F   UNL A   1      49.263  27.074  24.118  1.00  0.00    -0.206 F 
ATOM    101  C   UNL A   1      52.179  25.619  25.677  1.00  0.00     0.060 A 
BRANCH 101 102
ATOM    102  S   UNL A   1      53.815  25.002  25.230  1.00  0.00     0.124 S 
ATOM    103  O   UNL A   1      54.206  25.936  24.180  1.00  0.00    -0.237 OA
ATOM    104  O   UNL A   1      54.547  25.120  26.487  1.00  0.00    -0.237 OA
ATOM    105  O   UNL A   1      53.556  23.635  24.790  1.00  0.00    -0.744 OA
ENDBRANCH 101 102
ENDBRANCH  69  94
ENDBRANCH  43  44
ENDBRANCH  36  38
ENDBRANCH  35  36
ENDBRANCH  34  35
ENDBRANCH  33  34
ENDBRANCH  32  33
ENDBRANCH  31  32
ENDBRANCH   1  31
TORSDOF 26
ENDMDL
MODEL 2
REMARK VINA RESULT:      -9.8      6.414     11.776
REMARK SMILES [NH3+][C@]1(C(=O)OCCOCCOCCOCCOC(=O)c2ccc(-c3c4nc(c(-c5c(F)cc(S(=O)(=O)[O-])cc5F)c5ccc([nH]5)c(-c5c(F)cc(S(=O)(=O)[O-])cc5F)c5nc(c(-c6c(F)cc(S(=O)(=O)[O-])cc6F)c6ccc3[nH]6)C=C5)C=C4)cc2)CC[C@@H](Sc2cc3ccccc3[nH]2)C1
REMARK SMILES IDX 12 1 11 2 10 3 9 4 8 5 7 6 6 7 5 8 3 9 4 10 2 11 86 12 99 13
REMARK SMILES IDX 87 14 88 15 1 16 89 20 90 21 91 22 98 23 92 24 97 25 93 27
REMARK SMILES IDX 96 28 94 29 95 30 13 31 14 32 15 33 16 34 17 35 18 36 19 37
REMARK SMILES IDX 20 38 21 39 85 40 22 41 84 42 23 43 24 44 25 45 78 46 26 47
REMARK SMILES IDX 83 48 77 49 79 50 27 51 82 52 76 53 75 54 28 56 62 57 41 58
REMARK SMILES IDX 61 59 42 60 45 61 60 62 80 63 43 64 44 65 59 67 81 68 46 69
REMARK SMILES IDX 29 70 30 71 39 72 31 73 32 74 38 75 40 76 33 77 34 78 35 79
REMARK SMILES IDX 36 80 37 81 63 82 64 83 73 84 65 85 66 86 72 87 74 88 67 89
REMARK SMILES IDX 68 90 69 91 70 92 71 93 47 94 48 95 57 96 49 97 50 98 56 99
REMARK SMILES IDX 58 100 51 101 52 102 53 103 54 104 55 105
REMARK H PARENT 1 17 1 18 1 19 98 26 79 55 45 66
REMARK Flexibility Score: inf
ROOT
ATOM      1  C   UNL A   1      39.734  22.332  26.788  1.00  0.00     0.188 C 
ENDROOT
BRANCH   1   2
ATOM      2  O   UNL A   1      38.511  22.552  26.097  1.00  0.00    -0.377 OA
BRANCH   2   3
ATOM      3  C   UNL A   1      38.090  21.498  25.257  1.00  0.00     0.188 C 
BRANCH   3   4
ATOM      4  C   UNL A   1      36.628  21.605  24.779  1.00  0.00     0.188 C 
BRANCH   4   5
ATOM      5  O   UNL A   1      35.668  20.600  25.071  1.00  0.00    -0.376 OA
BRANCH   5   6
ATOM      6  C   UNL A   1      34.438  20.903  25.710  1.00  0.00     0.202 C 
BRANCH   6   7
ATOM      7  C   UNL A   1      33.380  21.820  25.069  1.00  0.00     0.261 C 
BRANCH   7   8
ATOM      8  O   UNL A   1      33.174  23.101  25.675  1.00  0.00    -0.459 OA
BRANCH   8   9
ATOM      9  C   UNL A   1      32.228  23.166  26.642  1.00  0.00     0.368 C 
ATOM     10  O   UNL A   1      32.353  22.694  27.769  1.00  0.00    -0.245 OA
BRANCH   9  11
ATOM     11  C   UNL A   1      30.998  24.013  26.218  1.00  0.00     0.193 C 
ATOM     12  C   UNL A   1      31.179  25.541  26.297  1.00  0.00     0.082 C 
ATOM     13  C   UNL A   1      30.710  23.708  24.744  1.00  0.00     0.096 C 
ATOM     14  C   UNL A   1      30.342  26.089  25.158  1.00  0.00     0.022 C 
ATOM     15  C   UNL A   1      30.483  25.051  24.059  1.00  0.00     0.060 C 
BRANCH  11  16
ATOM     16  N   UNL A   1      29.778  23.595  26.963  1.00  0.00    -0.343 N 
ATOM     17  H   UNL A   1      29.756  24.061  27.870  1.00  0.00     0.345 HD
ATOM     18  H   UNL A   1      29.792  22.584  27.101  1.00  0.00     0.345 HD
ATOM     19  H   UNL A   1      28.948  23.853  26.429  1.00  0.00     0.345 HD
ENDBRANCH  11  16
BRANCH  15  20
ATOM     20  S   UNL A   1      31.793  25.243  22.847  1.00  0.00    -0.105 SA
BRANCH  20  21
ATOM     21  C   UNL A   1      31.635  26.825  22.123  1.00  0.00     0.073 A 
ATOM     22  C   UNL A   1      30.605  27.731  22.313  1.00  0.00     0.043 A 
ATOM     23  N   UNL A   1      32.777  27.594  22.144  1.00  0.00    -0.350 N 
ATOM     24  C   UNL A   1      31.185  28.652  23.253  1.00  0.00     0.001 A 
ATOM     25  C   UNL A   1      32.568  28.470  23.193  1.00  0.00     0.046 A 
ATOM     26  H   UNL A   1      33.560  27.534  21.550  1.00  0.00     0.167 HD
ATOM     27  C   UNL A   1      30.657  29.466  24.268  1.00  0.00     0.010 A 
ATOM     28  C   UNL A   1      33.462  28.977  24.134  1.00  0.00     0.027 A 
ATOM     29  C   UNL A   1      31.528  29.923  25.268  1.00  0.00     0.001 A 
ATOM     30  C   UNL A   1      32.899  29.661  25.211  1.00  0.00     0.002 A 
ENDBRANCH  20  21
ENDBRANCH  15  20
ENDBRANCH   9  11
ENDBRANCH   8   9
ENDBRANCH   7   8
ENDBRANCH   6   7
ENDBRANCH   5   6
ENDBRANCH   4   5
ENDBRANCH   3   4
ENDBRANCH   2   3
ENDBRANCH   1   2
BRANCH   1  31
ATOM     31  C   UNL A   1      40.772  21.431  26.089  1.00  0.00     0.188 C 
BRANCH  31  32
ATOM     32  O   UNL A   1      42.122  21.778  26.385  1.00  0.00    -0.376 OA
BRANCH  32  33
ATOM     33  C   UNL A   1      42.929  22.331  25.357  1.00  0.00     0.202 C 
BRANCH  33  34
ATOM     34  C   UNL A   1      43.054  23.862  25.316  1.00  0.00     0.261 C 
BRANCH  34  35
ATOM     35  O   UNL A   1      42.083  24.598  26.073  1.00  0.00    -0.460 OA
BRANCH  35  36
ATOM     36  C   UNL A   1      42.053  25.941  25.903  1.00  0.00     0.338 C 
ATOM     37  O   UNL A   1      41.892  26.541  24.868  1.00  0.00    -0.246 OA
BRANCH  36  38
ATOM     38  C   UNL A   1      42.032  26.556  27.251  1.00  0.00     0.060 A 
ATOM     39  C   UNL A   1      41.019  26.183  28.144  1.00  0.00     0.016 A 
ATOM     40  C   UNL A   1      43.007  27.481  27.631  1.00  0.00     0.016 A 
ATOM     41  C   UNL A   1      40.955  26.764  29.409  1.00  0.00     0.010 A 
ATOM     42  C   UNL A   1      42.927  28.083  28.890  1.00  0.00     0.010 A 
ATOM     43  C   UNL A   1      41.879  27.755  29.767  1.00  0.00    -0.014 A 
BRANCH  43  44
ATOM     44  C   UNL A   1      41.610  28.606  30.951  1.00  0.00     0.031 A 
ATOM     45  C   UNL A   1      40.471  29.587  30.869  1.00  0.00     0.074 A 
ATOM     46  C   UNL A   1      42.329  28.490  32.082  1.00  0.00     0.049 A 
ATOM     47  N   UNL A   1      40.063  30.464  31.747  1.00  0.00    -0.248 NA
ATOM     48  C   UNL A   1      39.685  29.574  29.622  1.00  0.00     0.031 C 
ATOM     49  C   UNL A   1      43.421  27.543  32.298  1.00  0.00     0.029 A 
ATOM     50  N   UNL A   1      42.247  29.184  33.263  1.00  0.00    -0.354 N 
ATOM     51  C   UNL A   1      38.975  31.104  31.163  1.00  0.00     0.074 A 
ATOM     52  C   UNL A   1      38.812  30.545  29.840  1.00  0.00     0.031 C 
ATOM     53  C   UNL A   1      43.916  27.723  33.536  1.00  0.00     0.029 A 
ATOM     54  C   UNL A   1      43.198  28.819  34.186  1.00  0.00     0.049 A 
ATOM     55  H   UNL A   1      41.570  29.878  33.432  1.00  0.00     0.167 HD
ATOM     56  C   UNL A   1      38.176  32.063  31.688  1.00  0.00     0.037 A 
ATOM     57  C   UNL A   1      43.467  29.329  35.405  1.00  0.00     0.037 A 
ATOM     58  C   UNL A   1      38.351  32.623  33.000  1.00  0.00     0.049 A 
ATOM     59  C   UNL A   1      42.620  30.464  35.931  1.00  0.00     0.074 A 
ATOM     60  C   UNL A   1      37.602  33.604  33.624  1.00  0.00     0.029 A 
ATOM     61  N   UNL A   1      39.349  32.255  33.892  1.00  0.00    -0.354 N 
ATOM     62  N   UNL A   1      41.588  31.054  35.374  1.00  0.00    -0.248 NA
ATOM     63  C   UNL A   1      42.973  30.998  37.253  1.00  0.00     0.031 C 
ATOM     64  C   UNL A   1      38.178  33.866  34.872  1.00  0.00     0.029 A 
ATOM     65  C   UNL A   1      39.248  33.004  35.051  1.00  0.00     0.049 A 
ATOM     66  H   UNL A   1      40.028  31.562  33.724  1.00  0.00     0.167 HD
ATOM     67  C   UNL A   1      41.147  32.002  36.294  1.00  0.00     0.074 A 
ATOM     68  C   UNL A   1      42.019  31.898  37.446  1.00  0.00     0.031 C 
ATOM     69  C   UNL A   1      40.115  32.877  36.198  1.00  0.00     0.037 A 
BRANCH  56  70
ATOM     70  C   UNL A   1      37.055  32.579  30.828  1.00  0.00     0.058 A 
ATOM     71  C   UNL A   1      37.242  33.640  29.928  1.00  0.00     0.135 A 
ATOM     72  C   UNL A   1      35.782  31.987  30.886  1.00  0.00     0.135 A 
ATOM     73  F   UNL A   1      38.431  34.258  29.849  1.00  0.00    -0.206 F 
ATOM     74  C   UNL A   1      36.202  34.113  29.133  1.00  0.00     0.059 A 
ATOM     75  C   UNL A   1      34.736  32.424  30.078  1.00  0.00     0.059 A 
ATOM     76  F   UNL A   1      35.545  30.975  31.734  1.00  0.00    -0.206 F 
ATOM     77  C   UNL A   1      34.953  33.496  29.215  1.00  0.00     0.060 A 
BRANCH  77  78
ATOM     78  S   UNL A   1      33.619  34.115  28.169  1.00  0.00     0.124 S 
ATOM     79  O   UNL A   1      32.825  34.874  29.131  1.00  0.00    -0.237 OA
ATOM     80  O   UNL A   1      34.341  34.907  27.179  1.00  0.00    -0.237 OA
ATOM     81  O   UNL A   1      32.991  32.899  27.660  1.00  0.00    -0.744 OA
ENDBRANCH  77  78
ENDBRANCH  56  70
BRANCH  57  82
ATOM     82  C   UNL A   1      44.593  28.788  36.216  1.00  0.00     0.058 A 
ATOM     83  C   UNL A   1      45.884  29.329  36.114  1.00  0.00     0.135 A 
ATOM     84  C   UNL A   1      44.410  27.700  37.083  1.00  0.00     0.135 A 
ATOM     85  F   UNL A   1      46.115  30.362  35.290  1.00  0.00    -0.206 F 
ATOM     86  C   UNL A   1      46.957  28.796  36.822  1.00  0.00     0.059 A 
ATOM     87  C   UNL A   1      45.461  27.169  37.826  1.00  0.00     0.059 A 
ATOM     88  F   UNL A   1      43.195  27.148  37.224  1.00  0.00    -0.206 F 
ATOM     89  C   UNL A   1      46.735  27.716  37.676  1.00  0.00     0.060 A 
BRANCH  89  90
ATOM     90  S   UNL A   1      48.133  27.049  38.607  1.00  0.00     0.124 S 
ATOM     91  O   UNL A   1      48.645  28.245  39.265  1.00  0.00    -0.237 OA
ATOM     92  O   UNL A   1      47.483  26.070  39.473  1.00  0.00    -0.237 OA
ATOM     93  O   UNL A   1      48.989  26.484  37.568  1.00  0.00    -0.744 OA
ENDBRANCH  89  90
ENDBRANCH  57  82
BRANCH  69  94
ATOM     94  C   UNL A   1      39.833  33.758  37.385  1.00  0.00     0.058 A 
ATOM     95  C   UNL A   1      40.359  35.055  37.490  1.00  0.00     0.135 A 
ATOM     96  C   UNL A   1      38.978  33.315  38.409  1.00  0.00     0.135 A 
ATOM     97  F   UNL A   1      41.184  35.529  36.543  1.00  0.00    -0.206 F 
ATOM     98  C   UNL A   1      40.071  35.871  38.581  1.00  0.00     0.059 A 
ATOM     99  C   UNL A   1      38.650  34.124  39.492  1.00  0.00     0.059 A 
ATOM    100  F   UNL A   1      38.435  32.088  38.351  1.00  0.00    -0.206 F 
ATOM    101  C   UNL A   1      39.214  35.397  39.576  1.00  0.00     0.060 A 
BRANCH 101 102
ATOM    102  S   UNL A   1      38.826  36.475  40.970  1.00  0.00     0.124 S 
ATOM    103  O   UNL A   1      40.126  36.590  41.623  1.00  0.00    -0.237 OA
ATOM    104  O   UNL A   1      38.342  37.681  40.307  1.00  0.00    -0.237 OA
ATOM    105  O   UNL A   1      37.817  35.726  41.711  1.00  0.00    -0.744 OA
ENDBRANCH 101 102
ENDBRANCH  69  94
ENDBRANCH  43  44
ENDBRANCH  36  38
ENDBRANCH  35  36
ENDBRANCH  34  35
ENDBRANCH  33  34
ENDBRANCH  32  33
ENDBRANCH  31  32
ENDBRANCH   1  31
TORSDOF 26
ENDMDL
MODEL 3
REMARK VINA RESULT:      -9.8      1.723      8.150
REMARK SMILES [NH3+][C@]1(C(=O)OCCOCCOCCOCCOC(=O)c2ccc(-c3c4nc(c(-c5c(F)cc(S(=O)(=O)[O-])cc5F)c5ccc([nH]5)c(-c5c(F)cc(S(=O)(=O)[O-])cc5F)c5nc(c(-c6c(F)cc(S(=O)(=O)[O-])cc6F)c6ccc3[nH]6)C=C5)C=C4)cc2)CC[C@@H](Sc2cc3ccccc3[nH]2)C1
REMARK SMILES IDX 12 1 11 2 10 3 9 4 8 5 7 6 6 7 5 8 3 9 4 10 2 11 86 12 99 13
REMARK SMILES IDX 87 14 88 15 1 16 89 20 90 21 91 22 98 23 92 24 97 25 93 27
REMARK SMILES IDX 96 28 94 29 95 30 13 31 14 32 15 33 16 34 17 35 18 36 19 37
REMARK SMILES IDX 20 38 21 39 85 40 22 41 84 42 23 43 24 44 25 45 78 46 26 47
REMARK SMILES IDX 83 48 77 49 79 50 27 51 82 52 76 53 75 54 28 56 62 57 41 58
REMARK SMILES IDX 61 59 42 60 45 61 60 62 80 63 43 64 44 65 59 67 81 68 46 69
REMARK SMILES IDX 29 70 30 71 39 72 31 73 32 74 38 75 40 76 33 77 34 78 35 79
REMARK SMILES IDX 36 80 37 81 63 82 64 83 73 84 65 85 66 86 72 87 74 88 67 89
REMARK SMILES IDX 68 90 69 91 70 92 71 93 47 94 48 95 57 96 49 97 50 98 56 99
REMARK SMILES IDX 58 100 51 101 52 102 53 103 54 104 55 105
REMARK H PARENT 1 17 1 18 1 19 98 26 79 55 45 66
REMARK Flexibility Score: inf
ROOT
ATOM      1  C   UNL A   1      31.427  28.964  25.394  1.00  0.00     0.188 C 
ENDROOT
BRANCH   1   2
ATOM      2  O   UNL A   1      31.572  28.337  24.127  1.00  0.00    -0.377 OA
BRANCH   2   3
ATOM      3  C   UNL A   1      32.623  28.829  23.323  1.00  0.00     0.188 C 
BRANCH   3   4
ATOM      4  C   UNL A   1      33.823  27.872  23.179  1.00  0.00     0.188 C 
BRANCH   4   5
ATOM      5  O   UNL A   1      33.996  27.053  22.032  1.00  0.00    -0.376 OA
BRANCH   5   6
ATOM      6  C   UNL A   1      32.904  26.387  21.418  1.00  0.00     0.202 C 
BRANCH   6   7
ATOM      7  C   UNL A   1      32.280  25.108  22.007  1.00  0.00     0.261 C 
BRANCH   7   8
ATOM      8  O   UNL A   1      31.712  25.203  23.317  1.00  0.00    -0.459 OA
BRANCH   8   9
ATOM      9  C   UNL A   1      31.618  24.048  24.019  1.00  0.00     0.368 C 
ATOM     10  O   UNL A   1      31.165  22.997  23.572  1.00  0.00    -0.245 OA
BRANCH   9  11
ATOM     11  C   UNL A   1      32.257  24.153  25.429  1.00  0.00     0.193 C 
ATOM     12  C   UNL A   1      31.664  23.222  26.505  1.00  0.00     0.082 C 
ATOM     13  C   UNL A   1      33.731  23.750  25.304  1.00  0.00     0.096 C 
ATOM     14  C   UNL A   1      32.834  22.871  27.401  1.00  0.00     0.022 C 
ATOM     15  C   UNL A   1      34.018  22.793  26.454  1.00  0.00     0.060 C 
BRANCH  11  16
ATOM     16  N   UNL A   1      32.264  25.563  25.910  1.00  0.00    -0.343 N 
ATOM     17  H   UNL A   1      31.450  25.725  26.502  1.00  0.00     0.345 HD
ATOM     18  H   UNL A   1      32.235  26.196  25.110  1.00  0.00     0.345 HD
ATOM     19  H   UNL A   1      33.114  25.735  26.447  1.00  0.00     0.345 HD
ENDBRANCH  11  16
BRANCH  15  20
ATOM     20  S   UNL A   1      34.439  21.210  25.720  1.00  0.00    -0.105 SA
BRANCH  20  21
ATOM     21  C   UNL A   1      32.967  20.286  25.542  1.00  0.00     0.073 A 
ATOM     22  C   UNL A   1      32.272  20.040  24.369  1.00  0.00     0.043 A 
ATOM     23  N   UNL A   1      32.948  19.082  26.211  1.00  0.00    -0.350 N 
ATOM     24  C   UNL A   1      32.687  18.700  24.049  1.00  0.00     0.001 A 
ATOM     25  C   UNL A   1      33.206  18.149  25.223  1.00  0.00     0.046 A 
ATOM     26  H   UNL A   1      32.787  18.923  27.169  1.00  0.00     0.167 HD
ATOM     27  C   UNL A   1      32.845  17.992  22.847  1.00  0.00     0.010 A 
ATOM     28  C   UNL A   1      33.952  16.974  25.268  1.00  0.00     0.027 A 
ATOM     29  C   UNL A   1      33.657  16.849  22.856  1.00  0.00     0.001 A 
ATOM     30  C   UNL A   1      34.217  16.365  24.042  1.00  0.00     0.002 A 
ENDBRANCH  20  21
ENDBRANCH  15  20
ENDBRANCH   9  11
ENDBRANCH   8   9
ENDBRANCH   7   8
ENDBRANCH   6   7
ENDBRANCH   5   6
ENDBRANCH   4   5
ENDBRANCH   3   4
ENDBRANCH   2   3
ENDBRANCH   1   2
BRANCH   1  31
ATOM     31  C   UNL A   1      32.407  30.110  25.718  1.00  0.00     0.188 C 
BRANCH  31  32
ATOM     32  O   UNL A   1      33.536  29.698  26.483  1.00  0.00    -0.376 OA
BRANCH  32  33
ATOM     33  C   UNL A   1      33.879  30.431  27.649  1.00  0.00     0.202 C 
BRANCH  33  34
ATOM     34  C   UNL A   1      35.373  30.527  27.997  1.00  0.00     0.261 C 
BRANCH  34  35
ATOM     35  O   UNL A   1      35.946  29.389  28.655  1.00  0.00    -0.460 OA
BRANCH  35  36
ATOM     36  C   UNL A   1      36.613  29.612  29.812  1.00  0.00     0.338 C 
ATOM     37  O   UNL A   1      36.156  29.606  30.929  1.00  0.00    -0.246 OA
BRANCH  36  38
ATOM     38  C   UNL A   1      38.058  29.652  29.487  1.00  0.00     0.060 A 
ATOM     39  C   UNL A   1      38.443  29.651  28.140  1.00  0.00     0.016 A 
ATOM     40  C   UNL A   1      39.019  29.700  30.499  1.00  0.00     0.016 A 
ATOM     41  C   UNL A   1      39.795  29.659  27.801  1.00  0.00     0.010 A 
ATOM     42  C   UNL A   1      40.374  29.680  30.159  1.00  0.00     0.010 A 
ATOM     43  C   UNL A   1      40.766  29.621  28.810  1.00  0.00    -0.014 A 
BRANCH  43  44
ATOM     44  C   UNL A   1      42.166  29.283  28.459  1.00  0.00     0.031 A 
ATOM     45  C   UNL A   1      42.479  27.854  28.104  1.00  0.00     0.074 A 
ATOM     46  C   UNL A   1      43.130  30.221  28.421  1.00  0.00     0.049 A 
ATOM     47  N   UNL A   1      43.624  27.303  27.804  1.00  0.00    -0.248 NA
ATOM     48  C   UNL A   1      41.338  26.921  28.086  1.00  0.00     0.031 C 
ATOM     49  C   UNL A   1      42.938  31.645  28.695  1.00  0.00     0.029 A 
ATOM     50  N   UNL A   1      44.468  30.110  28.138  1.00  0.00    -0.354 N 
ATOM     51  C   UNL A   1      43.344  25.963  27.559  1.00  0.00     0.074 A 
ATOM     52  C   UNL A   1      41.930  25.775  27.787  1.00  0.00     0.031 C 
ATOM     53  C   UNL A   1      44.121  32.274  28.577  1.00  0.00     0.029 A 
ATOM     54  C   UNL A   1      45.157  31.295  28.252  1.00  0.00     0.049 A 
ATOM     55  H   UNL A   1      44.894  29.262  27.877  1.00  0.00     0.167 HD
ATOM     56  C   UNL A   1      44.189  24.980  27.167  1.00  0.00     0.037 A 
ATOM     57  C   UNL A   1      46.476  31.548  28.128  1.00  0.00     0.037 A 
ATOM     58  C   UNL A   1      45.598  25.172  26.953  1.00  0.00     0.049 A 
ATOM     59  C   UNL A   1      47.413  30.415  27.783  1.00  0.00     0.074 A 
ATOM     60  C   UNL A   1      46.544  24.240  26.562  1.00  0.00     0.029 A 
ATOM     61  N   UNL A   1      46.267  26.377  27.115  1.00  0.00    -0.354 N 
ATOM     62  N   UNL A   1      47.136  29.154  27.544  1.00  0.00    -0.248 NA
ATOM     63  C   UNL A   1      48.843  30.741  27.686  1.00  0.00     0.031 C 
ATOM     64  C   UNL A   1      47.793  24.871  26.539  1.00  0.00     0.029 A 
ATOM     65  C   UNL A   1      47.616  26.208  26.854  1.00  0.00     0.049 A 
ATOM     66  H   UNL A   1      45.844  27.226  27.377  1.00  0.00     0.167 HD
ATOM     67  C   UNL A   1      48.350  28.548  27.232  1.00  0.00     0.074 A 
ATOM     68  C   UNL A   1      49.361  29.583  27.303  1.00  0.00     0.031 C 
ATOM     69  C   UNL A   1      48.608  27.254  26.913  1.00  0.00     0.037 A 
BRANCH  56  70
ATOM     70  C   UNL A   1      43.611  23.606  26.966  1.00  0.00     0.058 A 
ATOM     71  C   UNL A   1      43.329  22.758  28.049  1.00  0.00     0.135 A 
ATOM     72  C   UNL A   1      43.310  23.141  25.675  1.00  0.00     0.135 A 
ATOM     73  F   UNL A   1      43.619  23.142  29.302  1.00  0.00    -0.206 F 
ATOM     74  C   UNL A   1      42.792  21.489  27.858  1.00  0.00     0.059 A 
ATOM     75  C   UNL A   1      42.743  21.887  25.464  1.00  0.00     0.059 A 
ATOM     76  F   UNL A   1      43.565  23.907  24.604  1.00  0.00    -0.206 F 
ATOM     77  C   UNL A   1      42.500  21.064  26.562  1.00  0.00     0.060 A 
BRANCH  77  78
ATOM     78  S   UNL A   1      41.795  19.418  26.334  1.00  0.00     0.124 S 
ATOM     79  O   UNL A   1      40.369  19.722  26.253  1.00  0.00    -0.237 OA
ATOM     80  O   UNL A   1      42.421  18.980  25.091  1.00  0.00    -0.237 OA
ATOM     81  O   UNL A   1      42.214  18.698  27.533  1.00  0.00    -0.744 OA
ENDBRANCH  77  78
ENDBRANCH  56  70
BRANCH  57  82
ATOM     82  C   UNL A   1      47.002  32.924  28.344  1.00  0.00     0.058 A 
ATOM     83  C   UNL A   1      47.431  33.346  29.612  1.00  0.00     0.135 A 
ATOM     84  C   UNL A   1      47.056  33.856  27.296  1.00  0.00     0.135 A 
ATOM     85  F   UNL A   1      47.387  32.498  30.650  1.00  0.00    -0.206 F 
ATOM     86  C   UNL A   1      47.870  34.647  29.839  1.00  0.00     0.059 A 
ATOM     87  C   UNL A   1      47.520  35.154  27.491  1.00  0.00     0.059 A 
ATOM     88  F   UNL A   1      46.665  33.503  26.061  1.00  0.00    -0.206 F 
ATOM     89  C   UNL A   1      47.911  35.544  28.771  1.00  0.00     0.060 A 
BRANCH  89  90
ATOM     90  S   UNL A   1      48.505  37.223  29.075  1.00  0.00     0.124 S 
ATOM     91  O   UNL A   1      48.737  37.196  30.515  1.00  0.00    -0.237 OA
ATOM     92  O   UNL A   1      49.697  37.281  28.236  1.00  0.00    -0.237 OA
ATOM     93  O   UNL A   1      47.393  38.058  28.631  1.00  0.00    -0.744 OA
ENDBRANCH  89  90
ENDBRANCH  57  82
BRANCH  69  94
ATOM     94  C   UNL A   1      50.027  26.889  26.566  1.00  0.00     0.058 A 
ATOM     95  C   UNL A   1      50.929  26.412  27.529  1.00  0.00     0.135 A 
ATOM     96  C   UNL A   1      50.472  26.969  25.235  1.00  0.00     0.135 A 
ATOM     97  F   UNL A   1      50.558  26.319  28.815  1.00  0.00    -0.206 F 
ATOM     98  C   UNL A   1      52.231  26.054  27.191  1.00  0.00     0.059 A 
ATOM     99  C   UNL A   1      51.759  26.586  24.869  1.00  0.00     0.059 A 
ATOM    100  F   UNL A   1      49.646  27.404  24.271  1.00  0.00    -0.206 F 
ATOM    101  C   UNL A   1      52.636  26.143  25.858  1.00  0.00     0.060 A 
BRANCH 101 102
ATOM    102  S   UNL A   1      54.318  25.647  25.429  1.00  0.00     0.124 S 
ATOM    103  O   UNL A   1      55.107  26.452  26.356  1.00  0.00    -0.237 OA
ATOM    104  O   UNL A   1      54.298  24.213  25.694  1.00  0.00    -0.237 OA
ATOM    105  O   UNL A   1      54.434  26.017  24.022  1.00  0.00    -0.744 OA
ENDBRANCH 101 102
ENDBRANCH  69  94
ENDBRANCH  43  44
ENDBRANCH  36  38
ENDBRANCH  35  36
ENDBRANCH  34  35
ENDBRANCH  33  34
ENDBRANCH  32  33
ENDBRANCH  31  32
ENDBRANCH   1  31
TORSDOF 26
ENDMDL
