MODEL 1
REMARK VINA RESULT:      -8.9      0.000      0.000
REMARK SMILES Cc1ccccc1NC(=O)NC[C@@H]1CC[C@@H](C(=O)OCCOCCOCCOCCOC(=O)c2ccc(-c3c4nc(c(-c5c(F)cc(S(=O)(=O)[O-])cc5F)c5ccc([nH]5)c(-c5c(F)cc(S(=O)(=O)[O-])cc5F)c5nc(c(-c6c(F)cc(S(=O)(=O)[O-])cc6F)c6ccc3[nH]6)C=C5)C=C4)cc2)O1
REMARK SMILES IDX 25 1 24 2 23 3 22 4 21 5 20 6 19 7 17 8 18 9 16 10 13 11
REMARK SMILES IDX 14 12 100 13 15 14 12 15 11 16 8 17 9 18 10 20 7 22 1 23
REMARK SMILES IDX 2 24 3 25 4 26 6 27 5 28 26 29 27 30 28 31 29 32 30 33 31 34
REMARK SMILES IDX 32 35 33 36 34 37 35 38 99 39 36 40 98 41 37 42 38 43 39 44
REMARK SMILES IDX 92 45 40 46 97 47 91 48 93 49 41 50 96 51 90 52 89 53 42 55
REMARK SMILES IDX 76 56 55 57 75 58 56 59 59 60 74 61 94 62 57 63 58 64 73 66
REMARK SMILES IDX 95 67 60 68 43 69 44 70 53 71 45 72 46 73 52 74 54 75 47 76
REMARK SMILES IDX 48 77 49 78 50 79 51 80 77 81 78 82 87 83 79 84 80 85 86 86
REMARK SMILES IDX 88 87 81 88 82 89 83 90 84 91 85 92 61 93 62 94 71 95 63 96
REMARK SMILES IDX 64 97 70 98 72 99 65 100 66 101 67 102 68 103 69 104
REMARK H PARENT 8 19 11 21 93 54 59 65
REMARK Flexibility Score: inf
ROOT
ATOM      1  O   UNL A   1      34.106  24.470  25.333  1.00  0.00    -0.377 OA
ENDROOT
BRANCH   1   2
ATOM      2  C   UNL A   1      34.100  25.813  25.774  1.00  0.00     0.188 C 
BRANCH   2   3
ATOM      3  C   UNL A   1      32.787  26.592  25.611  1.00  0.00     0.188 C 
BRANCH   3   4
ATOM      4  O   UNL A   1      31.990  26.913  26.733  1.00  0.00    -0.376 OA
BRANCH   4   5
ATOM      5  C   UNL A   1      32.318  28.173  27.318  1.00  0.00     0.202 C 
BRANCH   5   6
ATOM      6  C   UNL A   1      32.809  29.276  26.381  1.00  0.00     0.261 C 
BRANCH   6   7
ATOM      7  O   UNL A   1      34.198  29.559  26.591  1.00  0.00    -0.461 OA
BRANCH   7   8
ATOM      8  C   UNL A   1      34.455  30.649  27.344  1.00  0.00     0.335 C 
ATOM      9  O   UNL A   1      33.605  31.414  27.786  1.00  0.00    -0.249 OA
BRANCH   8  10
ATOM     10  C   UNL A   1      35.927  30.739  27.732  1.00  0.00     0.228 C 
ATOM     11  C   UNL A   1      36.160  30.568  30.029  1.00  0.00     0.138 C 
ATOM     12  C   UNL A   1      37.262  29.712  29.447  1.00  0.00     0.037 C 
ATOM     13  O   UNL A   1      35.897  31.494  28.971  1.00  0.00    -0.361 OA
ATOM     14  C   UNL A   1      36.708  29.461  28.046  1.00  0.00     0.047 C 
BRANCH  11  15
ATOM     15  C   UNL A   1      36.268  31.338  31.343  1.00  0.00     0.149 C 
BRANCH  15  16
ATOM     16  N   UNL A   1      35.112  32.251  31.449  1.00  0.00    -0.335 N 
ATOM     17  N   UNL A   1      35.900  34.497  31.422  1.00  0.00    -0.308 N 
ATOM     18  C   UNL A   1      34.919  33.576  31.446  1.00  0.00     0.319 C 
ATOM     19  H   UNL A   1      35.586  35.383  31.128  1.00  0.00     0.171 HD
ATOM     20  O   UNL A   1      33.757  33.987  31.369  1.00  0.00    -0.249 OA
ATOM     21  H   UNL A   1      34.265  31.758  31.546  1.00  0.00     0.165 HD
BRANCH  17  22
ATOM     22  C   UNL A   1      37.267  34.476  31.721  1.00  0.00     0.045 A 
ATOM     23  C   UNL A   1      37.881  34.262  29.239  1.00  0.00     0.046 C 
ATOM     24  C   UNL A   1      38.210  34.247  30.705  1.00  0.00    -0.027 A 
ATOM     25  C   UNL A   1      39.555  34.038  31.065  1.00  0.00     0.005 A 
ATOM     26  C   UNL A   1      39.965  34.110  32.395  1.00  0.00     0.000 A 
ATOM     27  C   UNL A   1      37.724  34.712  33.016  1.00  0.00     0.026 A 
ATOM     28  C   UNL A   1      39.055  34.492  33.367  1.00  0.00     0.002 A 
ENDBRANCH  17  22
ENDBRANCH  15  16
ENDBRANCH  11  15
ENDBRANCH   8  10
ENDBRANCH   7   8
ENDBRANCH   6   7
ENDBRANCH   5   6
ENDBRANCH   4   5
ENDBRANCH   3   4
ENDBRANCH   2   3
ENDBRANCH   1   2
BRANCH   1  29
ATOM     29  C   UNL A   1      35.322  23.951  24.777  1.00  0.00     0.188 C 
BRANCH  29  30
ATOM     30  C   UNL A   1      36.623  24.112  25.547  1.00  0.00     0.188 C 
BRANCH  30  31
ATOM     31  O   UNL A   1      36.909  22.834  26.111  1.00  0.00    -0.376 OA
BRANCH  31  32
ATOM     32  C   UNL A   1      37.385  21.838  25.228  1.00  0.00     0.202 C 
BRANCH  32  33
ATOM     33  C   UNL A   1      38.814  21.403  25.540  1.00  0.00     0.261 C 
BRANCH  33  34
ATOM     34  O   UNL A   1      39.420  22.258  26.538  1.00  0.00    -0.460 OA
BRANCH  34  35
ATOM     35  C   UNL A   1      40.447  21.732  27.280  1.00  0.00     0.338 C 
ATOM     36  O   UNL A   1      40.517  20.559  27.576  1.00  0.00    -0.246 OA
BRANCH  35  37
ATOM     37  C   UNL A   1      41.515  22.744  27.546  1.00  0.00     0.060 A 
ATOM     38  C   UNL A   1      42.242  22.771  28.747  1.00  0.00     0.016 A 
ATOM     39  C   UNL A   1      41.705  23.768  26.639  1.00  0.00     0.016 A 
ATOM     40  C   UNL A   1      42.995  23.914  29.119  1.00  0.00     0.010 A 
ATOM     41  C   UNL A   1      42.381  24.905  27.044  1.00  0.00     0.010 A 
ATOM     42  C   UNL A   1      43.006  25.038  28.298  1.00  0.00    -0.014 A 
BRANCH  42  43
ATOM     43  C   UNL A   1      43.486  26.416  28.626  1.00  0.00     0.031 A 
ATOM     44  C   UNL A   1      42.508  27.368  29.295  1.00  0.00     0.074 A 
ATOM     45  C   UNL A   1      44.823  26.676  28.708  1.00  0.00     0.049 A 
ATOM     46  N   UNL A   1      42.812  28.463  29.906  1.00  0.00    -0.248 NA
ATOM     47  C   UNL A   1      41.065  27.123  29.364  1.00  0.00     0.031 C 
ATOM     48  C   UNL A   1      45.482  27.557  29.687  1.00  0.00     0.029 A 
ATOM     49  N   UNL A   1      45.918  26.155  28.030  1.00  0.00    -0.354 N 
ATOM     50  C   UNL A   1      41.743  28.864  30.698  1.00  0.00     0.074 A 
ATOM     51  C   UNL A   1      40.658  28.022  30.270  1.00  0.00     0.031 C 
ATOM     52  C   UNL A   1      46.813  27.558  29.526  1.00  0.00     0.029 A 
ATOM     53  C   UNL A   1      47.051  26.959  28.242  1.00  0.00     0.049 A 
ATOM     54  H   UNL A   1      45.902  25.339  27.478  1.00  0.00     0.167 HD
ATOM     55  C   UNL A   1      41.960  29.781  31.697  1.00  0.00     0.037 A 
ATOM     56  C   UNL A   1      47.578  27.687  27.208  1.00  0.00     0.037 A 
ATOM     57  C   UNL A   1      43.296  30.394  31.544  1.00  0.00     0.049 A 
ATOM     58  C   UNL A   1      47.298  29.184  27.377  1.00  0.00     0.074 A 
ATOM     59  C   UNL A   1      44.400  30.555  32.363  1.00  0.00     0.029 A 
ATOM     60  N   UNL A   1      43.700  30.829  30.282  1.00  0.00    -0.354 N 
ATOM     61  N   UNL A   1      46.288  29.656  28.075  1.00  0.00    -0.248 NA
ATOM     62  C   UNL A   1      48.202  30.255  26.959  1.00  0.00     0.031 C 
ATOM     63  C   UNL A   1      45.508  30.921  31.547  1.00  0.00     0.029 A 
ATOM     64  C   UNL A   1      45.048  31.105  30.250  1.00  0.00     0.049 A 
ATOM     65  H   UNL A   1      43.097  30.924  29.509  1.00  0.00     0.167 HD
ATOM     66  C   UNL A   1      46.434  31.001  28.275  1.00  0.00     0.074 A 
ATOM     67  C   UNL A   1      47.630  31.337  27.525  1.00  0.00     0.031 C 
ATOM     68  C   UNL A   1      45.628  31.755  29.087  1.00  0.00     0.037 A 
BRANCH  55  69
ATOM     69  C   UNL A   1      41.085  30.041  32.944  1.00  0.00     0.058 A 
ATOM     70  C   UNL A   1      39.792  30.613  32.810  1.00  0.00     0.135 A 
ATOM     71  C   UNL A   1      41.479  29.869  34.292  1.00  0.00     0.135 A 
ATOM     72  F   UNL A   1      39.241  30.809  31.605  1.00  0.00    -0.206 F 
ATOM     73  C   UNL A   1      38.990  31.008  33.893  1.00  0.00     0.059 A 
ATOM     74  C   UNL A   1      40.668  30.206  35.396  1.00  0.00     0.059 A 
ATOM     75  F   UNL A   1      42.686  29.391  34.617  1.00  0.00    -0.206 F 
ATOM     76  C   UNL A   1      39.429  30.794  35.189  1.00  0.00     0.060 A 
BRANCH  76  77
ATOM     77  S   UNL A   1      38.348  31.242  36.570  1.00  0.00     0.124 S 
ATOM     78  O   UNL A   1      37.922  29.939  37.069  1.00  0.00    -0.237 OA
ATOM     79  O   UNL A   1      39.248  31.990  37.443  1.00  0.00    -0.237 OA
ATOM     80  O   UNL A   1      37.300  32.039  35.938  1.00  0.00    -0.744 OA
ENDBRANCH  76  77
ENDBRANCH  55  69
BRANCH  56  81
ATOM     81  C   UNL A   1      47.761  26.807  26.003  1.00  0.00     0.058 A 
ATOM     82  C   UNL A   1      47.058  27.280  24.866  1.00  0.00     0.135 A 
ATOM     83  C   UNL A   1      49.017  26.217  25.762  1.00  0.00     0.135 A 
ATOM     84  F   UNL A   1      45.831  27.808  25.019  1.00  0.00    -0.206 F 
ATOM     85  C   UNL A   1      47.689  27.465  23.637  1.00  0.00     0.059 A 
ATOM     86  C   UNL A   1      49.661  26.372  24.524  1.00  0.00     0.059 A 
ATOM     87  F   UNL A   1      49.727  25.712  26.781  1.00  0.00    -0.206 F 
ATOM     88  C   UNL A   1      49.021  27.080  23.503  1.00  0.00     0.060 A 
BRANCH  88  89
ATOM     89  S   UNL A   1      49.949  27.739  22.089  1.00  0.00     0.124 S 
ATOM     90  O   UNL A   1      49.050  28.763  21.578  1.00  0.00    -0.237 OA
ATOM     91  O   UNL A   1      51.166  28.223  22.738  1.00  0.00    -0.237 OA
ATOM     92  O   UNL A   1      50.127  26.570  21.236  1.00  0.00    -0.744 OA
ENDBRANCH  88  89
ENDBRANCH  56  81
BRANCH  68  93
ATOM     93  C   UNL A   1      45.326  33.233  28.904  1.00  0.00     0.058 A 
ATOM     94  C   UNL A   1      44.093  33.714  28.439  1.00  0.00     0.135 A 
ATOM     95  C   UNL A   1      46.204  34.231  29.416  1.00  0.00     0.135 A 
ATOM     96  F   UNL A   1      43.123  32.887  28.029  1.00  0.00    -0.206 F 
ATOM     97  C   UNL A   1      43.778  35.071  28.424  1.00  0.00     0.059 A 
ATOM     98  C   UNL A   1      45.882  35.582  29.472  1.00  0.00     0.059 A 
ATOM     99  F   UNL A   1      47.410  33.935  29.923  1.00  0.00    -0.206 F 
ATOM    100  C   UNL A   1      44.673  35.997  28.947  1.00  0.00     0.060 A 
BRANCH 100 101
ATOM    101  S   UNL A   1      44.220  37.734  28.966  1.00  0.00     0.124 S 
ATOM    102  O   UNL A   1      42.985  37.715  28.186  1.00  0.00    -0.237 OA
ATOM    103  O   UNL A   1      44.060  38.000  30.393  1.00  0.00    -0.237 OA
ATOM    104  O   UNL A   1      45.356  38.395  28.335  1.00  0.00    -0.744 OA
ENDBRANCH 100 101
ENDBRANCH  68  93
ENDBRANCH  42  43
ENDBRANCH  35  37
ENDBRANCH  34  35
ENDBRANCH  33  34
ENDBRANCH  32  33
ENDBRANCH  31  32
ENDBRANCH  30  31
ENDBRANCH  29  30
ENDBRANCH   1  29
TORSDOF 26
ENDMDL
MODEL 2
REMARK VINA RESULT:      -8.0      3.253      6.926
REMARK SMILES Cc1ccccc1NC(=O)NC[C@@H]1CC[C@@H](C(=O)OCCOCCOCCOCCOC(=O)c2ccc(-c3c4nc(c(-c5c(F)cc(S(=O)(=O)[O-])cc5F)c5ccc([nH]5)c(-c5c(F)cc(S(=O)(=O)[O-])cc5F)c5nc(c(-c6c(F)cc(S(=O)(=O)[O-])cc6F)c6ccc3[nH]6)C=C5)C=C4)cc2)O1
REMARK SMILES IDX 25 1 24 2 23 3 22 4 21 5 20 6 19 7 17 8 18 9 16 10 13 11
REMARK SMILES IDX 14 12 100 13 15 14 12 15 11 16 8 17 9 18 10 20 7 22 1 23
REMARK SMILES IDX 2 24 3 25 4 26 6 27 5 28 26 29 27 30 28 31 29 32 30 33 31 34
REMARK SMILES IDX 32 35 33 36 34 37 35 38 99 39 36 40 98 41 37 42 38 43 39 44
REMARK SMILES IDX 92 45 40 46 97 47 91 48 93 49 41 50 96 51 90 52 89 53 42 55
REMARK SMILES IDX 76 56 55 57 75 58 56 59 59 60 74 61 94 62 57 63 58 64 73 66
REMARK SMILES IDX 95 67 60 68 43 69 44 70 53 71 45 72 46 73 52 74 54 75 47 76
REMARK SMILES IDX 48 77 49 78 50 79 51 80 77 81 78 82 87 83 79 84 80 85 86 86
REMARK SMILES IDX 88 87 81 88 82 89 83 90 84 91 85 92 61 93 62 94 71 95 63 96
REMARK SMILES IDX 64 97 70 98 72 99 65 100 66 101 67 102 68 103 69 104
REMARK H PARENT 8 19 11 21 93 54 59 65
REMARK Flexibility Score: inf
ROOT
ATOM      1  O   UNL A   1      34.140  24.750  25.238  1.00  0.00    -0.377 OA
ENDROOT
BRANCH   1   2
ATOM      2  C   UNL A   1      34.328  26.045  25.772  1.00  0.00     0.188 C 
BRANCH   2   3
ATOM      3  C   UNL A   1      33.264  27.098  25.436  1.00  0.00     0.188 C 
BRANCH   3   4
ATOM      4  O   UNL A   1      32.510  27.012  24.243  1.00  0.00    -0.376 OA
BRANCH   4   5
ATOM      5  C   UNL A   1      31.408  26.111  24.334  1.00  0.00     0.202 C 
BRANCH   5   6
ATOM      6  C   UNL A   1      30.565  26.158  25.608  1.00  0.00     0.261 C 
BRANCH   6   7
ATOM      7  O   UNL A   1      30.836  25.033  26.454  1.00  0.00    -0.461 OA
BRANCH   7   8
ATOM      8  C   UNL A   1      30.826  23.833  25.835  1.00  0.00     0.335 C 
ATOM      9  O   UNL A   1      30.615  23.661  24.640  1.00  0.00    -0.249 OA
BRANCH   8  10
ATOM     10  C   UNL A   1      31.274  22.710  26.764  1.00  0.00     0.228 C 
ATOM     11  C   UNL A   1      33.171  21.685  25.921  1.00  0.00     0.138 C 
ATOM     12  C   UNL A   1      33.420  21.837  27.405  1.00  0.00     0.037 C 
ATOM     13  O   UNL A   1      31.742  21.689  25.847  1.00  0.00    -0.361 OA
ATOM     14  C   UNL A   1      32.428  22.949  27.740  1.00  0.00     0.047 C 
BRANCH  11  15
ATOM     15  C   UNL A   1      33.707  20.537  25.069  1.00  0.00     0.149 C 
BRANCH  15  16
ATOM     16  N   UNL A   1      33.084  20.615  23.732  1.00  0.00    -0.335 N 
ATOM     17  N   UNL A   1      32.054  18.526  23.242  1.00  0.00    -0.308 N 
ATOM     18  C   UNL A   1      32.353  19.805  22.955  1.00  0.00     0.319 C 
ATOM     19  H   UNL A   1      31.285  18.188  22.727  1.00  0.00     0.171 HD
ATOM     20  O   UNL A   1      31.839  20.292  21.943  1.00  0.00    -0.249 OA
ATOM     21  H   UNL A   1      33.249  21.484  23.302  1.00  0.00     0.165 HD
BRANCH  17  22
ATOM     22  C   UNL A   1      32.591  17.567  24.109  1.00  0.00     0.045 A 
ATOM     23  C   UNL A   1      34.433  16.971  22.427  1.00  0.00     0.046 C 
ATOM     24  C   UNL A   1      33.647  16.743  23.686  1.00  0.00    -0.027 A 
ATOM     25  C   UNL A   1      34.033  15.664  24.505  1.00  0.00     0.005 A 
ATOM     26  C   UNL A   1      33.425  15.443  25.739  1.00  0.00     0.000 A 
ATOM     27  C   UNL A   1      32.118  17.431  25.412  1.00  0.00     0.026 A 
ATOM     28  C   UNL A   1      32.497  16.354  26.213  1.00  0.00     0.002 A 
ENDBRANCH  17  22
ENDBRANCH  15  16
ENDBRANCH  11  15
ENDBRANCH   8  10
ENDBRANCH   7   8
ENDBRANCH   6   7
ENDBRANCH   5   6
ENDBRANCH   4   5
ENDBRANCH   3   4
ENDBRANCH   2   3
ENDBRANCH   1   2
BRANCH   1  29
ATOM     29  C   UNL A   1      35.290  24.057  24.733  1.00  0.00     0.188 C 
BRANCH  29  30
ATOM     30  C   UNL A   1      36.618  24.185  25.462  1.00  0.00     0.188 C 
BRANCH  30  31
ATOM     31  O   UNL A   1      36.788  22.970  26.190  1.00  0.00    -0.376 OA
BRANCH  31  32
ATOM     32  C   UNL A   1      37.196  21.836  25.451  1.00  0.00     0.202 C 
BRANCH  32  33
ATOM     33  C   UNL A   1      38.678  21.515  25.631  1.00  0.00     0.261 C 
BRANCH  33  34
ATOM     34  O   UNL A   1      39.335  22.502  26.461  1.00  0.00    -0.460 OA
BRANCH  34  35
ATOM     35  C   UNL A   1      40.339  22.063  27.286  1.00  0.00     0.338 C 
ATOM     36  O   UNL A   1      40.409  20.927  27.699  1.00  0.00    -0.246 OA
BRANCH  35  37
ATOM     37  C   UNL A   1      41.388  23.110  27.489  1.00  0.00     0.060 A 
ATOM     38  C   UNL A   1      42.093  23.244  28.695  1.00  0.00     0.016 A 
ATOM     39  C   UNL A   1      41.581  24.060  26.505  1.00  0.00     0.016 A 
ATOM     40  C   UNL A   1      42.823  24.424  28.987  1.00  0.00     0.010 A 
ATOM     41  C   UNL A   1      42.233  25.236  26.829  1.00  0.00     0.010 A 
ATOM     42  C   UNL A   1      42.834  25.479  28.079  1.00  0.00    -0.014 A 
BRANCH  42  43
ATOM     43  C   UNL A   1      43.289  26.886  28.303  1.00  0.00     0.031 A 
ATOM     44  C   UNL A   1      42.259  27.899  28.772  1.00  0.00     0.074 A 
ATOM     45  C   UNL A   1      44.614  27.159  28.481  1.00  0.00     0.049 A 
ATOM     46  N   UNL A   1      42.510  29.053  29.290  1.00  0.00    -0.248 NA
ATOM     47  C   UNL A   1      40.814  27.656  28.732  1.00  0.00     0.031 C 
ATOM     48  C   UNL A   1      45.184  28.141  29.419  1.00  0.00     0.029 A 
ATOM     49  N   UNL A   1      45.765  26.573  27.967  1.00  0.00    -0.354 N 
ATOM     50  C   UNL A   1      41.374  29.532  29.932  1.00  0.00     0.074 A 
ATOM     51  C   UNL A   1      40.329  28.645  29.495  1.00  0.00     0.031 C 
ATOM     52  C   UNL A   1      46.524  28.130  29.384  1.00  0.00     0.029 A 
ATOM     53  C   UNL A   1      46.877  27.401  28.198  1.00  0.00     0.049 A 
ATOM     54  H   UNL A   1      45.796  25.704  27.506  1.00  0.00     0.167 HD
ATOM     55  C   UNL A   1      41.502  30.550  30.845  1.00  0.00     0.037 A 
ATOM     56  C   UNL A   1      47.503  28.017  27.148  1.00  0.00     0.037 A 
ATOM     57  C   UNL A   1      42.850  31.149  30.753  1.00  0.00     0.049 A 
ATOM     58  C   UNL A   1      47.217  29.522  27.131  1.00  0.00     0.074 A 
ATOM     59  C   UNL A   1      43.873  31.400  31.651  1.00  0.00     0.029 A 
ATOM     60  N   UNL A   1      43.373  31.449  29.496  1.00  0.00    -0.354 N 
ATOM     61  N   UNL A   1      46.149  30.061  27.677  1.00  0.00    -0.248 NA
ATOM     62  C   UNL A   1      48.163  30.547  26.688  1.00  0.00     0.031 C 
ATOM     63  C   UNL A   1      45.055  31.683  30.907  1.00  0.00     0.029 A 
ATOM     64  C   UNL A   1      44.719  31.727  29.562  1.00  0.00     0.049 A 
ATOM     65  H   UNL A   1      42.846  31.460  28.665  1.00  0.00     0.167 HD
ATOM     66  C   UNL A   1      46.283  31.421  27.746  1.00  0.00     0.074 A 
ATOM     67  C   UNL A   1      47.546  31.680  27.080  1.00  0.00     0.031 C 
ATOM     68  C   UNL A   1      45.410  32.253  28.395  1.00  0.00     0.037 A 
BRANCH  55  69
ATOM     69  C   UNL A   1      40.516  30.936  31.970  1.00  0.00     0.058 A 
ATOM     70  C   UNL A   1      39.448  31.837  31.714  1.00  0.00     0.135 A 
ATOM     71  C   UNL A   1      40.615  30.566  33.332  1.00  0.00     0.135 A 
ATOM     72  F   UNL A   1      39.180  32.262  30.471  1.00  0.00    -0.206 F 
ATOM     73  C   UNL A   1      38.593  32.347  32.705  1.00  0.00     0.059 A 
ATOM     74  C   UNL A   1      39.733  31.021  34.335  1.00  0.00     0.059 A 
ATOM     75  F   UNL A   1      41.591  29.764  33.774  1.00  0.00    -0.206 F 
ATOM     76  C   UNL A   1      38.734  31.928  34.017  1.00  0.00     0.060 A 
BRANCH  76  77
ATOM     77  S   UNL A   1      37.575  32.540  35.265  1.00  0.00     0.124 S 
ATOM     78  O   UNL A   1      37.620  31.488  36.276  1.00  0.00    -0.237 OA
ATOM     79  O   UNL A   1      38.173  33.814  35.652  1.00  0.00    -0.237 OA
ATOM     80  O   UNL A   1      36.314  32.647  34.537  1.00  0.00    -0.744 OA
ENDBRANCH  76  77
ENDBRANCH  55  69
BRANCH  56  81
ATOM     81  C   UNL A   1      47.792  27.015  26.064  1.00  0.00     0.058 A 
ATOM     82  C   UNL A   1      47.070  27.272  24.872  1.00  0.00     0.135 A 
ATOM     83  C   UNL A   1      49.104  26.525  25.909  1.00  0.00     0.135 A 
ATOM     84  F   UNL A   1      45.796  27.693  24.947  1.00  0.00    -0.206 F 
ATOM     85  C   UNL A   1      47.705  27.363  23.634  1.00  0.00     0.059 A 
ATOM     86  C   UNL A   1      49.754  26.586  24.666  1.00  0.00     0.059 A 
ATOM     87  F   UNL A   1      49.839  26.223  26.989  1.00  0.00    -0.206 F 
ATOM     88  C   UNL A   1      49.069  27.096  23.559  1.00  0.00     0.060 A 
BRANCH  88  89
ATOM     89  S   UNL A   1      49.958  27.659  22.080  1.00  0.00     0.124 S 
ATOM     90  O   UNL A   1      51.313  27.837  22.583  1.00  0.00    -0.237 OA
ATOM     91  O   UNL A   1      49.757  26.533  21.170  1.00  0.00    -0.237 OA
ATOM     92  O   UNL A   1      49.253  28.882  21.715  1.00  0.00    -0.744 OA
ENDBRANCH  88  89
ENDBRANCH  56  81
BRANCH  68  93
ATOM     93  C   UNL A   1      45.134  33.702  28.030  1.00  0.00     0.058 A 
ATOM     94  C   UNL A   1      44.378  34.083  26.911  1.00  0.00     0.135 A 
ATOM     95  C   UNL A   1      45.436  34.758  28.937  1.00  0.00     0.135 A 
ATOM     96  F   UNL A   1      43.925  33.185  26.027  1.00  0.00    -0.206 F 
ATOM     97  C   UNL A   1      44.004  35.404  26.677  1.00  0.00     0.059 A 
ATOM     98  C   UNL A   1      45.016  36.070  28.755  1.00  0.00     0.059 A 
ATOM     99  F   UNL A   1      46.128  34.557  30.068  1.00  0.00    -0.206 F 
ATOM    100  C   UNL A   1      44.321  36.389  27.605  1.00  0.00     0.060 A 
BRANCH 100 101
ATOM    101  S   UNL A   1      43.780  38.075  27.306  1.00  0.00     0.124 S 
ATOM    102  O   UNL A   1      44.807  38.545  26.381  1.00  0.00    -0.237 OA
ATOM    103  O   UNL A   1      42.453  37.880  26.729  1.00  0.00    -0.237 OA
ATOM    104  O   UNL A   1      43.797  38.684  28.631  1.00  0.00    -0.744 OA
ENDBRANCH 100 101
ENDBRANCH  68  93
ENDBRANCH  42  43
ENDBRANCH  35  37
ENDBRANCH  34  35
ENDBRANCH  33  34
ENDBRANCH  32  33
ENDBRANCH  31  32
ENDBRANCH  30  31
ENDBRANCH  29  30
ENDBRANCH   1  29
TORSDOF 26
ENDMDL
MODEL 3
REMARK VINA RESULT:      -7.9      3.441      7.103
REMARK SMILES Cc1ccccc1NC(=O)NC[C@@H]1CC[C@@H](C(=O)OCCOCCOCCOCCOC(=O)c2ccc(-c3c4nc(c(-c5c(F)cc(S(=O)(=O)[O-])cc5F)c5ccc([nH]5)c(-c5c(F)cc(S(=O)(=O)[O-])cc5F)c5nc(c(-c6c(F)cc(S(=O)(=O)[O-])cc6F)c6ccc3[nH]6)C=C5)C=C4)cc2)O1
REMARK SMILES IDX 25 1 24 2 23 3 22 4 21 5 20 6 19 7 17 8 18 9 16 10 13 11
REMARK SMILES IDX 14 12 100 13 15 14 12 15 11 16 8 17 9 18 10 20 7 22 1 23
REMARK SMILES IDX 2 24 3 25 4 26 6 27 5 28 26 29 27 30 28 31 29 32 30 33 31 34
REMARK SMILES IDX 32 35 33 36 34 37 35 38 99 39 36 40 98 41 37 42 38 43 39 44
REMARK SMILES IDX 92 45 40 46 97 47 91 48 93 49 41 50 96 51 90 52 89 53 42 55
REMARK SMILES IDX 76 56 55 57 75 58 56 59 59 60 74 61 94 62 57 63 58 64 73 66
REMARK SMILES IDX 95 67 60 68 43 69 44 70 53 71 45 72 46 73 52 74 54 75 47 76
REMARK SMILES IDX 48 77 49 78 50 79 51 80 77 81 78 82 87 83 79 84 80 85 86 86
REMARK SMILES IDX 88 87 81 88 82 89 83 90 84 91 85 92 61 93 62 94 71 95 63 96
REMARK SMILES IDX 64 97 70 98 72 99 65 100 66 101 67 102 68 103 69 104
REMARK H PARENT 8 19 11 21 93 54 59 65
REMARK Flexibility Score: inf
ROOT
ATOM      1  O   UNL A   1      34.324  24.739  25.157  1.00  0.00    -0.377 OA
ENDROOT
BRANCH   1   2
ATOM      2  C   UNL A   1      34.505  26.018  25.732  1.00  0.00     0.188 C 
BRANCH   2   3
ATOM      3  C   UNL A   1      33.430  27.072  25.435  1.00  0.00     0.188 C 
BRANCH   3   4
ATOM      4  O   UNL A   1      32.606  26.965  24.291  1.00  0.00    -0.376 OA
BRANCH   4   5
ATOM      5  C   UNL A   1      31.489  26.098  24.479  1.00  0.00     0.202 C 
BRANCH   5   6
ATOM      6  C   UNL A   1      30.809  26.113  25.848  1.00  0.00     0.261 C 
BRANCH   6   7
ATOM      7  O   UNL A   1      31.222  24.998  26.647  1.00  0.00    -0.461 OA
BRANCH   7   8
ATOM      8  C   UNL A   1      30.966  23.784  26.114  1.00  0.00     0.335 C 
ATOM      9  O   UNL A   1      30.497  23.591  24.998  1.00  0.00    -0.249 OA
BRANCH   8  10
ATOM     10  C   UNL A   1      31.484  22.654  26.998  1.00  0.00     0.228 C 
ATOM     11  C   UNL A   1      33.347  21.675  26.033  1.00  0.00     0.138 C 
ATOM     12  C   UNL A   1      33.677  21.808  27.503  1.00  0.00     0.037 C 
ATOM     13  O   UNL A   1      31.916  21.655  26.039  1.00  0.00    -0.361 OA
ATOM     14  C   UNL A   1      32.687  22.897  27.912  1.00  0.00     0.047 C 
BRANCH  11  15
ATOM     15  C   UNL A   1      33.853  20.550  25.133  1.00  0.00     0.149 C 
BRANCH  15  16
ATOM     16  N   UNL A   1      33.203  20.677  23.813  1.00  0.00    -0.335 N 
ATOM     17  N   UNL A   1      32.092  18.635  23.304  1.00  0.00    -0.308 N 
ATOM     18  C   UNL A   1      32.428  19.910  23.036  1.00  0.00     0.319 C 
ATOM     19  H   UNL A   1      31.301  18.334  22.800  1.00  0.00     0.171 HD
ATOM     20  O   UNL A   1      31.908  20.435  22.046  1.00  0.00    -0.249 OA
ATOM     21  H   UNL A   1      33.388  21.550  23.398  1.00  0.00     0.165 HD
BRANCH  17  22
ATOM     22  C   UNL A   1      32.615  17.641  24.138  1.00  0.00     0.045 A 
ATOM     23  C   UNL A   1      34.472  17.101  22.453  1.00  0.00     0.046 C 
ATOM     24  C   UNL A   1      33.672  16.828  23.694  1.00  0.00    -0.027 A 
ATOM     25  C   UNL A   1      34.044  15.716  24.474  1.00  0.00     0.005 A 
ATOM     26  C   UNL A   1      33.422  15.449  25.692  1.00  0.00     0.000 A 
ATOM     27  C   UNL A   1      32.128  17.456  25.430  1.00  0.00     0.026 A 
ATOM     28  C   UNL A   1      32.493  16.347  26.192  1.00  0.00     0.002 A 
ENDBRANCH  17  22
ENDBRANCH  15  16
ENDBRANCH  11  15
ENDBRANCH   8  10
ENDBRANCH   7   8
ENDBRANCH   6   7
ENDBRANCH   5   6
ENDBRANCH   4   5
ENDBRANCH   3   4
ENDBRANCH   2   3
ENDBRANCH   1   2
BRANCH   1  29
ATOM     29  C   UNL A   1      35.486  24.050  24.673  1.00  0.00     0.188 C 
BRANCH  29  30
ATOM     30  C   UNL A   1      36.784  24.132  25.460  1.00  0.00     0.188 C 
BRANCH  30  31
ATOM     31  O   UNL A   1      36.920  22.880  26.129  1.00  0.00    -0.376 OA
BRANCH  31  32
ATOM     32  C   UNL A   1      37.427  21.802  25.369  1.00  0.00     0.202 C 
BRANCH  32  33
ATOM     33  C   UNL A   1      38.886  21.485  25.689  1.00  0.00     0.261 C 
BRANCH  33  34
ATOM     34  O   UNL A   1      39.432  22.425  26.645  1.00  0.00    -0.460 OA
BRANCH  34  35
ATOM     35  C   UNL A   1      40.446  21.982  27.455  1.00  0.00     0.338 C 
ATOM     36  O   UNL A   1      40.546  20.832  27.823  1.00  0.00    -0.246 OA
BRANCH  35  37
ATOM     37  C   UNL A   1      41.466  23.048  27.701  1.00  0.00     0.060 A 
ATOM     38  C   UNL A   1      42.140  23.174  28.926  1.00  0.00     0.016 A 
ATOM     39  C   UNL A   1      41.658  24.022  26.741  1.00  0.00     0.016 A 
ATOM     40  C   UNL A   1      42.836  24.365  29.257  1.00  0.00     0.010 A 
ATOM     41  C   UNL A   1      42.275  25.205  27.102  1.00  0.00     0.010 A 
ATOM     42  C   UNL A   1      42.842  25.437  28.370  1.00  0.00    -0.014 A 
BRANCH  42  43
ATOM     43  C   UNL A   1      43.259  26.850  28.631  1.00  0.00     0.031 A 
ATOM     44  C   UNL A   1      42.234  27.791  29.239  1.00  0.00     0.074 A 
ATOM     45  C   UNL A   1      44.583  27.171  28.712  1.00  0.00     0.049 A 
ATOM     46  N   UNL A   1      42.483  28.928  29.796  1.00  0.00    -0.248 NA
ATOM     47  C   UNL A   1      40.801  27.488  29.306  1.00  0.00     0.031 C 
ATOM     48  C   UNL A   1      45.192  28.128  29.652  1.00  0.00     0.029 A 
ATOM     49  N   UNL A   1      45.707  26.663  28.074  1.00  0.00    -0.354 N 
ATOM     50  C   UNL A   1      41.388  29.323  30.555  1.00  0.00     0.074 A 
ATOM     51  C   UNL A   1      40.345  28.414  30.160  1.00  0.00     0.031 C 
ATOM     52  C   UNL A   1      46.523  28.178  29.504  1.00  0.00     0.029 A 
ATOM     53  C   UNL A   1      46.802  27.526  28.255  1.00  0.00     0.049 A 
ATOM     54  H   UNL A   1      45.732  25.821  27.564  1.00  0.00     0.167 HD
ATOM     55  C   UNL A   1      41.553  30.298  31.508  1.00  0.00     0.037 A 
ATOM     56  C   UNL A   1      47.311  28.222  27.191  1.00  0.00     0.037 A 
ATOM     57  C   UNL A   1      42.863  30.960  31.337  1.00  0.00     0.049 A 
ATOM     58  C   UNL A   1      46.966  29.711  27.280  1.00  0.00     0.074 A 
ATOM     59  C   UNL A   1      43.950  31.210  32.159  1.00  0.00     0.029 A 
ATOM     60  N   UNL A   1      43.265  31.346  30.059  1.00  0.00    -0.354 N 
ATOM     61  N   UNL A   1      45.927  30.174  27.942  1.00  0.00    -0.248 NA
ATOM     62  C   UNL A   1      47.829  30.798  26.816  1.00  0.00     0.031 C 
ATOM     63  C   UNL A   1      45.051  31.581  31.335  1.00  0.00     0.029 A 
ATOM     64  C   UNL A   1      44.600  31.678  30.027  1.00  0.00     0.049 A 
ATOM     65  H   UNL A   1      42.668  31.376  29.276  1.00  0.00     0.167 HD
ATOM     66  C   UNL A   1      46.013  31.534  28.073  1.00  0.00     0.074 A 
ATOM     67  C   UNL A   1      47.204  31.881  27.319  1.00  0.00     0.031 C 
ATOM     68  C   UNL A   1      45.167  32.293  28.837  1.00  0.00     0.037 A 
BRANCH  55  69
ATOM     69  C   UNL A   1      40.653  30.584  32.731  1.00  0.00     0.058 A 
ATOM     70  C   UNL A   1      39.968  31.822  32.848  1.00  0.00     0.135 A 
ATOM     71  C   UNL A   1      40.502  29.756  33.869  1.00  0.00     0.135 A 
ATOM     72  F   UNL A   1      39.967  32.713  31.846  1.00  0.00    -0.206 F 
ATOM     73  C   UNL A   1      39.243  32.217  33.984  1.00  0.00     0.059 A 
ATOM     74  C   UNL A   1      39.733  30.108  34.999  1.00  0.00     0.059 A 
ATOM     75  F   UNL A   1      41.116  28.572  33.964  1.00  0.00    -0.206 F 
ATOM     76  C   UNL A   1      39.120  31.351  35.058  1.00  0.00     0.060 A 
BRANCH  76  77
ATOM     77  S   UNL A   1      38.121  31.849  36.481  1.00  0.00     0.124 S 
ATOM     78  O   UNL A   1      39.042  32.699  37.228  1.00  0.00    -0.237 OA
ATOM     79  O   UNL A   1      36.997  32.536  35.851  1.00  0.00    -0.237 OA
ATOM     80  O   UNL A   1      37.785  30.581  37.124  1.00  0.00    -0.744 OA
ENDBRANCH  76  77
ENDBRANCH  55  69
BRANCH  56  81
ATOM     81  C   UNL A   1      47.546  27.289  26.035  1.00  0.00     0.058 A 
ATOM     82  C   UNL A   1      48.307  26.149  26.395  1.00  0.00     0.135 A 
ATOM     83  C   UNL A   1      46.518  27.085  25.093  1.00  0.00     0.135 A 
ATOM     84  F   UNL A   1      49.336  26.283  27.249  1.00  0.00    -0.206 F 
ATOM     85  C   UNL A   1      47.872  24.855  26.109  1.00  0.00     0.059 A 
ATOM     86  C   UNL A   1      46.080  25.789  24.774  1.00  0.00     0.059 A 
ATOM     87  F   UNL A   1      45.777  28.121  24.674  1.00  0.00    -0.206 F 
ATOM     88  C   UNL A   1      46.708  24.689  25.365  1.00  0.00     0.060 A 
BRANCH  88  89
ATOM     89  S   UNL A   1      45.912  23.058  25.399  1.00  0.00     0.124 S 
ATOM     90  O   UNL A   1      44.572  23.358  24.914  1.00  0.00    -0.237 OA
ATOM     91  O   UNL A   1      46.765  22.297  24.488  1.00  0.00    -0.237 OA
ATOM     92  O   UNL A   1      46.006  22.672  26.801  1.00  0.00    -0.744 OA
ENDBRANCH  88  89
ENDBRANCH  56  81
BRANCH  68  93
ATOM     93  C   UNL A   1      44.804  33.745  28.575  1.00  0.00     0.058 A 
ATOM     94  C   UNL A   1      44.126  34.173  27.424  1.00  0.00     0.135 A 
ATOM     95  C   UNL A   1      44.930  34.729  29.598  1.00  0.00     0.135 A 
ATOM     96  F   UNL A   1      43.835  33.332  26.423  1.00  0.00    -0.206 F 
ATOM     97  C   UNL A   1      43.665  35.478  27.271  1.00  0.00     0.059 A 
ATOM     98  C   UNL A   1      44.418  36.016  29.491  1.00  0.00     0.059 A 
ATOM     99  F   UNL A   1      45.528  34.473  30.770  1.00  0.00    -0.206 F 
ATOM    100  C   UNL A   1      43.809  36.391  28.309  1.00  0.00     0.060 A 
BRANCH 100 101
ATOM    101  S   UNL A   1      43.156  38.051  28.107  1.00  0.00     0.124 S 
ATOM    102  O   UNL A   1      43.487  38.647  29.399  1.00  0.00    -0.237 OA
ATOM    103  O   UNL A   1      43.919  38.551  26.968  1.00  0.00    -0.237 OA
ATOM    104  O   UNL A   1      41.735  37.836  27.856  1.00  0.00    -0.744 OA
ENDBRANCH 100 101
ENDBRANCH  68  93
ENDBRANCH  42  43
ENDBRANCH  35  37
ENDBRANCH  34  35
ENDBRANCH  33  34
ENDBRANCH  32  33
ENDBRANCH  31  32
ENDBRANCH  30  31
ENDBRANCH  29  30
ENDBRANCH   1  29
TORSDOF 26
ENDMDL
