MODEL 1
REMARK VINA RESULT:     -10.6      0.000      0.000
REMARK SMILES Nc1ccc(-c2cc(Cl)cc3c2O[C@H](C(F)(F)F)C(C(=O)OCCOCCOCCOCCOC(=O)c2ccc(-c4c5nc(c(-c6c(F)cc(S(=O)(=O)[O-])cc6F)c6ccc([nH]6)c(-c6c(F)cc(S(=O)(=O)[O-])cc6F)c6nc(c(-c7c(F)cc(S(=O)(=O)[O-])cc7F)c7ccc4[nH]7)C=C6)C=C5)cc2)=C3)cc1
REMARK SMILES IDX 29 1 28 2 27 3 26 4 25 5 24 6 23 7 22 8 20 9 21 10 19 11
REMARK SMILES IDX 6 12 7 13 12 14 8 15 11 16 13 17 9 18 10 19 103 20 14 21
REMARK SMILES IDX 5 22 2 23 3 24 105 25 4 26 104 27 1 28 15 31 16 32 17 33
REMARK SMILES IDX 18 34 30 35 31 36 32 37 33 38 34 39 35 40 36 41 37 42 38 43
REMARK SMILES IDX 102 44 39 45 101 46 40 47 41 48 42 49 95 50 43 51 100 52
REMARK SMILES IDX 94 53 96 54 44 55 99 56 93 57 92 58 45 60 79 61 58 62 78 63
REMARK SMILES IDX 59 64 62 65 77 66 97 67 60 68 61 69 76 71 98 72 63 73 46 74
REMARK SMILES IDX 47 75 56 76 48 77 49 78 55 79 57 80 50 81 51 82 52 83 53 84
REMARK SMILES IDX 54 85 80 86 81 87 90 88 82 89 83 90 89 91 91 92 84 93 85 94
REMARK SMILES IDX 86 95 87 96 88 97 64 98 65 99 74 100 66 101 67 102 73 103
REMARK SMILES IDX 75 104 68 105 69 106 70 107 71 108 72 109
REMARK H PARENT 1 29 1 30 96 59 62 70
REMARK Flexibility Score: inf
ROOT
ATOM      1  C   UNL A   1      38.047  20.253  24.878  1.00  0.00     0.188 C 
ENDROOT
BRANCH   1   2
ATOM      2  O   UNL A   1      36.751  20.615  25.354  1.00  0.00    -0.377 OA
BRANCH   2   3
ATOM      3  C   UNL A   1      36.110  21.712  24.721  1.00  0.00     0.188 C 
BRANCH   3   4
ATOM      4  C   UNL A   1      34.671  21.376  24.290  1.00  0.00     0.188 C 
BRANCH   4   5
ATOM      5  O   UNL A   1      33.960  20.626  25.267  1.00  0.00    -0.376 OA
BRANCH   5   6
ATOM      6  C   UNL A   1      32.538  20.674  25.254  1.00  0.00     0.202 C 
BRANCH   6   7
ATOM      7  C   UNL A   1      31.811  21.861  25.909  1.00  0.00     0.261 C 
BRANCH   7   8
ATOM      8  O   UNL A   1      30.930  22.605  25.056  1.00  0.00    -0.460 OA
BRANCH   8   9
ATOM      9  C   UNL A   1      31.451  23.221  23.979  1.00  0.00     0.338 C 
ATOM     10  O   UNL A   1      31.779  22.707  22.926  1.00  0.00    -0.246 OA
BRANCH   9  11
ATOM     11  C   UNL A   1      31.382  24.680  24.225  1.00  0.00     0.087 C 
ATOM     12  C   UNL A   1      31.299  28.838  24.801  1.00  0.00     0.026 A 
ATOM     13  C   UNL A   1      30.460  29.605  23.972  1.00  0.00     0.033 A 
ATOM     14  C   UNL A   1      31.257  27.430  24.665  1.00  0.00     0.135 A 
ATOM     15  C   UNL A   1      29.625  28.995  23.039  1.00  0.00     0.042 A 
ATOM     16  C   UNL A   1      30.464  26.826  23.681  1.00  0.00     0.019 A 
ATOM     17  O   UNL A   1      32.008  26.699  25.544  1.00  0.00    -0.475 OA
ATOM     18  Cl  UNL A   1      28.614  29.963  22.036  1.00  0.00    -0.084 Cl
ATOM     19  C   UNL A   1      29.628  27.612  22.883  1.00  0.00     0.032 A 
ATOM     20  C   UNL A   1      30.557  25.393  23.448  1.00  0.00     0.027 C 
ATOM     21  C   UNL A   1      32.160  25.266  25.375  1.00  0.00     0.316 C 
BRANCH  12  22
ATOM     22  C   UNL A   1      32.242  29.514  25.717  1.00  0.00    -0.014 A 
ATOM     23  C   UNL A   1      34.016  30.822  27.513  1.00  0.00     0.031 A 
ATOM     24  C   UNL A   1      32.692  31.238  27.392  1.00  0.00     0.026 A 
ATOM     25  C   UNL A   1      34.433  29.713  26.776  1.00  0.00     0.026 A 
ATOM     26  C   UNL A   1      31.821  30.598  26.504  1.00  0.00     0.011 A 
ATOM     27  C   UNL A   1      33.565  29.076  25.877  1.00  0.00     0.011 A 
BRANCH  23  28
ATOM     28  N   UNL A   1      34.850  31.404  28.455  1.00  0.00    -0.399 N 
ATOM     29  H   UNL A   1      35.493  30.848  28.954  1.00  0.00     0.156 HD
ATOM     30  H   UNL A   1      34.800  32.372  28.627  1.00  0.00     0.156 HD
ENDBRANCH  23  28
ENDBRANCH  12  22
BRANCH  21  31
ATOM     31  C   UNL A   1      33.661  24.961  25.284  1.00  0.00     0.430 C 
ATOM     32  F   UNL A   1      34.404  26.053  25.585  1.00  0.00    -0.167 F 
ATOM     33  F   UNL A   1      34.036  23.979  26.130  1.00  0.00    -0.167 F 
ATOM     34  F   UNL A   1      34.007  24.572  24.032  1.00  0.00    -0.167 F 
ENDBRANCH  21  31
ENDBRANCH   9  11
ENDBRANCH   8   9
ENDBRANCH   7   8
ENDBRANCH   6   7
ENDBRANCH   5   6
ENDBRANCH   4   5
ENDBRANCH   3   4
ENDBRANCH   2   3
ENDBRANCH   1   2
BRANCH   1  35
ATOM     35  C   UNL A   1      39.142  19.747  25.846  1.00  0.00     0.188 C 
BRANCH  35  36
ATOM     36  O   UNL A   1      40.354  20.499  25.792  1.00  0.00    -0.376 OA
BRANCH  36  37
ATOM     37  C   UNL A   1      40.630  21.349  26.898  1.00  0.00     0.202 C 
BRANCH  37  38
ATOM     38  C   UNL A   1      40.452  22.842  26.601  1.00  0.00     0.261 C 
BRANCH  38  39
ATOM     39  O   UNL A   1      41.322  23.718  27.332  1.00  0.00    -0.460 OA
BRANCH  39  40
ATOM     40  C   UNL A   1      41.604  24.923  26.787  1.00  0.00     0.338 C 
ATOM     41  O   UNL A   1      41.926  25.149  25.634  1.00  0.00    -0.246 OA
BRANCH  40  42
ATOM     42  C   UNL A   1      41.251  25.955  27.785  1.00  0.00     0.060 A 
ATOM     43  C   UNL A   1      40.110  25.809  28.579  1.00  0.00     0.016 A 
ATOM     44  C   UNL A   1      42.059  27.094  27.904  1.00  0.00     0.016 A 
ATOM     45  C   UNL A   1      39.803  26.786  29.526  1.00  0.00     0.010 A 
ATOM     46  C   UNL A   1      41.746  28.073  28.851  1.00  0.00     0.010 A 
ATOM     47  C   UNL A   1      40.634  27.908  29.689  1.00  0.00    -0.014 A 
BRANCH  47  48
ATOM     48  C   UNL A   1      40.458  28.769  30.883  1.00  0.00     0.031 A 
ATOM     49  C   UNL A   1      41.305  28.630  32.109  1.00  0.00     0.074 A 
ATOM     50  C   UNL A   1      39.496  29.709  30.824  1.00  0.00     0.049 A 
ATOM     51  N   UNL A   1      41.334  29.395  33.171  1.00  0.00    -0.248 NA
ATOM     52  C   UNL A   1      42.229  27.489  32.160  1.00  0.00     0.031 C 
ATOM     53  C   UNL A   1      38.587  29.904  29.690  1.00  0.00     0.029 A 
ATOM     54  N   UNL A   1      39.127  30.681  31.717  1.00  0.00    -0.354 N 
ATOM     55  C   UNL A   1      42.296  28.849  34.009  1.00  0.00     0.074 A 
ATOM     56  C   UNL A   1      42.794  27.657  33.351  1.00  0.00     0.031 C 
ATOM     57  C   UNL A   1      37.790  30.953  29.942  1.00  0.00     0.029 A 
ATOM     58  C   UNL A   1      38.116  31.490  31.259  1.00  0.00     0.049 A 
ATOM     59  H   UNL A   1      39.546  30.789  32.601  1.00  0.00     0.167 HD
ATOM     60  C   UNL A   1      42.732  29.316  35.205  1.00  0.00     0.037 A 
ATOM     61  C   UNL A   1      37.522  32.557  31.826  1.00  0.00     0.037 A 
ATOM     62  C   UNL A   1      42.210  30.495  35.855  1.00  0.00     0.049 A 
ATOM     63  C   UNL A   1      38.002  33.034  33.165  1.00  0.00     0.074 A 
ATOM     64  C   UNL A   1      42.617  31.070  37.047  1.00  0.00     0.029 A 
ATOM     65  N   UNL A   1      41.159  31.269  35.380  1.00  0.00    -0.354 N 
ATOM     66  N   UNL A   1      38.973  32.559  33.907  1.00  0.00    -0.248 NA
ATOM     67  C   UNL A   1      37.314  34.196  33.743  1.00  0.00     0.031 C 
ATOM     68  C   UNL A   1      41.782  32.160  37.318  1.00  0.00     0.029 A 
ATOM     69  C   UNL A   1      40.887  32.297  36.270  1.00  0.00     0.049 A 
ATOM     70  H   UNL A   1      40.680  31.112  34.536  1.00  0.00     0.167 HD
ATOM     71  C   UNL A   1      39.027  33.373  35.031  1.00  0.00     0.074 A 
ATOM     72  C   UNL A   1      37.998  34.381  34.865  1.00  0.00     0.031 C 
ATOM     73  C   UNL A   1      39.856  33.293  36.100  1.00  0.00     0.037 A 
BRANCH  60  74
ATOM     74  C   UNL A   1      43.839  28.566  35.896  1.00  0.00     0.058 A 
ATOM     75  C   UNL A   1      45.186  28.910  35.698  1.00  0.00     0.135 A 
ATOM     76  C   UNL A   1      43.553  27.554  36.827  1.00  0.00     0.135 A 
ATOM     77  F   UNL A   1      45.516  29.867  34.816  1.00  0.00    -0.206 F 
ATOM     78  C   UNL A   1      46.211  28.267  36.385  1.00  0.00     0.059 A 
ATOM     79  C   UNL A   1      44.561  26.913  37.544  1.00  0.00     0.059 A 
ATOM     80  F   UNL A   1      42.283  27.189  37.059  1.00  0.00    -0.206 F 
ATOM     81  C   UNL A   1      45.888  27.271  37.308  1.00  0.00     0.060 A 
BRANCH  81  82
ATOM     82  S   UNL A   1      47.232  26.457  38.200  1.00  0.00     0.124 S 
ATOM     83  O   UNL A   1      47.881  25.711  37.128  1.00  0.00    -0.237 OA
ATOM     84  O   UNL A   1      47.984  27.590  38.729  1.00  0.00    -0.237 OA
ATOM     85  O   UNL A   1      46.538  25.648  39.197  1.00  0.00    -0.744 OA
ENDBRANCH  81  82
ENDBRANCH  60  74
BRANCH  61  86
ATOM     86  C   UNL A   1      36.445  33.266  31.091  1.00  0.00     0.058 A 
ATOM     87  C   UNL A   1      35.108  33.156  31.496  1.00  0.00     0.135 A 
ATOM     88  C   UNL A   1      36.737  34.114  30.011  1.00  0.00     0.135 A 
ATOM     89  F   UNL A   1      34.782  32.357  32.524  1.00  0.00    -0.206 F 
ATOM     90  C   UNL A   1      34.094  33.857  30.854  1.00  0.00     0.059 A 
ATOM     91  C   UNL A   1      35.743  34.845  29.368  1.00  0.00     0.059 A 
ATOM     92  F   UNL A   1      38.005  34.269  29.602  1.00  0.00    -0.206 F 
ATOM     93  C   UNL A   1      34.423  34.706  29.794  1.00  0.00     0.060 A 
BRANCH  93  94
ATOM     94  S   UNL A   1      33.106  35.661  29.013  1.00  0.00     0.124 S 
ATOM     95  O   UNL A   1      32.382  34.624  28.287  1.00  0.00    -0.237 OA
ATOM     96  O   UNL A   1      32.419  36.232  30.167  1.00  0.00    -0.237 OA
ATOM     97  O   UNL A   1      33.831  36.621  28.187  1.00  0.00    -0.744 OA
ENDBRANCH  93  94
ENDBRANCH  61  86
BRANCH  73  98
ATOM     98  C   UNL A   1      39.697  34.325  37.182  1.00  0.00     0.058 A 
ATOM     99  C   UNL A   1      38.876  34.096  38.298  1.00  0.00     0.135 A 
ATOM    100  C   UNL A   1      40.430  35.522  37.142  1.00  0.00     0.135 A 
ATOM    101  F   UNL A   1      38.145  32.974  38.380  1.00  0.00    -0.206 F 
ATOM    102  C   UNL A   1      38.783  35.021  39.333  1.00  0.00     0.059 A 
ATOM    103  C   UNL A   1      40.371  36.450  38.178  1.00  0.00     0.059 A 
ATOM    104  F   UNL A   1      41.233  35.787  36.099  1.00  0.00    -0.206 F 
ATOM    105  C   UNL A   1      39.542  36.192  39.268  1.00  0.00     0.060 A 
BRANCH 105 106
ATOM    106  S   UNL A   1      39.456  37.352  40.649  1.00  0.00     0.124 S 
ATOM    107  O   UNL A   1      40.818  37.876  40.679  1.00  0.00    -0.237 OA
ATOM    108  O   UNL A   1      38.427  38.286  40.205  1.00  0.00    -0.237 OA
ATOM    109  O   UNL A   1      39.084  36.507  41.781  1.00  0.00    -0.744 OA
ENDBRANCH 105 106
ENDBRANCH  73  98
ENDBRANCH  47  48
ENDBRANCH  40  42
ENDBRANCH  39  40
ENDBRANCH  38  39
ENDBRANCH  37  38
ENDBRANCH  36  37
ENDBRANCH  35  36
ENDBRANCH   1  35
TORSDOF 26
ENDMDL
MODEL 2
REMARK VINA RESULT:     -10.0      0.842      7.806
REMARK SMILES Nc1ccc(-c2cc(Cl)cc3c2O[C@H](C(F)(F)F)C(C(=O)OCCOCCOCCOCCOC(=O)c2ccc(-c4c5nc(c(-c6c(F)cc(S(=O)(=O)[O-])cc6F)c6ccc([nH]6)c(-c6c(F)cc(S(=O)(=O)[O-])cc6F)c6nc(c(-c7c(F)cc(S(=O)(=O)[O-])cc7F)c7ccc4[nH]7)C=C6)C=C5)cc2)=C3)cc1
REMARK SMILES IDX 29 1 28 2 27 3 26 4 25 5 24 6 23 7 22 8 20 9 21 10 19 11
REMARK SMILES IDX 6 12 7 13 12 14 8 15 11 16 13 17 9 18 10 19 103 20 14 21
REMARK SMILES IDX 5 22 2 23 3 24 105 25 4 26 104 27 1 28 15 31 16 32 17 33
REMARK SMILES IDX 18 34 30 35 31 36 32 37 33 38 34 39 35 40 36 41 37 42 38 43
REMARK SMILES IDX 102 44 39 45 101 46 40 47 41 48 42 49 95 50 43 51 100 52
REMARK SMILES IDX 94 53 96 54 44 55 99 56 93 57 92 58 45 60 79 61 58 62 78 63
REMARK SMILES IDX 59 64 62 65 77 66 97 67 60 68 61 69 76 71 98 72 63 73 46 74
REMARK SMILES IDX 47 75 56 76 48 77 49 78 55 79 57 80 50 81 51 82 52 83 53 84
REMARK SMILES IDX 54 85 80 86 81 87 90 88 82 89 83 90 89 91 91 92 84 93 85 94
REMARK SMILES IDX 86 95 87 96 88 97 64 98 65 99 74 100 66 101 67 102 73 103
REMARK SMILES IDX 75 104 68 105 69 106 70 107 71 108 72 109
REMARK H PARENT 1 29 1 30 96 59 62 70
REMARK Flexibility Score: inf
ROOT
ATOM      1  C   UNL A   1      37.805  20.832  25.092  1.00  0.00     0.188 C 
ENDROOT
BRANCH   1   2
ATOM      2  O   UNL A   1      36.802  19.827  24.939  1.00  0.00    -0.377 OA
BRANCH   2   3
ATOM      3  C   UNL A   1      35.448  20.249  24.983  1.00  0.00     0.188 C 
BRANCH   3   4
ATOM      4  C   UNL A   1      34.472  19.115  24.619  1.00  0.00     0.188 C 
BRANCH   4   5
ATOM      5  O   UNL A   1      33.212  19.592  24.163  1.00  0.00    -0.376 OA
BRANCH   5   6
ATOM      6  C   UNL A   1      32.301  20.117  25.121  1.00  0.00     0.202 C 
BRANCH   6   7
ATOM      7  C   UNL A   1      31.989  21.624  25.130  1.00  0.00     0.261 C 
BRANCH   7   8
ATOM      8  O   UNL A   1      31.505  22.173  23.897  1.00  0.00    -0.460 OA
BRANCH   8   9
ATOM      9  C   UNL A   1      32.330  22.954  23.176  1.00  0.00     0.338 C 
ATOM     10  O   UNL A   1      33.008  22.623  22.221  1.00  0.00    -0.246 OA
BRANCH   9  11
ATOM     11  C   UNL A   1      32.127  24.350  23.628  1.00  0.00     0.087 C 
ATOM     12  C   UNL A   1      31.659  28.356  24.791  1.00  0.00     0.026 A 
ATOM     13  C   UNL A   1      30.735  29.148  24.086  1.00  0.00     0.033 A 
ATOM     14  C   UNL A   1      31.749  26.985  24.456  1.00  0.00     0.135 A 
ATOM     15  C   UNL A   1      29.943  28.598  23.080  1.00  0.00     0.042 A 
ATOM     16  C   UNL A   1      30.998  26.452  23.401  1.00  0.00     0.019 A 
ATOM     17  O   UNL A   1      32.584  26.213  25.218  1.00  0.00    -0.475 OA
ATOM     18  Cl  UNL A   1      28.825  29.595  22.231  1.00  0.00    -0.084 Cl
ATOM     19  C   UNL A   1      30.075  27.257  22.729  1.00  0.00     0.032 A 
ATOM     20  C   UNL A   1      31.223  25.082  22.965  1.00  0.00     0.027 C 
ATOM     21  C   UNL A   1      32.868  24.840  24.845  1.00  0.00     0.316 C 
BRANCH  12  22
ATOM     22  C   UNL A   1      32.551  28.985  25.789  1.00  0.00    -0.014 A 
ATOM     23  C   UNL A   1      34.307  30.173  27.682  1.00  0.00     0.031 A 
ATOM     24  C   UNL A   1      34.595  28.927  27.130  1.00  0.00     0.026 A 
ATOM     25  C   UNL A   1      33.170  30.848  27.241  1.00  0.00     0.026 A 
ATOM     26  C   UNL A   1      33.728  28.340  26.203  1.00  0.00     0.011 A 
ATOM     27  C   UNL A   1      32.292  30.258  26.319  1.00  0.00     0.011 A 
BRANCH  23  28
ATOM     28  N   UNL A   1      35.212  30.788  28.535  1.00  0.00    -0.399 N 
ATOM     29  H   UNL A   1      35.772  31.530  28.208  1.00  0.00     0.156 HD
ATOM     30  H   UNL A   1      35.296  30.482  29.468  1.00  0.00     0.156 HD
ENDBRANCH  23  28
ENDBRANCH  12  22
BRANCH  21  31
ATOM     31  C   UNL A   1      34.389  24.699  24.702  1.00  0.00     0.430 C 
ATOM     32  F   UNL A   1      35.042  25.501  25.575  1.00  0.00    -0.167 F 
ATOM     33  F   UNL A   1      34.809  23.437  24.931  1.00  0.00    -0.167 F 
ATOM     34  F   UNL A   1      34.799  25.043  23.457  1.00  0.00    -0.167 F 
ENDBRANCH  21  31
ENDBRANCH   9  11
ENDBRANCH   8   9
ENDBRANCH   7   8
ENDBRANCH   6   7
ENDBRANCH   5   6
ENDBRANCH   4   5
ENDBRANCH   3   4
ENDBRANCH   2   3
ENDBRANCH   1   2
BRANCH   1  35
ATOM     35  C   UNL A   1      39.236  20.470  25.551  1.00  0.00     0.188 C 
BRANCH  35  36
ATOM     36  O   UNL A   1      40.031  21.599  25.914  1.00  0.00    -0.376 OA
BRANCH  36  37
ATOM     37  C   UNL A   1      39.528  22.427  26.954  1.00  0.00     0.202 C 
BRANCH  37  38
ATOM     38  C   UNL A   1      39.742  23.927  26.720  1.00  0.00     0.261 C 
BRANCH  38  39
ATOM     39  O   UNL A   1      41.107  24.326  26.529  1.00  0.00    -0.460 OA
BRANCH  39  40
ATOM     40  C   UNL A   1      41.345  25.618  26.207  1.00  0.00     0.338 C 
ATOM     41  O   UNL A   1      41.392  26.098  25.089  1.00  0.00    -0.246 OA
BRANCH  40  42
ATOM     42  C   UNL A   1      41.333  26.398  27.463  1.00  0.00     0.060 A 
ATOM     43  C   UNL A   1      42.338  27.334  27.723  1.00  0.00     0.016 A 
ATOM     44  C   UNL A   1      40.318  26.165  28.401  1.00  0.00     0.016 A 
ATOM     45  C   UNL A   1      42.300  28.071  28.906  1.00  0.00     0.010 A 
ATOM     46  C   UNL A   1      40.286  26.902  29.588  1.00  0.00     0.010 A 
ATOM     47  C   UNL A   1      41.258  27.882  29.832  1.00  0.00    -0.014 A 
BRANCH  47  48
ATOM     48  C   UNL A   1      41.075  28.868  30.924  1.00  0.00     0.031 A 
ATOM     49  C   UNL A   1      40.002  29.911  30.896  1.00  0.00     0.074 A 
ATOM     50  C   UNL A   1      41.918  28.787  31.971  1.00  0.00     0.049 A 
ATOM     51  N   UNL A   1      39.659  30.753  31.837  1.00  0.00    -0.248 NA
ATOM     52  C   UNL A   1      39.220  30.035  29.659  1.00  0.00     0.031 C 
ATOM     53  C   UNL A   1      43.025  27.831  32.080  1.00  0.00     0.029 A 
ATOM     54  N   UNL A   1      41.974  29.497  33.141  1.00  0.00    -0.354 N 
ATOM     55  C   UNL A   1      38.603  31.492  31.323  1.00  0.00     0.074 A 
ATOM     56  C   UNL A   1      38.395  31.031  29.964  1.00  0.00     0.031 C 
ATOM     57  C   UNL A   1      43.628  27.992  33.267  1.00  0.00     0.029 A 
ATOM     58  C   UNL A   1      42.966  29.072  33.992  1.00  0.00     0.049 A 
ATOM     59  H   UNL A   1      41.364  30.240  33.352  1.00  0.00     0.167 HD
ATOM     60  C   UNL A   1      37.870  32.452  31.939  1.00  0.00     0.037 A 
ATOM     61  C   UNL A   1      43.301  29.493  35.226  1.00  0.00     0.037 A 
ATOM     62  C   UNL A   1      38.105  32.913  33.287  1.00  0.00     0.049 A 
ATOM     63  C   UNL A   1      42.493  30.578  35.874  1.00  0.00     0.074 A 
ATOM     64  C   UNL A   1      37.388  33.849  34.012  1.00  0.00     0.029 A 
ATOM     65  N   UNL A   1      39.142  32.487  34.107  1.00  0.00    -0.354 N 
ATOM     66  N   UNL A   1      41.442  31.208  35.407  1.00  0.00    -0.248 NA
ATOM     67  C   UNL A   1      42.906  31.006  37.216  1.00  0.00     0.031 C 
ATOM     68  C   UNL A   1      38.019  34.027  35.249  1.00  0.00     0.029 A 
ATOM     69  C   UNL A   1      39.100  33.164  35.316  1.00  0.00     0.049 A 
ATOM     70  H   UNL A   1      39.809  31.805  33.865  1.00  0.00     0.167 HD
ATOM     71  C   UNL A   1      41.056  32.094  36.405  1.00  0.00     0.074 A 
ATOM     72  C   UNL A   1      41.979  31.909  37.507  1.00  0.00     0.031 C 
ATOM     73  C   UNL A   1      40.028  32.978  36.407  1.00  0.00     0.037 A 
BRANCH  60  74
ATOM     74  C   UNL A   1      36.728  33.068  31.177  1.00  0.00     0.058 A 
ATOM     75  C   UNL A   1      35.393  32.780  31.504  1.00  0.00     0.135 A 
ATOM     76  C   UNL A   1      36.963  34.018  30.169  1.00  0.00     0.135 A 
ATOM     77  F   UNL A   1      35.111  31.876  32.456  1.00  0.00    -0.206 F 
ATOM     78  C   UNL A   1      34.333  33.398  30.848  1.00  0.00     0.059 A 
ATOM     79  C   UNL A   1      35.917  34.666  29.516  1.00  0.00     0.059 A 
ATOM     80  F   UNL A   1      38.219  34.335  29.819  1.00  0.00    -0.206 F 
ATOM     81  C   UNL A   1      34.605  34.342  29.857  1.00  0.00     0.060 A 
BRANCH  81  82
ATOM     82  S   UNL A   1      33.215  35.143  29.027  1.00  0.00     0.124 S 
ATOM     83  O   UNL A   1      32.303  35.370  30.143  1.00  0.00    -0.237 OA
ATOM     84  O   UNL A   1      33.836  36.337  28.463  1.00  0.00    -0.237 OA
ATOM     85  O   UNL A   1      32.778  34.147  28.054  1.00  0.00    -0.744 OA
ENDBRANCH  81  82
ENDBRANCH  60  74
BRANCH  61  86
ATOM     86  C   UNL A   1      44.428  28.837  35.936  1.00  0.00     0.058 A 
ATOM     87  C   UNL A   1      45.741  29.305  35.784  1.00  0.00     0.135 A 
ATOM     88  C   UNL A   1      44.208  27.774  36.826  1.00  0.00     0.135 A 
ATOM     89  F   UNL A   1      45.999  30.318  34.944  1.00  0.00    -0.206 F 
ATOM     90  C   UNL A   1      46.800  28.738  36.484  1.00  0.00     0.059 A 
ATOM     91  C   UNL A   1      45.247  27.208  37.557  1.00  0.00     0.059 A 
ATOM     92  F   UNL A   1      42.965  27.308  37.022  1.00  0.00    -0.206 F 
ATOM     93  C   UNL A   1      46.541  27.694  37.375  1.00  0.00     0.060 A 
BRANCH  93  94
ATOM     94  S   UNL A   1      47.915  27.013  38.328  1.00  0.00     0.124 S 
ATOM     95  O   UNL A   1      47.423  27.155  39.694  1.00  0.00    -0.237 OA
ATOM     96  O   UNL A   1      47.994  25.649  37.816  1.00  0.00    -0.237 OA
ATOM     97  O   UNL A   1      49.035  27.876  37.967  1.00  0.00    -0.744 OA
ENDBRANCH  93  94
ENDBRANCH  61  86
BRANCH  73  98
ATOM     98  C   UNL A   1      39.834  33.816  37.640  1.00  0.00     0.058 A 
ATOM     99  C   UNL A   1      39.010  33.390  38.694  1.00  0.00     0.135 A 
ATOM    100  C   UNL A   1      40.538  35.020  37.803  1.00  0.00     0.135 A 
ATOM    101  F   UNL A   1      38.306  32.253  38.584  1.00  0.00    -0.206 F 
ATOM    102  C   UNL A   1      38.886  34.132  39.864  1.00  0.00     0.059 A 
ATOM    103  C   UNL A   1      40.447  35.766  38.975  1.00  0.00     0.059 A 
ATOM    104  F   UNL A   1      41.342  35.470  36.827  1.00  0.00    -0.206 F 
ATOM    105  C   UNL A   1      39.616  35.315  39.999  1.00  0.00     0.060 A 
BRANCH 105 106
ATOM    106  S   UNL A   1      39.490  36.233  41.549  1.00  0.00     0.124 S 
ATOM    107  O   UNL A   1      38.071  36.091  41.861  1.00  0.00    -0.237 OA
ATOM    108  O   UNL A   1      40.407  35.502  42.418  1.00  0.00    -0.237 OA
ATOM    109  O   UNL A   1      39.919  37.579  41.182  1.00  0.00    -0.744 OA
ENDBRANCH 105 106
ENDBRANCH  73  98
ENDBRANCH  47  48
ENDBRANCH  40  42
ENDBRANCH  39  40
ENDBRANCH  38  39
ENDBRANCH  37  38
ENDBRANCH  36  37
ENDBRANCH  35  36
ENDBRANCH   1  35
TORSDOF 26
ENDMDL
MODEL 3
REMARK VINA RESULT:      -9.5      1.895      8.095
REMARK SMILES Nc1ccc(-c2cc(Cl)cc3c2O[C@H](C(F)(F)F)C(C(=O)OCCOCCOCCOCCOC(=O)c2ccc(-c4c5nc(c(-c6c(F)cc(S(=O)(=O)[O-])cc6F)c6ccc([nH]6)c(-c6c(F)cc(S(=O)(=O)[O-])cc6F)c6nc(c(-c7c(F)cc(S(=O)(=O)[O-])cc7F)c7ccc4[nH]7)C=C6)C=C5)cc2)=C3)cc1
REMARK SMILES IDX 29 1 28 2 27 3 26 4 25 5 24 6 23 7 22 8 20 9 21 10 19 11
REMARK SMILES IDX 6 12 7 13 12 14 8 15 11 16 13 17 9 18 10 19 103 20 14 21
REMARK SMILES IDX 5 22 2 23 3 24 105 25 4 26 104 27 1 28 15 31 16 32 17 33
REMARK SMILES IDX 18 34 30 35 31 36 32 37 33 38 34 39 35 40 36 41 37 42 38 43
REMARK SMILES IDX 102 44 39 45 101 46 40 47 41 48 42 49 95 50 43 51 100 52
REMARK SMILES IDX 94 53 96 54 44 55 99 56 93 57 92 58 45 60 79 61 58 62 78 63
REMARK SMILES IDX 59 64 62 65 77 66 97 67 60 68 61 69 76 71 98 72 63 73 46 74
REMARK SMILES IDX 47 75 56 76 48 77 49 78 55 79 57 80 50 81 51 82 52 83 53 84
REMARK SMILES IDX 54 85 80 86 81 87 90 88 82 89 83 90 89 91 91 92 84 93 85 94
REMARK SMILES IDX 86 95 87 96 88 97 64 98 65 99 74 100 66 101 67 102 73 103
REMARK SMILES IDX 75 104 68 105 69 106 70 107 71 108 72 109
REMARK H PARENT 1 29 1 30 96 59 62 70
REMARK Flexibility Score: inf
ROOT
ATOM      1  C   UNL A   1      38.556  21.600  25.731  1.00  0.00     0.188 C 
ENDROOT
BRANCH   1   2
ATOM      2  O   UNL A   1      37.745  20.645  25.047  1.00  0.00    -0.377 OA
BRANCH   2   3
ATOM      3  C   UNL A   1      36.429  21.042  24.697  1.00  0.00     0.188 C 
BRANCH   3   4
ATOM      4  C   UNL A   1      35.384  19.966  25.044  1.00  0.00     0.188 C 
BRANCH   4   5
ATOM      5  O   UNL A   1      34.184  20.510  25.580  1.00  0.00    -0.376 OA
BRANCH   5   6
ATOM      6  C   UNL A   1      34.262  21.257  26.789  1.00  0.00     0.202 C 
BRANCH   6   7
ATOM      7  C   UNL A   1      33.820  22.731  26.804  1.00  0.00     0.261 C 
BRANCH   7   8
ATOM      8  O   UNL A   1      32.824  23.098  25.839  1.00  0.00    -0.460 OA
BRANCH   8   9
ATOM      9  C   UNL A   1      33.229  23.640  24.676  1.00  0.00     0.338 C 
ATOM     10  O   UNL A   1      33.643  23.051  23.695  1.00  0.00    -0.246 OA
BRANCH   9  11
ATOM     11  C   UNL A   1      32.903  25.085  24.723  1.00  0.00     0.087 C 
ATOM     12  C   UNL A   1      31.884  29.148  24.985  1.00  0.00     0.026 A 
ATOM     13  C   UNL A   1      32.609  29.958  25.879  1.00  0.00     0.033 A 
ATOM     14  C   UNL A   1      32.289  27.801  24.833  1.00  0.00     0.135 A 
ATOM     15  C   UNL A   1      33.685  29.441  26.599  1.00  0.00     0.042 A 
ATOM     16  C   UNL A   1      33.329  27.271  25.608  1.00  0.00     0.019 A 
ATOM     17  O   UNL A   1      31.631  27.059  23.891  1.00  0.00    -0.475 OA
ATOM     18  Cl  UNL A   1      34.549  30.456  27.688  1.00  0.00    -0.084 Cl
ATOM     19  C   UNL A   1      34.043  28.102  26.474  1.00  0.00     0.032 A 
ATOM     20  C   UNL A   1      33.622  25.847  25.556  1.00  0.00     0.027 C 
ATOM     21  C   UNL A   1      31.861  25.630  23.781  1.00  0.00     0.316 C 
BRANCH  12  22
ATOM     22  C   UNL A   1      30.691  29.696  24.304  1.00  0.00    -0.014 A 
ATOM     23  C   UNL A   1      28.421  30.795  22.995  1.00  0.00     0.031 A 
ATOM     24  C   UNL A   1      29.115  31.532  23.951  1.00  0.00     0.026 A 
ATOM     25  C   UNL A   1      28.900  29.531  22.653  1.00  0.00     0.026 A 
ATOM     26  C   UNL A   1      30.229  30.989  24.600  1.00  0.00     0.011 A 
ATOM     27  C   UNL A   1      30.010  28.978  23.308  1.00  0.00     0.011 A 
BRANCH  23  28
ATOM     28  N   UNL A   1      27.370  31.370  22.294  1.00  0.00    -0.399 N 
ATOM     29  H   UNL A   1      26.480  30.948  22.307  1.00  0.00     0.156 HD
ATOM     30  H   UNL A   1      27.514  32.199  21.783  1.00  0.00     0.156 HD
ENDBRANCH  23  28
ENDBRANCH  12  22
BRANCH  21  31
ATOM     31  C   UNL A   1      30.506  24.925  23.934  1.00  0.00     0.430 C 
ATOM     32  F   UNL A   1      30.294  24.044  22.927  1.00  0.00    -0.167 F 
ATOM     33  F   UNL A   1      30.416  24.237  25.091  1.00  0.00    -0.167 F 
ATOM     34  F   UNL A   1      29.485  25.816  23.909  1.00  0.00    -0.167 F 
ENDBRANCH  21  31
ENDBRANCH   9  11
ENDBRANCH   8   9
ENDBRANCH   7   8
ENDBRANCH   6   7
ENDBRANCH   5   6
ENDBRANCH   4   5
ENDBRANCH   3   4
ENDBRANCH   2   3
ENDBRANCH   1   2
BRANCH   1  35
ATOM     35  C   UNL A   1      39.934  21.210  26.312  1.00  0.00     0.188 C 
BRANCH  35  36
ATOM     36  O   UNL A   1      40.752  22.326  26.663  1.00  0.00    -0.376 OA
BRANCH  36  37
ATOM     37  C   UNL A   1      40.263  23.613  26.309  1.00  0.00     0.202 C 
BRANCH  37  38
ATOM     38  C   UNL A   1      41.340  24.704  26.273  1.00  0.00     0.261 C 
BRANCH  38  39
ATOM     39  O   UNL A   1      42.601  24.336  26.851  1.00  0.00    -0.460 OA
BRANCH  39  40
ATOM     40  C   UNL A   1      43.540  25.301  26.979  1.00  0.00     0.338 C 
ATOM     41  O   UNL A   1      44.558  25.426  26.322  1.00  0.00    -0.246 OA
BRANCH  40  42
ATOM     42  C   UNL A   1      43.013  26.310  27.923  1.00  0.00     0.060 A 
ATOM     43  C   UNL A   1      42.072  25.947  28.891  1.00  0.00     0.016 A 
ATOM     44  C   UNL A   1      43.448  27.638  27.816  1.00  0.00     0.016 A 
ATOM     45  C   UNL A   1      41.599  26.910  29.783  1.00  0.00     0.010 A 
ATOM     46  C   UNL A   1      42.969  28.600  28.709  1.00  0.00     0.010 A 
ATOM     47  C   UNL A   1      42.067  28.234  29.718  1.00  0.00    -0.014 A 
BRANCH  47  48
ATOM     48  C   UNL A   1      41.782  29.157  30.843  1.00  0.00     0.031 A 
ATOM     49  C   UNL A   1      40.632  30.116  30.827  1.00  0.00     0.074 A 
ATOM     50  C   UNL A   1      42.604  29.099  31.908  1.00  0.00     0.049 A 
ATOM     51  N   UNL A   1      40.203  30.889  31.791  1.00  0.00    -0.248 NA
ATOM     52  C   UNL A   1      39.872  30.230  29.576  1.00  0.00     0.031 C 
ATOM     53  C   UNL A   1      43.779  28.226  32.008  1.00  0.00     0.029 A 
ATOM     54  N   UNL A   1      42.578  29.762  33.106  1.00  0.00    -0.354 N 
ATOM     55  C   UNL A   1      39.106  31.566  31.279  1.00  0.00     0.074 A 
ATOM     56  C   UNL A   1      38.965  31.146  29.898  1.00  0.00     0.031 C 
ATOM     57  C   UNL A   1      44.340  28.384  33.216  1.00  0.00     0.029 A 
ATOM     58  C   UNL A   1      43.580  29.380  33.965  1.00  0.00     0.049 A 
ATOM     59  H   UNL A   1      41.908  30.446  33.330  1.00  0.00     0.167 HD
ATOM     60  C   UNL A   1      38.286  32.441  31.913  1.00  0.00     0.037 A 
ATOM     61  C   UNL A   1      43.853  29.774  35.223  1.00  0.00     0.037 A 
ATOM     62  C   UNL A   1      38.453  32.863  33.283  1.00  0.00     0.049 A 
ATOM     63  C   UNL A   1      42.947  30.767  35.891  1.00  0.00     0.074 A 
ATOM     64  C   UNL A   1      37.649  33.711  34.025  1.00  0.00     0.029 A 
ATOM     65  N   UNL A   1      39.501  32.485  34.113  1.00  0.00    -0.354 N 
ATOM     66  N   UNL A   1      41.862  31.333  35.422  1.00  0.00    -0.248 NA
ATOM     67  C   UNL A   1      43.295  31.169  37.259  1.00  0.00     0.031 C 
ATOM     68  C   UNL A   1      38.236  33.886  35.284  1.00  0.00     0.029 A 
ATOM     69  C   UNL A   1      39.379  33.106  35.346  1.00  0.00     0.049 A 
ATOM     70  H   UNL A   1      40.224  31.866  33.862  1.00  0.00     0.167 HD
ATOM     71  C   UNL A   1      41.385  32.145  36.443  1.00  0.00     0.074 A 
ATOM     72  C   UNL A   1      42.294  31.986  37.561  1.00  0.00     0.031 C 
ATOM     73  C   UNL A   1      40.292  32.946  36.452  1.00  0.00     0.037 A 
BRANCH  60  74
ATOM     74  C   UNL A   1      37.118  32.998  31.145  1.00  0.00     0.058 A 
ATOM     75  C   UNL A   1      37.292  34.004  30.181  1.00  0.00     0.135 A 
ATOM     76  C   UNL A   1      35.828  32.465  31.307  1.00  0.00     0.135 A 
ATOM     77  F   UNL A   1      38.503  34.552  29.987  1.00  0.00    -0.206 F 
ATOM     78  C   UNL A   1      36.227  34.476  29.419  1.00  0.00     0.059 A 
ATOM     79  C   UNL A   1      34.752  32.905  30.539  1.00  0.00     0.059 A 
ATOM     80  F   UNL A   1      35.606  31.498  32.210  1.00  0.00    -0.206 F 
ATOM     81  C   UNL A   1      34.961  33.918  29.603  1.00  0.00     0.060 A 
BRANCH  81  82
ATOM     82  S   UNL A   1      33.595  34.533  28.595  1.00  0.00     0.124 S 
ATOM     83  O   UNL A   1      32.642  34.946  29.619  1.00  0.00    -0.237 OA
ATOM     84  O   UNL A   1      34.226  35.614  27.844  1.00  0.00    -0.237 OA
ATOM     85  O   UNL A   1      33.203  33.371  27.805  1.00  0.00    -0.744 OA
ENDBRANCH  81  82
ENDBRANCH  60  74
BRANCH  61  86
ATOM     86  C   UNL A   1      45.010  29.178  35.937  1.00  0.00     0.058 A 
ATOM     87  C   UNL A   1      46.272  29.787  35.891  1.00  0.00     0.135 A 
ATOM     88  C   UNL A   1      44.864  28.027  36.726  1.00  0.00     0.135 A 
ATOM     89  F   UNL A   1      46.458  30.889  35.149  1.00  0.00    -0.206 F 
ATOM     90  C   UNL A   1      47.353  29.273  36.598  1.00  0.00     0.059 A 
ATOM     91  C   UNL A   1      45.925  27.508  37.462  1.00  0.00     0.059 A 
ATOM     92  F   UNL A   1      43.670  27.422  36.819  1.00  0.00    -0.206 F 
ATOM     93  C   UNL A   1      47.167  28.137  37.388  1.00  0.00     0.060 A 
BRANCH  93  94
ATOM     94  S   UNL A   1      48.562  27.520  38.354  1.00  0.00     0.124 S 
ATOM     95  O   UNL A   1      49.680  28.225  37.737  1.00  0.00    -0.237 OA
ATOM     96  O   UNL A   1      48.206  27.943  39.705  1.00  0.00    -0.237 OA
ATOM     97  O   UNL A   1      48.520  26.080  38.124  1.00  0.00    -0.744 OA
ENDBRANCH  93  94
ENDBRANCH  61  86
BRANCH  73  98
ATOM     98  C   UNL A   1      40.005  33.716  37.712  1.00  0.00     0.058 A 
ATOM     99  C   UNL A   1      40.665  34.922  38.001  1.00  0.00     0.135 A 
ATOM    100  C   UNL A   1      39.007  33.285  38.601  1.00  0.00     0.135 A 
ATOM    101  F   UNL A   1      41.634  35.372  37.190  1.00  0.00    -0.206 F 
ATOM    102  C   UNL A   1      40.349  35.669  39.130  1.00  0.00     0.059 A 
ATOM    103  C   UNL A   1      38.658  34.030  39.724  1.00  0.00     0.059 A 
ATOM    104  F   UNL A   1      38.344  32.142  38.369  1.00  0.00    -0.206 F 
ATOM    105  C   UNL A   1      39.337  35.220  39.982  1.00  0.00     0.060 A 
BRANCH 105 106
ATOM    106  S   UNL A   1      38.899  36.234  41.410  1.00  0.00     0.124 S 
ATOM    107  O   UNL A   1      40.116  36.157  42.211  1.00  0.00    -0.237 OA
ATOM    108  O   UNL A   1      38.624  37.530  40.797  1.00  0.00    -0.237 OA
ATOM    109  O   UNL A   1      37.736  35.551  41.968  1.00  0.00    -0.744 OA
ENDBRANCH 105 106
ENDBRANCH  73  98
ENDBRANCH  47  48
ENDBRANCH  40  42
ENDBRANCH  39  40
ENDBRANCH  38  39
ENDBRANCH  37  38
ENDBRANCH  36  37
ENDBRANCH  35  36
ENDBRANCH   1  35
TORSDOF 26
ENDMDL
