MODEL 1
REMARK VINA RESULT:      -8.2      0.000      0.000
REMARK SMILES Cc1nn(C)c(=O)c(C(=O)N2CCCC[C@H]2C(=O)OCCOCCOCCOCCOC(=O)c2ccc(-c3c4nc(c(-c5c(F)cc(S(=O)(=O)[O-])cc5F)c5ccc([nH]5)c(-c5c(F)cc(S(=O)(=O)[O-])cc5F)c5nc(c(-c6c(F)cc(S(=O)(=O)[O-])cc6F)c6ccc3[nH]6)C=C5)C=C4)cc2)c1C
REMARK SMILES IDX 26 1 25 2 24 3 23 4 22 5 21 6 20 7 19 8 17 9 18 10 16 11
REMARK SMILES IDX 11 12 12 13 13 14 15 15 14 16 9 17 10 18 8 19 1 20 2 21 3 22
REMARK SMILES IDX 100 23 4 24 101 25 5 26 6 27 7 28 27 29 28 30 29 31 30 32
REMARK SMILES IDX 31 33 32 34 33 35 34 36 35 37 99 38 36 39 98 40 37 41 38 42
REMARK SMILES IDX 39 43 92 44 40 45 97 46 91 47 93 48 41 49 96 50 90 51 89 52
REMARK SMILES IDX 42 54 76 55 55 56 75 57 56 58 59 59 74 60 94 61 57 62 58 63
REMARK SMILES IDX 73 65 95 66 60 67 43 68 44 69 53 70 45 71 46 72 52 73 54 74
REMARK SMILES IDX 47 75 48 76 49 77 50 78 51 79 77 80 78 81 87 82 79 83 80 84
REMARK SMILES IDX 86 85 88 86 81 87 82 88 83 89 84 90 85 91 61 92 62 93 71 94
REMARK SMILES IDX 63 95 64 96 70 97 72 98 65 99 66 100 67 101 68 102 69 103
REMARK H PARENT 93 53 59 64
REMARK Flexibility Score: inf
ROOT
ATOM      1  C   UNL A   1      45.466  38.945  28.861  1.00  0.00     0.188 C 
ENDROOT
BRANCH   1   2
ATOM      2  O   UNL A   1      44.242  39.055  28.132  1.00  0.00    -0.377 OA
BRANCH   2   3
ATOM      3  C   UNL A   1      43.920  40.359  27.641  1.00  0.00     0.188 C 
BRANCH   3   4
ATOM      4  C   UNL A   1      42.885  40.372  26.520  1.00  0.00     0.188 C 
BRANCH   4   5
ATOM      5  O   UNL A   1      43.225  40.948  25.283  1.00  0.00    -0.376 OA
BRANCH   5   6
ATOM      6  C   UNL A   1      42.243  41.662  24.533  1.00  0.00     0.202 C 
BRANCH   6   7
ATOM      7  C   UNL A   1      42.506  42.876  23.596  1.00  0.00     0.261 C 
BRANCH   7   8
ATOM      8  O   UNL A   1      43.308  43.981  24.031  1.00  0.00    -0.462 OA
BRANCH   8   9
ATOM      9  C   UNL A   1      44.384  44.380  23.312  1.00  0.00     0.328 C 
ATOM     10  O   UNL A   1      44.369  44.460  22.092  1.00  0.00    -0.250 OA
BRANCH   9  11
ATOM     11  C   UNL A   1      45.486  44.980  24.291  1.00  0.00     0.195 C 
ATOM     12  N   UNL A   1      45.537  44.371  25.622  1.00  0.00    -0.325 N 
ATOM     13  C   UNL A   1      45.855  42.940  25.544  1.00  0.00     0.121 C 
ATOM     14  C   UNL A   1      47.145  42.643  24.760  1.00  0.00     0.022 C 
ATOM     15  C   UNL A   1      46.867  44.874  23.613  1.00  0.00     0.037 C 
ATOM     16  C   UNL A   1      47.295  43.418  23.452  1.00  0.00     0.005 C 
BRANCH  12  17
ATOM     17  C   UNL A   1      45.845  45.038  26.822  1.00  0.00     0.260 C 
ATOM     18  O   UNL A   1      45.594  46.248  26.854  1.00  0.00    -0.269 OA
BRANCH  17  19
ATOM     19  C   UNL A   1      46.549  44.408  28.057  1.00  0.00     0.111 A 
ATOM     20  C   UNL A   1      46.276  42.657  31.459  1.00  0.00     0.069 C 
ATOM     21  C   UNL A   1      46.859  43.135  30.142  1.00  0.00     0.062 A 
ATOM     22  N   UNL A   1      48.117  42.919  29.985  1.00  0.00    -0.175 NA
ATOM     23  C   UNL A   1      45.982  43.780  29.113  1.00  0.00    -0.010 A 
ATOM     24  N   UNL A   1      48.692  43.388  28.854  1.00  0.00    -0.232 N 
ATOM     25  C   UNL A   1      44.542  43.531  29.333  1.00  0.00     0.047 C 
ATOM     26  C   UNL A   1      50.075  42.966  28.683  1.00  0.00     0.178 C 
ATOM     27  C   UNL A   1      48.075  44.276  27.972  1.00  0.00     0.279 A 
ATOM     28  O   UNL A   1      48.735  44.905  27.145  1.00  0.00    -0.267 OA
ENDBRANCH  17  19
ENDBRANCH  12  17
ENDBRANCH   9  11
ENDBRANCH   8   9
ENDBRANCH   7   8
ENDBRANCH   6   7
ENDBRANCH   5   6
ENDBRANCH   4   5
ENDBRANCH   3   4
ENDBRANCH   2   3
ENDBRANCH   1   2
BRANCH   1  29
ATOM     29  C   UNL A   1      45.364  38.705  30.386  1.00  0.00     0.188 C 
BRANCH  29  30
ATOM     30  O   UNL A   1      46.595  38.814  31.086  1.00  0.00    -0.376 OA
BRANCH  30  31
ATOM     31  C   UNL A   1      47.286  37.605  31.377  1.00  0.00     0.202 C 
BRANCH  31  32
ATOM     32  C   UNL A   1      48.765  37.466  30.958  1.00  0.00     0.261 C 
BRANCH  32  33
ATOM     33  O   UNL A   1      49.085  36.397  30.056  1.00  0.00    -0.460 OA
BRANCH  33  34
ATOM     34  C   UNL A   1      48.487  36.397  28.848  1.00  0.00     0.338 C 
ATOM     35  O   UNL A   1      48.633  37.225  27.960  1.00  0.00    -0.246 OA
BRANCH  34  36
ATOM     36  C   UNL A   1      47.794  35.102  28.692  1.00  0.00     0.060 A 
ATOM     37  C   UNL A   1      47.880  34.155  29.723  1.00  0.00     0.016 A 
ATOM     38  C   UNL A   1      47.035  34.835  27.550  1.00  0.00     0.016 A 
ATOM     39  C   UNL A   1      47.221  32.932  29.607  1.00  0.00     0.010 A 
ATOM     40  C   UNL A   1      46.405  33.593  27.420  1.00  0.00     0.010 A 
ATOM     41  C   UNL A   1      46.519  32.627  28.434  1.00  0.00    -0.014 A 
BRANCH  41  42
ATOM     42  C   UNL A   1      46.084  31.231  28.193  1.00  0.00     0.031 A 
ATOM     43  C   UNL A   1      44.661  30.868  28.508  1.00  0.00     0.074 A 
ATOM     44  C   UNL A   1      46.915  30.315  27.665  1.00  0.00     0.049 A 
ATOM     45  N   UNL A   1      44.049  29.722  28.369  1.00  0.00    -0.248 NA
ATOM     46  C   UNL A   1      43.811  31.946  29.042  1.00  0.00     0.031 C 
ATOM     47  C   UNL A   1      48.295  30.567  27.262  1.00  0.00     0.029 A 
ATOM     48  N   UNL A   1      46.721  28.985  27.383  1.00  0.00    -0.354 N 
ATOM     49  C   UNL A   1      42.742  29.943  28.784  1.00  0.00     0.074 A 
ATOM     50  C   UNL A   1      42.660  31.317  29.225  1.00  0.00     0.031 C 
ATOM     51  C   UNL A   1      48.836  29.424  26.809  1.00  0.00     0.029 A 
ATOM     52  C   UNL A   1      47.841  28.354  26.898  1.00  0.00     0.049 A 
ATOM     53  H   UNL A   1      45.860  28.528  27.515  1.00  0.00     0.167 HD
ATOM     54  C   UNL A   1      41.700  29.080  28.779  1.00  0.00     0.037 A 
ATOM     55  C   UNL A   1      48.044  27.060  26.571  1.00  0.00     0.037 A 
ATOM     56  C   UNL A   1      41.795  27.710  28.353  1.00  0.00     0.049 A 
ATOM     57  C   UNL A   1      46.896  26.088  26.671  1.00  0.00     0.074 A 
ATOM     58  C   UNL A   1      40.794  26.757  28.304  1.00  0.00     0.029 A 
ATOM     59  N   UNL A   1      42.959  27.092  27.920  1.00  0.00    -0.354 N 
ATOM     60  N   UNL A   1      45.655  26.317  27.033  1.00  0.00    -0.248 NA
ATOM     61  C   UNL A   1      47.166  24.690  26.308  1.00  0.00     0.031 C 
ATOM     62  C   UNL A   1      41.366  25.548  27.900  1.00  0.00     0.029 A 
ATOM     63  C   UNL A   1      42.709  25.762  27.631  1.00  0.00     0.049 A 
ATOM     64  H   UNL A   1      43.834  27.535  27.830  1.00  0.00     0.167 HD
ATOM     65  C   UNL A   1      44.990  25.101  26.909  1.00  0.00     0.074 A 
ATOM     66  C   UNL A   1      45.966  24.139  26.439  1.00  0.00     0.031 C 
ATOM     67  C   UNL A   1      43.688  24.814  27.154  1.00  0.00     0.037 A 
BRANCH  54  68
ATOM     68  C   UNL A   1      40.372  29.591  29.263  1.00  0.00     0.058 A 
ATOM     69  C   UNL A   1      39.313  29.852  28.377  1.00  0.00     0.135 A 
ATOM     70  C   UNL A   1      40.142  29.791  30.634  1.00  0.00     0.135 A 
ATOM     71  F   UNL A   1      39.485  29.698  27.055  1.00  0.00    -0.206 F 
ATOM     72  C   UNL A   1      38.085  30.317  28.831  1.00  0.00     0.059 A 
ATOM     73  C   UNL A   1      38.911  30.225  31.113  1.00  0.00     0.059 A 
ATOM     74  F   UNL A   1      41.121  29.561  31.523  1.00  0.00    -0.206 F 
ATOM     75  C   UNL A   1      37.891  30.498  30.202  1.00  0.00     0.060 A 
BRANCH  75  76
ATOM     76  S   UNL A   1      36.288  31.101  30.769  1.00  0.00     0.124 S 
ATOM     77  O   UNL A   1      35.517  31.090  29.530  1.00  0.00    -0.237 OA
ATOM     78  O   UNL A   1      35.913  30.096  31.759  1.00  0.00    -0.237 OA
ATOM     79  O   UNL A   1      36.592  32.425  31.306  1.00  0.00    -0.744 OA
ENDBRANCH  75  76
ENDBRANCH  54  68
BRANCH  55  80
ATOM     80  C   UNL A   1      49.383  26.626  26.093  1.00  0.00     0.058 A 
ATOM     81  C   UNL A   1      49.777  26.829  24.762  1.00  0.00     0.135 A 
ATOM     82  C   UNL A   1      50.316  26.044  26.968  1.00  0.00     0.135 A 
ATOM     83  F   UNL A   1      48.919  27.369  23.884  1.00  0.00    -0.206 F 
ATOM     84  C   UNL A   1      51.048  26.482  24.318  1.00  0.00     0.059 A 
ATOM     85  C   UNL A   1      51.602  25.711  26.553  1.00  0.00     0.059 A 
ATOM     86  F   UNL A   1      49.991  25.834  28.253  1.00  0.00    -0.206 F 
ATOM     87  C   UNL A   1      51.959  25.938  25.224  1.00  0.00     0.060 A 
BRANCH  87  88
ATOM     88  S   UNL A   1      53.636  25.586  24.652  1.00  0.00     0.124 S 
ATOM     89  O   UNL A   1      53.557  25.969  23.247  1.00  0.00    -0.237 OA
ATOM     90  O   UNL A   1      54.433  26.458  25.509  1.00  0.00    -0.237 OA
ATOM     91  O   UNL A   1      53.788  24.157  24.910  1.00  0.00    -0.744 OA
ENDBRANCH  87  88
ENDBRANCH  55  80
BRANCH  67  92
ATOM     92  C   UNL A   1      43.206  23.412  26.897  1.00  0.00     0.058 A 
ATOM     93  C   UNL A   1      43.053  22.913  25.596  1.00  0.00     0.135 A 
ATOM     94  C   UNL A   1      43.026  22.519  27.968  1.00  0.00     0.135 A 
ATOM     95  F   UNL A   1      43.207  23.724  24.538  1.00  0.00    -0.206 F 
ATOM     96  C   UNL A   1      42.742  21.576  25.364  1.00  0.00     0.059 A 
ATOM     97  C   UNL A   1      42.743  21.173  27.759  1.00  0.00     0.059 A 
ATOM     98  F   UNL A   1      43.170  22.943  29.233  1.00  0.00    -0.206 F 
ATOM     99  C   UNL A   1      42.604  20.710  26.451  1.00  0.00     0.060 A 
BRANCH  99 100
ATOM    100  S   UNL A   1      42.285  18.964  26.127  1.00  0.00     0.124 S 
ATOM    101  O   UNL A   1      43.194  18.699  25.016  1.00  0.00    -0.237 OA
ATOM    102  O   UNL A   1      42.639  18.343  27.399  1.00  0.00    -0.237 OA
ATOM    103  O   UNL A   1      40.863  18.931  25.793  1.00  0.00    -0.744 OA
ENDBRANCH  99 100
ENDBRANCH  67  92
ENDBRANCH  41  42
ENDBRANCH  34  36
ENDBRANCH  33  34
ENDBRANCH  32  33
ENDBRANCH  31  32
ENDBRANCH  30  31
ENDBRANCH  29  30
ENDBRANCH   1  29
TORSDOF 25
ENDMDL
MODEL 2
REMARK VINA RESULT:      -7.9      6.820     13.547
REMARK SMILES Cc1nn(C)c(=O)c(C(=O)N2CCCC[C@H]2C(=O)OCCOCCOCCOCCOC(=O)c2ccc(-c3c4nc(c(-c5c(F)cc(S(=O)(=O)[O-])cc5F)c5ccc([nH]5)c(-c5c(F)cc(S(=O)(=O)[O-])cc5F)c5nc(c(-c6c(F)cc(S(=O)(=O)[O-])cc6F)c6ccc3[nH]6)C=C5)C=C4)cc2)c1C
REMARK SMILES IDX 26 1 25 2 24 3 23 4 22 5 21 6 20 7 19 8 17 9 18 10 16 11
REMARK SMILES IDX 11 12 12 13 13 14 15 15 14 16 9 17 10 18 8 19 1 20 2 21 3 22
REMARK SMILES IDX 100 23 4 24 101 25 5 26 6 27 7 28 27 29 28 30 29 31 30 32
REMARK SMILES IDX 31 33 32 34 33 35 34 36 35 37 99 38 36 39 98 40 37 41 38 42
REMARK SMILES IDX 39 43 92 44 40 45 97 46 91 47 93 48 41 49 96 50 90 51 89 52
REMARK SMILES IDX 42 54 76 55 55 56 75 57 56 58 59 59 74 60 94 61 57 62 58 63
REMARK SMILES IDX 73 65 95 66 60 67 43 68 44 69 53 70 45 71 46 72 52 73 54 74
REMARK SMILES IDX 47 75 48 76 49 77 50 78 51 79 77 80 78 81 87 82 79 83 80 84
REMARK SMILES IDX 86 85 88 86 81 87 82 88 83 89 84 90 85 91 61 92 62 93 71 94
REMARK SMILES IDX 63 95 64 96 70 97 72 98 65 99 66 100 67 101 68 102 69 103
REMARK H PARENT 93 53 59 64
REMARK Flexibility Score: inf
ROOT
ATOM      1  C   UNL A   1      37.726  33.340  34.888  1.00  0.00     0.188 C 
ENDROOT
BRANCH   1   2
ATOM      2  O   UNL A   1      38.138  32.789  36.139  1.00  0.00    -0.377 OA
BRANCH   2   3
ATOM      3  C   UNL A   1      38.284  31.367  36.180  1.00  0.00     0.188 C 
BRANCH   3   4
ATOM      4  C   UNL A   1      39.659  30.862  35.751  1.00  0.00     0.188 C 
BRANCH   4   5
ATOM      5  O   UNL A   1      40.044  29.554  36.096  1.00  0.00    -0.376 OA
BRANCH   5   6
ATOM      6  C   UNL A   1      41.390  29.128  35.892  1.00  0.00     0.202 C 
BRANCH   6   7
ATOM      7  C   UNL A   1      41.896  28.197  34.753  1.00  0.00     0.261 C 
BRANCH   7   8
ATOM      8  O   UNL A   1      43.075  27.400  34.924  1.00  0.00    -0.462 OA
BRANCH   8   9
ATOM      9  C   UNL A   1      43.611  26.724  33.880  1.00  0.00     0.328 C 
ATOM     10  O   UNL A   1      43.379  27.016  32.716  1.00  0.00    -0.250 OA
BRANCH   9  11
ATOM     11  C   UNL A   1      44.756  25.752  34.406  1.00  0.00     0.195 C 
ATOM     12  N   UNL A   1      44.355  24.836  35.476  1.00  0.00    -0.325 N 
ATOM     13  C   UNL A   1      43.283  23.935  35.036  1.00  0.00     0.121 C 
ATOM     14  C   UNL A   1      43.628  23.157  33.754  1.00  0.00     0.022 C 
ATOM     15  C   UNL A   1      45.318  24.951  33.214  1.00  0.00     0.037 C 
ATOM     16  C   UNL A   1      44.275  23.992  32.650  1.00  0.00     0.005 C 
BRANCH  12  17
ATOM     17  C   UNL A   1      45.170  24.402  36.538  1.00  0.00     0.260 C 
ATOM     18  O   UNL A   1      44.756  24.641  37.678  1.00  0.00    -0.269 OA
BRANCH  17  19
ATOM     19  C   UNL A   1      46.571  23.742  36.397  1.00  0.00     0.111 A 
ATOM     20  C   UNL A   1      50.375  24.134  36.093  1.00  0.00     0.069 C 
ATOM     21  C   UNL A   1      49.022  23.502  36.365  1.00  0.00     0.062 A 
ATOM     22  N   UNL A   1      49.038  22.237  36.590  1.00  0.00    -0.175 NA
ATOM     23  C   UNL A   1      47.783  24.345  36.390  1.00  0.00    -0.010 A 
ATOM     24  N   UNL A   1      47.848  21.621  36.771  1.00  0.00    -0.232 N 
ATOM     25  C   UNL A   1      48.060  25.788  36.532  1.00  0.00     0.047 C 
ATOM     26  C   UNL A   1      47.966  20.227  37.174  1.00  0.00     0.178 C 
ATOM     27  C   UNL A   1      46.613  22.212  36.504  1.00  0.00     0.279 A 
ATOM     28  O   UNL A   1      45.598  21.526  36.386  1.00  0.00    -0.267 OA
ENDBRANCH  17  19
ENDBRANCH  12  17
ENDBRANCH   9  11
ENDBRANCH   8   9
ENDBRANCH   7   8
ENDBRANCH   6   7
ENDBRANCH   5   6
ENDBRANCH   4   5
ENDBRANCH   3   4
ENDBRANCH   2   3
ENDBRANCH   1   2
BRANCH   1  29
ATOM     29  C   UNL A   1      36.214  33.598  34.689  1.00  0.00     0.188 C 
BRANCH  29  30
ATOM     30  O   UNL A   1      35.836  33.910  33.356  1.00  0.00    -0.376 OA
BRANCH  30  31
ATOM     31  C   UNL A   1      34.769  33.156  32.790  1.00  0.00     0.202 C 
BRANCH  31  32
ATOM     32  C   UNL A   1      34.819  32.794  31.292  1.00  0.00     0.261 C 
BRANCH  32  33
ATOM     33  O   UNL A   1      35.156  31.438  30.964  1.00  0.00    -0.460 OA
BRANCH  33  34
ATOM     34  C   UNL A   1      35.692  31.202  29.749  1.00  0.00     0.338 C 
ATOM     35  O   UNL A   1      35.158  31.388  28.666  1.00  0.00    -0.246 OA
BRANCH  34  36
ATOM     36  C   UNL A   1      37.123  30.892  29.946  1.00  0.00     0.060 A 
ATOM     37  C   UNL A   1      37.997  30.986  28.853  1.00  0.00     0.016 A 
ATOM     38  C   UNL A   1      37.608  30.542  31.208  1.00  0.00     0.016 A 
ATOM     39  C   UNL A   1      39.354  30.716  29.016  1.00  0.00     0.010 A 
ATOM     40  C   UNL A   1      38.963  30.234  31.362  1.00  0.00     0.010 A 
ATOM     41  C   UNL A   1      39.836  30.292  30.261  1.00  0.00    -0.014 A 
BRANCH  41  42
ATOM     42  C   UNL A   1      41.200  29.719  30.354  1.00  0.00     0.031 A 
ATOM     43  C   UNL A   1      42.269  30.542  31.015  1.00  0.00     0.074 A 
ATOM     44  C   UNL A   1      41.477  28.482  29.905  1.00  0.00     0.049 A 
ATOM     45  N   UNL A   1      43.526  30.250  31.224  1.00  0.00    -0.248 NA
ATOM     46  C   UNL A   1      41.865  31.866  31.515  1.00  0.00     0.031 C 
ATOM     47  C   UNL A   1      40.508  27.571  29.305  1.00  0.00     0.029 A 
ATOM     48  N   UNL A   1      42.658  27.782  29.879  1.00  0.00    -0.354 N 
ATOM     49  C   UNL A   1      44.058  31.346  31.892  1.00  0.00     0.074 A 
ATOM     50  C   UNL A   1      43.003  32.328  32.010  1.00  0.00     0.031 C 
ATOM     51  C   UNL A   1      41.136  26.440  28.943  1.00  0.00     0.029 A 
ATOM     52  C   UNL A   1      42.556  26.550  29.279  1.00  0.00     0.049 A 
ATOM     53  H   UNL A   1      43.497  28.130  30.256  1.00  0.00     0.167 HD
ATOM     54  C   UNL A   1      45.309  31.509  32.379  1.00  0.00     0.037 A 
ATOM     55  C   UNL A   1      43.501  25.622  29.022  1.00  0.00     0.037 A 
ATOM     56  C   UNL A   1      46.356  30.533  32.243  1.00  0.00     0.049 A 
ATOM     57  C   UNL A   1      44.915  25.866  29.480  1.00  0.00     0.074 A 
ATOM     58  C   UNL A   1      47.657  30.601  32.708  1.00  0.00     0.029 A 
ATOM     59  N   UNL A   1      46.230  29.320  31.580  1.00  0.00    -0.354 N 
ATOM     60  N   UNL A   1      45.399  26.892  30.141  1.00  0.00    -0.248 NA
ATOM     61  C   UNL A   1      45.910  24.828  29.174  1.00  0.00     0.031 C 
ATOM     62  C   UNL A   1      48.333  29.458  32.273  1.00  0.00     0.029 A 
ATOM     63  C   UNL A   1      47.437  28.645  31.597  1.00  0.00     0.049 A 
ATOM     64  H   UNL A   1      45.402  28.988  31.162  1.00  0.00     0.167 HD
ATOM     65  C   UNL A   1      46.743  26.608  30.358  1.00  0.00     0.074 A 
ATOM     66  C   UNL A   1      46.998  25.314  29.759  1.00  0.00     0.031 C 
ATOM     67  C   UNL A   1      47.677  27.350  31.004  1.00  0.00     0.037 A 
BRANCH  54  68
ATOM     68  C   UNL A   1      45.617  32.797  33.090  1.00  0.00     0.058 A 
ATOM     69  C   UNL A   1      45.439  32.935  34.477  1.00  0.00     0.135 A 
ATOM     70  C   UNL A   1      46.127  33.897  32.382  1.00  0.00     0.135 A 
ATOM     71  F   UNL A   1      44.934  31.923  35.198  1.00  0.00    -0.206 F 
ATOM     72  C   UNL A   1      45.732  34.126  35.131  1.00  0.00     0.059 A 
ATOM     73  C   UNL A   1      46.458  35.088  33.021  1.00  0.00     0.059 A 
ATOM     74  F   UNL A   1      46.312  33.819  31.055  1.00  0.00    -0.206 F 
ATOM     75  C   UNL A   1      46.244  35.197  34.394  1.00  0.00     0.060 A 
BRANCH  75  76
ATOM     76  S   UNL A   1      46.619  36.733  35.264  1.00  0.00     0.124 S 
ATOM     77  O   UNL A   1      45.330  37.416  35.219  1.00  0.00    -0.237 OA
ATOM     78  O   UNL A   1      47.036  36.251  36.577  1.00  0.00    -0.237 OA
ATOM     79  O   UNL A   1      47.675  37.334  34.454  1.00  0.00    -0.744 OA
ENDBRANCH  75  76
ENDBRANCH  54  68
BRANCH  55  80
ATOM     80  C   UNL A   1      43.124  24.367  28.318  1.00  0.00     0.058 A 
ATOM     81  C   UNL A   1      42.776  23.213  29.036  1.00  0.00     0.135 A 
ATOM     82  C   UNL A   1      43.055  24.309  26.917  1.00  0.00     0.135 A 
ATOM     83  F   UNL A   1      42.837  23.212  30.376  1.00  0.00    -0.206 F 
ATOM     84  C   UNL A   1      42.363  22.051  28.392  1.00  0.00     0.059 A 
ATOM     85  C   UNL A   1      42.622  23.166  26.251  1.00  0.00     0.059 A 
ATOM     86  F   UNL A   1      43.372  25.388  26.184  1.00  0.00    -0.206 F 
ATOM     87  C   UNL A   1      42.275  22.042  26.999  1.00  0.00     0.060 A 
BRANCH  87  88
ATOM     88  S   UNL A   1      41.644  20.558  26.187  1.00  0.00     0.124 S 
ATOM     89  O   UNL A   1      40.369  21.027  25.658  1.00  0.00    -0.237 OA
ATOM     90  O   UNL A   1      42.686  20.291  25.200  1.00  0.00    -0.237 OA
ATOM     91  O   UNL A   1      41.559  19.588  27.275  1.00  0.00    -0.744 OA
ENDBRANCH  87  88
ENDBRANCH  55  80
BRANCH  67  92
ATOM     92  C   UNL A   1      49.067  26.789  31.137  1.00  0.00     0.058 A 
ATOM     93  C   UNL A   1      50.063  27.055  30.187  1.00  0.00     0.135 A 
ATOM     94  C   UNL A   1      49.438  26.089  32.299  1.00  0.00     0.135 A 
ATOM     95  F   UNL A   1      49.761  27.713  29.057  1.00  0.00    -0.206 F 
ATOM     96  C   UNL A   1      51.380  26.651  30.385  1.00  0.00     0.059 A 
ATOM     97  C   UNL A   1      50.753  25.700  32.530  1.00  0.00     0.059 A 
ATOM     98  F   UNL A   1      48.525  25.816  33.244  1.00  0.00    -0.206 F 
ATOM     99  C   UNL A   1      51.719  25.987  31.566  1.00  0.00     0.060 A 
BRANCH  99 100
ATOM    100  S   UNL A   1      53.447  25.547  31.842  1.00  0.00     0.124 S 
ATOM    101  O   UNL A   1      53.344  24.126  32.156  1.00  0.00    -0.237 OA
ATOM    102  O   UNL A   1      54.057  25.870  30.557  1.00  0.00    -0.237 OA
ATOM    103  O   UNL A   1      53.847  26.406  32.953  1.00  0.00    -0.744 OA
ENDBRANCH  99 100
ENDBRANCH  67  92
ENDBRANCH  41  42
ENDBRANCH  34  36
ENDBRANCH  33  34
ENDBRANCH  32  33
ENDBRANCH  31  32
ENDBRANCH  30  31
ENDBRANCH  29  30
ENDBRANCH   1  29
TORSDOF 25
ENDMDL
MODEL 3
REMARK VINA RESULT:      -7.7      6.191     12.106
REMARK SMILES Cc1nn(C)c(=O)c(C(=O)N2CCCC[C@H]2C(=O)OCCOCCOCCOCCOC(=O)c2ccc(-c3c4nc(c(-c5c(F)cc(S(=O)(=O)[O-])cc5F)c5ccc([nH]5)c(-c5c(F)cc(S(=O)(=O)[O-])cc5F)c5nc(c(-c6c(F)cc(S(=O)(=O)[O-])cc6F)c6ccc3[nH]6)C=C5)C=C4)cc2)c1C
REMARK SMILES IDX 26 1 25 2 24 3 23 4 22 5 21 6 20 7 19 8 17 9 18 10 16 11
REMARK SMILES IDX 11 12 12 13 13 14 15 15 14 16 9 17 10 18 8 19 1 20 2 21 3 22
REMARK SMILES IDX 100 23 4 24 101 25 5 26 6 27 7 28 27 29 28 30 29 31 30 32
REMARK SMILES IDX 31 33 32 34 33 35 34 36 35 37 99 38 36 39 98 40 37 41 38 42
REMARK SMILES IDX 39 43 92 44 40 45 97 46 91 47 93 48 41 49 96 50 90 51 89 52
REMARK SMILES IDX 42 54 76 55 55 56 75 57 56 58 59 59 74 60 94 61 57 62 58 63
REMARK SMILES IDX 73 65 95 66 60 67 43 68 44 69 53 70 45 71 46 72 52 73 54 74
REMARK SMILES IDX 47 75 48 76 49 77 50 78 51 79 77 80 78 81 87 82 79 83 80 84
REMARK SMILES IDX 86 85 88 86 81 87 82 88 83 89 84 90 85 91 61 92 62 93 71 94
REMARK SMILES IDX 63 95 64 96 70 97 72 98 65 99 66 100 67 101 68 102 69 103
REMARK H PARENT 93 53 59 64
REMARK Flexibility Score: inf
ROOT
ATOM      1  C   UNL A   1      44.156  29.336  27.396  1.00  0.00     0.188 C 
ENDROOT
BRANCH   1   2
ATOM      2  O   UNL A   1      45.005  29.695  26.304  1.00  0.00    -0.377 OA
BRANCH   2   3
ATOM      3  C   UNL A   1      46.363  29.995  26.638  1.00  0.00     0.188 C 
BRANCH   3   4
ATOM      4  C   UNL A   1      47.107  28.857  27.330  1.00  0.00     0.188 C 
BRANCH   4   5
ATOM      5  O   UNL A   1      46.954  28.685  28.718  1.00  0.00    -0.376 OA
BRANCH   5   6
ATOM      6  C   UNL A   1      47.744  29.454  29.624  1.00  0.00     0.202 C 
BRANCH   6   7
ATOM      7  C   UNL A   1      47.456  30.912  30.086  1.00  0.00     0.261 C 
BRANCH   7   8
ATOM      8  O   UNL A   1      46.189  31.530  29.826  1.00  0.00    -0.462 OA
BRANCH   8   9
ATOM      9  C   UNL A   1      45.722  32.516  30.627  1.00  0.00     0.328 C 
ATOM     10  O   UNL A   1      46.027  32.606  31.808  1.00  0.00    -0.250 OA
BRANCH   9  11
ATOM     11  C   UNL A   1      45.009  33.629  29.741  1.00  0.00     0.195 C 
ATOM     12  N   UNL A   1      44.149  33.119  28.672  1.00  0.00    -0.325 N 
ATOM     13  C   UNL A   1      43.045  32.316  29.210  1.00  0.00     0.121 C 
ATOM     14  C   UNL A   1      42.212  33.056  30.272  1.00  0.00     0.022 C 
ATOM     15  C   UNL A   1      44.200  34.560  30.666  1.00  0.00     0.037 C 
ATOM     16  C   UNL A   1      43.031  33.822  31.310  1.00  0.00     0.005 C 
BRANCH  12  17
ATOM     17  C   UNL A   1      43.961  33.715  27.410  1.00  0.00     0.260 C 
ATOM     18  O   UNL A   1      43.892  32.944  26.447  1.00  0.00    -0.269 OA
BRANCH  17  19
ATOM     19  C   UNL A   1      43.930  35.243  27.123  1.00  0.00     0.111 A 
ATOM     20  C   UNL A   1      41.990  38.553  27.141  1.00  0.00     0.069 C 
ATOM     21  C   UNL A   1      43.156  37.581  27.125  1.00  0.00     0.062 A 
ATOM     22  N   UNL A   1      44.311  38.107  26.920  1.00  0.00    -0.175 NA
ATOM     23  C   UNL A   1      42.930  36.120  27.371  1.00  0.00    -0.010 A 
ATOM     24  N   UNL A   1      45.370  37.271  26.832  1.00  0.00    -0.232 N 
ATOM     25  C   UNL A   1      41.623  35.828  27.995  1.00  0.00     0.047 C 
ATOM     26  C   UNL A   1      46.652  37.956  26.756  1.00  0.00     0.178 C 
ATOM     27  C   UNL A   1      45.264  35.884  26.720  1.00  0.00     0.279 A 
ATOM     28  O   UNL A   1      46.218  35.208  26.335  1.00  0.00    -0.267 OA
ENDBRANCH  17  19
ENDBRANCH  12  17
ENDBRANCH   9  11
ENDBRANCH   8   9
ENDBRANCH   7   8
ENDBRANCH   6   7
ENDBRANCH   5   6
ENDBRANCH   4   5
ENDBRANCH   3   4
ENDBRANCH   2   3
ENDBRANCH   1   2
BRANCH   1  29
ATOM     29  C   UNL A   1      42.630  29.362  27.146  1.00  0.00     0.188 C 
BRANCH  29  30
ATOM     30  O   UNL A   1      42.256  29.460  25.778  1.00  0.00    -0.376 OA
BRANCH  30  31
ATOM     31  C   UNL A   1      42.284  28.262  25.010  1.00  0.00     0.202 C 
BRANCH  31  32
ATOM     32  C   UNL A   1      42.565  26.922  25.722  1.00  0.00     0.261 C 
BRANCH  32  33
ATOM     33  O   UNL A   1      41.514  25.946  25.704  1.00  0.00    -0.460 OA
BRANCH  33  34
ATOM     34  C   UNL A   1      41.442  25.085  26.739  1.00  0.00     0.338 C 
ATOM     35  O   UNL A   1      41.600  23.874  26.695  1.00  0.00    -0.246 OA
BRANCH  34  36
ATOM     36  C   UNL A   1      41.362  25.884  27.979  1.00  0.00     0.060 A 
ATOM     37  C   UNL A   1      40.118  26.382  28.390  1.00  0.00     0.016 A 
ATOM     38  C   UNL A   1      42.504  26.114  28.751  1.00  0.00     0.016 A 
ATOM     39  C   UNL A   1      40.014  27.123  29.566  1.00  0.00     0.010 A 
ATOM     40  C   UNL A   1      42.404  26.890  29.910  1.00  0.00     0.010 A 
ATOM     41  C   UNL A   1      41.165  27.421  30.307  1.00  0.00    -0.014 A 
BRANCH  41  42
ATOM     42  C   UNL A   1      41.096  28.450  31.371  1.00  0.00     0.031 A 
ATOM     43  C   UNL A   1      40.087  29.554  31.224  1.00  0.00     0.074 A 
ATOM     44  C   UNL A   1      41.877  28.387  32.464  1.00  0.00     0.049 A 
ATOM     45  N   UNL A   1      39.833  30.553  32.027  1.00  0.00    -0.248 NA
ATOM     46  C   UNL A   1      39.246  29.519  30.016  1.00  0.00     0.031 C 
ATOM     47  C   UNL A   1      42.844  27.331  32.743  1.00  0.00     0.029 A 
ATOM     48  N   UNL A   1      41.982  29.233  33.540  1.00  0.00    -0.354 N 
ATOM     49  C   UNL A   1      38.795  31.257  31.429  1.00  0.00     0.074 A 
ATOM     50  C   UNL A   1      38.499  30.601  30.176  1.00  0.00     0.031 C 
ATOM     51  C   UNL A   1      43.468  27.604  33.902  1.00  0.00     0.029 A 
ATOM     52  C   UNL A   1      42.948  28.860  34.443  1.00  0.00     0.049 A 
ATOM     53  H   UNL A   1      41.417  30.031  33.655  1.00  0.00     0.167 HD
ATOM     54  C   UNL A   1      38.135  32.343  31.896  1.00  0.00     0.037 A 
ATOM     55  C   UNL A   1      43.371  29.467  35.572  1.00  0.00     0.037 A 
ATOM     56  C   UNL A   1      38.447  32.999  33.137  1.00  0.00     0.049 A 
ATOM     57  C   UNL A   1      42.694  30.735  36.023  1.00  0.00     0.074 A 
ATOM     58  C   UNL A   1      37.833  34.102  33.701  1.00  0.00     0.029 A 
ATOM     59  N   UNL A   1      39.469  32.624  33.998  1.00  0.00    -0.354 N 
ATOM     60  N   UNL A   1      41.690  31.373  35.467  1.00  0.00    -0.248 NA
ATOM     61  C   UNL A   1      43.191  31.361  37.256  1.00  0.00     0.031 C 
ATOM     62  C   UNL A   1      38.523  34.431  34.870  1.00  0.00     0.029 A 
ATOM     63  C   UNL A   1      39.524  33.493  35.073  1.00  0.00     0.049 A 
ATOM     64  H   UNL A   1      40.067  31.852  33.864  1.00  0.00     0.167 HD
ATOM     65  C   UNL A   1      41.416  32.454  36.298  1.00  0.00     0.074 A 
ATOM     66  C   UNL A   1      42.358  32.385  37.396  1.00  0.00     0.031 C 
ATOM     67  C   UNL A   1      40.462  33.409  36.166  1.00  0.00     0.037 A 
BRANCH  54  68
ATOM     68  C   UNL A   1      37.023  32.897  31.051  1.00  0.00     0.058 A 
ATOM     69  C   UNL A   1      37.280  33.676  29.910  1.00  0.00     0.135 A 
ATOM     70  C   UNL A   1      35.683  32.619  31.365  1.00  0.00     0.135 A 
ATOM     71  F   UNL A   1      38.541  33.990  29.576  1.00  0.00    -0.206 F 
ATOM     72  C   UNL A   1      36.248  34.180  29.128  1.00  0.00     0.059 A 
ATOM     73  C   UNL A   1      34.635  33.085  30.578  1.00  0.00     0.059 A 
ATOM     74  F   UNL A   1      35.381  31.882  32.446  1.00  0.00    -0.206 F 
ATOM     75  C   UNL A   1      34.928  33.877  29.468  1.00  0.00     0.060 A 
BRANCH  75  76
ATOM     76  S   UNL A   1      33.604  34.540  28.437  1.00  0.00     0.124 S 
ATOM     77  O   UNL A   1      32.524  34.688  29.408  1.00  0.00    -0.237 OA
ATOM     78  O   UNL A   1      34.188  35.784  27.945  1.00  0.00    -0.237 OA
ATOM     79  O   UNL A   1      33.402  33.502  27.430  1.00  0.00    -0.744 OA
ENDBRANCH  75  76
ENDBRANCH  54  68
BRANCH  55  80
ATOM     80  C   UNL A   1      44.474  28.858  36.363  1.00  0.00     0.058 A 
ATOM     81  C   UNL A   1      45.783  29.356  36.279  1.00  0.00     0.135 A 
ATOM     82  C   UNL A   1      44.234  27.800  37.254  1.00  0.00     0.135 A 
ATOM     83  F   UNL A   1      46.067  30.358  35.433  1.00  0.00    -0.206 F 
ATOM     84  C   UNL A   1      46.812  28.836  37.058  1.00  0.00     0.059 A 
ATOM     85  C   UNL A   1      45.241  27.279  38.061  1.00  0.00     0.059 A 
ATOM     86  F   UNL A   1      42.998  27.292  37.376  1.00  0.00    -0.206 F 
ATOM     87  C   UNL A   1      46.528  27.807  37.957  1.00  0.00     0.060 A 
BRANCH  87  88
ATOM     88  S   UNL A   1      47.854  27.212  39.029  1.00  0.00     0.124 S 
ATOM     89  O   UNL A   1      47.285  25.975  39.548  1.00  0.00    -0.237 OA
ATOM     90  O   UNL A   1      48.957  27.062  38.083  1.00  0.00    -0.237 OA
ATOM     91  O   UNL A   1      48.014  28.291  39.999  1.00  0.00    -0.744 OA
ENDBRANCH  87  88
ENDBRANCH  55  80
BRANCH  67  92
ATOM     92  C   UNL A   1      40.349  34.456  37.241  1.00  0.00     0.058 A 
ATOM     93  C   UNL A   1      41.097  35.642  37.197  1.00  0.00     0.135 A 
ATOM     94  C   UNL A   1      39.381  34.329  38.253  1.00  0.00     0.135 A 
ATOM     95  F   UNL A   1      42.038  35.812  36.256  1.00  0.00    -0.206 F 
ATOM     96  C   UNL A   1      40.887  36.666  38.115  1.00  0.00     0.059 A 
ATOM     97  C   UNL A   1      39.135  35.351  39.164  1.00  0.00     0.059 A 
ATOM     98  F   UNL A   1      38.631  33.219  38.335  1.00  0.00    -0.206 F 
ATOM     99  C   UNL A   1      39.894  36.518  39.086  1.00  0.00     0.060 A 
BRANCH  99 100
ATOM    100  S   UNL A   1      39.580  37.892  40.213  1.00  0.00     0.124 S 
ATOM    101  O   UNL A   1      39.404  37.197  41.484  1.00  0.00    -0.237 OA
ATOM    102  O   UNL A   1      40.800  38.682  40.085  1.00  0.00    -0.237 OA
ATOM    103  O   UNL A   1      38.376  38.514  39.668  1.00  0.00    -0.744 OA
ENDBRANCH  99 100
ENDBRANCH  67  92
ENDBRANCH  41  42
ENDBRANCH  34  36
ENDBRANCH  33  34
ENDBRANCH  32  33
ENDBRANCH  31  32
ENDBRANCH  30  31
ENDBRANCH  29  30
ENDBRANCH   1  29
TORSDOF 25
ENDMDL
