MODEL 1
REMARK VINA RESULT:      -8.3      0.000      0.000
REMARK SMILES C[C@@H]1CN(C(=O)c2c(F)cc(Br)cc2F)C[C@H]1C(=O)OCCOCCOCCOCCOC(=O)c1ccc(-c2c3nc(c(-c4c(F)cc(S(=O)(=O)[O-])cc4F)c4ccc([nH]4)c(-c4c(F)cc(S(=O)(=O)[O-])cc4F)c4nc(c(-c5c(F)cc(S(=O)(=O)[O-])cc5F)c5ccc2[nH]5)C=C4)C=C3)cc1
REMARK SMILES IDX 27 1 26 2 25 3 24 4 23 5 22 6 21 7 20 8 18 9 19 10 17 11
REMARK SMILES IDX 1 12 2 13 3 14 4 15 16 16 5 17 6 18 7 19 8 20 14 21 9 22
REMARK SMILES IDX 10 23 13 24 15 25 11 26 12 27 28 28 29 29 30 30 31 31 32 32
REMARK SMILES IDX 33 33 34 34 35 35 36 36 100 37 37 38 99 39 38 40 39 41 40 42
REMARK SMILES IDX 93 43 41 44 98 45 92 46 94 47 42 48 97 49 91 50 90 51 43 53
REMARK SMILES IDX 77 54 56 55 76 56 57 57 60 58 75 59 95 60 58 61 59 62 74 64
REMARK SMILES IDX 96 65 61 66 44 67 45 68 54 69 46 70 47 71 53 72 55 73 48 74
REMARK SMILES IDX 49 75 50 76 51 77 52 78 78 79 79 80 88 81 80 82 81 83 87 84
REMARK SMILES IDX 89 85 82 86 83 87 84 88 85 89 86 90 62 91 63 92 72 93 64 94
REMARK SMILES IDX 65 95 71 96 73 97 66 98 67 99 68 100 69 101 70 102
REMARK H PARENT 94 52 60 63
REMARK Flexibility Score: inf
ROOT
ATOM      1  C   UNL A   1      37.228  32.737  29.184  1.00  0.00     0.188 C 
ENDROOT
BRANCH   1   2
ATOM      2  O   UNL A   1      36.011  33.347  28.774  1.00  0.00    -0.377 OA
BRANCH   2   3
ATOM      3  C   UNL A   1      35.226  32.699  27.798  1.00  0.00     0.188 C 
BRANCH   3   4
ATOM      4  C   UNL A   1      33.932  32.051  28.307  1.00  0.00     0.188 C 
BRANCH   4   5
ATOM      5  O   UNL A   1      33.236  31.099  27.524  1.00  0.00    -0.376 OA
BRANCH   5   6
ATOM      6  C   UNL A   1      33.901  29.982  26.949  1.00  0.00     0.202 C 
BRANCH   6   7
ATOM      7  C   UNL A   1      33.319  29.135  25.800  1.00  0.00     0.261 C 
BRANCH   7   8
ATOM      8  O   UNL A   1      31.889  29.030  25.714  1.00  0.00    -0.463 OA
BRANCH   8   9
ATOM      9  C   UNL A   1      31.368  27.810  25.964  1.00  0.00     0.311 C 
ATOM     10  O   UNL A   1      31.571  27.165  26.990  1.00  0.00    -0.252 OA
BRANCH   9  11
ATOM     11  C   UNL A   1      30.503  27.243  24.849  1.00  0.00     0.123 C 
ATOM     12  C   UNL A   1      28.906  28.312  23.149  1.00  0.00     0.010 C 
ATOM     13  C   UNL A   1      30.362  27.992  23.488  1.00  0.00     0.021 C 
ATOM     14  C   UNL A   1      30.975  27.052  22.443  1.00  0.00     0.124 C 
ATOM     15  N   UNL A   1      31.837  26.228  23.256  1.00  0.00    -0.337 N 
ATOM     16  C   UNL A   1      31.137  25.909  24.482  1.00  0.00     0.135 C 
BRANCH  15  17
ATOM     17  C   UNL A   1      33.223  26.201  23.220  1.00  0.00     0.259 C 
ATOM     18  O   UNL A   1      33.903  27.123  22.782  1.00  0.00    -0.269 OA
BRANCH  17  19
ATOM     19  C   UNL A   1      33.911  25.032  23.765  1.00  0.00     0.111 A 
ATOM     20  C   UNL A   1      34.485  25.043  25.033  1.00  0.00     0.140 A 
ATOM     21  C   UNL A   1      33.969  23.881  22.990  1.00  0.00     0.140 A 
ATOM     22  F   UNL A   1      34.460  26.149  25.790  1.00  0.00    -0.206 F 
ATOM     23  C   UNL A   1      35.156  23.919  25.513  1.00  0.00     0.056 A 
ATOM     24  C   UNL A   1      34.619  22.746  23.460  1.00  0.00     0.056 A 
ATOM     25  F   UNL A   1      33.443  23.861  21.757  1.00  0.00    -0.206 F 
ATOM     26  C   UNL A   1      35.223  22.776  24.717  1.00  0.00     0.023 A 
ATOM     27  Br  UNL A   1      36.191  21.269  25.319  1.00  0.00    -0.051 Br
ENDBRANCH  17  19
ENDBRANCH  15  17
ENDBRANCH   9  11
ENDBRANCH   8   9
ENDBRANCH   7   8
ENDBRANCH   6   7
ENDBRANCH   5   6
ENDBRANCH   4   5
ENDBRANCH   3   4
ENDBRANCH   2   3
ENDBRANCH   1   2
BRANCH   1  28
ATOM     28  C   UNL A   1      37.171  31.422  29.985  1.00  0.00     0.188 C 
BRANCH  28  29
ATOM     29  O   UNL A   1      36.123  31.366  30.944  1.00  0.00    -0.376 OA
BRANCH  29  30
ATOM     30  C   UNL A   1      36.176  32.239  32.062  1.00  0.00     0.202 C 
BRANCH  30  31
ATOM     31  C   UNL A   1      36.863  31.741  33.345  1.00  0.00     0.261 C 
BRANCH  31  32
ATOM     32  O   UNL A   1      38.223  31.293  33.226  1.00  0.00    -0.460 OA
BRANCH  32  33
ATOM     33  C   UNL A   1      39.209  32.218  33.184  1.00  0.00     0.338 C 
ATOM     34  O   UNL A   1      39.264  33.256  33.803  1.00  0.00    -0.246 OA
BRANCH  33  35
ATOM     35  C   UNL A   1      40.321  31.639  32.391  1.00  0.00     0.060 A 
ATOM     36  C   UNL A   1      41.206  30.748  33.012  1.00  0.00     0.016 A 
ATOM     37  C   UNL A   1      40.475  31.958  31.040  1.00  0.00     0.016 A 
ATOM     38  C   UNL A   1      42.258  30.184  32.285  1.00  0.00     0.010 A 
ATOM     39  C   UNL A   1      41.543  31.412  30.321  1.00  0.00     0.010 A 
ATOM     40  C   UNL A   1      42.452  30.539  30.943  1.00  0.00    -0.014 A 
BRANCH  40  41
ATOM     41  C   UNL A   1      43.682  30.112  30.228  1.00  0.00     0.031 A 
ATOM     42  C   UNL A   1      43.710  28.750  29.590  1.00  0.00     0.074 A 
ATOM     43  C   UNL A   1      44.756  30.918  30.149  1.00  0.00     0.049 A 
ATOM     44  N   UNL A   1      44.698  28.133  28.993  1.00  0.00    -0.248 NA
ATOM     45  C   UNL A   1      42.457  27.979  29.632  1.00  0.00     0.031 C 
ATOM     46  C   UNL A   1      44.837  32.277  30.685  1.00  0.00     0.029 A 
ATOM     47  N   UNL A   1      45.995  30.702  29.594  1.00  0.00    -0.354 N 
ATOM     48  C   UNL A   1      44.190  26.900  28.599  1.00  0.00     0.074 A 
ATOM     49  C   UNL A   1      42.814  26.847  29.044  1.00  0.00     0.031 C 
ATOM     50  C   UNL A   1      46.068  32.765  30.450  1.00  0.00     0.029 A 
ATOM     51  C   UNL A   1      46.873  31.742  29.784  1.00  0.00     0.049 A 
ATOM     52  H   UNL A   1      46.230  29.880  29.108  1.00  0.00     0.167 HD
ATOM     53  C   UNL A   1      44.814  25.906  27.924  1.00  0.00     0.037 A 
ATOM     54  C   UNL A   1      48.186  31.843  29.485  1.00  0.00     0.037 A 
ATOM     55  C   UNL A   1      46.185  25.965  27.485  1.00  0.00     0.049 A 
ATOM     56  C   UNL A   1      48.882  30.686  28.811  1.00  0.00     0.074 A 
ATOM     57  C   UNL A   1      46.899  25.017  26.771  1.00  0.00     0.029 A 
ATOM     58  N   UNL A   1      47.052  27.019  27.726  1.00  0.00    -0.354 N 
ATOM     59  N   UNL A   1      48.385  29.537  28.417  1.00  0.00    -0.248 NA
ATOM     60  C   UNL A   1      50.321  30.837  28.544  1.00  0.00     0.031 C 
ATOM     61  C   UNL A   1      48.214  25.471  26.639  1.00  0.00     0.029 A 
ATOM     62  C   UNL A   1      48.305  26.730  27.210  1.00  0.00     0.049 A 
ATOM     63  H   UNL A   1      46.813  27.851  28.195  1.00  0.00     0.167 HD
ATOM     64  C   UNL A   1      49.443  28.842  27.836  1.00  0.00     0.074 A 
ATOM     65  C   UNL A   1      50.601  29.706  27.912  1.00  0.00     0.031 C 
ATOM     66  C   UNL A   1      49.453  27.599  27.289  1.00  0.00     0.037 A 
BRANCH  53  67
ATOM     67  C   UNL A   1      44.035  24.649  27.644  1.00  0.00     0.058 A 
ATOM     68  C   UNL A   1      43.898  23.631  28.600  1.00  0.00     0.135 A 
ATOM     69  C   UNL A   1      43.368  24.488  26.417  1.00  0.00     0.135 A 
ATOM     70  F   UNL A   1      44.528  23.723  29.782  1.00  0.00    -0.206 F 
ATOM     71  C   UNL A   1      43.142  22.490  28.344  1.00  0.00     0.059 A 
ATOM     72  C   UNL A   1      42.585  23.371  26.151  1.00  0.00     0.059 A 
ATOM     73  F   UNL A   1      43.470  25.429  25.465  1.00  0.00    -0.206 F 
ATOM     74  C   UNL A   1      42.485  22.372  27.118  1.00  0.00     0.060 A 
BRANCH  74  75
ATOM     75  S   UNL A   1      41.493  20.896  26.812  1.00  0.00     0.124 S 
ATOM     76  O   UNL A   1      42.515  19.854  26.799  1.00  0.00    -0.237 OA
ATOM     77  O   UNL A   1      40.592  20.885  27.960  1.00  0.00    -0.237 OA
ATOM     78  O   UNL A   1      40.861  21.170  25.525  1.00  0.00    -0.744 OA
ENDBRANCH  74  75
ENDBRANCH  53  67
BRANCH  54  79
ATOM     79  C   UNL A   1      48.947  33.067  29.861  1.00  0.00     0.058 A 
ATOM     80  C   UNL A   1      49.544  33.199  31.123  1.00  0.00     0.135 A 
ATOM     81  C   UNL A   1      49.069  34.143  28.969  1.00  0.00     0.135 A 
ATOM     82  F   UNL A   1      49.443  32.206  32.021  1.00  0.00    -0.206 F 
ATOM     83  C   UNL A   1      50.216  34.360  31.494  1.00  0.00     0.059 A 
ATOM     84  C   UNL A   1      49.762  35.301  29.303  1.00  0.00     0.059 A 
ATOM     85  F   UNL A   1      48.522  34.064  27.747  1.00  0.00    -0.206 F 
ATOM     86  C   UNL A   1      50.321  35.405  30.575  1.00  0.00     0.060 A 
BRANCH  86  87
ATOM     87  S   UNL A   1      51.216  36.898  31.056  1.00  0.00     0.124 S 
ATOM     88  O   UNL A   1      50.300  37.944  30.615  1.00  0.00    -0.237 OA
ATOM     89  O   UNL A   1      51.341  36.725  32.499  1.00  0.00    -0.237 OA
ATOM     90  O   UNL A   1      52.464  36.794  30.305  1.00  0.00    -0.744 OA
ENDBRANCH  86  87
ENDBRANCH  54  79
BRANCH  66  91
ATOM     91  C   UNL A   1      50.749  27.104  26.701  1.00  0.00     0.058 A 
ATOM     92  C   UNL A   1      51.164  27.471  25.411  1.00  0.00     0.135 A 
ATOM     93  C   UNL A   1      51.617  26.303  27.463  1.00  0.00     0.135 A 
ATOM     94  F   UNL A   1      50.372  28.230  24.637  1.00  0.00    -0.206 F 
ATOM     95  C   UNL A   1      52.380  27.041  24.888  1.00  0.00     0.059 A 
ATOM     96  C   UNL A   1      52.852  25.890  26.973  1.00  0.00     0.059 A 
ATOM     97  F   UNL A   1      51.277  25.932  28.707  1.00  0.00    -0.206 F 
ATOM     98  C   UNL A   1      53.220  26.256  25.680  1.00  0.00     0.060 A 
BRANCH  98  99
ATOM     99  S   UNL A   1      54.813  25.742  25.002  1.00  0.00     0.124 S 
ATOM    100  O   UNL A   1      54.846  24.329  25.365  1.00  0.00    -0.237 OA
ATOM    101  O   UNL A   1      54.654  26.027  23.580  1.00  0.00    -0.237 OA
ATOM    102  O   UNL A   1      55.772  26.592  25.702  1.00  0.00    -0.744 OA
ENDBRANCH  98  99
ENDBRANCH  66  91
ENDBRANCH  40  41
ENDBRANCH  33  35
ENDBRANCH  32  33
ENDBRANCH  31  32
ENDBRANCH  30  31
ENDBRANCH  29  30
ENDBRANCH  28  29
ENDBRANCH   1  28
TORSDOF 25
ENDMDL
MODEL 2
REMARK VINA RESULT:      -8.1      4.365      7.612
REMARK SMILES C[C@@H]1CN(C(=O)c2c(F)cc(Br)cc2F)C[C@H]1C(=O)OCCOCCOCCOCCOC(=O)c1ccc(-c2c3nc(c(-c4c(F)cc(S(=O)(=O)[O-])cc4F)c4ccc([nH]4)c(-c4c(F)cc(S(=O)(=O)[O-])cc4F)c4nc(c(-c5c(F)cc(S(=O)(=O)[O-])cc5F)c5ccc2[nH]5)C=C4)C=C3)cc1
REMARK SMILES IDX 27 1 26 2 25 3 24 4 23 5 22 6 21 7 20 8 18 9 19 10 17 11
REMARK SMILES IDX 1 12 2 13 3 14 4 15 16 16 5 17 6 18 7 19 8 20 14 21 9 22
REMARK SMILES IDX 10 23 13 24 15 25 11 26 12 27 28 28 29 29 30 30 31 31 32 32
REMARK SMILES IDX 33 33 34 34 35 35 36 36 100 37 37 38 99 39 38 40 39 41 40 42
REMARK SMILES IDX 93 43 41 44 98 45 92 46 94 47 42 48 97 49 91 50 90 51 43 53
REMARK SMILES IDX 77 54 56 55 76 56 57 57 60 58 75 59 95 60 58 61 59 62 74 64
REMARK SMILES IDX 96 65 61 66 44 67 45 68 54 69 46 70 47 71 53 72 55 73 48 74
REMARK SMILES IDX 49 75 50 76 51 77 52 78 78 79 79 80 88 81 80 82 81 83 87 84
REMARK SMILES IDX 89 85 82 86 83 87 84 88 85 89 86 90 62 91 63 92 72 93 64 94
REMARK SMILES IDX 65 95 71 96 73 97 66 98 67 99 68 100 69 101 70 102
REMARK H PARENT 94 52 60 63
REMARK Flexibility Score: inf
ROOT
ATOM      1  C   UNL A   1      37.417  33.758  34.940  1.00  0.00     0.188 C 
ENDROOT
BRANCH   1   2
ATOM      2  O   UNL A   1      38.179  34.943  34.759  1.00  0.00    -0.377 OA
BRANCH   2   3
ATOM      3  C   UNL A   1      39.342  34.883  33.964  1.00  0.00     0.188 C 
BRANCH   3   4
ATOM      4  C   UNL A   1      39.631  33.528  33.306  1.00  0.00     0.188 C 
BRANCH   4   5
ATOM      5  O   UNL A   1      40.838  32.834  33.563  1.00  0.00    -0.376 OA
BRANCH   5   6
ATOM      6  C   UNL A   1      41.071  31.531  33.044  1.00  0.00     0.202 C 
BRANCH   6   7
ATOM      7  C   UNL A   1      42.471  30.976  32.716  1.00  0.00     0.261 C 
BRANCH   7   8
ATOM      8  O   UNL A   1      42.784  29.655  33.184  1.00  0.00    -0.463 OA
BRANCH   8   9
ATOM      9  C   UNL A   1      42.547  28.646  32.319  1.00  0.00     0.311 C 
ATOM     10  O   UNL A   1      41.459  28.090  32.182  1.00  0.00    -0.252 OA
BRANCH   9  11
ATOM     11  C   UNL A   1      43.754  28.201  31.508  1.00  0.00     0.123 C 
ATOM     12  C   UNL A   1      46.032  29.272  31.016  1.00  0.00     0.010 C 
ATOM     13  C   UNL A   1      45.203  28.470  32.019  1.00  0.00     0.021 C 
ATOM     14  C   UNL A   1      45.814  27.083  32.252  1.00  0.00     0.124 C 
ATOM     15  N   UNL A   1      44.637  26.264  32.413  1.00  0.00    -0.337 N 
ATOM     16  C   UNL A   1      43.656  26.683  31.435  1.00  0.00     0.135 C 
BRANCH  15  17
ATOM     17  C   UNL A   1      44.232  25.623  33.573  1.00  0.00     0.259 C 
ATOM     18  O   UNL A   1      43.263  25.978  34.236  1.00  0.00    -0.269 OA
BRANCH  17  19
ATOM     19  C   UNL A   1      44.974  24.441  34.011  1.00  0.00     0.111 A 
ATOM     20  C   UNL A   1      44.627  23.160  33.596  1.00  0.00     0.140 A 
ATOM     21  C   UNL A   1      46.065  24.624  34.852  1.00  0.00     0.140 A 
ATOM     22  F   UNL A   1      43.565  22.959  32.801  1.00  0.00    -0.206 F 
ATOM     23  C   UNL A   1      45.339  22.053  34.052  1.00  0.00     0.056 A 
ATOM     24  C   UNL A   1      46.798  23.532  35.303  1.00  0.00     0.056 A 
ATOM     25  F   UNL A   1      46.399  25.849  35.282  1.00  0.00    -0.206 F 
ATOM     26  C   UNL A   1      46.421  22.248  34.911  1.00  0.00     0.023 A 
ATOM     27  Br  UNL A   1      47.353  20.755  35.599  1.00  0.00    -0.051 Br
ENDBRANCH  17  19
ENDBRANCH  15  17
ENDBRANCH   9  11
ENDBRANCH   8   9
ENDBRANCH   7   8
ENDBRANCH   6   7
ENDBRANCH   5   6
ENDBRANCH   4   5
ENDBRANCH   3   4
ENDBRANCH   2   3
ENDBRANCH   1   2
BRANCH   1  28
ATOM     28  C   UNL A   1      36.003  33.678  34.333  1.00  0.00     0.188 C 
BRANCH  28  29
ATOM     29  O   UNL A   1      35.977  33.638  32.913  1.00  0.00    -0.376 OA
BRANCH  29  30
ATOM     30  C   UNL A   1      35.358  32.532  32.273  1.00  0.00     0.202 C 
BRANCH  30  31
ATOM     31  C   UNL A   1      35.665  32.283  30.787  1.00  0.00     0.261 C 
BRANCH  31  32
ATOM     32  O   UNL A   1      36.639  31.271  30.482  1.00  0.00    -0.460 OA
BRANCH  32  33
ATOM     33  C   UNL A   1      36.616  30.696  29.258  1.00  0.00     0.338 C 
ATOM     34  O   UNL A   1      35.703  30.706  28.464  1.00  0.00    -0.246 OA
BRANCH  33  35
ATOM     35  C   UNL A   1      37.990  30.217  28.972  1.00  0.00     0.060 A 
ATOM     36  C   UNL A   1      38.988  30.400  29.937  1.00  0.00     0.016 A 
ATOM     37  C   UNL A   1      38.284  29.572  27.768  1.00  0.00     0.016 A 
ATOM     38  C   UNL A   1      40.289  29.951  29.694  1.00  0.00     0.010 A 
ATOM     39  C   UNL A   1      39.593  29.147  27.516  1.00  0.00     0.010 A 
ATOM     40  C   UNL A   1      40.607  29.352  28.468  1.00  0.00    -0.014 A 
BRANCH  40  41
ATOM     41  C   UNL A   1      42.022  29.067  28.120  1.00  0.00     0.031 A 
ATOM     42  C   UNL A   1      42.409  27.656  27.769  1.00  0.00     0.074 A 
ATOM     43  C   UNL A   1      42.948  30.043  28.117  1.00  0.00     0.049 A 
ATOM     44  N   UNL A   1      43.593  27.157  27.520  1.00  0.00    -0.248 NA
ATOM     45  C   UNL A   1      41.315  26.675  27.693  1.00  0.00     0.031 C 
ATOM     46  C   UNL A   1      42.691  31.456  28.393  1.00  0.00     0.029 A 
ATOM     47  N   UNL A   1      44.302  29.987  27.885  1.00  0.00    -0.354 N 
ATOM     48  C   UNL A   1      43.388  25.806  27.267  1.00  0.00     0.074 A 
ATOM     49  C   UNL A   1      41.970  25.558  27.416  1.00  0.00     0.031 C 
ATOM     50  C   UNL A   1      43.853  32.130  28.333  1.00  0.00     0.029 A 
ATOM     51  C   UNL A   1      44.940  31.193  28.055  1.00  0.00     0.049 A 
ATOM     52  H   UNL A   1      44.769  29.162  27.622  1.00  0.00     0.167 HD
ATOM     53  C   UNL A   1      44.299  24.860  26.937  1.00  0.00     0.037 A 
ATOM     54  C   UNL A   1      46.255  31.496  28.024  1.00  0.00     0.037 A 
ATOM     55  C   UNL A   1      45.709  25.114  26.792  1.00  0.00     0.049 A 
ATOM     56  C   UNL A   1      47.260  30.407  27.741  1.00  0.00     0.074 A 
ATOM     57  C   UNL A   1      46.709  24.225  26.435  1.00  0.00     0.029 A 
ATOM     58  N   UNL A   1      46.323  26.339  27.006  1.00  0.00    -0.354 N 
ATOM     59  N   UNL A   1      47.053  29.139  27.476  1.00  0.00    -0.248 NA
ATOM     60  C   UNL A   1      48.681  30.789  27.758  1.00  0.00     0.031 C 
ATOM     61  C   UNL A   1      47.933  24.897  26.498  1.00  0.00     0.029 A 
ATOM     62  C   UNL A   1      47.692  26.221  26.828  1.00  0.00     0.049 A 
ATOM     63  H   UNL A   1      45.855  27.170  27.250  1.00  0.00     0.167 HD
ATOM     64  C   UNL A   1      48.312  28.580  27.270  1.00  0.00     0.074 A 
ATOM     65  C   UNL A   1      49.273  29.651  27.423  1.00  0.00     0.031 C 
ATOM     66  C   UNL A   1      48.641  27.295  26.981  1.00  0.00     0.037 A 
BRANCH  53  67
ATOM     67  C   UNL A   1      43.810  23.450  26.742  1.00  0.00     0.058 A 
ATOM     68  C   UNL A   1      43.413  22.645  27.820  1.00  0.00     0.135 A 
ATOM     69  C   UNL A   1      43.685  22.918  25.447  1.00  0.00     0.135 A 
ATOM     70  F   UNL A   1      43.529  23.095  29.080  1.00  0.00    -0.206 F 
ATOM     71  C   UNL A   1      42.926  21.356  27.625  1.00  0.00     0.059 A 
ATOM     72  C   UNL A   1      43.173  21.644  25.226  1.00  0.00     0.059 A 
ATOM     73  F   UNL A   1      44.055  23.643  24.380  1.00  0.00    -0.206 F 
ATOM     74  C   UNL A   1      42.805  20.866  26.322  1.00  0.00     0.060 A 
BRANCH  74  75
ATOM     75  S   UNL A   1      42.151  19.200  26.087  1.00  0.00     0.124 S 
ATOM     76  O   UNL A   1      40.729  19.468  25.903  1.00  0.00    -0.237 OA
ATOM     77  O   UNL A   1      42.870  18.751  24.898  1.00  0.00    -0.237 OA
ATOM     78  O   UNL A   1      42.505  18.516  27.327  1.00  0.00    -0.744 OA
ENDBRANCH  74  75
ENDBRANCH  53  67
BRANCH  54  79
ATOM     79  C   UNL A   1      46.709  32.886  28.315  1.00  0.00     0.058 A 
ATOM     80  C   UNL A   1      47.078  33.280  29.608  1.00  0.00     0.135 A 
ATOM     81  C   UNL A   1      46.756  33.855  27.301  1.00  0.00     0.135 A 
ATOM     82  F   UNL A   1      47.035  32.396  30.618  1.00  0.00    -0.206 F 
ATOM     83  C   UNL A   1      47.458  34.589  29.891  1.00  0.00     0.059 A 
ATOM     84  C   UNL A   1      47.162  35.161  27.551  1.00  0.00     0.059 A 
ATOM     85  F   UNL A   1      46.419  33.527  26.045  1.00  0.00    -0.206 F 
ATOM     86  C   UNL A   1      47.498  35.522  28.854  1.00  0.00     0.060 A 
BRANCH  86  87
ATOM     87  S   UNL A   1      48.016  37.212  29.226  1.00  0.00     0.124 S 
ATOM     88  O   UNL A   1      47.104  37.988  28.392  1.00  0.00    -0.237 OA
ATOM     89  O   UNL A   1      47.789  37.289  30.665  1.00  0.00    -0.237 OA
ATOM     90  O   UNL A   1      49.416  37.228  28.813  1.00  0.00    -0.744 OA
ENDBRANCH  86  87
ENDBRANCH  54  79
BRANCH  66  91
ATOM     91  C   UNL A   1      50.100  26.975  26.781  1.00  0.00     0.058 A 
ATOM     92  C   UNL A   1      50.894  26.462  27.820  1.00  0.00     0.135 A 
ATOM     93  C   UNL A   1      50.697  27.123  25.517  1.00  0.00     0.135 A 
ATOM     94  F   UNL A   1      50.378  26.305  29.049  1.00  0.00    -0.206 F 
ATOM     95  C   UNL A   1      52.231  26.131  27.619  1.00  0.00     0.059 A 
ATOM     96  C   UNL A   1      52.022  26.767  25.285  1.00  0.00     0.059 A 
ATOM     97  F   UNL A   1      49.982  27.598  24.484  1.00  0.00    -0.206 F 
ATOM     98  C   UNL A   1      52.784  26.282  26.346  1.00  0.00     0.060 A 
BRANCH  98  99
ATOM     99  S   UNL A   1      54.508  25.809  26.092  1.00  0.00     0.124 S 
ATOM    100  O   UNL A   1      54.384  24.786  25.059  1.00  0.00    -0.237 OA
ATOM    101  O   UNL A   1      55.117  27.066  25.669  1.00  0.00    -0.237 OA
ATOM    102  O   UNL A   1      54.927  25.328  27.405  1.00  0.00    -0.744 OA
ENDBRANCH  98  99
ENDBRANCH  66  91
ENDBRANCH  40  41
ENDBRANCH  33  35
ENDBRANCH  32  33
ENDBRANCH  31  32
ENDBRANCH  30  31
ENDBRANCH  29  30
ENDBRANCH  28  29
ENDBRANCH   1  28
TORSDOF 25
ENDMDL
MODEL 3
REMARK VINA RESULT:      -8.1      4.460      7.285
REMARK SMILES C[C@@H]1CN(C(=O)c2c(F)cc(Br)cc2F)C[C@H]1C(=O)OCCOCCOCCOCCOC(=O)c1ccc(-c2c3nc(c(-c4c(F)cc(S(=O)(=O)[O-])cc4F)c4ccc([nH]4)c(-c4c(F)cc(S(=O)(=O)[O-])cc4F)c4nc(c(-c5c(F)cc(S(=O)(=O)[O-])cc5F)c5ccc2[nH]5)C=C4)C=C3)cc1
REMARK SMILES IDX 27 1 26 2 25 3 24 4 23 5 22 6 21 7 20 8 18 9 19 10 17 11
REMARK SMILES IDX 1 12 2 13 3 14 4 15 16 16 5 17 6 18 7 19 8 20 14 21 9 22
REMARK SMILES IDX 10 23 13 24 15 25 11 26 12 27 28 28 29 29 30 30 31 31 32 32
REMARK SMILES IDX 33 33 34 34 35 35 36 36 100 37 37 38 99 39 38 40 39 41 40 42
REMARK SMILES IDX 93 43 41 44 98 45 92 46 94 47 42 48 97 49 91 50 90 51 43 53
REMARK SMILES IDX 77 54 56 55 76 56 57 57 60 58 75 59 95 60 58 61 59 62 74 64
REMARK SMILES IDX 96 65 61 66 44 67 45 68 54 69 46 70 47 71 53 72 55 73 48 74
REMARK SMILES IDX 49 75 50 76 51 77 52 78 78 79 79 80 88 81 80 82 81 83 87 84
REMARK SMILES IDX 89 85 82 86 83 87 84 88 85 89 86 90 62 91 63 92 72 93 64 94
REMARK SMILES IDX 65 95 71 96 73 97 66 98 67 99 68 100 69 101 70 102
REMARK H PARENT 94 52 60 63
REMARK Flexibility Score: inf
ROOT
ATOM      1  C   UNL A   1      37.755  31.550  29.364  1.00  0.00     0.188 C 
ENDROOT
BRANCH   1   2
ATOM      2  O   UNL A   1      36.553  32.264  29.108  1.00  0.00    -0.377 OA
BRANCH   2   3
ATOM      3  C   UNL A   1      35.843  31.986  27.922  1.00  0.00     0.188 C 
BRANCH   3   4
ATOM      4  C   UNL A   1      34.330  32.237  27.976  1.00  0.00     0.188 C 
BRANCH   4   5
ATOM      5  O   UNL A   1      33.407  31.177  27.811  1.00  0.00    -0.376 OA
BRANCH   5   6
ATOM      6  C   UNL A   1      33.725  30.030  27.033  1.00  0.00     0.202 C 
BRANCH   6   7
ATOM      7  C   UNL A   1      33.016  29.666  25.714  1.00  0.00     0.261 C 
BRANCH   7   8
ATOM      8  O   UNL A   1      31.618  29.340  25.782  1.00  0.00    -0.463 OA
BRANCH   8   9
ATOM      9  C   UNL A   1      31.319  28.029  25.897  1.00  0.00     0.311 C 
ATOM     10  O   UNL A   1      31.690  27.311  26.823  1.00  0.00    -0.252 OA
BRANCH   9  11
ATOM     11  C   UNL A   1      30.488  27.460  24.758  1.00  0.00     0.123 C 
ATOM     12  C   UNL A   1      28.962  28.527  22.993  1.00  0.00     0.010 C 
ATOM     13  C   UNL A   1      30.402  28.198  23.386  1.00  0.00     0.021 C 
ATOM     14  C   UNL A   1      31.042  27.242  22.372  1.00  0.00     0.124 C 
ATOM     15  N   UNL A   1      31.868  26.418  23.221  1.00  0.00    -0.337 N 
ATOM     16  C   UNL A   1      31.122  26.117  24.424  1.00  0.00     0.135 C 
BRANCH  15  17
ATOM     17  C   UNL A   1      33.253  26.378  23.234  1.00  0.00     0.259 C 
ATOM     18  O   UNL A   1      33.957  27.297  22.829  1.00  0.00    -0.269 OA
BRANCH  17  19
ATOM     19  C   UNL A   1      33.911  25.197  23.792  1.00  0.00     0.111 A 
ATOM     20  C   UNL A   1      34.472  25.201  25.065  1.00  0.00     0.140 A 
ATOM     21  C   UNL A   1      33.951  24.041  23.022  1.00  0.00     0.140 A 
ATOM     22  F   UNL A   1      34.463  26.312  25.817  1.00  0.00    -0.206 F 
ATOM     23  C   UNL A   1      35.114  24.066  25.557  1.00  0.00     0.056 A 
ATOM     24  C   UNL A   1      34.572  22.894  23.504  1.00  0.00     0.056 A 
ATOM     25  F   UNL A   1      33.437  24.027  21.784  1.00  0.00    -0.206 F 
ATOM     26  C   UNL A   1      35.164  22.918  24.767  1.00  0.00     0.023 A 
ATOM     27  Br  UNL A   1      36.094  21.394  25.386  1.00  0.00    -0.051 Br
ENDBRANCH  17  19
ENDBRANCH  15  17
ENDBRANCH   9  11
ENDBRANCH   8   9
ENDBRANCH   7   8
ENDBRANCH   6   7
ENDBRANCH   5   6
ENDBRANCH   4   5
ENDBRANCH   3   4
ENDBRANCH   2   3
ENDBRANCH   1   2
BRANCH   1  28
ATOM     28  C   UNL A   1      37.846  30.069  28.951  1.00  0.00     0.188 C 
BRANCH  28  29
ATOM     29  O   UNL A   1      38.625  29.264  29.826  1.00  0.00    -0.376 OA
BRANCH  29  30
ATOM     30  C   UNL A   1      39.784  28.624  29.313  1.00  0.00     0.202 C 
BRANCH  30  31
ATOM     31  C   UNL A   1      39.605  27.328  28.504  1.00  0.00     0.261 C 
BRANCH  31  32
ATOM     32  O   UNL A   1      40.308  27.236  27.254  1.00  0.00    -0.460 OA
BRANCH  32  33
ATOM     33  C   UNL A   1      40.818  26.039  26.883  1.00  0.00     0.338 C 
ATOM     34  O   UNL A   1      40.267  25.182  26.231  1.00  0.00    -0.246 OA
BRANCH  33  35
ATOM     35  C   UNL A   1      42.255  26.041  27.248  1.00  0.00     0.060 A 
ATOM     36  C   UNL A   1      42.920  24.817  27.396  1.00  0.00     0.016 A 
ATOM     37  C   UNL A   1      42.946  27.243  27.421  1.00  0.00     0.016 A 
ATOM     38  C   UNL A   1      44.277  24.793  27.733  1.00  0.00     0.010 A 
ATOM     39  C   UNL A   1      44.296  27.216  27.782  1.00  0.00     0.010 A 
ATOM     40  C   UNL A   1      44.964  25.992  27.960  1.00  0.00    -0.014 A 
BRANCH  40  41
ATOM     41  C   UNL A   1      46.339  25.970  28.522  1.00  0.00     0.031 A 
ATOM     42  C   UNL A   1      46.509  25.899  30.015  1.00  0.00     0.074 A 
ATOM     43  C   UNL A   1      47.419  26.014  27.720  1.00  0.00     0.049 A 
ATOM     44  N   UNL A   1      47.603  25.957  30.730  1.00  0.00    -0.248 NA
ATOM     45  C   UNL A   1      45.278  25.745  30.808  1.00  0.00     0.031 C 
ATOM     46  C   UNL A   1      47.388  26.038  26.258  1.00  0.00     0.029 A 
ATOM     47  N   UNL A   1      48.757  26.061  28.029  1.00  0.00    -0.354 N 
ATOM     48  C   UNL A   1      47.194  25.858  32.055  1.00  0.00     0.074 A 
ATOM     49  C   UNL A   1      45.750  25.759  32.046  1.00  0.00     0.031 C 
ATOM     50  C   UNL A   1      48.649  26.114  25.797  1.00  0.00     0.029 A 
ATOM     51  C   UNL A   1      49.572  26.186  26.928  1.00  0.00     0.049 A 
ATOM     52  H   UNL A   1      49.099  26.011  28.950  1.00  0.00     0.167 HD
ATOM     53  C   UNL A   1      47.953  25.846  33.176  1.00  0.00     0.037 A 
ATOM     54  C   UNL A   1      50.907  26.372  26.847  1.00  0.00     0.037 A 
ATOM     55  C   UNL A   1      49.390  25.946  33.178  1.00  0.00     0.049 A 
ATOM     56  C   UNL A   1      51.723  26.443  28.114  1.00  0.00     0.074 A 
ATOM     57  C   UNL A   1      50.252  25.917  34.261  1.00  0.00     0.029 A 
ATOM     58  N   UNL A   1      50.177  26.106  32.047  1.00  0.00    -0.354 N 
ATOM     59  N   UNL A   1      51.330  26.319  29.360  1.00  0.00    -0.248 NA
ATOM     60  C   UNL A   1      53.167  26.685  27.965  1.00  0.00     0.031 C 
ATOM     61  C   UNL A   1      51.551  26.126  33.792  1.00  0.00     0.029 A 
ATOM     62  C   UNL A   1      51.511  26.217  32.410  1.00  0.00     0.049 A 
ATOM     63  H   UNL A   1      49.839  26.137  31.123  1.00  0.00     0.167 HD
ATOM     64  C   UNL A   1      52.478  26.443  30.139  1.00  0.00     0.074 A 
ATOM     65  C   UNL A   1      53.583  26.632  29.224  1.00  0.00     0.031 C 
ATOM     66  C   UNL A   1      52.605  26.403  31.489  1.00  0.00     0.037 A 
BRANCH  53  67
ATOM     67  C   UNL A   1      47.249  25.754  34.502  1.00  0.00     0.058 A 
ATOM     68  C   UNL A   1      46.767  26.892  35.168  1.00  0.00     0.135 A 
ATOM     69  C   UNL A   1      47.005  24.500  35.089  1.00  0.00     0.135 A 
ATOM     70  F   UNL A   1      46.988  28.116  34.663  1.00  0.00    -0.206 F 
ATOM     71  C   UNL A   1      46.082  26.792  36.376  1.00  0.00     0.059 A 
ATOM     72  C   UNL A   1      46.298  24.375  36.280  1.00  0.00     0.059 A 
ATOM     73  F   UNL A   1      47.449  23.380  34.498  1.00  0.00    -0.206 F 
ATOM     74  C   UNL A   1      45.848  25.527  36.922  1.00  0.00     0.060 A 
BRANCH  74  75
ATOM     75  S   UNL A   1      44.941  25.416  38.477  1.00  0.00     0.124 S 
ATOM     76  O   UNL A   1      45.825  26.141  39.384  1.00  0.00    -0.237 OA
ATOM     77  O   UNL A   1      43.684  26.082  38.151  1.00  0.00    -0.237 OA
ATOM     78  O   UNL A   1      44.843  23.978  38.713  1.00  0.00    -0.744 OA
ENDBRANCH  74  75
ENDBRANCH  53  67
BRANCH  54  79
ATOM     79  C   UNL A   1      51.557  26.551  25.519  1.00  0.00     0.058 A 
ATOM     80  C   UNL A   1      52.350  25.545  24.949  1.00  0.00     0.135 A 
ATOM     81  C   UNL A   1      51.416  27.750  24.803  1.00  0.00     0.135 A 
ATOM     82  F   UNL A   1      52.532  24.385  25.600  1.00  0.00    -0.206 F 
ATOM     83  C   UNL A   1      52.997  25.728  23.730  1.00  0.00     0.059 A 
ATOM     84  C   UNL A   1      52.025  27.947  23.569  1.00  0.00     0.059 A 
ATOM     85  F   UNL A   1      50.662  28.742  25.301  1.00  0.00    -0.206 F 
ATOM     86  C   UNL A   1      52.826  26.933  23.047  1.00  0.00     0.060 A 
BRANCH  86  87
ATOM     87  S   UNL A   1      53.648  27.152  21.454  1.00  0.00     0.124 S 
ATOM     88  O   UNL A   1      54.962  26.576  21.721  1.00  0.00    -0.237 OA
ATOM     89  O   UNL A   1      52.785  26.388  20.560  1.00  0.00    -0.237 OA
ATOM     90  O   UNL A   1      53.621  28.600  21.262  1.00  0.00    -0.744 OA
ENDBRANCH  86  87
ENDBRANCH  54  79
BRANCH  66  91
ATOM     91  C   UNL A   1      53.990  26.539  32.067  1.00  0.00     0.058 A 
ATOM     92  C   UNL A   1      54.826  25.427  32.254  1.00  0.00     0.135 A 
ATOM     93  C   UNL A   1      54.512  27.807  32.376  1.00  0.00     0.135 A 
ATOM     94  F   UNL A   1      54.378  24.191  31.981  1.00  0.00    -0.206 F 
ATOM     95  C   UNL A   1      56.119  25.563  32.752  1.00  0.00     0.059 A 
ATOM     96  C   UNL A   1      55.813  27.970  32.842  1.00  0.00     0.059 A 
ATOM     97  F   UNL A   1      53.762  28.907  32.205  1.00  0.00    -0.206 F 
ATOM     98  C   UNL A   1      56.605  26.840  33.037  1.00  0.00     0.060 A 
BRANCH  98  99
ATOM     99  S   UNL A   1      58.299  27.004  33.642  1.00  0.00     0.124 S 
ATOM    100  O   UNL A   1      58.585  28.403  33.343  1.00  0.00    -0.237 OA
ATOM    101  O   UNL A   1      58.158  26.675  35.057  1.00  0.00    -0.237 OA
ATOM    102  O   UNL A   1      59.041  26.029  32.848  1.00  0.00    -0.744 OA
ENDBRANCH  98  99
ENDBRANCH  66  91
ENDBRANCH  40  41
ENDBRANCH  33  35
ENDBRANCH  32  33
ENDBRANCH  31  32
ENDBRANCH  30  31
ENDBRANCH  29  30
ENDBRANCH  28  29
ENDBRANCH   1  28
TORSDOF 25
ENDMDL
