MODEL 1
REMARK VINA RESULT:      -8.6      0.000      0.000
REMARK SMILES Cc1cc([C@H](C)NC(=O)N2CC[C@H](C(=O)OCCOCCOCCOCCOC(=O)c3ccc(-c4c5nc(c(-c6c(F)cc(S(=O)(=O)[O-])cc6F)c6ccc([nH]6)c(-c6c(F)cc(S(=O)(=O)[O-])cc6F)c6nc(c(-c7c(F)cc(S(=O)(=O)[O-])cc7F)c7ccc4[nH]7)C=C6)C=C5)cc3)[C@@H]2C)c(C)s1
REMARK SMILES IDX 22 1 21 2 20 3 19 4 18 5 17 6 16 7 14 8 15 9 13 10 10 11
REMARK SMILES IDX 11 12 97 13 12 14 98 15 8 16 7 17 9 19 5 20 6 21 4 22 1 23
REMARK SMILES IDX 2 24 3 25 101 26 99 27 100 28 23 29 24 30 25 31 26 32 27 33
REMARK SMILES IDX 28 34 29 35 30 36 31 37 32 38 96 39 33 40 95 41 34 42 35 43
REMARK SMILES IDX 36 44 89 45 37 46 94 47 88 48 90 49 38 50 93 51 87 52 86 53
REMARK SMILES IDX 39 55 73 56 52 57 72 58 53 59 56 60 71 61 91 62 54 63 55 64
REMARK SMILES IDX 70 66 92 67 57 68 40 69 41 70 50 71 42 72 43 73 49 74 51 75
REMARK SMILES IDX 44 76 45 77 46 78 47 79 48 80 74 81 75 82 84 83 76 84 77 85
REMARK SMILES IDX 83 86 85 87 78 88 79 89 80 90 81 91 82 92 58 93 59 94 68 95
REMARK SMILES IDX 60 96 61 97 67 98 69 99 62 100 63 101 64 102 65 103 66 104
REMARK H PARENT 7 18 90 54 56 65
REMARK Flexibility Score: inf
ROOT
ATOM      1  O   UNL A   1      40.471  21.891  25.767  1.00  0.00    -0.377 OA
ENDROOT
BRANCH   1   2
ATOM      2  C   UNL A   1      39.293  22.093  26.506  1.00  0.00     0.188 C 
BRANCH   2   3
ATOM      3  C   UNL A   1      38.670  23.449  26.314  1.00  0.00     0.188 C 
BRANCH   3   4
ATOM      4  O   UNL A   1      37.437  23.551  25.620  1.00  0.00    -0.376 OA
BRANCH   4   5
ATOM      5  C   UNL A   1      36.664  22.330  25.735  1.00  0.00     0.202 C 
BRANCH   5   6
ATOM      6  C   UNL A   1      35.593  22.087  24.636  1.00  0.00     0.261 C 
BRANCH   6   7
ATOM      7  O   UNL A   1      34.277  22.639  24.940  1.00  0.00    -0.463 OA
BRANCH   7   8
ATOM      8  C   UNL A   1      33.382  22.862  23.931  1.00  0.00     0.311 C 
ATOM      9  O   UNL A   1      32.833  21.977  23.297  1.00  0.00    -0.252 OA
BRANCH   8  10
ATOM     10  C   UNL A   1      33.113  24.378  23.811  1.00  0.00     0.123 C 
ATOM     11  N   UNL A   1      31.118  25.710  23.582  1.00  0.00    -0.321 N 
ATOM     12  C   UNL A   1      31.406  25.117  22.292  1.00  0.00     0.122 C 
ATOM     13  C   UNL A   1      31.913  25.013  24.601  1.00  0.00     0.098 C 
ATOM     14  C   UNL A   1      32.886  24.789  22.358  1.00  0.00     0.039 C 
ATOM     15  C   UNL A   1      31.039  24.022  25.384  1.00  0.00     0.032 C 
BRANCH  11  16
ATOM     16  C   UNL A   1      29.942  26.392  23.767  1.00  0.00     0.318 C 
ATOM     17  N   UNL A   1      29.941  27.664  24.248  1.00  0.00    -0.331 N 
ATOM     18  H   UNL A   1      29.359  27.834  25.025  1.00  0.00     0.165 HD
ATOM     19  O   UNL A   1      28.852  25.873  23.528  1.00  0.00    -0.249 OA
BRANCH  17  20
ATOM     20  C   UNL A   1      30.702  28.811  23.745  1.00  0.00     0.112 C 
ATOM     21  C   UNL A   1      29.794  30.039  23.632  1.00  0.00     0.036 C 
BRANCH  20  22
ATOM     22  C   UNL A   1      31.907  29.047  24.670  1.00  0.00    -0.012 A 
ATOM     23  C   UNL A   1      33.598  30.340  27.853  1.00  0.00     0.056 C 
ATOM     24  C   UNL A   1      33.172  29.764  26.545  1.00  0.00     0.002 A 
ATOM     25  C   UNL A   1      31.906  29.612  26.006  1.00  0.00     0.021 A 
ATOM     26  S   UNL A   1      34.371  29.204  25.476  1.00  0.00    -0.146 S 
ATOM     27  C   UNL A   1      33.215  28.762  24.309  1.00  0.00     0.007 A 
ATOM     28  C   UNL A   1      33.687  28.172  23.042  1.00  0.00     0.057 C 
ENDBRANCH  20  22
ENDBRANCH  17  20
ENDBRANCH  11  16
ENDBRANCH   8  10
ENDBRANCH   7   8
ENDBRANCH   6   7
ENDBRANCH   5   6
ENDBRANCH   4   5
ENDBRANCH   3   4
ENDBRANCH   2   3
ENDBRANCH   1   2
BRANCH   1  29
ATOM     29  C   UNL A   1      41.455  21.116  26.441  1.00  0.00     0.188 C 
BRANCH  29  30
ATOM     30  C   UNL A   1      42.909  21.617  26.333  1.00  0.00     0.188 C 
BRANCH  30  31
ATOM     31  O   UNL A   1      43.380  22.649  27.200  1.00  0.00    -0.376 OA
BRANCH  31  32
ATOM     32  C   UNL A   1      43.833  23.896  26.695  1.00  0.00     0.202 C 
BRANCH  32  33
ATOM     33  C   UNL A   1      42.764  24.562  25.831  1.00  0.00     0.261 C 
BRANCH  33  34
ATOM     34  O   UNL A   1      42.951  25.978  25.881  1.00  0.00    -0.460 OA
BRANCH  34  35
ATOM     35  C   UNL A   1      41.822  26.665  26.186  1.00  0.00     0.338 C 
ATOM     36  O   UNL A   1      40.817  26.783  25.506  1.00  0.00    -0.246 OA
BRANCH  35  37
ATOM     37  C   UNL A   1      41.917  27.096  27.592  1.00  0.00     0.060 A 
ATOM     38  C   UNL A   1      40.910  26.678  28.472  1.00  0.00     0.016 A 
ATOM     39  C   UNL A   1      43.009  27.845  28.050  1.00  0.00     0.016 A 
ATOM     40  C   UNL A   1      40.945  27.079  29.799  1.00  0.00     0.010 A 
ATOM     41  C   UNL A   1      43.038  28.262  29.374  1.00  0.00     0.010 A 
ATOM     42  C   UNL A   1      41.968  27.935  30.222  1.00  0.00    -0.014 A 
BRANCH  42  43
ATOM     43  C   UNL A   1      41.723  28.779  31.403  1.00  0.00     0.031 A 
ATOM     44  C   UNL A   1      40.604  29.777  31.288  1.00  0.00     0.074 A 
ATOM     45  C   UNL A   1      42.452  28.637  32.519  1.00  0.00     0.049 A 
ATOM     46  N   UNL A   1      40.189  30.662  32.152  1.00  0.00    -0.248 NA
ATOM     47  C   UNL A   1      39.850  29.780  30.019  1.00  0.00     0.031 C 
ATOM     48  C   UNL A   1      43.528  27.665  32.710  1.00  0.00     0.029 A 
ATOM     49  N   UNL A   1      42.395  29.320  33.703  1.00  0.00    -0.354 N 
ATOM     50  C   UNL A   1      39.132  31.320  31.531  1.00  0.00     0.074 A 
ATOM     51  C   UNL A   1      38.987  30.763  30.209  1.00  0.00     0.031 C 
ATOM     52  C   UNL A   1      44.046  27.828  33.941  1.00  0.00     0.029 A 
ATOM     53  C   UNL A   1      43.354  28.929  34.606  1.00  0.00     0.049 A 
ATOM     54  H   UNL A   1      41.733  30.023  33.889  1.00  0.00     0.167 HD
ATOM     55  C   UNL A   1      38.350  32.300  32.032  1.00  0.00     0.037 A 
ATOM     56  C   UNL A   1      43.638  29.435  35.821  1.00  0.00     0.037 A 
ATOM     57  C   UNL A   1      38.530  32.843  33.348  1.00  0.00     0.049 A 
ATOM     58  C   UNL A   1      42.787  30.567  36.337  1.00  0.00     0.074 A 
ATOM     59  C   UNL A   1      37.810  33.838  33.977  1.00  0.00     0.029 A 
ATOM     60  N   UNL A   1      39.517  32.432  34.233  1.00  0.00    -0.354 N 
ATOM     61  N   UNL A   1      41.774  31.171  35.754  1.00  0.00    -0.248 NA
ATOM     62  C   UNL A   1      43.107  31.085  37.672  1.00  0.00     0.031 C 
ATOM     63  C   UNL A   1      38.393  34.062  35.229  1.00  0.00     0.029 A 
ATOM     64  C   UNL A   1      39.439  33.168  35.400  1.00  0.00     0.049 A 
ATOM     65  H   UNL A   1      40.176  31.722  34.057  1.00  0.00     0.167 HD
ATOM     66  C   UNL A   1      41.319  32.118  36.663  1.00  0.00     0.074 A 
ATOM     67  C   UNL A   1      42.162  32.001  37.837  1.00  0.00     0.031 C 
ATOM     68  C   UNL A   1      40.298  33.005  36.548  1.00  0.00     0.037 A 
BRANCH  55  69
ATOM     69  C   UNL A   1      37.271  32.853  31.144  1.00  0.00     0.058 A 
ATOM     70  C   UNL A   1      37.552  33.764  30.114  1.00  0.00     0.135 A 
ATOM     71  C   UNL A   1      35.935  32.459  31.321  1.00  0.00     0.135 A 
ATOM     72  F   UNL A   1      38.807  34.201  29.921  1.00  0.00    -0.206 F 
ATOM     73  C   UNL A   1      36.547  34.277  29.300  1.00  0.00     0.059 A 
ATOM     74  C   UNL A   1      34.916  32.938  30.502  1.00  0.00     0.059 A 
ATOM     75  F   UNL A   1      35.606  31.605  32.304  1.00  0.00    -0.206 F 
ATOM     76  C   UNL A   1      35.232  33.854  29.500  1.00  0.00     0.060 A 
BRANCH  76  77
ATOM     77  S   UNL A   1      33.942  34.507  28.418  1.00  0.00     0.124 S 
ATOM     78  O   UNL A   1      34.492  35.810  28.059  1.00  0.00    -0.237 OA
ATOM     79  O   UNL A   1      33.903  33.517  27.347  1.00  0.00    -0.237 OA
ATOM     80  O   UNL A   1      32.762  34.540  29.277  1.00  0.00    -0.744 OA
ENDBRANCH  76  77
ENDBRANCH  55  69
BRANCH  56  81
ATOM     81  C   UNL A   1      44.768  28.883  36.613  1.00  0.00     0.058 A 
ATOM     82  C   UNL A   1      44.609  27.748  37.420  1.00  0.00     0.135 A 
ATOM     83  C   UNL A   1      46.041  29.476  36.568  1.00  0.00     0.135 A 
ATOM     84  F   UNL A   1      43.412  27.146  37.500  1.00  0.00    -0.206 F 
ATOM     85  C   UNL A   1      45.663  27.228  38.166  1.00  0.00     0.059 A 
ATOM     86  C   UNL A   1      47.117  28.961  37.285  1.00  0.00     0.059 A 
ATOM     87  F   UNL A   1      46.253  30.557  35.801  1.00  0.00    -0.206 F 
ATOM     88  C   UNL A   1      46.914  27.842  38.090  1.00  0.00     0.060 A 
BRANCH  88  89
ATOM     89  S   UNL A   1      48.287  27.134  39.028  1.00  0.00     0.124 S 
ATOM     90  O   UNL A   1      49.054  28.325  39.371  1.00  0.00    -0.237 OA
ATOM     91  O   UNL A   1      47.596  26.479  40.135  1.00  0.00    -0.237 OA
ATOM     92  O   UNL A   1      48.917  26.230  38.071  1.00  0.00    -0.744 OA
ENDBRANCH  88  89
ENDBRANCH  56  81
BRANCH  68  93
ATOM     93  C   UNL A   1      40.014  33.882  37.732  1.00  0.00     0.058 A 
ATOM     94  C   UNL A   1      39.069  33.524  38.703  1.00  0.00     0.135 A 
ATOM     95  C   UNL A   1      40.757  35.058  37.930  1.00  0.00     0.135 A 
ATOM     96  F   UNL A   1      38.334  32.411  38.554  1.00  0.00    -0.206 F 
ATOM     97  C   UNL A   1      38.853  34.315  39.825  1.00  0.00     0.059 A 
ATOM     98  C   UNL A   1      40.578  35.847  39.059  1.00  0.00     0.059 A 
ATOM     99  F   UNL A   1      41.685  35.432  37.035  1.00  0.00    -0.206 F 
ATOM    100  C   UNL A   1      39.616  35.474  39.995  1.00  0.00     0.060 A 
BRANCH 100 101
ATOM    101  S   UNL A   1      39.352  36.470  41.476  1.00  0.00     0.124 S 
ATOM    102  O   UNL A   1      38.264  35.745  42.125  1.00  0.00    -0.237 OA
ATOM    103  O   UNL A   1      40.650  36.394  42.139  1.00  0.00    -0.237 OA
ATOM    104  O   UNL A   1      39.002  37.783  40.943  1.00  0.00    -0.744 OA
ENDBRANCH 100 101
ENDBRANCH  68  93
ENDBRANCH  42  43
ENDBRANCH  35  37
ENDBRANCH  34  35
ENDBRANCH  33  34
ENDBRANCH  32  33
ENDBRANCH  31  32
ENDBRANCH  30  31
ENDBRANCH  29  30
ENDBRANCH   1  29
TORSDOF 26
ENDMDL
MODEL 2
REMARK VINA RESULT:      -8.4      5.842     11.996
REMARK SMILES Cc1cc([C@H](C)NC(=O)N2CC[C@H](C(=O)OCCOCCOCCOCCOC(=O)c3ccc(-c4c5nc(c(-c6c(F)cc(S(=O)(=O)[O-])cc6F)c6ccc([nH]6)c(-c6c(F)cc(S(=O)(=O)[O-])cc6F)c6nc(c(-c7c(F)cc(S(=O)(=O)[O-])cc7F)c7ccc4[nH]7)C=C6)C=C5)cc3)[C@@H]2C)c(C)s1
REMARK SMILES IDX 22 1 21 2 20 3 19 4 18 5 17 6 16 7 14 8 15 9 13 10 10 11
REMARK SMILES IDX 11 12 97 13 12 14 98 15 8 16 7 17 9 19 5 20 6 21 4 22 1 23
REMARK SMILES IDX 2 24 3 25 101 26 99 27 100 28 23 29 24 30 25 31 26 32 27 33
REMARK SMILES IDX 28 34 29 35 30 36 31 37 32 38 96 39 33 40 95 41 34 42 35 43
REMARK SMILES IDX 36 44 89 45 37 46 94 47 88 48 90 49 38 50 93 51 87 52 86 53
REMARK SMILES IDX 39 55 73 56 52 57 72 58 53 59 56 60 71 61 91 62 54 63 55 64
REMARK SMILES IDX 70 66 92 67 57 68 40 69 41 70 50 71 42 72 43 73 49 74 51 75
REMARK SMILES IDX 44 76 45 77 46 78 47 79 48 80 74 81 75 82 84 83 76 84 77 85
REMARK SMILES IDX 83 86 85 87 78 88 79 89 80 90 81 91 82 92 58 93 59 94 68 95
REMARK SMILES IDX 60 96 61 97 67 98 69 99 62 100 63 101 64 102 65 103 66 104
REMARK H PARENT 7 18 90 54 56 65
REMARK Flexibility Score: inf
ROOT
ATOM      1  O   UNL A   1      37.235  30.603  29.477  1.00  0.00    -0.377 OA
ENDROOT
BRANCH   1   2
ATOM      2  C   UNL A   1      36.585  31.554  28.671  1.00  0.00     0.188 C 
BRANCH   2   3
ATOM      3  C   UNL A   1      35.697  30.960  27.612  1.00  0.00     0.188 C 
BRANCH   3   4
ATOM      4  O   UNL A   1      35.707  29.557  27.408  1.00  0.00    -0.376 OA
BRANCH   4   5
ATOM      5  C   UNL A   1      34.362  29.015  27.406  1.00  0.00     0.202 C 
BRANCH   5   6
ATOM      6  C   UNL A   1      33.333  29.726  26.485  1.00  0.00     0.261 C 
BRANCH   6   7
ATOM      7  O   UNL A   1      32.887  28.930  25.347  1.00  0.00    -0.463 OA
BRANCH   7   8
ATOM      8  C   UNL A   1      31.834  29.357  24.587  1.00  0.00     0.311 C 
ATOM      9  O   UNL A   1      30.885  29.985  25.025  1.00  0.00    -0.252 OA
BRANCH   8  10
ATOM     10  C   UNL A   1      32.100  29.011  23.105  1.00  0.00     0.123 C 
ATOM     11  N   UNL A   1      32.492  26.955  21.912  1.00  0.00    -0.321 N 
ATOM     12  C   UNL A   1      33.715  27.306  22.605  1.00  0.00     0.122 C 
ATOM     13  C   UNL A   1      31.396  27.761  22.467  1.00  0.00     0.098 C 
ATOM     14  C   UNL A   1      33.589  28.799  22.843  1.00  0.00     0.039 C 
ATOM     15  C   UNL A   1      30.541  26.922  23.428  1.00  0.00     0.032 C 
BRANCH  11  16
ATOM     16  C   UNL A   1      32.395  25.740  21.282  1.00  0.00     0.318 C 
ATOM     17  N   UNL A   1      32.879  24.610  21.864  1.00  0.00    -0.331 N 
ATOM     18  H   UNL A   1      33.492  24.068  21.317  1.00  0.00     0.165 HD
ATOM     19  O   UNL A   1      31.890  25.633  20.164  1.00  0.00    -0.249 OA
BRANCH  17  20
ATOM     20  C   UNL A   1      32.591  24.106  23.210  1.00  0.00     0.112 C 
ATOM     21  C   UNL A   1      31.616  22.927  23.135  1.00  0.00     0.036 C 
BRANCH  20  22
ATOM     22  C   UNL A   1      33.919  23.735  23.891  1.00  0.00    -0.012 A 
ATOM     23  C   UNL A   1      37.048  21.584  24.384  1.00  0.00     0.056 C 
ATOM     24  C   UNL A   1      35.917  22.557  24.387  1.00  0.00     0.002 A 
ATOM     25  C   UNL A   1      34.846  22.684  23.519  1.00  0.00     0.021 A 
ATOM     26  S   UNL A   1      35.845  23.711  25.634  1.00  0.00    -0.146 S 
ATOM     27  C   UNL A   1      34.402  24.374  25.023  1.00  0.00     0.007 A 
ATOM     28  C   UNL A   1      33.788  25.505  25.744  1.00  0.00     0.057 C 
ENDBRANCH  20  22
ENDBRANCH  17  20
ENDBRANCH  11  16
ENDBRANCH   8  10
ENDBRANCH   7   8
ENDBRANCH   6   7
ENDBRANCH   5   6
ENDBRANCH   4   5
ENDBRANCH   3   4
ENDBRANCH   2   3
ENDBRANCH   1   2
BRANCH   1  29
ATOM     29  C   UNL A   1      36.757  30.550  30.816  1.00  0.00     0.188 C 
BRANCH  29  30
ATOM     30  C   UNL A   1      35.804  31.684  31.244  1.00  0.00     0.188 C 
BRANCH  30  31
ATOM     31  O   UNL A   1      35.513  31.893  32.626  1.00  0.00    -0.376 OA
BRANCH  31  32
ATOM     32  C   UNL A   1      36.081  32.975  33.351  1.00  0.00     0.202 C 
BRANCH  32  33
ATOM     33  C   UNL A   1      37.083  32.475  34.389  1.00  0.00     0.261 C 
BRANCH  33  34
ATOM     34  O   UNL A   1      38.323  32.201  33.733  1.00  0.00    -0.460 OA
BRANCH  34  35
ATOM     35  C   UNL A   1      38.710  30.905  33.824  1.00  0.00     0.338 C 
ATOM     36  O   UNL A   1      38.029  29.946  34.150  1.00  0.00    -0.246 OA
BRANCH  35  37
ATOM     37  C   UNL A   1      40.067  30.793  33.261  1.00  0.00     0.060 A 
ATOM     38  C   UNL A   1      40.265  31.234  31.945  1.00  0.00     0.016 A 
ATOM     39  C   UNL A   1      41.138  30.323  34.033  1.00  0.00     0.016 A 
ATOM     40  C   UNL A   1      41.521  31.127  31.366  1.00  0.00     0.010 A 
ATOM     41  C   UNL A   1      42.391  30.199  33.450  1.00  0.00     0.010 A 
ATOM     42  C   UNL A   1      42.557  30.535  32.097  1.00  0.00    -0.014 A 
BRANCH  42  43
ATOM     43  C   UNL A   1      43.673  29.928  31.353  1.00  0.00     0.031 A 
ATOM     44  C   UNL A   1      44.966  30.695  31.349  1.00  0.00     0.074 A 
ATOM     45  C   UNL A   1      43.533  28.745  30.738  1.00  0.00     0.049 A 
ATOM     46  N   UNL A   1      46.094  30.418  30.756  1.00  0.00    -0.248 NA
ATOM     47  C   UNL A   1      44.989  31.955  32.119  1.00  0.00     0.031 C 
ATOM     48  C   UNL A   1      42.318  27.931  30.732  1.00  0.00     0.029 A 
ATOM     49  N   UNL A   1      44.428  28.027  29.993  1.00  0.00    -0.354 N 
ATOM     50  C   UNL A   1      46.952  31.463  31.082  1.00  0.00     0.074 A 
ATOM     51  C   UNL A   1      46.213  32.398  31.893  1.00  0.00     0.031 C 
ATOM     52  C   UNL A   1      42.540  26.827  29.997  1.00  0.00     0.029 A 
ATOM     53  C   UNL A   1      43.900  26.874  29.466  1.00  0.00     0.049 A 
ATOM     54  H   UNL A   1      45.359  28.310  29.848  1.00  0.00     0.167 HD
ATOM     55  C   UNL A   1      48.248  31.618  30.735  1.00  0.00     0.037 A 
ATOM     56  C   UNL A   1      44.463  25.982  28.629  1.00  0.00     0.037 A 
ATOM     57  C   UNL A   1      48.951  30.676  29.912  1.00  0.00     0.049 A 
ATOM     58  C   UNL A   1      45.894  26.205  28.209  1.00  0.00     0.074 A 
ATOM     59  C   UNL A   1      50.263  30.713  29.485  1.00  0.00     0.029 A 
ATOM     60  N   UNL A   1      48.383  29.523  29.386  1.00  0.00    -0.354 N 
ATOM     61  N   UNL A   1      46.707  27.184  28.539  1.00  0.00    -0.248 NA
ATOM     62  C   UNL A   1      46.488  25.206  27.313  1.00  0.00     0.031 C 
ATOM     63  C   UNL A   1      50.476  29.604  28.659  1.00  0.00     0.029 A 
ATOM     64  C   UNL A   1      49.313  28.848  28.620  1.00  0.00     0.049 A 
ATOM     65  H   UNL A   1      47.455  29.230  29.536  1.00  0.00     0.167 HD
ATOM     66  C   UNL A   1      47.917  26.904  27.915  1.00  0.00     0.074 A 
ATOM     67  C   UNL A   1      47.728  25.658  27.195  1.00  0.00     0.031 C 
ATOM     68  C   UNL A   1      49.080  27.602  27.931  1.00  0.00     0.037 A 
BRANCH  55  69
ATOM     69  C   UNL A   1      48.955  32.855  31.215  1.00  0.00     0.058 A 
ATOM     70  C   UNL A   1      49.644  32.888  32.438  1.00  0.00     0.135 A 
ATOM     71  C   UNL A   1      48.951  34.022  30.435  1.00  0.00     0.135 A 
ATOM     72  F   UNL A   1      49.652  31.810  33.239  1.00  0.00    -0.206 F 
ATOM     73  C   UNL A   1      50.291  34.038  32.879  1.00  0.00     0.059 A 
ATOM     74  C   UNL A   1      49.613  35.176  30.844  1.00  0.00     0.059 A 
ATOM     75  F   UNL A   1      48.291  34.052  29.266  1.00  0.00    -0.206 F 
ATOM     76  C   UNL A   1      50.273  35.177  32.072  1.00  0.00     0.060 A 
BRANCH  76  77
ATOM     77  S   UNL A   1      51.140  36.653  32.644  1.00  0.00     0.124 S 
ATOM     78  O   UNL A   1      52.534  36.272  32.442  1.00  0.00    -0.237 OA
ATOM     79  O   UNL A   1      50.628  37.683  31.746  1.00  0.00    -0.237 OA
ATOM     80  O   UNL A   1      50.720  36.776  34.037  1.00  0.00    -0.744 OA
ENDBRANCH  76  77
ENDBRANCH  55  69
BRANCH  56  81
ATOM     81  C   UNL A   1      43.677  24.820  28.138  1.00  0.00     0.058 A 
ATOM     82  C   UNL A   1      43.487  23.679  28.931  1.00  0.00     0.135 A 
ATOM     83  C   UNL A   1      43.085  24.832  26.864  1.00  0.00     0.135 A 
ATOM     84  F   UNL A   1      44.034  23.616  30.155  1.00  0.00    -0.206 F 
ATOM     85  C   UNL A   1      42.754  22.587  28.476  1.00  0.00     0.059 A 
ATOM     86  C   UNL A   1      42.328  23.763  26.396  1.00  0.00     0.059 A 
ATOM     87  F   UNL A   1      43.223  25.904  26.069  1.00  0.00    -0.206 F 
ATOM     88  C   UNL A   1      42.177  22.639  27.206  1.00  0.00     0.060 A 
BRANCH  88  89
ATOM     89  S   UNL A   1      41.192  21.234  26.642  1.00  0.00     0.124 S 
ATOM     90  O   UNL A   1      42.112  20.581  25.720  1.00  0.00    -0.237 OA
ATOM     91  O   UNL A   1      40.926  20.525  27.890  1.00  0.00    -0.237 OA
ATOM     92  O   UNL A   1      40.026  21.866  26.030  1.00  0.00    -0.744 OA
ENDBRANCH  88  89
ENDBRANCH  56  81
BRANCH  68  93
ATOM     93  C   UNL A   1      50.243  27.016  27.185  1.00  0.00     0.058 A 
ATOM     94  C   UNL A   1      51.116  26.099  27.787  1.00  0.00     0.135 A 
ATOM     95  C   UNL A   1      50.434  27.322  25.828  1.00  0.00     0.135 A 
ATOM     96  F   UNL A   1      50.973  25.779  29.083  1.00  0.00    -0.206 F 
ATOM     97  C   UNL A   1      52.157  25.519  27.073  1.00  0.00     0.059 A 
ATOM     98  C   UNL A   1      51.451  26.730  25.087  1.00  0.00     0.059 A 
ATOM     99  F   UNL A   1      49.614  28.181  25.204  1.00  0.00    -0.206 F 
ATOM    100  C   UNL A   1      52.314  25.838  25.722  1.00  0.00     0.060 A 
BRANCH 100 101
ATOM    101  S   UNL A   1      53.645  25.047  24.797  1.00  0.00     0.124 S 
ATOM    102  O   UNL A   1      53.283  25.379  23.423  1.00  0.00    -0.237 OA
ATOM    103  O   UNL A   1      54.831  25.718  25.320  1.00  0.00    -0.237 OA
ATOM    104  O   UNL A   1      53.517  23.638  25.158  1.00  0.00    -0.744 OA
ENDBRANCH 100 101
ENDBRANCH  68  93
ENDBRANCH  42  43
ENDBRANCH  35  37
ENDBRANCH  34  35
ENDBRANCH  33  34
ENDBRANCH  32  33
ENDBRANCH  31  32
ENDBRANCH  30  31
ENDBRANCH  29  30
ENDBRANCH   1  29
TORSDOF 26
ENDMDL
MODEL 3
REMARK VINA RESULT:      -8.3      2.840      8.863
REMARK SMILES Cc1cc([C@H](C)NC(=O)N2CC[C@H](C(=O)OCCOCCOCCOCCOC(=O)c3ccc(-c4c5nc(c(-c6c(F)cc(S(=O)(=O)[O-])cc6F)c6ccc([nH]6)c(-c6c(F)cc(S(=O)(=O)[O-])cc6F)c6nc(c(-c7c(F)cc(S(=O)(=O)[O-])cc7F)c7ccc4[nH]7)C=C6)C=C5)cc3)[C@@H]2C)c(C)s1
REMARK SMILES IDX 22 1 21 2 20 3 19 4 18 5 17 6 16 7 14 8 15 9 13 10 10 11
REMARK SMILES IDX 11 12 97 13 12 14 98 15 8 16 7 17 9 19 5 20 6 21 4 22 1 23
REMARK SMILES IDX 2 24 3 25 101 26 99 27 100 28 23 29 24 30 25 31 26 32 27 33
REMARK SMILES IDX 28 34 29 35 30 36 31 37 32 38 96 39 33 40 95 41 34 42 35 43
REMARK SMILES IDX 36 44 89 45 37 46 94 47 88 48 90 49 38 50 93 51 87 52 86 53
REMARK SMILES IDX 39 55 73 56 52 57 72 58 53 59 56 60 71 61 91 62 54 63 55 64
REMARK SMILES IDX 70 66 92 67 57 68 40 69 41 70 50 71 42 72 43 73 49 74 51 75
REMARK SMILES IDX 44 76 45 77 46 78 47 79 48 80 74 81 75 82 84 83 76 84 77 85
REMARK SMILES IDX 83 86 85 87 78 88 79 89 80 90 81 91 82 92 58 93 59 94 68 95
REMARK SMILES IDX 60 96 61 97 67 98 69 99 62 100 63 101 64 102 65 103 66 104
REMARK H PARENT 7 18 90 54 56 65
REMARK Flexibility Score: inf
ROOT
ATOM      1  O   UNL A   1      40.025  24.633  26.265  1.00  0.00    -0.377 OA
ENDROOT
BRANCH   1   2
ATOM      2  C   UNL A   1      39.086  23.720  26.776  1.00  0.00     0.188 C 
BRANCH   2   3
ATOM      3  C   UNL A   1      37.702  23.878  26.207  1.00  0.00     0.188 C 
BRANCH   3   4
ATOM      4  O   UNL A   1      37.314  23.080  25.101  1.00  0.00    -0.376 OA
BRANCH   4   5
ATOM      5  C   UNL A   1      37.061  21.710  25.503  1.00  0.00     0.202 C 
BRANCH   5   6
ATOM      6  C   UNL A   1      35.612  21.188  25.299  1.00  0.00     0.261 C 
BRANCH   6   7
ATOM      7  O   UNL A   1      34.588  21.957  25.998  1.00  0.00    -0.463 OA
BRANCH   7   8
ATOM      8  C   UNL A   1      33.280  21.862  25.608  1.00  0.00     0.311 C 
ATOM      9  O   UNL A   1      32.664  20.813  25.530  1.00  0.00    -0.252 OA
BRANCH   8  10
ATOM     10  C   UNL A   1      32.706  23.281  25.397  1.00  0.00     0.123 C 
ATOM     11  N   UNL A   1      33.041  24.989  23.730  1.00  0.00    -0.321 N 
ATOM     12  C   UNL A   1      34.187  25.004  24.617  1.00  0.00     0.122 C 
ATOM     13  C   UNL A   1      32.299  23.740  23.952  1.00  0.00     0.098 C 
ATOM     14  C   UNL A   1      33.677  24.351  25.890  1.00  0.00     0.039 C 
ATOM     15  C   UNL A   1      32.592  22.732  22.831  1.00  0.00     0.032 C 
BRANCH  11  16
ATOM     16  C   UNL A   1      33.052  25.761  22.597  1.00  0.00     0.318 C 
ATOM     17  N   UNL A   1      32.129  26.742  22.411  1.00  0.00    -0.331 N 
ATOM     18  H   UNL A   1      31.636  26.719  21.559  1.00  0.00     0.165 HD
ATOM     19  O   UNL A   1      33.877  25.578  21.701  1.00  0.00    -0.249 OA
BRANCH  17  20
ATOM     20  C   UNL A   1      31.785  27.831  23.330  1.00  0.00     0.112 C 
ATOM     21  C   UNL A   1      32.909  28.873  23.358  1.00  0.00     0.036 C 
BRANCH  20  22
ATOM     22  C   UNL A   1      30.434  28.427  22.905  1.00  0.00    -0.012 A 
ATOM     23  C   UNL A   1      28.200  31.121  21.350  1.00  0.00     0.056 C 
ATOM     24  C   UNL A   1      28.853  29.950  22.004  1.00  0.00     0.002 A 
ATOM     25  C   UNL A   1      30.196  29.648  22.159  1.00  0.00     0.021 A 
ATOM     26  S   UNL A   1      27.865  28.765  22.719  1.00  0.00    -0.146 S 
ATOM     27  C   UNL A   1      29.212  27.858  23.227  1.00  0.00     0.007 A 
ATOM     28  C   UNL A   1      28.975  26.607  23.975  1.00  0.00     0.057 C 
ENDBRANCH  20  22
ENDBRANCH  17  20
ENDBRANCH  11  16
ENDBRANCH   8  10
ENDBRANCH   7   8
ENDBRANCH   6   7
ENDBRANCH   5   6
ENDBRANCH   4   5
ENDBRANCH   3   4
ENDBRANCH   2   3
ENDBRANCH   1   2
BRANCH   1  29
ATOM     29  C   UNL A   1      41.247  24.679  26.992  1.00  0.00     0.188 C 
BRANCH  29  30
ATOM     30  C   UNL A   1      41.662  23.380  27.712  1.00  0.00     0.188 C 
BRANCH  30  31
ATOM     31  O   UNL A   1      42.197  23.430  29.034  1.00  0.00    -0.376 OA
BRANCH  31  32
ATOM     32  C   UNL A   1      43.334  24.222  29.347  1.00  0.00     0.202 C 
BRANCH  32  33
ATOM     33  C   UNL A   1      44.285  23.475  30.280  1.00  0.00     0.261 C 
BRANCH  33  34
ATOM     34  O   UNL A   1      44.634  24.337  31.364  1.00  0.00    -0.460 OA
BRANCH  34  35
ATOM     35  C   UNL A   1      44.070  23.980  32.544  1.00  0.00     0.338 C 
ATOM     36  O   UNL A   1      43.725  22.864  32.897  1.00  0.00    -0.246 OA
BRANCH  35  37
ATOM     37  C   UNL A   1      44.117  25.146  33.444  1.00  0.00     0.060 A 
ATOM     38  C   UNL A   1      43.385  25.079  34.637  1.00  0.00     0.016 A 
ATOM     39  C   UNL A   1      44.915  26.260  33.149  1.00  0.00     0.016 A 
ATOM     40  C   UNL A   1      43.381  26.162  35.503  1.00  0.00     0.010 A 
ATOM     41  C   UNL A   1      44.899  27.352  34.006  1.00  0.00     0.010 A 
ATOM     42  C   UNL A   1      44.075  27.323  35.142  1.00  0.00    -0.014 A 
BRANCH  42  43
ATOM     43  C   UNL A   1      43.644  28.601  35.732  1.00  0.00     0.031 A 
ATOM     44  C   UNL A   1      44.411  29.070  36.937  1.00  0.00     0.074 A 
ATOM     45  C   UNL A   1      42.637  29.306  35.197  1.00  0.00     0.049 A 
ATOM     46  N   UNL A   1      44.234  30.133  37.672  1.00  0.00    -0.248 NA
ATOM     47  C   UNL A   1      45.534  28.218  37.378  1.00  0.00     0.031 C 
ATOM     48  C   UNL A   1      41.874  28.926  34.009  1.00  0.00     0.029 A 
ATOM     49  N   UNL A   1      42.081  30.491  35.596  1.00  0.00    -0.354 N 
ATOM     50  C   UNL A   1      45.218  30.075  38.654  1.00  0.00     0.074 A 
ATOM     51  C   UNL A   1      45.968  28.861  38.448  1.00  0.00     0.031 C 
ATOM     52  C   UNL A   1      40.931  29.859  33.784  1.00  0.00     0.029 A 
ATOM     53  C   UNL A   1      41.012  30.879  34.826  1.00  0.00     0.049 A 
ATOM     54  H   UNL A   1      42.415  31.014  36.359  1.00  0.00     0.167 HD
ATOM     55  C   UNL A   1      45.471  30.966  39.635  1.00  0.00     0.037 A 
ATOM     56  C   UNL A   1      40.189  31.934  34.978  1.00  0.00     0.037 A 
ATOM     57  C   UNL A   1      44.695  32.159  39.822  1.00  0.00     0.049 A 
ATOM     58  C   UNL A   1      40.457  32.887  36.115  1.00  0.00     0.074 A 
ATOM     59  C   UNL A   1      44.843  33.145  40.777  1.00  0.00     0.029 A 
ATOM     60  N   UNL A   1      43.612  32.517  39.031  1.00  0.00    -0.354 N 
ATOM     61  N   UNL A   1      41.402  32.838  37.027  1.00  0.00    -0.248 NA
ATOM     62  C   UNL A   1      39.556  34.038  36.245  1.00  0.00     0.031 C 
ATOM     63  C   UNL A   1      43.818  34.078  40.591  1.00  0.00     0.029 A 
ATOM     64  C   UNL A   1      43.067  33.701  39.487  1.00  0.00     0.049 A 
ATOM     65  H   UNL A   1      43.281  32.004  38.258  1.00  0.00     0.167 HD
ATOM     66  C   UNL A   1      41.229  33.966  37.820  1.00  0.00     0.074 A 
ATOM     67  C   UNL A   1      40.091  34.681  37.273  1.00  0.00     0.031 C 
ATOM     68  C   UNL A   1      41.938  34.381  38.899  1.00  0.00     0.037 A 
BRANCH  55  69
ATOM     69  C   UNL A   1      46.598  30.661  40.581  1.00  0.00     0.058 A 
ATOM     70  C   UNL A   1      46.391  29.958  41.780  1.00  0.00     0.135 A 
ATOM     71  C   UNL A   1      47.907  31.069  40.281  1.00  0.00     0.135 A 
ATOM     72  F   UNL A   1      45.154  29.573  42.133  1.00  0.00    -0.206 F 
ATOM     73  C   UNL A   1      47.439  29.685  42.654  1.00  0.00     0.059 A 
ATOM     74  C   UNL A   1      48.975  30.784  41.128  1.00  0.00     0.059 A 
ATOM     75  F   UNL A   1      48.159  31.761  39.158  1.00  0.00    -0.206 F 
ATOM     76  C   UNL A   1      48.728  30.098  42.316  1.00  0.00     0.060 A 
BRANCH  76  77
ATOM     77  S   UNL A   1      50.082  29.712  43.447  1.00  0.00     0.124 S 
ATOM     78  O   UNL A   1      51.204  29.573  42.525  1.00  0.00    -0.237 OA
ATOM     79  O   UNL A   1      50.112  30.888  44.310  1.00  0.00    -0.237 OA
ATOM     80  O   UNL A   1      49.644  28.477  44.092  1.00  0.00    -0.744 OA
ENDBRANCH  76  77
ENDBRANCH  55  69
BRANCH  56  81
ATOM     81  C   UNL A   1      39.050  32.133  34.044  1.00  0.00     0.058 A 
ATOM     82  C   UNL A   1      37.807  31.524  34.267  1.00  0.00     0.135 A 
ATOM     83  C   UNL A   1      39.179  32.952  32.909  1.00  0.00     0.135 A 
ATOM     84  F   UNL A   1      37.633  30.729  35.334  1.00  0.00    -0.206 F 
ATOM     85  C   UNL A   1      36.738  31.705  33.393  1.00  0.00     0.059 A 
ATOM     86  C   UNL A   1      38.119  33.168  32.036  1.00  0.00     0.059 A 
ATOM     87  F   UNL A   1      40.343  33.571  32.655  1.00  0.00    -0.206 F 
ATOM     88  C   UNL A   1      36.904  32.531  32.281  1.00  0.00     0.060 A 
BRANCH  88  89
ATOM     89  S   UNL A   1      35.497  32.794  31.178  1.00  0.00     0.124 S 
ATOM     90  O   UNL A   1      35.814  34.095  30.603  1.00  0.00    -0.237 OA
ATOM     91  O   UNL A   1      35.601  31.653  30.272  1.00  0.00    -0.237 OA
ATOM     92  O   UNL A   1      34.351  32.763  32.082  1.00  0.00    -0.744 OA
ENDBRANCH  88  89
ENDBRANCH  56  81
BRANCH  68  93
ATOM     93  C   UNL A   1      41.532  35.682  39.529  1.00  0.00     0.058 A 
ATOM     94  C   UNL A   1      42.046  36.907  39.082  1.00  0.00     0.135 A 
ATOM     95  C   UNL A   1      40.558  35.700  40.540  1.00  0.00     0.135 A 
ATOM     96  F   UNL A   1      42.981  36.939  38.119  1.00  0.00    -0.206 F 
ATOM     97  C   UNL A   1      41.622  38.110  39.633  1.00  0.00     0.059 A 
ATOM     98  C   UNL A   1      40.098  36.893  41.084  1.00  0.00     0.059 A 
ATOM     99  F   UNL A   1      40.025  34.552  40.988  1.00  0.00    -0.206 F 
ATOM    100  C   UNL A   1      40.645  38.093  40.632  1.00  0.00     0.060 A 
BRANCH 100 101
ATOM    101  S   UNL A   1      40.076  39.664  41.310  1.00  0.00     0.124 S 
ATOM    102  O   UNL A   1      39.282  40.189  40.204  1.00  0.00    -0.237 OA
ATOM    103  O   UNL A   1      39.323  39.242  42.487  1.00  0.00    -0.237 OA
ATOM    104  O   UNL A   1      41.316  40.382  41.589  1.00  0.00    -0.744 OA
ENDBRANCH 100 101
ENDBRANCH  68  93
ENDBRANCH  42  43
ENDBRANCH  35  37
ENDBRANCH  34  35
ENDBRANCH  33  34
ENDBRANCH  32  33
ENDBRANCH  31  32
ENDBRANCH  30  31
ENDBRANCH  29  30
ENDBRANCH   1  29
TORSDOF 26
ENDMDL
