MODEL 1
REMARK VINA RESULT:      -8.7      0.000      0.000
REMARK SMILES CS(=O)(=O)N1C[C@@H]2CN(C(=O)c3ccco3)C[C@@]2(C(=O)OCCOCCOCCOCCOC(=O)c2ccc(-c3c4nc(c(-c5c(F)cc(S(=O)(=O)[O-])cc5F)c5ccc([nH]5)c(-c5c(F)cc(S(=O)(=O)[O-])cc5F)c5nc(c(-c6c(F)cc(S(=O)(=O)[O-])cc6F)c6ccc3[nH]6)C=C5)C=C4)cc2)C1
REMARK SMILES IDX 28 1 27 2 26 3 25 4 24 5 23 6 22 7 21 8 19 9 20 10 18 11
REMARK SMILES IDX 5 12 6 13 102 14 7 15 8 16 17 17 9 18 2 19 1 20 3 21 4 22
REMARK SMILES IDX 10 23 11 24 12 25 13 26 16 27 14 28 15 29 29 30 30 31 31 32
REMARK SMILES IDX 32 33 33 34 34 35 35 36 36 37 37 38 101 39 38 40 100 41
REMARK SMILES IDX 39 42 40 43 41 44 94 45 42 46 99 47 93 48 95 49 43 50 98 51
REMARK SMILES IDX 92 52 91 53 44 55 78 56 57 57 77 58 58 59 61 60 76 61 96 62
REMARK SMILES IDX 59 63 60 64 75 66 97 67 62 68 45 69 46 70 55 71 47 72 48 73
REMARK SMILES IDX 54 74 56 75 49 76 50 77 51 78 52 79 53 80 79 81 80 82 89 83
REMARK SMILES IDX 81 84 82 85 88 86 90 87 83 88 84 89 85 90 86 91 87 92 63 93
REMARK SMILES IDX 64 94 73 95 65 96 66 97 72 98 74 99 67 100 68 101 69 102
REMARK SMILES IDX 70 103 71 104
REMARK H PARENT 95 54 61 65
REMARK Flexibility Score: inf
ROOT
ATOM      1  C   UNL A   1      34.744  32.600  30.861  1.00  0.00     0.188 C 
ENDROOT
BRANCH   1   2
ATOM      2  O   UNL A   1      34.307  33.689  30.048  1.00  0.00    -0.377 OA
BRANCH   2   3
ATOM      3  C   UNL A   1      33.953  33.447  28.703  1.00  0.00     0.188 C 
BRANCH   3   4
ATOM      4  C   UNL A   1      34.672  32.291  27.972  1.00  0.00     0.188 C 
BRANCH   4   5
ATOM      5  O   UNL A   1      33.933  31.200  27.453  1.00  0.00    -0.376 OA
BRANCH   5   6
ATOM      6  C   UNL A   1      34.493  29.891  27.311  1.00  0.00     0.202 C 
BRANCH   6   7
ATOM      7  C   UNL A   1      34.063  28.899  26.211  1.00  0.00     0.261 C 
BRANCH   7   8
ATOM      8  O   UNL A   1      32.723  29.165  25.821  1.00  0.00    -0.463 OA
BRANCH   8   9
ATOM      9  C   UNL A   1      31.800  28.174  25.658  1.00  0.00     0.315 C 
ATOM     10  O   UNL A   1      31.151  27.656  26.548  1.00  0.00    -0.251 OA
BRANCH   9  11
ATOM     11  C   UNL A   1      31.769  27.918  24.118  1.00  0.00     0.105 C 
ATOM     12  N   UNL A   1      29.640  29.119  23.572  1.00  0.00    -0.201 NA
ATOM     13  C   UNL A   1      29.559  27.849  22.884  1.00  0.00     0.109 C 
ATOM     14  C   UNL A   1      31.008  29.312  24.071  1.00  0.00     0.123 C 
ATOM     15  C   UNL A   1      31.014  27.454  22.818  1.00  0.00     0.044 C 
ATOM     16  C   UNL A   1      31.245  25.998  22.467  1.00  0.00     0.126 C 
ATOM     17  C   UNL A   1      32.085  26.455  24.583  1.00  0.00     0.140 C 
ATOM     18  N   UNL A   1      32.212  25.601  23.430  1.00  0.00    -0.334 N 
BRANCH  12  19
ATOM     19  S   UNL A   1      28.637  30.406  23.227  1.00  0.00     0.211 S 
ATOM     20  C   UNL A   1      29.089  30.858  21.561  1.00  0.00     0.176 C 
ATOM     21  O   UNL A   1      29.030  31.512  24.069  1.00  0.00    -0.213 OA
ATOM     22  O   UNL A   1      27.271  29.923  23.202  1.00  0.00    -0.213 OA
ENDBRANCH  12  19
BRANCH  18  23
ATOM     23  C   UNL A   1      33.114  24.565  23.196  1.00  0.00     0.289 C 
ATOM     24  O   UNL A   1      34.109  24.784  22.500  1.00  0.00    -0.265 OA
BRANCH  23  25
ATOM     25  C   UNL A   1      32.883  23.273  23.831  1.00  0.00     0.191 A 
ATOM     26  C   UNL A   1      33.471  22.021  23.734  1.00  0.00     0.056 A 
ATOM     27  O   UNL A   1      31.857  23.199  24.742  1.00  0.00    -0.459 OA
ATOM     28  C   UNL A   1      32.718  21.139  24.544  1.00  0.00     0.043 A 
ATOM     29  C   UNL A   1      31.768  21.913  25.158  1.00  0.00     0.196 A 
ENDBRANCH  23  25
ENDBRANCH  18  23
ENDBRANCH   9  11
ENDBRANCH   8   9
ENDBRANCH   7   8
ENDBRANCH   6   7
ENDBRANCH   5   6
ENDBRANCH   4   5
ENDBRANCH   3   4
ENDBRANCH   2   3
ENDBRANCH   1   2
BRANCH   1  30
ATOM     30  C   UNL A   1      36.206  32.524  31.343  1.00  0.00     0.188 C 
BRANCH  30  31
ATOM     31  O   UNL A   1      36.640  31.219  31.684  1.00  0.00    -0.376 OA
BRANCH  31  32
ATOM     32  C   UNL A   1      36.093  30.095  31.016  1.00  0.00     0.202 C 
BRANCH  32  33
ATOM     33  C   UNL A   1      36.975  29.273  30.064  1.00  0.00     0.261 C 
BRANCH  33  34
ATOM     34  O   UNL A   1      37.863  29.997  29.204  1.00  0.00    -0.460 OA
BRANCH  34  35
ATOM     35  C   UNL A   1      39.172  29.664  29.216  1.00  0.00     0.338 C 
ATOM     36  O   UNL A   1      39.678  28.655  28.773  1.00  0.00    -0.246 OA
BRANCH  35  37
ATOM     37  C   UNL A   1      39.916  30.838  29.715  1.00  0.00     0.060 A 
ATOM     38  C   UNL A   1      41.258  30.691  30.081  1.00  0.00     0.016 A 
ATOM     39  C   UNL A   1      39.277  32.074  29.841  1.00  0.00     0.016 A 
ATOM     40  C   UNL A   1      41.951  31.772  30.627  1.00  0.00     0.010 A 
ATOM     41  C   UNL A   1      39.973  33.155  30.390  1.00  0.00     0.010 A 
ATOM     42  C   UNL A   1      41.301  32.998  30.826  1.00  0.00    -0.014 A 
BRANCH  42  43
ATOM     43  C   UNL A   1      41.948  34.042  31.662  1.00  0.00     0.031 A 
ATOM     44  C   UNL A   1      42.686  35.159  30.968  1.00  0.00     0.074 A 
ATOM     45  C   UNL A   1      41.829  34.036  33.003  1.00  0.00     0.049 A 
ATOM     46  N   UNL A   1      43.320  36.180  31.485  1.00  0.00    -0.248 NA
ATOM     47  C   UNL A   1      42.714  35.121  29.496  1.00  0.00     0.031 C 
ATOM     48  C   UNL A   1      41.112  33.028  33.784  1.00  0.00     0.029 A 
ATOM     49  N   UNL A   1      42.306  34.910  33.947  1.00  0.00    -0.354 N 
ATOM     50  C   UNL A   1      43.806  36.909  30.404  1.00  0.00     0.074 A 
ATOM     51  C   UNL A   1      43.450  36.183  29.206  1.00  0.00     0.031 C 
ATOM     52  C   UNL A   1      41.203  33.338  35.089  1.00  0.00     0.029 A 
ATOM     53  C   UNL A   1      42.001  34.552  35.240  1.00  0.00     0.049 A 
ATOM     54  H   UNL A   1      42.821  35.718  33.720  1.00  0.00     0.167 HD
ATOM     55  C   UNL A   1      44.464  38.092  30.407  1.00  0.00     0.037 A 
ATOM     56  C   UNL A   1      42.337  35.136  36.408  1.00  0.00     0.037 A 
ATOM     57  C   UNL A   1      44.813  38.816  31.600  1.00  0.00     0.049 A 
ATOM     58  C   UNL A   1      43.138  36.415  36.382  1.00  0.00     0.074 A 
ATOM     59  C   UNL A   1      45.487  40.020  31.711  1.00  0.00     0.029 A 
ATOM     60  N   UNL A   1      44.511  38.407  32.891  1.00  0.00    -0.354 N 
ATOM     61  N   UNL A   1      43.571  37.101  35.351  1.00  0.00    -0.248 NA
ATOM     62  C   UNL A   1      43.485  37.008  37.682  1.00  0.00     0.031 C 
ATOM     63  C   UNL A   1      45.632  40.316  33.069  1.00  0.00     0.029 A 
ATOM     64  C   UNL A   1      44.998  39.327  33.804  1.00  0.00     0.049 A 
ATOM     65  H   UNL A   1      44.023  37.584  33.124  1.00  0.00     0.167 HD
ATOM     66  C   UNL A   1      44.208  38.221  35.878  1.00  0.00     0.074 A 
ATOM     67  C   UNL A   1      44.078  38.134  37.316  1.00  0.00     0.031 C 
ATOM     68  C   UNL A   1      44.847  39.230  35.234  1.00  0.00     0.037 A 
BRANCH  55  69
ATOM     69  C   UNL A   1      44.840  38.689  29.079  1.00  0.00     0.058 A 
ATOM     70  C   UNL A   1      43.995  39.595  28.416  1.00  0.00     0.135 A 
ATOM     71  C   UNL A   1      46.085  38.408  28.493  1.00  0.00     0.135 A 
ATOM     72  F   UNL A   1      42.781  39.878  28.918  1.00  0.00    -0.206 F 
ATOM     73  C   UNL A   1      44.369  40.197  27.220  1.00  0.00     0.059 A 
ATOM     74  C   UNL A   1      46.491  39.021  27.312  1.00  0.00     0.059 A 
ATOM     75  F   UNL A   1      46.926  37.542  29.078  1.00  0.00    -0.206 F 
ATOM     76  C   UNL A   1      45.625  39.913  26.681  1.00  0.00     0.060 A 
BRANCH  76  77
ATOM     77  S   UNL A   1      46.112  40.748  25.157  1.00  0.00     0.124 S 
ATOM     78  O   UNL A   1      44.833  41.274  24.690  1.00  0.00    -0.237 OA
ATOM     79  O   UNL A   1      47.068  41.739  25.640  1.00  0.00    -0.237 OA
ATOM     80  O   UNL A   1      46.680  39.675  24.348  1.00  0.00    -0.744 OA
ENDBRANCH  76  77
ENDBRANCH  55  69
BRANCH  56  81
ATOM     81  C   UNL A   1      41.940  34.524  37.709  1.00  0.00     0.058 A 
ATOM     82  C   UNL A   1      42.769  33.603  38.367  1.00  0.00     0.135 A 
ATOM     83  C   UNL A   1      40.688  34.797  38.284  1.00  0.00     0.135 A 
ATOM     84  F   UNL A   1      43.975  33.303  37.859  1.00  0.00    -0.206 F 
ATOM     85  C   UNL A   1      42.356  32.938  39.518  1.00  0.00     0.059 A 
ATOM     86  C   UNL A   1      40.266  34.172  39.453  1.00  0.00     0.059 A 
ATOM     87  F   UNL A   1      39.862  35.683  37.708  1.00  0.00    -0.206 F 
ATOM     88  C   UNL A   1      41.097  33.225  40.049  1.00  0.00     0.060 A 
BRANCH  88  89
ATOM     89  S   UNL A   1      40.562  32.351  41.536  1.00  0.00     0.124 S 
ATOM     90  O   UNL A   1      41.651  31.400  41.723  1.00  0.00    -0.237 OA
ATOM     91  O   UNL A   1      40.481  33.433  42.512  1.00  0.00    -0.237 OA
ATOM     92  O   UNL A   1      39.280  31.776  41.142  1.00  0.00    -0.744 OA
ENDBRANCH  88  89
ENDBRANCH  56  81
BRANCH  68  93
ATOM     93  C   UNL A   1      45.410  40.341  36.081  1.00  0.00     0.058 A 
ATOM     94  C   UNL A   1      46.679  40.251  36.676  1.00  0.00     0.135 A 
ATOM     95  C   UNL A   1      44.675  41.521  36.286  1.00  0.00     0.135 A 
ATOM     96  F   UNL A   1      47.424  39.146  36.512  1.00  0.00    -0.206 F 
ATOM     97  C   UNL A   1      47.175  41.264  37.488  1.00  0.00     0.059 A 
ATOM     98  C   UNL A   1      45.168  42.564  37.062  1.00  0.00     0.059 A 
ATOM     99  F   UNL A   1      43.463  41.671  35.725  1.00  0.00    -0.206 F 
ATOM    100  C   UNL A   1      46.410  42.417  37.679  1.00  0.00     0.060 A 
BRANCH 100 101
ATOM    101  S   UNL A   1      47.063  43.722  38.739  1.00  0.00     0.124 S 
ATOM    102  O   UNL A   1      45.950  44.664  38.764  1.00  0.00    -0.237 OA
ATOM    103  O   UNL A   1      47.320  43.010  39.987  1.00  0.00    -0.237 OA
ATOM    104  O   UNL A   1      48.253  44.176  38.026  1.00  0.00    -0.744 OA
ENDBRANCH 100 101
ENDBRANCH  68  93
ENDBRANCH  42  43
ENDBRANCH  35  37
ENDBRANCH  34  35
ENDBRANCH  33  34
ENDBRANCH  32  33
ENDBRANCH  31  32
ENDBRANCH  30  31
ENDBRANCH   1  30
TORSDOF 26
ENDMDL
MODEL 2
REMARK VINA RESULT:      -8.4      5.204     10.453
REMARK SMILES CS(=O)(=O)N1C[C@@H]2CN(C(=O)c3ccco3)C[C@@]2(C(=O)OCCOCCOCCOCCOC(=O)c2ccc(-c3c4nc(c(-c5c(F)cc(S(=O)(=O)[O-])cc5F)c5ccc([nH]5)c(-c5c(F)cc(S(=O)(=O)[O-])cc5F)c5nc(c(-c6c(F)cc(S(=O)(=O)[O-])cc6F)c6ccc3[nH]6)C=C5)C=C4)cc2)C1
REMARK SMILES IDX 28 1 27 2 26 3 25 4 24 5 23 6 22 7 21 8 19 9 20 10 18 11
REMARK SMILES IDX 5 12 6 13 102 14 7 15 8 16 17 17 9 18 2 19 1 20 3 21 4 22
REMARK SMILES IDX 10 23 11 24 12 25 13 26 16 27 14 28 15 29 29 30 30 31 31 32
REMARK SMILES IDX 32 33 33 34 34 35 35 36 36 37 37 38 101 39 38 40 100 41
REMARK SMILES IDX 39 42 40 43 41 44 94 45 42 46 99 47 93 48 95 49 43 50 98 51
REMARK SMILES IDX 92 52 91 53 44 55 78 56 57 57 77 58 58 59 61 60 76 61 96 62
REMARK SMILES IDX 59 63 60 64 75 66 97 67 62 68 45 69 46 70 55 71 47 72 48 73
REMARK SMILES IDX 54 74 56 75 49 76 50 77 51 78 52 79 53 80 79 81 80 82 89 83
REMARK SMILES IDX 81 84 82 85 88 86 90 87 83 88 84 89 85 90 86 91 87 92 63 93
REMARK SMILES IDX 64 94 73 95 65 96 66 97 72 98 74 99 67 100 68 101 69 102
REMARK SMILES IDX 70 103 71 104
REMARK H PARENT 95 54 61 65
REMARK Flexibility Score: inf
ROOT
ATOM      1  C   UNL A   1      42.668  24.538  28.748  1.00  0.00     0.188 C 
ENDROOT
BRANCH   1   2
ATOM      2  O   UNL A   1      41.454  24.263  28.050  1.00  0.00    -0.377 OA
BRANCH   2   3
ATOM      3  C   UNL A   1      40.562  25.322  27.775  1.00  0.00     0.188 C 
BRANCH   3   4
ATOM      4  C   UNL A   1      39.203  24.963  27.134  1.00  0.00     0.188 C 
BRANCH   4   5
ATOM      5  O   UNL A   1      38.981  23.671  26.598  1.00  0.00    -0.376 OA
BRANCH   5   6
ATOM      6  C   UNL A   1      37.746  23.299  25.978  1.00  0.00     0.202 C 
BRANCH   6   7
ATOM      7  C   UNL A   1      37.522  21.940  25.284  1.00  0.00     0.261 C 
BRANCH   7   8
ATOM      8  O   UNL A   1      36.170  21.535  25.445  1.00  0.00    -0.463 OA
BRANCH   8   9
ATOM      9  C   UNL A   1      35.170  21.987  24.635  1.00  0.00     0.315 C 
ATOM     10  O   UNL A   1      35.323  22.561  23.572  1.00  0.00    -0.251 OA
BRANCH   9  11
ATOM     11  C   UNL A   1      33.856  21.569  25.366  1.00  0.00     0.105 C 
ATOM     12  N   UNL A   1      33.508  19.338  24.282  1.00  0.00    -0.201 NA
ATOM     13  C   UNL A   1      32.221  19.996  24.242  1.00  0.00     0.109 C 
ATOM     14  C   UNL A   1      34.410  20.094  25.161  1.00  0.00     0.123 C 
ATOM     15  C   UNL A   1      32.379  21.026  25.333  1.00  0.00     0.044 C 
ATOM     16  C   UNL A   1      31.329  22.119  25.311  1.00  0.00     0.126 C 
ATOM     17  C   UNL A   1      33.440  23.027  24.973  1.00  0.00     0.140 C 
ATOM     18  N   UNL A   1      32.112  23.296  25.460  1.00  0.00    -0.334 N 
BRANCH  12  19
ATOM     19  S   UNL A   1      33.702  17.702  24.014  1.00  0.00     0.211 S 
ATOM     20  C   UNL A   1      32.823  16.945  25.371  1.00  0.00     0.176 C 
ATOM     21  O   UNL A   1      35.098  17.385  24.206  1.00  0.00    -0.213 OA
ATOM     22  O   UNL A   1      33.010  17.358  22.789  1.00  0.00    -0.213 OA
ENDBRANCH  12  19
BRANCH  18  23
ATOM     23  C   UNL A   1      31.600  24.463  26.026  1.00  0.00     0.289 C 
ATOM     24  O   UNL A   1      31.439  24.515  27.248  1.00  0.00    -0.265 OA
BRANCH  23  25
ATOM     25  C   UNL A   1      31.328  25.605  25.161  1.00  0.00     0.191 A 
ATOM     26  C   UNL A   1      31.765  26.921  25.119  1.00  0.00     0.056 A 
ATOM     27  O   UNL A   1      30.438  25.411  24.133  1.00  0.00    -0.459 OA
ATOM     28  C   UNL A   1      31.045  27.569  24.087  1.00  0.00     0.043 A 
ATOM     29  C   UNL A   1      30.275  26.598  23.501  1.00  0.00     0.196 A 
ENDBRANCH  23  25
ENDBRANCH  18  23
ENDBRANCH   9  11
ENDBRANCH   8   9
ENDBRANCH   7   8
ENDBRANCH   6   7
ENDBRANCH   5   6
ENDBRANCH   4   5
ENDBRANCH   3   4
ENDBRANCH   2   3
ENDBRANCH   1   2
BRANCH   1  30
ATOM     30  C   UNL A   1      43.827  25.268  28.041  1.00  0.00     0.188 C 
BRANCH  30  31
ATOM     31  O   UNL A   1      44.905  24.427  27.669  1.00  0.00    -0.376 OA
BRANCH  31  32
ATOM     32  C   UNL A   1      44.868  23.737  26.431  1.00  0.00     0.202 C 
BRANCH  32  33
ATOM     33  C   UNL A   1      46.179  23.424  25.695  1.00  0.00     0.261 C 
BRANCH  33  34
ATOM     34  O   UNL A   1      47.304  24.268  25.973  1.00  0.00    -0.460 OA
BRANCH  34  35
ATOM     35  C   UNL A   1      47.524  25.321  25.156  1.00  0.00     0.338 C 
ATOM     36  O   UNL A   1      47.940  25.295  24.017  1.00  0.00    -0.246 OA
BRANCH  35  37
ATOM     37  C   UNL A   1      46.997  26.520  25.839  1.00  0.00     0.060 A 
ATOM     38  C   UNL A   1      46.088  27.344  25.168  1.00  0.00     0.016 A 
ATOM     39  C   UNL A   1      47.421  26.836  27.132  1.00  0.00     0.016 A 
ATOM     40  C   UNL A   1      45.641  28.520  25.771  1.00  0.00     0.010 A 
ATOM     41  C   UNL A   1      46.973  28.016  27.733  1.00  0.00     0.010 A 
ATOM     42  C   UNL A   1      46.116  28.887  27.038  1.00  0.00    -0.014 A 
BRANCH  42  43
ATOM     43  C   UNL A   1      45.865  30.262  27.544  1.00  0.00     0.031 A 
ATOM     44  C   UNL A   1      44.585  30.527  28.295  1.00  0.00     0.074 A 
ATOM     45  C   UNL A   1      46.783  31.236  27.397  1.00  0.00     0.049 A 
ATOM     46  N   UNL A   1      44.156  31.639  28.833  1.00  0.00    -0.248 NA
ATOM     47  C   UNL A   1      43.667  29.387  28.464  1.00  0.00     0.031 C 
ATOM     48  C   UNL A   1      48.070  31.092  26.719  1.00  0.00     0.029 A 
ATOM     49  N   UNL A   1      46.772  32.544  27.814  1.00  0.00    -0.354 N 
ATOM     50  C   UNL A   1      42.930  31.329  29.413  1.00  0.00     0.074 A 
ATOM     51  C   UNL A   1      42.653  29.943  29.109  1.00  0.00     0.031 C 
ATOM     52  C   UNL A   1      48.723  32.267  26.761  1.00  0.00     0.029 A 
ATOM     53  C   UNL A   1      47.893  33.252  27.448  1.00  0.00     0.049 A 
ATOM     54  H   UNL A   1      46.029  32.939  28.326  1.00  0.00     0.167 HD
ATOM     55  C   UNL A   1      42.120  32.118  30.157  1.00  0.00     0.037 A 
ATOM     56  C   UNL A   1      48.205  34.550  27.641  1.00  0.00     0.037 A 
ATOM     57  C   UNL A   1      42.399  33.496  30.463  1.00  0.00     0.049 A 
ATOM     58  C   UNL A   1      47.245  35.427  28.409  1.00  0.00     0.074 A 
ATOM     59  C   UNL A   1      41.638  34.384  31.204  1.00  0.00     0.029 A 
ATOM     60  N   UNL A   1      43.530  34.185  30.052  1.00  0.00    -0.354 N 
ATOM     61  N   UNL A   1      46.101  35.111  28.968  1.00  0.00    -0.248 NA
ATOM     62  C   UNL A   1      47.628  36.835  28.586  1.00  0.00     0.031 C 
ATOM     63  C   UNL A   1      42.287  35.623  31.201  1.00  0.00     0.029 A 
ATOM     64  C   UNL A   1      43.481  35.491  30.510  1.00  0.00     0.049 A 
ATOM     65  H   UNL A   1      44.261  33.802  29.513  1.00  0.00     0.167 HD
ATOM     66  C   UNL A   1      45.647  36.271  29.590  1.00  0.00     0.074 A 
ATOM     67  C   UNL A   1      46.654  37.285  29.363  1.00  0.00     0.031 C 
ATOM     68  C   UNL A   1      44.500  36.483  30.284  1.00  0.00     0.037 A 
BRANCH  55  69
ATOM     69  C   UNL A   1      40.859  31.510  30.706  1.00  0.00     0.058 A 
ATOM     70  C   UNL A   1      39.600  31.818  30.165  1.00  0.00     0.135 A 
ATOM     71  C   UNL A   1      40.911  30.559  31.738  1.00  0.00     0.135 A 
ATOM     72  F   UNL A   1      39.488  32.740  29.195  1.00  0.00    -0.206 F 
ATOM     73  C   UNL A   1      38.439  31.208  30.628  1.00  0.00     0.059 A 
ATOM     74  C   UNL A   1      39.766  29.915  32.198  1.00  0.00     0.059 A 
ATOM     75  F   UNL A   1      42.087  30.235  32.299  1.00  0.00    -0.206 F 
ATOM     76  C   UNL A   1      38.534  30.249  31.638  1.00  0.00     0.060 A 
BRANCH  76  77
ATOM     77  S   UNL A   1      37.021  29.430  32.186  1.00  0.00     0.124 S 
ATOM     78  O   UNL A   1      37.553  28.391  33.064  1.00  0.00    -0.237 OA
ATOM     79  O   UNL A   1      36.305  30.515  32.848  1.00  0.00    -0.237 OA
ATOM     80  O   UNL A   1      36.423  28.953  30.944  1.00  0.00    -0.744 OA
ENDBRANCH  76  77
ENDBRANCH  55  69
BRANCH  56  81
ATOM     81  C   UNL A   1      49.468  35.121  27.092  1.00  0.00     0.058 A 
ATOM     82  C   UNL A   1      49.544  35.596  25.774  1.00  0.00     0.135 A 
ATOM     83  C   UNL A   1      50.646  35.137  27.856  1.00  0.00     0.135 A 
ATOM     84  F   UNL A   1      48.449  35.600  24.998  1.00  0.00    -0.206 F 
ATOM     85  C   UNL A   1      50.748  36.019  25.217  1.00  0.00     0.059 A 
ATOM     86  C   UNL A   1      51.854  35.587  27.334  1.00  0.00     0.059 A 
ATOM     87  F   UNL A   1      50.628  34.712  29.129  1.00  0.00    -0.206 F 
ATOM     88  C   UNL A   1      51.900  36.003  26.004  1.00  0.00     0.060 A 
BRANCH  88  89
ATOM     89  S   UNL A   1      53.460  36.543  25.272  1.00  0.00     0.124 S 
ATOM     90  O   UNL A   1      54.092  37.222  26.397  1.00  0.00    -0.237 OA
ATOM     91  O   UNL A   1      54.062  35.276  24.869  1.00  0.00    -0.237 OA
ATOM     92  O   UNL A   1      53.033  37.402  24.172  1.00  0.00    -0.744 OA
ENDBRANCH  88  89
ENDBRANCH  56  81
BRANCH  68  93
ATOM     93  C   UNL A   1      44.301  37.850  30.884  1.00  0.00     0.058 A 
ATOM     94  C   UNL A   1      44.702  38.151  32.196  1.00  0.00     0.135 A 
ATOM     95  C   UNL A   1      43.715  38.879  30.129  1.00  0.00     0.135 A 
ATOM     96  F   UNL A   1      45.268  37.205  32.963  1.00  0.00    -0.206 F 
ATOM     97  C   UNL A   1      44.479  39.404  32.755  1.00  0.00     0.059 A 
ATOM     98  C   UNL A   1      43.518  40.152  30.654  1.00  0.00     0.059 A 
ATOM     99  F   UNL A   1      43.329  38.654  28.861  1.00  0.00    -0.206 F 
ATOM    100  C   UNL A   1      43.882  40.398  31.977  1.00  0.00     0.060 A 
BRANCH 100 101
ATOM    101  S   UNL A   1      43.593  42.018  32.717  1.00  0.00     0.124 S 
ATOM    102  O   UNL A   1      43.631  42.887  31.545  1.00  0.00    -0.237 OA
ATOM    103  O   UNL A   1      42.284  41.848  33.338  1.00  0.00    -0.237 OA
ATOM    104  O   UNL A   1      44.708  42.170  33.648  1.00  0.00    -0.744 OA
ENDBRANCH 100 101
ENDBRANCH  68  93
ENDBRANCH  42  43
ENDBRANCH  35  37
ENDBRANCH  34  35
ENDBRANCH  33  34
ENDBRANCH  32  33
ENDBRANCH  31  32
ENDBRANCH  30  31
ENDBRANCH   1  30
TORSDOF 26
ENDMDL
MODEL 3
REMARK VINA RESULT:      -8.3      1.531      8.475
REMARK SMILES CS(=O)(=O)N1C[C@@H]2CN(C(=O)c3ccco3)C[C@@]2(C(=O)OCCOCCOCCOCCOC(=O)c2ccc(-c3c4nc(c(-c5c(F)cc(S(=O)(=O)[O-])cc5F)c5ccc([nH]5)c(-c5c(F)cc(S(=O)(=O)[O-])cc5F)c5nc(c(-c6c(F)cc(S(=O)(=O)[O-])cc6F)c6ccc3[nH]6)C=C5)C=C4)cc2)C1
REMARK SMILES IDX 28 1 27 2 26 3 25 4 24 5 23 6 22 7 21 8 19 9 20 10 18 11
REMARK SMILES IDX 5 12 6 13 102 14 7 15 8 16 17 17 9 18 2 19 1 20 3 21 4 22
REMARK SMILES IDX 10 23 11 24 12 25 13 26 16 27 14 28 15 29 29 30 30 31 31 32
REMARK SMILES IDX 32 33 33 34 34 35 35 36 36 37 37 38 101 39 38 40 100 41
REMARK SMILES IDX 39 42 40 43 41 44 94 45 42 46 99 47 93 48 95 49 43 50 98 51
REMARK SMILES IDX 92 52 91 53 44 55 78 56 57 57 77 58 58 59 61 60 76 61 96 62
REMARK SMILES IDX 59 63 60 64 75 66 97 67 62 68 45 69 46 70 55 71 47 72 48 73
REMARK SMILES IDX 54 74 56 75 49 76 50 77 51 78 52 79 53 80 79 81 80 82 89 83
REMARK SMILES IDX 81 84 82 85 88 86 90 87 83 88 84 89 85 90 86 91 87 92 63 93
REMARK SMILES IDX 64 94 73 95 65 96 66 97 72 98 74 99 67 100 68 101 69 102
REMARK SMILES IDX 70 103 71 104
REMARK H PARENT 95 54 61 65
REMARK Flexibility Score: inf
ROOT
ATOM      1  C   UNL A   1      35.029  32.096  30.564  1.00  0.00     0.188 C 
ENDROOT
BRANCH   1   2
ATOM      2  O   UNL A   1      34.562  33.239  29.848  1.00  0.00    -0.377 OA
BRANCH   2   3
ATOM      3  C   UNL A   1      33.902  33.057  28.614  1.00  0.00     0.188 C 
BRANCH   3   4
ATOM      4  C   UNL A   1      34.464  31.985  27.653  1.00  0.00     0.188 C 
BRANCH   4   5
ATOM      5  O   UNL A   1      33.811  30.737  27.510  1.00  0.00    -0.376 OA
BRANCH   5   6
ATOM      6  C   UNL A   1      34.511  29.491  27.588  1.00  0.00     0.202 C 
BRANCH   6   7
ATOM      7  C   UNL A   1      34.071  28.222  26.829  1.00  0.00     0.261 C 
BRANCH   7   8
ATOM      8  O   UNL A   1      32.775  28.415  26.280  1.00  0.00    -0.463 OA
BRANCH   8   9
ATOM      9  C   UNL A   1      31.672  27.780  26.771  1.00  0.00     0.315 C 
ATOM     10  O   UNL A   1      31.283  27.823  27.923  1.00  0.00    -0.251 OA
BRANCH   9  11
ATOM     11  C   UNL A   1      31.056  27.054  25.533  1.00  0.00     0.105 C 
ATOM     12  N   UNL A   1      32.152  24.820  25.814  1.00  0.00    -0.201 NA
ATOM     13  C   UNL A   1      32.308  25.158  24.417  1.00  0.00     0.109 C 
ATOM     14  C   UNL A   1      31.202  25.754  26.434  1.00  0.00     0.123 C 
ATOM     15  C   UNL A   1      31.214  26.181  24.234  1.00  0.00     0.044 C 
ATOM     16  C   UNL A   1      31.334  26.998  22.963  1.00  0.00     0.126 C 
ATOM     17  C   UNL A   1      31.493  28.380  24.822  1.00  0.00     0.140 C 
ATOM     18  N   UNL A   1      31.125  28.323  23.431  1.00  0.00    -0.334 N 
BRANCH  12  19
ATOM     19  S   UNL A   1      32.392  23.280  26.409  1.00  0.00     0.211 S 
ATOM     20  C   UNL A   1      31.451  22.247  25.298  1.00  0.00     0.176 C 
ATOM     21  O   UNL A   1      31.738  23.195  27.695  1.00  0.00    -0.213 OA
ATOM     22  O   UNL A   1      33.792  22.945  26.250  1.00  0.00    -0.213 OA
ENDBRANCH  12  19
BRANCH  18  23
ATOM     23  C   UNL A   1      30.613  29.329  22.613  1.00  0.00     0.289 C 
ATOM     24  O   UNL A   1      31.233  29.647  21.596  1.00  0.00    -0.265 OA
BRANCH  23  25
ATOM     25  C   UNL A   1      29.329  29.929  22.956  1.00  0.00     0.191 A 
ATOM     26  C   UNL A   1      28.925  31.182  23.394  1.00  0.00     0.056 A 
ATOM     27  O   UNL A   1      28.217  29.128  22.854  1.00  0.00    -0.459 OA
ATOM     28  C   UNL A   1      27.536  31.109  23.653  1.00  0.00     0.043 A 
ATOM     29  C   UNL A   1      27.151  29.847  23.279  1.00  0.00     0.196 A 
ENDBRANCH  23  25
ENDBRANCH  18  23
ENDBRANCH   9  11
ENDBRANCH   8   9
ENDBRANCH   7   8
ENDBRANCH   6   7
ENDBRANCH   5   6
ENDBRANCH   4   5
ENDBRANCH   3   4
ENDBRANCH   2   3
ENDBRANCH   1   2
BRANCH   1  30
ATOM     30  C   UNL A   1      36.528  31.737  30.569  1.00  0.00     0.188 C 
BRANCH  30  31
ATOM     31  O   UNL A   1      36.883  30.732  31.502  1.00  0.00    -0.376 OA
BRANCH  31  32
ATOM     32  C   UNL A   1      36.753  29.365  31.153  1.00  0.00     0.202 C 
BRANCH  32  33
ATOM     33  C   UNL A   1      37.786  28.716  30.220  1.00  0.00     0.261 C 
BRANCH  33  34
ATOM     34  O   UNL A   1      38.606  29.594  29.439  1.00  0.00    -0.460 OA
BRANCH  34  35
ATOM     35  C   UNL A   1      39.946  29.428  29.492  1.00  0.00     0.338 C 
ATOM     36  O   UNL A   1      40.573  28.423  29.234  1.00  0.00    -0.246 OA
BRANCH  35  37
ATOM     37  C   UNL A   1      40.539  30.754  29.756  1.00  0.00     0.060 A 
ATOM     38  C   UNL A   1      41.923  30.861  29.928  1.00  0.00     0.016 A 
ATOM     39  C   UNL A   1      39.723  31.884  29.855  1.00  0.00     0.016 A 
ATOM     40  C   UNL A   1      42.489  32.093  30.256  1.00  0.00     0.010 A 
ATOM     41  C   UNL A   1      40.292  33.116  30.185  1.00  0.00     0.010 A 
ATOM     42  C   UNL A   1      41.673  33.220  30.430  1.00  0.00    -0.014 A 
BRANCH  42  43
ATOM     43  C   UNL A   1      42.239  34.444  31.052  1.00  0.00     0.031 A 
ATOM     44  C   UNL A   1      42.196  34.571  32.554  1.00  0.00     0.074 A 
ATOM     45  C   UNL A   1      42.838  35.392  30.307  1.00  0.00     0.049 A 
ATOM     46  N   UNL A   1      42.633  35.539  33.317  1.00  0.00    -0.248 NA
ATOM     47  C   UNL A   1      41.579  33.457  33.296  1.00  0.00     0.031 C 
ATOM     48  C   UNL A   1      42.971  35.365  28.851  1.00  0.00     0.029 A 
ATOM     49  N   UNL A   1      43.451  36.564  30.674  1.00  0.00    -0.354 N 
ATOM     50  C   UNL A   1      42.357  35.145  34.623  1.00  0.00     0.074 A 
ATOM     51  C   UNL A   1      41.659  33.881  34.548  1.00  0.00     0.031 C 
ATOM     52  C   UNL A   1      43.619  36.473  28.448  1.00  0.00     0.029 A 
ATOM     53  C   UNL A   1      43.928  37.297  29.613  1.00  0.00     0.049 A 
ATOM     54  H   UNL A   1      43.539  36.853  31.611  1.00  0.00     0.167 HD
ATOM     55  C   UNL A   1      42.681  35.765  35.782  1.00  0.00     0.037 A 
ATOM     56  C   UNL A   1      44.536  38.501  29.589  1.00  0.00     0.037 A 
ATOM     57  C   UNL A   1      43.380  37.020  35.854  1.00  0.00     0.049 A 
ATOM     58  C   UNL A   1      44.815  39.205  30.895  1.00  0.00     0.074 A 
ATOM     59  C   UNL A   1      43.749  37.736  36.981  1.00  0.00     0.029 A 
ATOM     60  N   UNL A   1      43.821  37.746  34.758  1.00  0.00    -0.354 N 
ATOM     61  N   UNL A   1      44.566  38.808  32.120  1.00  0.00    -0.248 NA
ATOM     62  C   UNL A   1      45.473  40.517  30.814  1.00  0.00     0.031 C 
ATOM     63  C   UNL A   1      44.372  38.916  36.564  1.00  0.00     0.029 A 
ATOM     64  C   UNL A   1      44.445  38.907  35.180  1.00  0.00     0.049 A 
ATOM     65  H   UNL A   1      43.707  37.475  33.818  1.00  0.00     0.167 HD
ATOM     66  C   UNL A   1      45.068  39.804  32.953  1.00  0.00     0.074 A 
ATOM     67  C   UNL A   1      45.660  40.806  32.094  1.00  0.00     0.031 C 
ATOM     68  C   UNL A   1      45.041  39.888  34.308  1.00  0.00     0.037 A 
BRANCH  55  69
ATOM     69  C   UNL A   1      42.296  35.090  37.070  1.00  0.00     0.058 A 
ATOM     70  C   UNL A   1      43.152  34.173  37.701  1.00  0.00     0.135 A 
ATOM     71  C   UNL A   1      41.092  35.413  37.717  1.00  0.00     0.135 A 
ATOM     72  F   UNL A   1      44.304  33.807  37.114  1.00  0.00    -0.206 F 
ATOM     73  C   UNL A   1      42.827  33.597  38.924  1.00  0.00     0.059 A 
ATOM     74  C   UNL A   1      40.760  34.870  38.954  1.00  0.00     0.059 A 
ATOM     75  F   UNL A   1      40.233  36.276  37.153  1.00  0.00    -0.206 F 
ATOM     76  C   UNL A   1      41.633  33.961  39.549  1.00  0.00     0.060 A 
BRANCH  76  77
ATOM     77  S   UNL A   1      41.257  33.244  41.162  1.00  0.00     0.124 S 
ATOM     78  O   UNL A   1      42.163  33.988  42.032  1.00  0.00    -0.237 OA
ATOM     79  O   UNL A   1      39.838  33.550  41.313  1.00  0.00    -0.237 OA
ATOM     80  O   UNL A   1      41.576  31.830  40.989  1.00  0.00    -0.744 OA
ENDBRANCH  76  77
ENDBRANCH  55  69
BRANCH  56  81
ATOM     81  C   UNL A   1      44.914  39.139  28.295  1.00  0.00     0.058 A 
ATOM     82  C   UNL A   1      46.206  39.009  27.765  1.00  0.00     0.135 A 
ATOM     83  C   UNL A   1      44.006  39.954  27.599  1.00  0.00     0.135 A 
ATOM     84  F   UNL A   1      47.115  38.245  28.392  1.00  0.00    -0.206 F 
ATOM     85  C   UNL A   1      46.602  39.698  26.622  1.00  0.00     0.059 A 
ATOM     86  C   UNL A   1      44.366  40.626  26.436  1.00  0.00     0.059 A 
ATOM     87  F   UNL A   1      42.750  40.100  28.050  1.00  0.00    -0.206 F 
ATOM     88  C   UNL A   1      45.675  40.512  25.969  1.00  0.00     0.060 A 
BRANCH  88  89
ATOM     89  S   UNL A   1      46.197  41.412  24.494  1.00  0.00     0.124 S 
ATOM     90  O   UNL A   1      44.940  42.001  24.049  1.00  0.00    -0.237 OA
ATOM     91  O   UNL A   1      47.183  42.341  25.037  1.00  0.00    -0.237 OA
ATOM     92  O   UNL A   1      46.743  40.363  23.638  1.00  0.00    -0.744 OA
ENDBRANCH  88  89
ENDBRANCH  56  81
BRANCH  68  93
ATOM     93  C   UNL A   1      45.710  41.080  34.938  1.00  0.00     0.058 A 
ATOM     94  C   UNL A   1      45.027  42.287  35.155  1.00  0.00     0.135 A 
ATOM     95  C   UNL A   1      47.053  41.008  35.346  1.00  0.00     0.135 A 
ATOM     96  F   UNL A   1      43.742  42.412  34.785  1.00  0.00    -0.206 F 
ATOM     97  C   UNL A   1      45.663  43.396  35.703  1.00  0.00     0.059 A 
ATOM     98  C   UNL A   1      47.699  42.092  35.931  1.00  0.00     0.059 A 
ATOM     99  F   UNL A   1      47.752  39.872  35.181  1.00  0.00    -0.206 F 
ATOM    100  C   UNL A   1      47.002  43.289  36.084  1.00  0.00     0.060 A 
BRANCH 100 101
ATOM    101  S   UNL A   1      47.818  44.737  36.788  1.00  0.00     0.124 S 
ATOM    102  O   UNL A   1      48.329  45.396  35.591  1.00  0.00    -0.237 OA
ATOM    103  O   UNL A   1      46.718  45.416  37.466  1.00  0.00    -0.237 OA
ATOM    104  O   UNL A   1      48.831  44.162  37.668  1.00  0.00    -0.744 OA
ENDBRANCH 100 101
ENDBRANCH  68  93
ENDBRANCH  42  43
ENDBRANCH  35  37
ENDBRANCH  34  35
ENDBRANCH  33  34
ENDBRANCH  32  33
ENDBRANCH  31  32
ENDBRANCH  30  31
ENDBRANCH   1  30
TORSDOF 26
ENDMDL
