MODEL 1
REMARK VINA RESULT:      -7.3      0.000      0.000
REMARK SMILES O=C(OCCOCCOCCOCCOC(=O)[C@@H]1CCC(=O)N(CCCn2ccnc2)[C@H]1c1ccccc1)c1ccc(-c2c3nc(c(-c4c(F)cc(S(=O)(=O)[O-])cc4F)c4ccc([nH]4)c(-c4c(F)cc(S(=O)(=O)[O-])cc4F)c4nc(c(-c5c(F)cc(S(=O)(=O)[O-])cc5F)c5ccc2[nH]5)C=C4)C=C3)cc1
REMARK SMILES IDX 10 1 9 2 8 3 7 4 6 5 5 6 4 7 3 8 2 9 1 10 39 11 40 12 104 13
REMARK SMILES IDX 41 14 103 15 42 16 43 17 44 18 97 19 45 20 102 21 96 22
REMARK SMILES IDX 98 23 46 24 101 25 95 26 94 27 47 29 81 30 60 31 80 32 61 33
REMARK SMILES IDX 64 34 79 35 99 36 62 37 63 38 78 40 100 41 65 42 48 43 49 44
REMARK SMILES IDX 58 45 50 46 51 47 57 48 59 49 52 50 53 51 54 52 55 53 56 54
REMARK SMILES IDX 82 55 83 56 92 57 84 58 85 59 91 60 93 61 86 62 87 63 88 64
REMARK SMILES IDX 89 65 90 66 66 67 67 68 76 69 68 70 69 71 75 72 77 73 70 74
REMARK SMILES IDX 71 75 72 76 73 77 74 78 11 79 12 80 13 81 14 82 15 83 16 84
REMARK SMILES IDX 17 85 18 86 19 87 32 88 20 89 23 90 21 91 22 92 33 93 34 94
REMARK SMILES IDX 38 95 35 96 37 97 36 98 24 99 25 100 26 101 27 102 28 103
REMARK SMILES IDX 31 104 29 105 30 106
REMARK H PARENT 98 28 64 39
REMARK Flexibility Score: inf
ROOT
ATOM      1  C   UNL A   1      32.927  36.413  32.907  1.00  0.00     0.188 C 
ENDROOT
BRANCH   1   2
ATOM      2  O   UNL A   1      32.802  37.165  31.727  1.00  0.00    -0.377 OA
BRANCH   2   3
ATOM      3  C   UNL A   1      32.560  36.432  30.540  1.00  0.00     0.188 C 
BRANCH   3   4
ATOM      4  C   UNL A   1      33.681  35.755  29.718  1.00  0.00     0.188 C 
BRANCH   4   5
ATOM      5  O   UNL A   1      33.919  34.373  29.489  1.00  0.00    -0.376 OA
BRANCH   5   6
ATOM      6  C   UNL A   1      33.497  33.495  28.474  1.00  0.00     0.202 C 
BRANCH   6   7
ATOM      7  C   UNL A   1      34.360  32.378  27.886  1.00  0.00     0.261 C 
BRANCH   7   8
ATOM      8  O   UNL A   1      35.348  31.821  28.739  1.00  0.00    -0.460 OA
BRANCH   8   9
ATOM      9  C   UNL A   1      35.912  30.596  28.656  1.00  0.00     0.338 C 
ATOM     10  O   UNL A   1      35.250  29.678  28.174  1.00  0.00    -0.246 OA
BRANCH   9  11
ATOM     11  C   UNL A   1      37.222  30.262  29.270  1.00  0.00     0.060 A 
ATOM     12  C   UNL A   1      38.383  31.032  29.179  1.00  0.00     0.016 A 
ATOM     13  C   UNL A   1      37.267  29.033  29.961  1.00  0.00     0.016 A 
ATOM     14  C   UNL A   1      39.583  30.540  29.639  1.00  0.00     0.010 A 
ATOM     15  C   UNL A   1      38.467  28.533  30.426  1.00  0.00     0.010 A 
ATOM     16  C   UNL A   1      39.622  29.262  30.176  1.00  0.00    -0.014 A 
BRANCH  16  17
ATOM     17  C   UNL A   1      40.944  28.701  30.357  1.00  0.00     0.031 A 
ATOM     18  C   UNL A   1      41.374  28.544  31.763  1.00  0.00     0.074 A 
ATOM     19  C   UNL A   1      41.680  28.396  29.272  1.00  0.00     0.049 A 
ATOM     20  N   UNL A   1      42.370  29.110  32.363  1.00  0.00    -0.248 NA
ATOM     21  C   UNL A   1      40.497  27.770  32.655  1.00  0.00     0.031 C 
ATOM     22  C   UNL A   1      41.220  28.347  27.879  1.00  0.00     0.029 A 
ATOM     23  N   UNL A   1      42.957  27.942  29.189  1.00  0.00    -0.354 N 
ATOM     24  C   UNL A   1      42.394  28.554  33.639  1.00  0.00     0.074 A 
ATOM     25  C   UNL A   1      41.124  27.905  33.823  1.00  0.00     0.031 C 
ATOM     26  C   UNL A   1      42.107  27.642  27.148  1.00  0.00     0.029 A 
ATOM     27  C   UNL A   1      43.236  27.295  27.993  1.00  0.00     0.049 A 
ATOM     28  H   UNL A   1      43.619  28.059  29.907  1.00  0.00     0.167 HD
ATOM     29  C   UNL A   1      43.570  28.406  34.310  1.00  0.00     0.037 A 
ATOM     30  C   UNL A   1      44.258  26.434  27.762  1.00  0.00     0.037 A 
ATOM     31  C   UNL A   1      44.561  29.346  33.840  1.00  0.00     0.049 A 
ATOM     32  C   UNL A   1      45.289  26.684  28.805  1.00  0.00     0.074 A 
ATOM     33  C   UNL A   1      44.610  30.723  33.714  1.00  0.00     0.029 A 
ATOM     34  N   UNL A   1      45.604  28.868  33.085  1.00  0.00    -0.354 N 
ATOM     35  N   UNL A   1      45.995  27.780  28.888  1.00  0.00    -0.248 NA
ATOM     36  C   UNL A   1      45.232  25.895  30.028  1.00  0.00     0.031 C 
ATOM     37  C   UNL A   1      45.370  30.965  32.534  1.00  0.00     0.029 A 
ATOM     38  C   UNL A   1      45.786  29.730  32.035  1.00  0.00     0.049 A 
ATOM     39  H   UNL A   1      46.126  28.053  33.265  1.00  0.00     0.167 HD
ATOM     40  C   UNL A   1      46.102  28.035  30.247  1.00  0.00     0.074 A 
ATOM     41  C   UNL A   1      45.712  26.787  30.898  1.00  0.00     0.031 C 
ATOM     42  C   UNL A   1      46.218  29.312  30.720  1.00  0.00     0.037 A 
BRANCH  29  43
ATOM     43  C   UNL A   1      43.939  27.129  35.042  1.00  0.00     0.058 A 
ATOM     44  C   UNL A   1      44.515  27.224  36.327  1.00  0.00     0.135 A 
ATOM     45  C   UNL A   1      44.061  25.864  34.420  1.00  0.00     0.135 A 
ATOM     46  F   UNL A   1      44.441  28.369  37.026  1.00  0.00    -0.206 F 
ATOM     47  C   UNL A   1      45.270  26.192  36.886  1.00  0.00     0.059 A 
ATOM     48  C   UNL A   1      44.763  24.806  34.982  1.00  0.00     0.059 A 
ATOM     49  F   UNL A   1      43.592  25.606  33.195  1.00  0.00    -0.206 F 
ATOM     50  C   UNL A   1      45.414  24.998  36.187  1.00  0.00     0.060 A 
BRANCH  50  51
ATOM     51  S   UNL A   1      46.516  23.724  36.815  1.00  0.00     0.124 S 
ATOM     52  O   UNL A   1      47.628  23.825  35.878  1.00  0.00    -0.237 OA
ATOM     53  O   UNL A   1      46.774  24.192  38.173  1.00  0.00    -0.237 OA
ATOM     54  O   UNL A   1      45.712  22.510  36.718  1.00  0.00    -0.744 OA
ENDBRANCH  50  51
ENDBRANCH  29  43
BRANCH  30  55
ATOM     55  C   UNL A   1      44.215  25.201  26.931  1.00  0.00     0.058 A 
ATOM     56  C   UNL A   1      45.219  24.930  25.986  1.00  0.00     0.135 A 
ATOM     57  C   UNL A   1      43.327  24.138  27.209  1.00  0.00     0.135 A 
ATOM     58  F   UNL A   1      46.125  25.870  25.677  1.00  0.00    -0.206 F 
ATOM     59  C   UNL A   1      45.361  23.672  25.389  1.00  0.00     0.059 A 
ATOM     60  C   UNL A   1      43.433  22.887  26.608  1.00  0.00     0.059 A 
ATOM     61  F   UNL A   1      42.375  24.245  28.147  1.00  0.00    -0.206 F 
ATOM     62  C   UNL A   1      44.471  22.651  25.718  1.00  0.00     0.060 A 
BRANCH  62  63
ATOM     63  S   UNL A   1      44.744  20.982  25.081  1.00  0.00     0.124 S 
ATOM     64  O   UNL A   1      44.485  21.157  23.656  1.00  0.00    -0.237 OA
ATOM     65  O   UNL A   1      46.132  20.735  25.452  1.00  0.00    -0.237 OA
ATOM     66  O   UNL A   1      43.758  20.179  25.800  1.00  0.00    -0.744 OA
ENDBRANCH  62  63
ENDBRANCH  30  55
BRANCH  42  67
ATOM     67  C   UNL A   1      46.592  30.400  29.749  1.00  0.00     0.058 A 
ATOM     68  C   UNL A   1      45.673  31.124  28.970  1.00  0.00     0.135 A 
ATOM     69  C   UNL A   1      47.934  30.810  29.704  1.00  0.00     0.135 A 
ATOM     70  F   UNL A   1      44.358  30.876  29.045  1.00  0.00    -0.206 F 
ATOM     71  C   UNL A   1      46.079  32.169  28.139  1.00  0.00     0.059 A 
ATOM     72  C   UNL A   1      48.355  31.872  28.908  1.00  0.00     0.059 A 
ATOM     73  F   UNL A   1      48.850  30.205  30.478  1.00  0.00    -0.206 F 
ATOM     74  C   UNL A   1      47.424  32.535  28.112  1.00  0.00     0.060 A 
BRANCH  74  75
ATOM     75  S   UNL A   1      47.937  33.928  27.085  1.00  0.00     0.124 S 
ATOM     76  O   UNL A   1      48.913  34.597  27.940  1.00  0.00    -0.237 OA
ATOM     77  O   UNL A   1      48.477  33.268  25.901  1.00  0.00    -0.237 OA
ATOM     78  O   UNL A   1      46.694  34.665  26.863  1.00  0.00    -0.744 OA
ENDBRANCH  74  75
ENDBRANCH  42  67
ENDBRANCH  16  17
ENDBRANCH   9  11
ENDBRANCH   8   9
ENDBRANCH   7   8
ENDBRANCH   6   7
ENDBRANCH   5   6
ENDBRANCH   4   5
ENDBRANCH   3   4
ENDBRANCH   2   3
ENDBRANCH   1   2
BRANCH   1  79
ATOM     79  C   UNL A   1      34.395  36.283  33.341  1.00  0.00     0.188 C 
BRANCH  79  80
ATOM     80  O   UNL A   1      35.029  35.089  32.900  1.00  0.00    -0.376 OA
BRANCH  80  81
ATOM     81  C   UNL A   1      35.017  33.967  33.779  1.00  0.00     0.202 C 
BRANCH  81  82
ATOM     82  C   UNL A   1      35.770  32.704  33.323  1.00  0.00     0.261 C 
BRANCH  82  83
ATOM     83  O   UNL A   1      36.521  32.111  34.406  1.00  0.00    -0.463 OA
BRANCH  83  84
ATOM     84  C   UNL A   1      37.616  31.400  34.027  1.00  0.00     0.311 C 
ATOM     85  O   UNL A   1      37.696  30.794  32.984  1.00  0.00    -0.252 OA
BRANCH  84  86
ATOM     86  C   UNL A   1      38.774  31.634  35.010  1.00  0.00     0.127 C 
ATOM     87  C   UNL A   1      38.508  32.899  35.824  1.00  0.00     0.028 C 
ATOM     88  C   UNL A   1      40.117  31.780  34.310  1.00  0.00     0.129 C 
ATOM     89  C   UNL A   1      38.622  34.160  34.981  1.00  0.00     0.101 C 
ATOM     90  N   UNL A   1      40.068  32.894  33.364  1.00  0.00    -0.335 N 
ATOM     91  C   UNL A   1      39.419  34.087  33.678  1.00  0.00     0.223 C 
ATOM     92  O   UNL A   1      39.469  35.075  32.944  1.00  0.00    -0.275 OA
BRANCH  88  93
ATOM     93  C   UNL A   1      41.276  31.929  35.316  1.00  0.00    -0.025 A 
ATOM     94  C   UNL A   1      42.113  33.064  35.332  1.00  0.00     0.006 A 
ATOM     95  C   UNL A   1      41.556  30.898  36.229  1.00  0.00     0.006 A 
ATOM     96  C   UNL A   1      43.194  33.162  36.207  1.00  0.00     0.000 A 
ATOM     97  C   UNL A   1      42.647  30.995  37.101  1.00  0.00     0.000 A 
ATOM     98  C   UNL A   1      43.465  32.124  37.087  1.00  0.00     0.000 A 
ENDBRANCH  88  93
BRANCH  90  99
ATOM     99  C   UNL A   1      40.590  32.689  32.013  1.00  0.00     0.122 C 
BRANCH  99 100
ATOM    100  C   UNL A   1      42.101  32.467  31.900  1.00  0.00     0.043 C 
BRANCH 100 101
ATOM    101  C   UNL A   1      42.903  33.224  30.837  1.00  0.00     0.125 C 
BRANCH 101 102
ATOM    102  N   UNL A   1      42.291  34.294  30.079  1.00  0.00    -0.337 N 
ATOM    103  C   UNL A   1      43.007  35.302  29.478  1.00  0.00     0.107 A 
ATOM    104  C   UNL A   1      41.004  34.417  29.647  1.00  0.00     0.199 A 
ATOM    105  C   UNL A   1      42.092  36.013  28.741  1.00  0.00     0.130 A 
ATOM    106  N   UNL A   1      40.848  35.461  28.863  1.00  0.00    -0.245 NA
ENDBRANCH 101 102
ENDBRANCH 100 101
ENDBRANCH  99 100
ENDBRANCH  90  99
ENDBRANCH  84  86
ENDBRANCH  83  84
ENDBRANCH  82  83
ENDBRANCH  81  82
ENDBRANCH  80  81
ENDBRANCH  79  80
ENDBRANCH   1  79
TORSDOF 28
ENDMDL
MODEL 2
REMARK VINA RESULT:      -6.9      1.851      2.819
REMARK SMILES O=C(OCCOCCOCCOCCOC(=O)[C@@H]1CCC(=O)N(CCCn2ccnc2)[C@H]1c1ccccc1)c1ccc(-c2c3nc(c(-c4c(F)cc(S(=O)(=O)[O-])cc4F)c4ccc([nH]4)c(-c4c(F)cc(S(=O)(=O)[O-])cc4F)c4nc(c(-c5c(F)cc(S(=O)(=O)[O-])cc5F)c5ccc2[nH]5)C=C4)C=C3)cc1
REMARK SMILES IDX 10 1 9 2 8 3 7 4 6 5 5 6 4 7 3 8 2 9 1 10 39 11 40 12 104 13
REMARK SMILES IDX 41 14 103 15 42 16 43 17 44 18 97 19 45 20 102 21 96 22
REMARK SMILES IDX 98 23 46 24 101 25 95 26 94 27 47 29 81 30 60 31 80 32 61 33
REMARK SMILES IDX 64 34 79 35 99 36 62 37 63 38 78 40 100 41 65 42 48 43 49 44
REMARK SMILES IDX 58 45 50 46 51 47 57 48 59 49 52 50 53 51 54 52 55 53 56 54
REMARK SMILES IDX 82 55 83 56 92 57 84 58 85 59 91 60 93 61 86 62 87 63 88 64
REMARK SMILES IDX 89 65 90 66 66 67 67 68 76 69 68 70 69 71 75 72 77 73 70 74
REMARK SMILES IDX 71 75 72 76 73 77 74 78 11 79 12 80 13 81 14 82 15 83 16 84
REMARK SMILES IDX 17 85 18 86 19 87 32 88 20 89 23 90 21 91 22 92 33 93 34 94
REMARK SMILES IDX 38 95 35 96 37 97 36 98 24 99 25 100 26 101 27 102 28 103
REMARK SMILES IDX 31 104 29 105 30 106
REMARK H PARENT 98 28 64 39
REMARK Flexibility Score: inf
ROOT
ATOM      1  C   UNL A   1      32.974  36.483  32.978  1.00  0.00     0.188 C 
ENDROOT
BRANCH   1   2
ATOM      2  O   UNL A   1      33.282  37.367  31.930  1.00  0.00    -0.377 OA
BRANCH   2   3
ATOM      3  C   UNL A   1      32.751  37.041  30.659  1.00  0.00     0.188 C 
BRANCH   3   4
ATOM      4  C   UNL A   1      33.549  36.279  29.576  1.00  0.00     0.188 C 
BRANCH   4   5
ATOM      5  O   UNL A   1      33.564  34.890  29.279  1.00  0.00    -0.376 OA
BRANCH   5   6
ATOM      6  C   UNL A   1      32.936  34.131  28.274  1.00  0.00     0.202 C 
BRANCH   6   7
ATOM      7  C   UNL A   1      33.478  32.811  27.725  1.00  0.00     0.261 C 
BRANCH   7   8
ATOM      8  O   UNL A   1      34.631  32.283  28.361  1.00  0.00    -0.460 OA
BRANCH   8   9
ATOM      9  C   UNL A   1      35.293  31.145  28.054  1.00  0.00     0.338 C 
ATOM     10  O   UNL A   1      34.749  30.336  27.305  1.00  0.00    -0.246 OA
BRANCH   9  11
ATOM     11  C   UNL A   1      36.566  30.745  28.706  1.00  0.00     0.060 A 
ATOM     12  C   UNL A   1      37.614  31.605  29.041  1.00  0.00     0.016 A 
ATOM     13  C   UNL A   1      36.705  29.364  28.955  1.00  0.00     0.016 A 
ATOM     14  C   UNL A   1      38.815  31.099  29.482  1.00  0.00     0.010 A 
ATOM     15  C   UNL A   1      37.908  28.849  29.399  1.00  0.00     0.010 A 
ATOM     16  C   UNL A   1      38.973  29.724  29.570  1.00  0.00    -0.014 A 
BRANCH  16  17
ATOM     17  C   UNL A   1      40.333  29.261  29.745  1.00  0.00     0.031 A 
ATOM     18  C   UNL A   1      40.813  29.235  31.144  1.00  0.00     0.074 A 
ATOM     19  C   UNL A   1      41.054  28.923  28.660  1.00  0.00     0.049 A 
ATOM     20  N   UNL A   1      41.788  29.904  31.667  1.00  0.00    -0.248 NA
ATOM     21  C   UNL A   1      40.014  28.476  32.118  1.00  0.00     0.031 C 
ATOM     22  C   UNL A   1      40.557  28.743  27.291  1.00  0.00     0.029 A 
ATOM     23  N   UNL A   1      42.355  28.545  28.567  1.00  0.00    -0.354 N 
ATOM     24  C   UNL A   1      41.885  29.447  32.979  1.00  0.00     0.074 A 
ATOM     25  C   UNL A   1      40.666  28.735  33.252  1.00  0.00     0.031 C 
ATOM     26  C   UNL A   1      41.467  28.043  26.583  1.00  0.00     0.029 A 
ATOM     27  C   UNL A   1      42.640  27.830  27.412  1.00  0.00     0.049 A 
ATOM     28  H   UNL A   1      43.029  28.755  29.252  1.00  0.00     0.167 HD
ATOM     29  C   UNL A   1      43.087  29.422  33.617  1.00  0.00     0.037 A 
ATOM     30  C   UNL A   1      43.708  27.020  27.208  1.00  0.00     0.037 A 
ATOM     31  C   UNL A   1      44.001  30.385  33.049  1.00  0.00     0.049 A 
ATOM     32  C   UNL A   1      44.751  27.410  28.195  1.00  0.00     0.074 A 
ATOM     33  C   UNL A   1      43.958  31.748  32.822  1.00  0.00     0.029 A 
ATOM     34  N   UNL A   1      45.050  29.918  32.294  1.00  0.00    -0.354 N 
ATOM     35  N   UNL A   1      45.387  28.550  28.175  1.00  0.00    -0.248 NA
ATOM     36  C   UNL A   1      44.781  26.710  29.473  1.00  0.00     0.031 C 
ATOM     37  C   UNL A   1      44.666  31.950  31.603  1.00  0.00     0.029 A 
ATOM     38  C   UNL A   1      45.145  30.710  31.180  1.00  0.00     0.049 A 
ATOM     39  H   UNL A   1      45.629  29.153  32.514  1.00  0.00     0.167 HD
ATOM     40  C   UNL A   1      45.517  28.911  29.508  1.00  0.00     0.074 A 
ATOM     41  C   UNL A   1      45.228  27.693  30.259  1.00  0.00     0.031 C 
ATOM     42  C   UNL A   1      45.565  30.224  29.884  1.00  0.00     0.037 A 
BRANCH  29  43
ATOM     43  C   UNL A   1      43.559  28.228  34.427  1.00  0.00     0.058 A 
ATOM     44  C   UNL A   1      44.111  28.449  35.706  1.00  0.00     0.135 A 
ATOM     45  C   UNL A   1      43.798  26.944  33.881  1.00  0.00     0.135 A 
ATOM     46  F   UNL A   1      43.930  29.621  36.335  1.00  0.00    -0.206 F 
ATOM     47  C   UNL A   1      44.948  27.522  36.329  1.00  0.00     0.059 A 
ATOM     48  C   UNL A   1      44.584  25.987  34.509  1.00  0.00     0.059 A 
ATOM     49  F   UNL A   1      43.366  26.574  32.672  1.00  0.00    -0.206 F 
ATOM     50  C   UNL A   1      45.203  26.306  35.703  1.00  0.00     0.060 A 
BRANCH  50  51
ATOM     51  S   UNL A   1      46.407  25.173  36.412  1.00  0.00     0.124 S 
ATOM     52  O   UNL A   1      45.927  23.895  35.903  1.00  0.00    -0.237 OA
ATOM     53  O   UNL A   1      47.656  25.665  35.840  1.00  0.00    -0.237 OA
ATOM     54  O   UNL A   1      46.256  25.383  37.849  1.00  0.00    -0.744 OA
ENDBRANCH  50  51
ENDBRANCH  29  43
BRANCH  30  55
ATOM     55  C   UNL A   1      43.719  25.729  26.469  1.00  0.00     0.058 A 
ATOM     56  C   UNL A   1      44.632  25.501  25.425  1.00  0.00     0.135 A 
ATOM     57  C   UNL A   1      43.009  24.596  26.924  1.00  0.00     0.135 A 
ATOM     58  F   UNL A   1      45.371  26.512  24.944  1.00  0.00    -0.206 F 
ATOM     59  C   UNL A   1      44.857  24.225  24.895  1.00  0.00     0.059 A 
ATOM     60  C   UNL A   1      43.197  23.322  26.396  1.00  0.00     0.059 A 
ATOM     61  F   UNL A   1      42.169  24.666  27.966  1.00  0.00    -0.206 F 
ATOM     62  C   UNL A   1      44.145  23.138  25.399  1.00  0.00     0.060 A 
BRANCH  62  63
ATOM     63  S   UNL A   1      44.545  21.466  24.840  1.00  0.00     0.124 S 
ATOM     64  O   UNL A   1      45.829  21.230  25.492  1.00  0.00    -0.237 OA
ATOM     65  O   UNL A   1      43.418  20.693  25.350  1.00  0.00    -0.237 OA
ATOM     66  O   UNL A   1      44.599  21.598  23.386  1.00  0.00    -0.744 OA
ENDBRANCH  62  63
ENDBRANCH  30  55
BRANCH  42  67
ATOM     67  C   UNL A   1      45.839  31.258  28.825  1.00  0.00     0.058 A 
ATOM     68  C   UNL A   1      44.860  31.822  27.989  1.00  0.00     0.135 A 
ATOM     69  C   UNL A   1      47.135  31.792  28.745  1.00  0.00     0.135 A 
ATOM     70  F   UNL A   1      43.574  31.454  28.085  1.00  0.00    -0.206 F 
ATOM     71  C   UNL A   1      45.169  32.830  27.073  1.00  0.00     0.059 A 
ATOM     72  C   UNL A   1      47.458  32.820  27.864  1.00  0.00     0.059 A 
ATOM     73  F   UNL A   1      48.099  31.346  29.567  1.00  0.00    -0.206 F 
ATOM     74  C   UNL A   1      46.473  33.320  27.016  1.00  0.00     0.060 A 
BRANCH  74  75
ATOM     75  S   UNL A   1      46.856  34.667  25.876  1.00  0.00     0.124 S 
ATOM     76  O   UNL A   1      46.519  35.845  26.668  1.00  0.00    -0.237 OA
ATOM     77  O   UNL A   1      48.278  34.464  25.611  1.00  0.00    -0.237 OA
ATOM     78  O   UNL A   1      45.978  34.410  24.736  1.00  0.00    -0.744 OA
ENDBRANCH  74  75
ENDBRANCH  42  67
ENDBRANCH  16  17
ENDBRANCH   9  11
ENDBRANCH   8   9
ENDBRANCH   7   8
ENDBRANCH   6   7
ENDBRANCH   5   6
ENDBRANCH   4   5
ENDBRANCH   3   4
ENDBRANCH   2   3
ENDBRANCH   1   2
BRANCH   1  79
ATOM     79  C   UNL A   1      34.244  35.898  33.614  1.00  0.00     0.188 C 
BRANCH  79  80
ATOM     80  O   UNL A   1      35.264  35.568  32.680  1.00  0.00    -0.376 OA
BRANCH  80  81
ATOM     81  C   UNL A   1      35.551  34.187  32.469  1.00  0.00     0.202 C 
BRANCH  81  82
ATOM     82  C   UNL A   1      36.937  33.678  32.904  1.00  0.00     0.261 C 
BRANCH  82  83
ATOM     83  O   UNL A   1      37.245  34.066  34.261  1.00  0.00    -0.463 OA
BRANCH  83  84
ATOM     84  C   UNL A   1      38.488  34.584  34.446  1.00  0.00     0.311 C 
ATOM     85  O   UNL A   1      38.874  35.045  35.494  1.00  0.00    -0.252 OA
BRANCH  84  86
ATOM     86  C   UNL A   1      39.366  34.328  33.210  1.00  0.00     0.127 C 
ATOM     87  C   UNL A   1      39.473  32.824  32.961  1.00  0.00     0.028 C 
ATOM     88  C   UNL A   1      40.768  34.896  33.360  1.00  0.00     0.129 C 
ATOM     89  C   UNL A   1      40.306  32.123  34.023  1.00  0.00     0.101 C 
ATOM     90  N   UNL A   1      41.421  34.315  34.531  1.00  0.00    -0.335 N 
ATOM     91  C   UNL A   1      41.283  32.964  34.846  1.00  0.00     0.223 C 
ATOM     92  O   UNL A   1      41.918  32.433  35.758  1.00  0.00    -0.275 OA
BRANCH  88  93
ATOM     93  C   UNL A   1      41.605  34.704  32.079  1.00  0.00    -0.025 A 
ATOM     94  C   UNL A   1      42.794  35.427  31.845  1.00  0.00     0.006 A 
ATOM     95  C   UNL A   1      41.172  33.817  31.078  1.00  0.00     0.006 A 
ATOM     96  C   UNL A   1      43.512  35.288  30.659  1.00  0.00     0.000 A 
ATOM     97  C   UNL A   1      41.891  33.686  29.883  1.00  0.00     0.000 A 
ATOM     98  C   UNL A   1      43.057  34.422  29.674  1.00  0.00     0.000 A 
ENDBRANCH  88  93
BRANCH  90  99
ATOM     99  C   UNL A   1      42.114  35.207  35.462  1.00  0.00     0.122 C 
BRANCH  99 100
ATOM    100  C   UNL A   1      43.144  36.157  34.846  1.00  0.00     0.043 C 
BRANCH 100 101
ATOM    101  C   UNL A   1      44.499  36.357  35.533  1.00  0.00     0.125 C 
BRANCH 101 102
ATOM    102  N   UNL A   1      45.665  36.733  34.761  1.00  0.00    -0.337 N 
ATOM    103  C   UNL A   1      46.936  36.294  35.048  1.00  0.00     0.107 A 
ATOM    104  C   UNL A   1      45.733  37.372  33.560  1.00  0.00     0.199 A 
ATOM    105  C   UNL A   1      47.719  36.737  34.011  1.00  0.00     0.130 A 
ATOM    106  N   UNL A   1      46.964  37.417  33.097  1.00  0.00    -0.245 NA
ENDBRANCH 101 102
ENDBRANCH 100 101
ENDBRANCH  99 100
ENDBRANCH  90  99
ENDBRANCH  84  86
ENDBRANCH  83  84
ENDBRANCH  82  83
ENDBRANCH  81  82
ENDBRANCH  80  81
ENDBRANCH  79  80
ENDBRANCH   1  79
TORSDOF 28
ENDMDL
MODEL 3
REMARK VINA RESULT:      -6.9      1.797      3.328
REMARK SMILES O=C(OCCOCCOCCOCCOC(=O)[C@@H]1CCC(=O)N(CCCn2ccnc2)[C@H]1c1ccccc1)c1ccc(-c2c3nc(c(-c4c(F)cc(S(=O)(=O)[O-])cc4F)c4ccc([nH]4)c(-c4c(F)cc(S(=O)(=O)[O-])cc4F)c4nc(c(-c5c(F)cc(S(=O)(=O)[O-])cc5F)c5ccc2[nH]5)C=C4)C=C3)cc1
REMARK SMILES IDX 10 1 9 2 8 3 7 4 6 5 5 6 4 7 3 8 2 9 1 10 39 11 40 12 104 13
REMARK SMILES IDX 41 14 103 15 42 16 43 17 44 18 97 19 45 20 102 21 96 22
REMARK SMILES IDX 98 23 46 24 101 25 95 26 94 27 47 29 81 30 60 31 80 32 61 33
REMARK SMILES IDX 64 34 79 35 99 36 62 37 63 38 78 40 100 41 65 42 48 43 49 44
REMARK SMILES IDX 58 45 50 46 51 47 57 48 59 49 52 50 53 51 54 52 55 53 56 54
REMARK SMILES IDX 82 55 83 56 92 57 84 58 85 59 91 60 93 61 86 62 87 63 88 64
REMARK SMILES IDX 89 65 90 66 66 67 67 68 76 69 68 70 69 71 75 72 77 73 70 74
REMARK SMILES IDX 71 75 72 76 73 77 74 78 11 79 12 80 13 81 14 82 15 83 16 84
REMARK SMILES IDX 17 85 18 86 19 87 32 88 20 89 23 90 21 91 22 92 33 93 34 94
REMARK SMILES IDX 38 95 35 96 37 97 36 98 24 99 25 100 26 101 27 102 28 103
REMARK SMILES IDX 31 104 29 105 30 106
REMARK H PARENT 98 28 64 39
REMARK Flexibility Score: inf
ROOT
ATOM      1  C   UNL A   1      32.974  36.497  33.065  1.00  0.00     0.188 C 
ENDROOT
BRANCH   1   2
ATOM      2  O   UNL A   1      33.358  37.404  32.064  1.00  0.00    -0.377 OA
BRANCH   2   3
ATOM      3  C   UNL A   1      32.890  37.130  30.756  1.00  0.00     0.188 C 
BRANCH   3   4
ATOM      4  C   UNL A   1      33.717  36.357  29.703  1.00  0.00     0.188 C 
BRANCH   4   5
ATOM      5  O   UNL A   1      33.722  34.968  29.406  1.00  0.00    -0.376 OA
BRANCH   5   6
ATOM      6  C   UNL A   1      33.093  34.213  28.398  1.00  0.00     0.202 C 
BRANCH   6   7
ATOM      7  C   UNL A   1      33.614  32.878  27.868  1.00  0.00     0.261 C 
BRANCH   7   8
ATOM      8  O   UNL A   1      34.759  32.340  28.512  1.00  0.00    -0.460 OA
BRANCH   8   9
ATOM      9  C   UNL A   1      35.382  31.171  28.245  1.00  0.00     0.338 C 
ATOM     10  O   UNL A   1      34.789  30.334  27.567  1.00  0.00    -0.246 OA
BRANCH   9  11
ATOM     11  C   UNL A   1      36.672  30.777  28.868  1.00  0.00     0.060 A 
ATOM     12  C   UNL A   1      37.755  31.627  29.101  1.00  0.00     0.016 A 
ATOM     13  C   UNL A   1      36.787  29.412  29.199  1.00  0.00     0.016 A 
ATOM     14  C   UNL A   1      38.961  31.116  29.522  1.00  0.00     0.010 A 
ATOM     15  C   UNL A   1      37.994  28.891  29.624  1.00  0.00     0.010 A 
ATOM     16  C   UNL A   1      39.087  29.745  29.693  1.00  0.00    -0.014 A 
BRANCH  16  17
ATOM     17  C   UNL A   1      40.441  29.257  29.840  1.00  0.00     0.031 A 
ATOM     18  C   UNL A   1      40.946  29.208  31.229  1.00  0.00     0.074 A 
ATOM     19  C   UNL A   1      41.137  28.915  28.739  1.00  0.00     0.049 A 
ATOM     20  N   UNL A   1      41.941  29.855  31.741  1.00  0.00    -0.248 NA
ATOM     21  C   UNL A   1      40.150  28.456  32.211  1.00  0.00     0.031 C 
ATOM     22  C   UNL A   1      40.613  28.756  27.378  1.00  0.00     0.029 A 
ATOM     23  N   UNL A   1      42.429  28.514  28.620  1.00  0.00    -0.354 N 
ATOM     24  C   UNL A   1      42.053  29.384  33.047  1.00  0.00     0.074 A 
ATOM     25  C   UNL A   1      40.826  28.692  33.335  1.00  0.00     0.031 C 
ATOM     26  C   UNL A   1      41.497  28.047  26.648  1.00  0.00     0.029 A 
ATOM     27  C   UNL A   1      42.681  27.804  27.453  1.00  0.00     0.049 A 
ATOM     28  H   UNL A   1      43.119  28.706  29.294  1.00  0.00     0.167 HD
ATOM     29  C   UNL A   1      43.266  29.332  33.664  1.00  0.00     0.037 A 
ATOM     30  C   UNL A   1      43.730  26.977  27.224  1.00  0.00     0.037 A 
ATOM     31  C   UNL A   1      44.187  30.283  33.088  1.00  0.00     0.049 A 
ATOM     32  C   UNL A   1      44.797  27.339  28.196  1.00  0.00     0.074 A 
ATOM     33  C   UNL A   1      44.165  31.649  32.874  1.00  0.00     0.029 A 
ATOM     34  N   UNL A   1      45.214  29.804  32.310  1.00  0.00    -0.354 N 
ATOM     35  N   UNL A   1      45.453  28.467  28.174  1.00  0.00    -0.248 NA
ATOM     36  C   UNL A   1      44.836  26.628  29.467  1.00  0.00     0.031 C 
ATOM     37  C   UNL A   1      44.855  31.849  31.644  1.00  0.00     0.029 A 
ATOM     38  C   UNL A   1      45.304  30.604  31.202  1.00  0.00     0.049 A 
ATOM     39  H   UNL A   1      45.783  29.026  32.514  1.00  0.00     0.167 HD
ATOM     40  C   UNL A   1      45.613  28.814  29.508  1.00  0.00     0.074 A 
ATOM     41  C   UNL A   1      45.315  27.594  30.253  1.00  0.00     0.031 C 
ATOM     42  C   UNL A   1      45.692  30.122  29.894  1.00  0.00     0.037 A 
BRANCH  29  43
ATOM     43  C   UNL A   1      43.730  28.122  34.455  1.00  0.00     0.058 A 
ATOM     44  C   UNL A   1      44.320  28.322  35.720  1.00  0.00     0.135 A 
ATOM     45  C   UNL A   1      43.923  26.836  33.896  1.00  0.00     0.135 A 
ATOM     46  F   UNL A   1      44.184  29.495  36.360  1.00  0.00    -0.206 F 
ATOM     47  C   UNL A   1      45.150  27.372  36.316  1.00  0.00     0.059 A 
ATOM     48  C   UNL A   1      44.702  25.857  34.498  1.00  0.00     0.059 A 
ATOM     49  F   UNL A   1      43.451  26.483  32.697  1.00  0.00    -0.206 F 
ATOM     50  C   UNL A   1      45.360  26.154  35.677  1.00  0.00     0.060 A 
BRANCH  50  51
ATOM     51  S   UNL A   1      46.554  24.989  36.348  1.00  0.00     0.124 S 
ATOM     52  O   UNL A   1      47.748  25.340  35.590  1.00  0.00    -0.237 OA
ATOM     53  O   UNL A   1      46.561  25.346  37.763  1.00  0.00    -0.237 OA
ATOM     54  O   UNL A   1      45.963  23.690  36.038  1.00  0.00    -0.744 OA
ENDBRANCH  50  51
ENDBRANCH  29  43
BRANCH  30  55
ATOM     55  C   UNL A   1      43.705  25.693  26.474  1.00  0.00     0.058 A 
ATOM     56  C   UNL A   1      44.576  25.468  25.395  1.00  0.00     0.135 A 
ATOM     57  C   UNL A   1      43.002  24.561  26.944  1.00  0.00     0.135 A 
ATOM     58  F   UNL A   1      45.306  26.477  24.897  1.00  0.00    -0.206 F 
ATOM     59  C   UNL A   1      44.772  24.195  24.847  1.00  0.00     0.059 A 
ATOM     60  C   UNL A   1      43.162  23.290  26.398  1.00  0.00     0.059 A 
ATOM     61  F   UNL A   1      42.201  24.628  28.016  1.00  0.00    -0.206 F 
ATOM     62  C   UNL A   1      44.071  23.108  25.366  1.00  0.00     0.060 A 
BRANCH  62  63
ATOM     63  S   UNL A   1      44.438  21.439  24.778  1.00  0.00     0.124 S 
ATOM     64  O   UNL A   1      45.676  21.136  25.487  1.00  0.00    -0.237 OA
ATOM     65  O   UNL A   1      43.258  20.696  25.206  1.00  0.00    -0.237 OA
ATOM     66  O   UNL A   1      44.572  21.609  23.334  1.00  0.00    -0.744 OA
ENDBRANCH  62  63
ENDBRANCH  30  55
BRANCH  42  67
ATOM     67  C   UNL A   1      45.967  31.161  28.840  1.00  0.00     0.058 A 
ATOM     68  C   UNL A   1      44.975  31.828  28.100  1.00  0.00     0.135 A 
ATOM     69  C   UNL A   1      47.292  31.589  28.666  1.00  0.00     0.135 A 
ATOM     70  F   UNL A   1      43.674  31.564  28.293  1.00  0.00    -0.206 F 
ATOM     71  C   UNL A   1      45.293  32.832  27.185  1.00  0.00     0.059 A 
ATOM     72  C   UNL A   1      47.628  32.612  27.784  1.00  0.00     0.059 A 
ATOM     73  F   UNL A   1      48.278  31.041  29.395  1.00  0.00    -0.206 F 
ATOM     74  C   UNL A   1      46.624  33.216  27.031  1.00  0.00     0.060 A 
BRANCH  74  75
ATOM     75  S   UNL A   1      47.027  34.559  25.894  1.00  0.00     0.124 S 
ATOM     76  O   UNL A   1      45.873  34.562  25.001  1.00  0.00    -0.237 OA
ATOM     77  O   UNL A   1      47.142  35.708  26.787  1.00  0.00    -0.237 OA
ATOM     78  O   UNL A   1      48.285  34.128  25.287  1.00  0.00    -0.744 OA
ENDBRANCH  74  75
ENDBRANCH  42  67
ENDBRANCH  16  17
ENDBRANCH   9  11
ENDBRANCH   8   9
ENDBRANCH   7   8
ENDBRANCH   6   7
ENDBRANCH   5   6
ENDBRANCH   4   5
ENDBRANCH   3   4
ENDBRANCH   2   3
ENDBRANCH   1   2
BRANCH   1  79
ATOM     79  C   UNL A   1      34.193  35.859  33.747  1.00  0.00     0.188 C 
BRANCH  79  80
ATOM     80  O   UNL A   1      35.237  35.495  32.853  1.00  0.00    -0.376 OA
BRANCH  80  81
ATOM     81  C   UNL A   1      35.525  34.107  32.698  1.00  0.00     0.202 C 
BRANCH  81  82
ATOM     82  C   UNL A   1      36.924  33.624  33.125  1.00  0.00     0.261 C 
BRANCH  82  83
ATOM     83  O   UNL A   1      37.273  34.100  34.444  1.00  0.00    -0.463 OA
BRANCH  83  84
ATOM     84  C   UNL A   1      38.520  34.630  34.556  1.00  0.00     0.311 C 
ATOM     85  O   UNL A   1      38.954  35.116  35.574  1.00  0.00    -0.252 OA
BRANCH  84  86
ATOM     86  C   UNL A   1      39.338  34.351  33.284  1.00  0.00     0.127 C 
ATOM     87  C   UNL A   1      39.434  32.844  33.056  1.00  0.00     0.028 C 
ATOM     88  C   UNL A   1      40.746  34.922  33.357  1.00  0.00     0.129 C 
ATOM     89  C   UNL A   1      40.317  32.161  34.090  1.00  0.00     0.101 C 
ATOM     90  N   UNL A   1      41.454  34.361  34.506  1.00  0.00    -0.335 N 
ATOM     91  C   UNL A   1      41.331  33.016  34.850  1.00  0.00     0.223 C 
ATOM     92  O   UNL A   1      42.010  32.500  35.740  1.00  0.00    -0.275 OA
BRANCH  88  93
ATOM     93  C   UNL A   1      41.521  34.707  32.041  1.00  0.00    -0.025 A 
ATOM     94  C   UNL A   1      42.867  35.101  31.892  1.00  0.00     0.006 A 
ATOM     95  C   UNL A   1      40.878  34.142  30.926  1.00  0.00     0.006 A 
ATOM     96  C   UNL A   1      43.541  34.954  30.680  1.00  0.00     0.000 A 
ATOM     97  C   UNL A   1      41.554  34.004  29.707  1.00  0.00     0.000 A 
ATOM     98  C   UNL A   1      42.882  34.412  29.585  1.00  0.00     0.000 A 
ENDBRANCH  88  93
BRANCH  90  99
ATOM     99  C   UNL A   1      42.190  35.268  35.387  1.00  0.00     0.122 C 
BRANCH  99 100
ATOM    100  C   UNL A   1      41.341  36.183  36.275  1.00  0.00     0.043 C 
BRANCH 100 101
ATOM    101  C   UNL A   1      41.657  36.295  37.770  1.00  0.00     0.125 C 
BRANCH 101 102
ATOM    102  N   UNL A   1      40.680  35.892  38.760  1.00  0.00    -0.337 N 
ATOM    103  C   UNL A   1      40.523  36.526  39.969  1.00  0.00     0.107 A 
ATOM    104  C   UNL A   1      39.646  35.013  38.640  1.00  0.00     0.199 A 
ATOM    105  C   UNL A   1      39.412  35.954  40.540  1.00  0.00     0.130 A 
ATOM    106  N   UNL A   1      38.882  35.007  39.711  1.00  0.00    -0.245 NA
ENDBRANCH 101 102
ENDBRANCH 100 101
ENDBRANCH  99 100
ENDBRANCH  90  99
ENDBRANCH  84  86
ENDBRANCH  83  84
ENDBRANCH  82  83
ENDBRANCH  81  82
ENDBRANCH  80  81
ENDBRANCH  79  80
ENDBRANCH   1  79
TORSDOF 28
ENDMDL
