MODEL 1
REMARK VINA RESULT:      -8.0      0.000      0.000
REMARK SMILES CC(C)[NH2+][C@@]1(C(=O)OCCOCCOCCOCCOC(=O)c2ccc(-c3c4nc(c(-c5c(F)cc(S(=O)(=O)[O-])cc5F)c5ccc([nH]5)c(-c5c(F)cc(S(=O)(=O)[O-])cc5F)c5nc(c(-c6c(F)cc(S(=O)(=O)[O-])cc6F)c6ccc3[nH]6)C=C5)C=C4)cc2)CCC[C@@H]([NH+]2CCS(=O)CC2)C1
REMARK SMILES IDX 15 1 14 2 13 3 12 4 11 5 10 6 9 7 8 8 6 9 7 10 5 11 89 12
REMARK SMILES IDX 100 13 90 14 92 15 91 16 4 17 2 20 1 21 3 22 93 23 94 24
REMARK SMILES IDX 99 25 95 27 98 28 96 29 97 30 16 31 17 32 18 33 19 34 20 35
REMARK SMILES IDX 21 36 22 37 23 38 24 39 88 40 25 41 87 42 26 43 27 44 28 45
REMARK SMILES IDX 81 46 29 47 86 48 80 49 82 50 30 51 85 52 79 53 78 54 31 56
REMARK SMILES IDX 65 57 44 58 64 59 45 60 48 61 63 62 83 63 46 64 47 65 62 67
REMARK SMILES IDX 84 68 49 69 32 70 33 71 42 72 34 73 35 74 41 75 43 76 36 77
REMARK SMILES IDX 37 78 38 79 39 80 40 81 66 82 67 83 76 84 68 85 69 86 75 87
REMARK SMILES IDX 77 88 70 89 71 90 72 91 73 92 74 93 50 94 51 95 60 96 52 97
REMARK SMILES IDX 53 98 59 99 61 100 54 101 55 102 56 103 57 104 58 105
REMARK H PARENT 4 18 4 19 93 26 82 55 48 66
REMARK Flexibility Score: inf
ROOT
ATOM      1  C   UNL A   1      38.350  31.626  36.474  1.00  0.00     0.188 C 
ENDROOT
BRANCH   1   2
ATOM      2  O   UNL A   1      39.731  31.283  36.395  1.00  0.00    -0.377 OA
BRANCH   2   3
ATOM      3  C   UNL A   1      40.115  30.298  35.460  1.00  0.00     0.188 C 
BRANCH   3   4
ATOM      4  C   UNL A   1      41.284  29.394  35.863  1.00  0.00     0.188 C 
BRANCH   4   5
ATOM      5  O   UNL A   1      41.131  27.992  35.980  1.00  0.00    -0.376 OA
BRANCH   5   6
ATOM      6  C   UNL A   1      42.145  27.173  36.545  1.00  0.00     0.202 C 
BRANCH   6   7
ATOM      7  C   UNL A   1      42.587  25.852  35.893  1.00  0.00     0.261 C 
BRANCH   7   8
ATOM      8  O   UNL A   1      43.933  25.796  35.370  1.00  0.00    -0.459 OA
BRANCH   8   9
ATOM      9  C   UNL A   1      44.556  24.608  35.534  1.00  0.00     0.368 C 
ATOM     10  O   UNL A   1      44.483  23.954  36.577  1.00  0.00    -0.245 OA
BRANCH   9  11
ATOM     11  C   UNL A   1      45.414  24.104  34.305  1.00  0.00     0.200 C 
ATOM     12  C   UNL A   1      44.662  22.846  33.820  1.00  0.00     0.081 C 
ATOM     13  C   UNL A   1      46.895  23.721  34.460  1.00  0.00     0.146 C 
ATOM     14  C   UNL A   1      44.920  21.651  34.756  1.00  0.00     0.013 C 
ATOM     15  C   UNL A   1      47.295  22.483  35.256  1.00  0.00     0.191 C 
ATOM     16  C   UNL A   1      46.407  21.292  34.842  1.00  0.00     0.065 C 
BRANCH  11  17
ATOM     17  N   UNL A   1      45.303  25.253  33.337  1.00  0.00    -0.330 N 
ATOM     18  H   UNL A   1      44.407  25.698  33.537  1.00  0.00     0.347 HD
ATOM     19  H   UNL A   1      46.180  25.742  33.516  1.00  0.00     0.347 HD
BRANCH  17  20
ATOM     20  C   UNL A   1      45.357  25.103  31.889  1.00  0.00     0.176 C 
ATOM     21  C   UNL A   1      44.190  25.936  31.338  1.00  0.00     0.075 C 
ATOM     22  C   UNL A   1      46.623  25.648  31.211  1.00  0.00     0.075 C 
ENDBRANCH  17  20
ENDBRANCH  11  17
BRANCH  15  23
ATOM     23  N   UNL A   1      48.749  22.170  35.163  1.00  0.00    -0.331 N 
ATOM     24  C   UNL A   1      49.546  22.621  34.017  1.00  0.00     0.276 C 
ATOM     25  C   UNL A   1      49.534  22.242  36.406  1.00  0.00     0.276 C 
ATOM     26  H   UNL A   1      48.573  21.189  34.945  1.00  0.00     0.348 HD
ATOM     27  C   UNL A   1      50.115  24.036  34.073  1.00  0.00     0.166 C 
ATOM     28  C   UNL A   1      50.168  23.585  36.775  1.00  0.00     0.166 C 
ATOM     29  S   UNL A   1      51.204  24.319  35.486  1.00  0.00     0.032 S 
ATOM     30  O   UNL A   1      52.438  23.487  35.317  1.00  0.00    -0.259 OA
ENDBRANCH  15  23
ENDBRANCH   9  11
ENDBRANCH   8   9
ENDBRANCH   7   8
ENDBRANCH   6   7
ENDBRANCH   5   6
ENDBRANCH   4   5
ENDBRANCH   3   4
ENDBRANCH   2   3
ENDBRANCH   1   2
BRANCH   1  31
ATOM     31  C   UNL A   1      37.597  31.923  35.166  1.00  0.00     0.188 C 
BRANCH  31  32
ATOM     32  O   UNL A   1      36.533  32.858  35.322  1.00  0.00    -0.376 OA
BRANCH  32  33
ATOM     33  C   UNL A   1      36.109  33.587  34.177  1.00  0.00     0.202 C 
BRANCH  33  34
ATOM     34  C   UNL A   1      35.364  32.800  33.083  1.00  0.00     0.261 C 
BRANCH  34  35
ATOM     35  O   UNL A   1      36.089  31.725  32.461  1.00  0.00    -0.460 OA
BRANCH  35  36
ATOM     36  C   UNL A   1      35.842  31.495  31.152  1.00  0.00     0.338 C 
ATOM     37  O   UNL A   1      34.977  32.014  30.475  1.00  0.00    -0.246 OA
BRANCH  36  38
ATOM     38  C   UNL A   1      36.932  30.664  30.601  1.00  0.00     0.060 A 
ATOM     39  C   UNL A   1      37.777  30.010  31.505  1.00  0.00     0.016 A 
ATOM     40  C   UNL A   1      37.168  30.588  29.225  1.00  0.00     0.016 A 
ATOM     41  C   UNL A   1      38.912  29.350  31.043  1.00  0.00     0.010 A 
ATOM     42  C   UNL A   1      38.318  29.938  28.763  1.00  0.00     0.010 A 
ATOM     43  C   UNL A   1      39.226  29.374  29.679  1.00  0.00    -0.014 A 
BRANCH  43  44
ATOM     44  C   UNL A   1      40.618  29.048  29.276  1.00  0.00     0.031 A 
ATOM     45  C   UNL A   1      41.666  30.124  29.406  1.00  0.00     0.074 A 
ATOM     46  C   UNL A   1      40.968  27.806  28.903  1.00  0.00     0.049 A 
ATOM     47  N   UNL A   1      42.953  30.063  29.187  1.00  0.00    -0.248 NA
ATOM     48  C   UNL A   1      41.193  31.447  29.847  1.00  0.00     0.031 C 
ATOM     49  C   UNL A   1      40.054  26.673  28.775  1.00  0.00     0.029 A 
ATOM     50  N   UNL A   1      42.195  27.291  28.568  1.00  0.00    -0.354 N 
ATOM     51  C   UNL A   1      43.444  31.335  29.467  1.00  0.00     0.074 A 
ATOM     52  C   UNL A   1      42.310  32.157  29.822  1.00  0.00     0.031 C 
ATOM     53  C   UNL A   1      40.752  25.595  28.375  1.00  0.00     0.029 A 
ATOM     54  C   UNL A   1      42.156  25.967  28.203  1.00  0.00     0.049 A 
ATOM     55  H   UNL A   1      43.025  27.820  28.587  1.00  0.00     0.167 HD
ATOM     56  C   UNL A   1      44.725  31.776  29.448  1.00  0.00     0.037 A 
ATOM     57  C   UNL A   1      43.139  25.154  27.767  1.00  0.00     0.037 A 
ATOM     58  C   UNL A   1      45.850  30.957  29.078  1.00  0.00     0.049 A 
ATOM     59  C   UNL A   1      44.552  25.673  27.699  1.00  0.00     0.074 A 
ATOM     60  C   UNL A   1      47.187  31.305  29.020  1.00  0.00     0.029 A 
ATOM     61  N   UNL A   1      45.765  29.627  28.690  1.00  0.00    -0.354 N 
ATOM     62  N   UNL A   1      45.006  26.871  27.988  1.00  0.00    -0.248 NA
ATOM     63  C   UNL A   1      45.588  24.727  27.267  1.00  0.00     0.031 C 
ATOM     64  C   UNL A   1      47.905  30.201  28.546  1.00  0.00     0.029 A 
ATOM     65  C   UNL A   1      47.024  29.145  28.372  1.00  0.00     0.049 A 
ATOM     66  H   UNL A   1      44.934  29.103  28.648  1.00  0.00     0.167 HD
ATOM     67  C   UNL A   1      46.384  26.816  27.795  1.00  0.00     0.074 A 
ATOM     68  C   UNL A   1      46.687  25.461  27.379  1.00  0.00     0.031 C 
ATOM     69  C   UNL A   1      47.312  27.793  27.952  1.00  0.00     0.037 A 
BRANCH  56  70
ATOM     70  C   UNL A   1      44.958  33.221  29.805  1.00  0.00     0.058 A 
ATOM     71  C   UNL A   1      45.209  33.628  31.126  1.00  0.00     0.135 A 
ATOM     72  C   UNL A   1      44.905  34.215  28.815  1.00  0.00     0.135 A 
ATOM     73  F   UNL A   1      45.251  32.723  32.117  1.00  0.00    -0.206 F 
ATOM     74  C   UNL A   1      45.350  34.972  31.460  1.00  0.00     0.059 A 
ATOM     75  C   UNL A   1      45.076  35.563  29.121  1.00  0.00     0.059 A 
ATOM     76  F   UNL A   1      44.669  33.885  27.536  1.00  0.00    -0.206 F 
ATOM     77  C   UNL A   1      45.274  35.933  30.450  1.00  0.00     0.060 A 
BRANCH  77  78
ATOM     78  S   UNL A   1      45.421  37.675  30.902  1.00  0.00     0.124 S 
ATOM     79  O   UNL A   1      44.187  37.884  31.654  1.00  0.00    -0.237 OA
ATOM     80  O   UNL A   1      46.651  37.691  31.687  1.00  0.00    -0.237 OA
ATOM     81  O   UNL A   1      45.493  38.356  29.614  1.00  0.00    -0.744 OA
ENDBRANCH  77  78
ENDBRANCH  56  70
BRANCH  57  82
ATOM     82  C   UNL A   1      42.807  23.763  27.355  1.00  0.00     0.058 A 
ATOM     83  C   UNL A   1      42.642  23.412  26.009  1.00  0.00     0.135 A 
ATOM     84  C   UNL A   1      42.685  22.745  28.315  1.00  0.00     0.135 A 
ATOM     85  F   UNL A   1      42.736  24.351  25.054  1.00  0.00    -0.206 F 
ATOM     86  C   UNL A   1      42.372  22.102  25.624  1.00  0.00     0.059 A 
ATOM     87  C   UNL A   1      42.441  21.424  27.955  1.00  0.00     0.059 A 
ATOM     88  F   UNL A   1      42.841  23.027  29.618  1.00  0.00    -0.206 F 
ATOM     89  C   UNL A   1      42.283  21.113  26.606  1.00  0.00     0.060 A 
BRANCH  89  90
ATOM     90  S   UNL A   1      42.021  19.401  26.091  1.00  0.00     0.124 S 
ATOM     91  O   UNL A   1      40.575  19.364  25.912  1.00  0.00    -0.237 OA
ATOM     92  O   UNL A   1      42.820  19.325  24.871  1.00  0.00    -0.237 OA
ATOM     93  O   UNL A   1      42.539  18.629  27.218  1.00  0.00    -0.744 OA
ENDBRANCH  89  90
ENDBRANCH  57  82
BRANCH  69  94
ATOM     94  C   UNL A   1      48.754  27.427  27.712  1.00  0.00     0.058 A 
ATOM     95  C   UNL A   1      49.309  27.396  26.423  1.00  0.00     0.135 A 
ATOM     96  C   UNL A   1      49.600  27.133  28.794  1.00  0.00     0.135 A 
ATOM     97  F   UNL A   1      48.548  27.667  25.351  1.00  0.00    -0.206 F 
ATOM     98  C   UNL A   1      50.640  27.048  26.213  1.00  0.00     0.059 A 
ATOM     99  C   UNL A   1      50.942  26.814  28.610  1.00  0.00     0.059 A 
ATOM    100  F   UNL A   1      49.127  27.163  30.051  1.00  0.00    -0.206 F 
ATOM    101  C   UNL A   1      51.448  26.755  27.313  1.00  0.00     0.060 A 
BRANCH 101 102
ATOM    102  S   UNL A   1      53.173  26.306  27.029  1.00  0.00     0.124 S 
ATOM    103  O   UNL A   1      53.034  25.014  26.363  1.00  0.00    -0.237 OA
ATOM    104  O   UNL A   1      53.649  27.403  26.190  1.00  0.00    -0.237 OA
ATOM    105  O   UNL A   1      53.740  26.261  28.373  1.00  0.00    -0.744 OA
ENDBRANCH 101 102
ENDBRANCH  69  94
ENDBRANCH  43  44
ENDBRANCH  36  38
ENDBRANCH  35  36
ENDBRANCH  34  35
ENDBRANCH  33  34
ENDBRANCH  32  33
ENDBRANCH  31  32
ENDBRANCH   1  31
TORSDOF 26
ENDMDL
MODEL 2
REMARK VINA RESULT:      -7.5      1.583      2.279
REMARK SMILES CC(C)[NH2+][C@@]1(C(=O)OCCOCCOCCOCCOC(=O)c2ccc(-c3c4nc(c(-c5c(F)cc(S(=O)(=O)[O-])cc5F)c5ccc([nH]5)c(-c5c(F)cc(S(=O)(=O)[O-])cc5F)c5nc(c(-c6c(F)cc(S(=O)(=O)[O-])cc6F)c6ccc3[nH]6)C=C5)C=C4)cc2)CCC[C@@H]([NH+]2CCS(=O)CC2)C1
REMARK SMILES IDX 15 1 14 2 13 3 12 4 11 5 10 6 9 7 8 8 6 9 7 10 5 11 89 12
REMARK SMILES IDX 100 13 90 14 92 15 91 16 4 17 2 20 1 21 3 22 93 23 94 24
REMARK SMILES IDX 99 25 95 27 98 28 96 29 97 30 16 31 17 32 18 33 19 34 20 35
REMARK SMILES IDX 21 36 22 37 23 38 24 39 88 40 25 41 87 42 26 43 27 44 28 45
REMARK SMILES IDX 81 46 29 47 86 48 80 49 82 50 30 51 85 52 79 53 78 54 31 56
REMARK SMILES IDX 65 57 44 58 64 59 45 60 48 61 63 62 83 63 46 64 47 65 62 67
REMARK SMILES IDX 84 68 49 69 32 70 33 71 42 72 34 73 35 74 41 75 43 76 36 77
REMARK SMILES IDX 37 78 38 79 39 80 40 81 66 82 67 83 76 84 68 85 69 86 75 87
REMARK SMILES IDX 77 88 70 89 71 90 72 91 73 92 74 93 50 94 51 95 60 96 52 97
REMARK SMILES IDX 53 98 59 99 61 100 54 101 55 102 56 103 57 104 58 105
REMARK H PARENT 4 18 4 19 93 26 82 55 48 66
REMARK Flexibility Score: inf
ROOT
ATOM      1  C   UNL A   1      38.177  31.749  36.207  1.00  0.00     0.188 C 
ENDROOT
BRANCH   1   2
ATOM      2  O   UNL A   1      39.541  31.382  36.389  1.00  0.00    -0.377 OA
BRANCH   2   3
ATOM      3  C   UNL A   1      40.078  30.388  35.544  1.00  0.00     0.188 C 
BRANCH   3   4
ATOM      4  C   UNL A   1      41.530  29.978  35.809  1.00  0.00     0.188 C 
BRANCH   4   5
ATOM      5  O   UNL A   1      41.847  28.809  36.543  1.00  0.00    -0.376 OA
BRANCH   5   6
ATOM      6  C   UNL A   1      43.107  28.165  36.415  1.00  0.00     0.202 C 
BRANCH   6   7
ATOM      7  C   UNL A   1      43.231  26.644  36.220  1.00  0.00     0.261 C 
BRANCH   7   8
ATOM      8  O   UNL A   1      44.234  26.181  35.289  1.00  0.00    -0.459 OA
BRANCH   8   9
ATOM      9  C   UNL A   1      44.993  25.157  35.735  1.00  0.00     0.368 C 
ATOM     10  O   UNL A   1      45.099  24.876  36.931  1.00  0.00    -0.245 OA
BRANCH   9  11
ATOM     11  C   UNL A   1      45.768  24.337  34.626  1.00  0.00     0.200 C 
ATOM     12  C   UNL A   1      44.645  23.633  33.835  1.00  0.00     0.081 C 
ATOM     13  C   UNL A   1      46.809  23.268  34.996  1.00  0.00     0.146 C 
ATOM     14  C   UNL A   1      44.081  22.434  34.622  1.00  0.00     0.013 C 
ATOM     15  C   UNL A   1      46.378  21.967  35.666  1.00  0.00     0.191 C 
ATOM     16  C   UNL A   1      45.154  21.385  34.928  1.00  0.00     0.065 C 
BRANCH  11  17
ATOM     17  N   UNL A   1      46.442  25.423  33.830  1.00  0.00    -0.330 N 
ATOM     18  H   UNL A   1      46.148  25.282  32.863  1.00  0.00     0.347 HD
ATOM     19  H   UNL A   1      46.152  26.253  34.348  1.00  0.00     0.347 HD
BRANCH  17  20
ATOM     20  C   UNL A   1      47.886  25.616  33.781  1.00  0.00     0.176 C 
ATOM     21  C   UNL A   1      48.206  26.022  32.334  1.00  0.00     0.075 C 
ATOM     22  C   UNL A   1      48.435  26.744  34.667  1.00  0.00     0.075 C 
ENDBRANCH  17  20
ENDBRANCH  11  17
BRANCH  15  23
ATOM     23  N   UNL A   1      47.487  20.980  35.799  1.00  0.00    -0.331 N 
ATOM     24  C   UNL A   1      47.636  19.879  34.842  1.00  0.00     0.276 C 
ATOM     25  C   UNL A   1      48.801  21.497  36.210  1.00  0.00     0.276 C 
ATOM     26  H   UNL A   1      47.049  20.526  36.602  1.00  0.00     0.348 HD
ATOM     27  C   UNL A   1      48.394  20.172  33.551  1.00  0.00     0.166 C 
ATOM     28  C   UNL A   1      49.764  21.956  35.114  1.00  0.00     0.166 C 
ATOM     29  S   UNL A   1      50.090  20.732  33.823  1.00  0.00     0.032 S 
ATOM     30  O   UNL A   1      50.882  19.603  34.407  1.00  0.00    -0.259 OA
ENDBRANCH  15  23
ENDBRANCH   9  11
ENDBRANCH   8   9
ENDBRANCH   7   8
ENDBRANCH   6   7
ENDBRANCH   5   6
ENDBRANCH   4   5
ENDBRANCH   3   4
ENDBRANCH   2   3
ENDBRANCH   1   2
BRANCH   1  31
ATOM     31  C   UNL A   1      37.677  32.010  34.775  1.00  0.00     0.188 C 
BRANCH  31  32
ATOM     32  O   UNL A   1      37.239  33.349  34.561  1.00  0.00    -0.376 OA
BRANCH  32  33
ATOM     33  C   UNL A   1      37.536  33.958  33.310  1.00  0.00     0.202 C 
BRANCH  33  34
ATOM     34  C   UNL A   1      36.885  33.339  32.060  1.00  0.00     0.261 C 
BRANCH  34  35
ATOM     35  O   UNL A   1      37.456  32.109  31.583  1.00  0.00    -0.460 OA
BRANCH  35  36
ATOM     36  C   UNL A   1      37.155  31.741  30.318  1.00  0.00     0.338 C 
ATOM     37  O   UNL A   1      36.306  32.235  29.601  1.00  0.00    -0.246 OA
BRANCH  36  38
ATOM     38  C   UNL A   1      38.168  30.775  29.847  1.00  0.00     0.060 A 
ATOM     39  C   UNL A   1      39.102  30.302  30.777  1.00  0.00     0.016 A 
ATOM     40  C   UNL A   1      38.248  30.396  28.504  1.00  0.00     0.016 A 
ATOM     41  C   UNL A   1      40.172  29.521  30.352  1.00  0.00     0.010 A 
ATOM     42  C   UNL A   1      39.334  29.624  28.075  1.00  0.00     0.010 A 
ATOM     43  C   UNL A   1      40.333  29.240  28.989  1.00  0.00    -0.014 A 
BRANCH  43  44
ATOM     44  C   UNL A   1      41.668  28.788  28.521  1.00  0.00     0.031 A 
ATOM     45  C   UNL A   1      42.785  29.798  28.479  1.00  0.00     0.074 A 
ATOM     46  C   UNL A   1      41.913  27.498  28.238  1.00  0.00     0.049 A 
ATOM     47  N   UNL A   1      44.047  29.634  28.178  1.00  0.00    -0.248 NA
ATOM     48  C   UNL A   1      42.428  31.183  28.831  1.00  0.00     0.031 C 
ATOM     49  C   UNL A   1      40.924  26.422  28.277  1.00  0.00     0.029 A 
ATOM     50  N   UNL A   1      43.078  26.875  27.866  1.00  0.00    -0.354 N 
ATOM     51  C   UNL A   1      44.634  30.889  28.307  1.00  0.00     0.074 A 
ATOM     52  C   UNL A   1      43.581  31.812  28.665  1.00  0.00     0.031 C 
ATOM     53  C   UNL A   1      41.524  25.270  27.928  1.00  0.00     0.029 A 
ATOM     54  C   UNL A   1      42.931  25.530  27.625  1.00  0.00     0.049 A 
ATOM     55  H   UNL A   1      43.936  27.347  27.779  1.00  0.00     0.167 HD
ATOM     56  C   UNL A   1      45.933  31.239  28.158  1.00  0.00     0.037 A 
ATOM     57  C   UNL A   1      43.827  24.620  27.196  1.00  0.00     0.037 A 
ATOM     58  C   UNL A   1      46.975  30.319  27.785  1.00  0.00     0.049 A 
ATOM     59  C   UNL A   1      45.260  25.035  26.983  1.00  0.00     0.074 A 
ATOM     60  C   UNL A   1      48.323  30.570  27.602  1.00  0.00     0.029 A 
ATOM     61  N   UNL A   1      46.781  28.969  27.526  1.00  0.00    -0.354 N 
ATOM     62  N   UNL A   1      45.806  26.220  27.130  1.00  0.00    -0.248 NA
ATOM     63  C   UNL A   1      46.201  23.988  26.566  1.00  0.00     0.031 C 
ATOM     64  C   UNL A   1      48.935  29.384  27.181  1.00  0.00     0.029 A 
ATOM     65  C   UNL A   1      47.981  28.378  27.165  1.00  0.00     0.049 A 
ATOM     66  H   UNL A   1      45.919  28.500  27.589  1.00  0.00     0.167 HD
ATOM     67  C   UNL A   1      47.159  26.056  26.846  1.00  0.00     0.074 A 
ATOM     68  C   UNL A   1      47.348  24.654  26.534  1.00  0.00     0.031 C 
ATOM     69  C   UNL A   1      48.154  26.980  26.850  1.00  0.00     0.037 A 
BRANCH  56  70
ATOM     70  C   UNL A   1      46.280  32.691  28.366  1.00  0.00     0.058 A 
ATOM     71  C   UNL A   1      46.263  33.616  27.308  1.00  0.00     0.135 A 
ATOM     72  C   UNL A   1      46.656  33.158  29.635  1.00  0.00     0.135 A 
ATOM     73  F   UNL A   1      45.929  33.222  26.068  1.00  0.00    -0.206 F 
ATOM     74  C   UNL A   1      46.655  34.940  27.491  1.00  0.00     0.059 A 
ATOM     75  C   UNL A   1      47.021  34.485  29.848  1.00  0.00     0.059 A 
ATOM     76  F   UNL A   1      46.690  32.320  30.682  1.00  0.00    -0.206 F 
ATOM     77  C   UNL A   1      47.040  35.362  28.765  1.00  0.00     0.060 A 
BRANCH  77  78
ATOM     78  S   UNL A   1      47.583  37.070  28.981  1.00  0.00     0.124 S 
ATOM     79  O   UNL A   1      46.434  37.808  28.463  1.00  0.00    -0.237 OA
ATOM     80  O   UNL A   1      47.790  37.152  30.423  1.00  0.00    -0.237 OA
ATOM     81  O   UNL A   1      48.794  37.148  28.170  1.00  0.00    -0.744 OA
ENDBRANCH  77  78
ENDBRANCH  56  70
BRANCH  57  82
ATOM     82  C   UNL A   1      43.381  23.224  26.936  1.00  0.00     0.058 A 
ATOM     83  C   UNL A   1      43.264  22.718  25.634  1.00  0.00     0.135 A 
ATOM     84  C   UNL A   1      43.098  22.355  28.002  1.00  0.00     0.135 A 
ATOM     85  F   UNL A   1      43.510  23.512  24.580  1.00  0.00    -0.206 F 
ATOM     86  C   UNL A   1      42.886  21.400  25.395  1.00  0.00     0.059 A 
ATOM     87  C   UNL A   1      42.744  21.027  27.790  1.00  0.00     0.059 A 
ATOM     88  F   UNL A   1      43.203  22.788  29.268  1.00  0.00    -0.206 F 
ATOM     89  C   UNL A   1      42.637  20.559  26.482  1.00  0.00     0.060 A 
BRANCH  89  90
ATOM     90  S   UNL A   1      42.235  18.827  26.165  1.00  0.00     0.124 S 
ATOM     91  O   UNL A   1      42.483  18.222  27.468  1.00  0.00    -0.237 OA
ATOM     92  O   UNL A   1      40.837  18.910  25.753  1.00  0.00    -0.237 OA
ATOM     93  O   UNL A   1      43.170  18.453  25.106  1.00  0.00    -0.744 OA
ENDBRANCH  89  90
ENDBRANCH  57  82
BRANCH  69  94
ATOM     94  C   UNL A   1      49.549  26.498  26.542  1.00  0.00     0.058 A 
ATOM     95  C   UNL A   1      50.378  25.940  27.528  1.00  0.00     0.135 A 
ATOM     96  C   UNL A   1      50.049  26.570  25.231  1.00  0.00     0.135 A 
ATOM     97  F   UNL A   1      49.952  25.847  28.797  1.00  0.00    -0.206 F 
ATOM     98  C   UNL A   1      51.667  25.507  27.233  1.00  0.00     0.059 A 
ATOM     99  C   UNL A   1      51.324  26.113  24.908  1.00  0.00     0.059 A 
ATOM    100  F   UNL A   1      49.294  27.080  24.245  1.00  0.00    -0.206 F 
ATOM    101  C   UNL A   1      52.133  25.600  25.920  1.00  0.00     0.060 A 
BRANCH 101 102
ATOM    102  S   UNL A   1      53.806  25.035  25.549  1.00  0.00     0.124 S 
ATOM    103  O   UNL A   1      54.526  25.437  26.753  1.00  0.00    -0.237 OA
ATOM    104  O   UNL A   1      53.619  23.597  25.373  1.00  0.00    -0.237 OA
ATOM    105  O   UNL A   1      54.153  25.769  24.336  1.00  0.00    -0.744 OA
ENDBRANCH 101 102
ENDBRANCH  69  94
ENDBRANCH  43  44
ENDBRANCH  36  38
ENDBRANCH  35  36
ENDBRANCH  34  35
ENDBRANCH  33  34
ENDBRANCH  32  33
ENDBRANCH  31  32
ENDBRANCH   1  31
TORSDOF 26
ENDMDL
MODEL 3
REMARK VINA RESULT:      -6.8      3.399     11.373
REMARK SMILES CC(C)[NH2+][C@@]1(C(=O)OCCOCCOCCOCCOC(=O)c2ccc(-c3c4nc(c(-c5c(F)cc(S(=O)(=O)[O-])cc5F)c5ccc([nH]5)c(-c5c(F)cc(S(=O)(=O)[O-])cc5F)c5nc(c(-c6c(F)cc(S(=O)(=O)[O-])cc6F)c6ccc3[nH]6)C=C5)C=C4)cc2)CCC[C@@H]([NH+]2CCS(=O)CC2)C1
REMARK SMILES IDX 15 1 14 2 13 3 12 4 11 5 10 6 9 7 8 8 6 9 7 10 5 11 89 12
REMARK SMILES IDX 100 13 90 14 92 15 91 16 4 17 2 20 1 21 3 22 93 23 94 24
REMARK SMILES IDX 99 25 95 27 98 28 96 29 97 30 16 31 17 32 18 33 19 34 20 35
REMARK SMILES IDX 21 36 22 37 23 38 24 39 88 40 25 41 87 42 26 43 27 44 28 45
REMARK SMILES IDX 81 46 29 47 86 48 80 49 82 50 30 51 85 52 79 53 78 54 31 56
REMARK SMILES IDX 65 57 44 58 64 59 45 60 48 61 63 62 83 63 46 64 47 65 62 67
REMARK SMILES IDX 84 68 49 69 32 70 33 71 42 72 34 73 35 74 41 75 43 76 36 77
REMARK SMILES IDX 37 78 38 79 39 80 40 81 66 82 67 83 76 84 68 85 69 86 75 87
REMARK SMILES IDX 77 88 70 89 71 90 72 91 73 92 74 93 50 94 51 95 60 96 52 97
REMARK SMILES IDX 53 98 59 99 61 100 54 101 55 102 56 103 57 104 58 105
REMARK H PARENT 4 18 4 19 93 26 82 55 48 66
REMARK Flexibility Score: inf
ROOT
ATOM      1  C   UNL A   1      51.278  28.569  23.431  1.00  0.00     0.188 C 
ENDROOT
BRANCH   1   2
ATOM      2  O   UNL A   1      49.985  28.144  23.852  1.00  0.00    -0.377 OA
BRANCH   2   3
ATOM      3  C   UNL A   1      49.793  27.868  25.222  1.00  0.00     0.188 C 
BRANCH   3   4
ATOM      4  C   UNL A   1      48.341  27.799  25.707  1.00  0.00     0.188 C 
BRANCH   4   5
ATOM      5  O   UNL A   1      47.592  26.600  25.635  1.00  0.00    -0.376 OA
BRANCH   5   6
ATOM      6  C   UNL A   1      46.318  26.552  25.007  1.00  0.00     0.202 C 
BRANCH   6   7
ATOM      7  C   UNL A   1      45.033  26.988  25.731  1.00  0.00     0.261 C 
BRANCH   7   8
ATOM      8  O   UNL A   1      44.318  25.973  26.469  1.00  0.00    -0.459 OA
BRANCH   8   9
ATOM      9  C   UNL A   1      44.468  26.035  27.811  1.00  0.00     0.368 C 
ATOM     10  O   UNL A   1      45.530  26.350  28.350  1.00  0.00    -0.245 OA
BRANCH   9  11
ATOM     11  C   UNL A   1      43.192  25.657  28.665  1.00  0.00     0.200 C 
ATOM     12  C   UNL A   1      43.743  25.484  30.097  1.00  0.00     0.081 C 
ATOM     13  C   UNL A   1      42.349  24.411  28.344  1.00  0.00     0.146 C 
ATOM     14  C   UNL A   1      44.493  24.147  30.243  1.00  0.00     0.013 C 
ATOM     15  C   UNL A   1      42.919  23.014  28.564  1.00  0.00     0.191 C 
ATOM     16  C   UNL A   1      43.595  22.942  29.949  1.00  0.00     0.065 C 
BRANCH  11  17
ATOM     17  N   UNL A   1      42.328  26.883  28.522  1.00  0.00    -0.330 N 
ATOM     18  H   UNL A   1      42.867  27.536  27.953  1.00  0.00     0.347 HD
ATOM     19  H   UNL A   1      41.465  26.472  28.168  1.00  0.00     0.347 HD
BRANCH  17  20
ATOM     20  C   UNL A   1      41.827  27.659  29.649  1.00  0.00     0.176 C 
ATOM     21  C   UNL A   1      42.101  29.130  29.299  1.00  0.00     0.075 C 
ATOM     22  C   UNL A   1      40.316  27.559  29.904  1.00  0.00     0.075 C 
ENDBRANCH  17  20
ENDBRANCH  11  17
BRANCH  15  23
ATOM     23  N   UNL A   1      41.914  21.932  28.362  1.00  0.00    -0.331 N 
ATOM     24  C   UNL A   1      40.628  22.208  27.713  1.00  0.00     0.276 C 
ATOM     25  C   UNL A   1      42.421  20.607  27.974  1.00  0.00     0.276 C 
ATOM     26  H   UNL A   1      41.668  21.910  29.352  1.00  0.00     0.348 HD
ATOM     27  C   UNL A   1      40.591  22.176  26.188  1.00  0.00     0.166 C 
ATOM     28  C   UNL A   1      42.575  20.309  26.481  1.00  0.00     0.166 C 
ATOM     29  S   UNL A   1      41.087  20.585  25.490  1.00  0.00     0.032 S 
ATOM     30  O   UNL A   1      40.059  19.558  25.854  1.00  0.00    -0.259 OA
ENDBRANCH  15  23
ENDBRANCH   9  11
ENDBRANCH   8   9
ENDBRANCH   7   8
ENDBRANCH   6   7
ENDBRANCH   5   6
ENDBRANCH   4   5
ENDBRANCH   3   4
ENDBRANCH   2   3
ENDBRANCH   1   2
BRANCH   1  31
ATOM     31  C   UNL A   1      52.196  27.540  22.749  1.00  0.00     0.188 C 
BRANCH  31  32
ATOM     32  O   UNL A   1      52.748  26.584  23.651  1.00  0.00    -0.376 OA
BRANCH  32  33
ATOM     33  C   UNL A   1      53.706  27.035  24.600  1.00  0.00     0.202 C 
BRANCH  33  34
ATOM     34  C   UNL A   1      53.185  27.390  26.005  1.00  0.00     0.261 C 
BRANCH  34  35
ATOM     35  O   UNL A   1      53.228  26.342  26.987  1.00  0.00    -0.460 OA
BRANCH  35  36
ATOM     36  C   UNL A   1      52.266  25.395  26.918  1.00  0.00     0.338 C 
ATOM     37  O   UNL A   1      52.230  24.451  26.153  1.00  0.00    -0.246 OA
BRANCH  36  38
ATOM     38  C   UNL A   1      51.354  25.556  28.069  1.00  0.00     0.060 A 
ATOM     39  C   UNL A   1      50.010  25.204  27.893  1.00  0.00     0.016 A 
ATOM     40  C   UNL A   1      51.791  26.113  29.275  1.00  0.00     0.016 A 
ATOM     41  C   UNL A   1      49.081  25.489  28.888  1.00  0.00     0.010 A 
ATOM     42  C   UNL A   1      50.851  26.413  30.268  1.00  0.00     0.010 A 
ATOM     43  C   UNL A   1      49.484  26.160  30.049  1.00  0.00    -0.014 A 
BRANCH  43  44
ATOM     44  C   UNL A   1      48.441  26.818  30.875  1.00  0.00     0.031 A 
ATOM     45  C   UNL A   1      47.806  28.078  30.347  1.00  0.00     0.074 A 
ATOM     46  C   UNL A   1      47.993  26.262  32.013  1.00  0.00     0.049 A 
ATOM     47  N   UNL A   1      46.830  28.792  30.846  1.00  0.00    -0.248 NA
ATOM     48  C   UNL A   1      48.344  28.600  29.080  1.00  0.00     0.031 C 
ATOM     49  C   UNL A   1      48.502  25.027  32.607  1.00  0.00     0.029 A 
ATOM     50  N   UNL A   1      47.000  26.667  32.870  1.00  0.00    -0.354 N 
ATOM     51  C   UNL A   1      46.636  29.843  29.954  1.00  0.00     0.074 A 
ATOM     52  C   UNL A   1      47.626  29.699  28.911  1.00  0.00     0.031 C 
ATOM     53  C   UNL A   1      47.824  24.781  33.743  1.00  0.00     0.029 A 
ATOM     54  C   UNL A   1      46.848  25.848  33.963  1.00  0.00     0.049 A 
ATOM     55  H   UNL A   1      46.450  27.468  32.717  1.00  0.00     0.167 HD
ATOM     56  C   UNL A   1      45.706  30.827  29.988  1.00  0.00     0.037 A 
ATOM     57  C   UNL A   1      46.026  25.957  35.026  1.00  0.00     0.037 A 
ATOM     58  C   UNL A   1      44.733  30.975  31.038  1.00  0.00     0.049 A 
ATOM     59  C   UNL A   1      45.032  27.089  35.078  1.00  0.00     0.074 A 
ATOM     60  C   UNL A   1      43.750  31.938  31.173  1.00  0.00     0.029 A 
ATOM     61  N   UNL A   1      44.628  30.139  32.141  1.00  0.00    -0.354 N 
ATOM     62  N   UNL A   1      44.844  28.063  34.217  1.00  0.00    -0.248 NA
ATOM     63  C   UNL A   1      44.127  27.127  36.233  1.00  0.00     0.031 C 
ATOM     64  C   UNL A   1      43.085  31.717  32.385  1.00  0.00     0.029 A 
ATOM     65  C   UNL A   1      43.609  30.576  32.973  1.00  0.00     0.049 A 
ATOM     66  H   UNL A   1      45.193  29.351  32.309  1.00  0.00     0.167 HD
ATOM     67  C   UNL A   1      43.783  28.815  34.715  1.00  0.00     0.074 A 
ATOM     68  C   UNL A   1      43.364  28.173  35.945  1.00  0.00     0.031 C 
ATOM     69  C   UNL A   1      43.206  29.930  34.199  1.00  0.00     0.037 A 
BRANCH  56  70
ATOM     70  C   UNL A   1      45.736  31.837  28.870  1.00  0.00     0.058 A 
ATOM     71  C   UNL A   1      45.003  31.654  27.686  1.00  0.00     0.135 A 
ATOM     72  C   UNL A   1      46.527  32.992  28.976  1.00  0.00     0.135 A 
ATOM     73  F   UNL A   1      44.244  30.558  27.521  1.00  0.00    -0.206 F 
ATOM     74  C   UNL A   1      45.091  32.553  26.627  1.00  0.00     0.059 A 
ATOM     75  C   UNL A   1      46.605  33.922  27.942  1.00  0.00     0.059 A 
ATOM     76  F   UNL A   1      47.248  33.220  30.084  1.00  0.00    -0.206 F 
ATOM     77  C   UNL A   1      45.902  33.681  26.763  1.00  0.00     0.060 A 
BRANCH  77  78
ATOM     78  S   UNL A   1      46.039  34.820  25.369  1.00  0.00     0.124 S 
ATOM     79  O   UNL A   1      47.409  34.577  24.928  1.00  0.00    -0.237 OA
ATOM     80  O   UNL A   1      44.991  34.342  24.472  1.00  0.00    -0.237 OA
ATOM     81  O   UNL A   1      45.796  36.127  25.971  1.00  0.00    -0.744 OA
ENDBRANCH  77  78
ENDBRANCH  56  70
BRANCH  57  82
ATOM     82  C   UNL A   1      46.120  24.962  36.127  1.00  0.00     0.058 A 
ATOM     83  C   UNL A   1      46.813  25.239  37.314  1.00  0.00     0.135 A 
ATOM     84  C   UNL A   1      45.479  23.717  36.021  1.00  0.00     0.135 A 
ATOM     85  F   UNL A   1      47.455  26.409  37.459  1.00  0.00    -0.206 F 
ATOM     86  C   UNL A   1      46.866  24.321  38.359  1.00  0.00     0.059 A 
ATOM     87  C   UNL A   1      45.495  22.794  37.061  1.00  0.00     0.059 A 
ATOM     88  F   UNL A   1      44.795  23.406  34.909  1.00  0.00    -0.206 F 
ATOM     89  C   UNL A   1      46.194  23.104  38.226  1.00  0.00     0.060 A 
BRANCH  89  90
ATOM     90  S   UNL A   1      46.193  21.957  39.621  1.00  0.00     0.124 S 
ATOM     91  O   UNL A   1      45.311  22.636  40.562  1.00  0.00    -0.237 OA
ATOM     92  O   UNL A   1      45.664  20.739  39.013  1.00  0.00    -0.237 OA
ATOM     93  O   UNL A   1      47.600  21.894  40.006  1.00  0.00    -0.744 OA
ENDBRANCH  89  90
ENDBRANCH  57  82
BRANCH  69  94
ATOM     94  C   UNL A   1      42.031  30.510  34.943  1.00  0.00     0.058 A 
ATOM     95  C   UNL A   1      40.728  30.012  34.782  1.00  0.00     0.135 A 
ATOM     96  C   UNL A   1      42.219  31.562  35.855  1.00  0.00     0.135 A 
ATOM     97  F   UNL A   1      40.489  29.008  33.923  1.00  0.00    -0.206 F 
ATOM     98  C   UNL A   1      39.649  30.562  35.468  1.00  0.00     0.059 A 
ATOM     99  C   UNL A   1      41.160  32.106  36.575  1.00  0.00     0.059 A 
ATOM    100  F   UNL A   1      43.446  32.068  36.061  1.00  0.00    -0.206 F 
ATOM    101  C   UNL A   1      39.874  31.611  36.361  1.00  0.00     0.060 A 
BRANCH 101 102
ATOM    102  S   UNL A   1      38.468  32.316  37.246  1.00  0.00     0.124 S 
ATOM    103  O   UNL A   1      38.365  33.635  36.630  1.00  0.00    -0.237 OA
ATOM    104  O   UNL A   1      37.394  31.380  36.923  1.00  0.00    -0.237 OA
ATOM    105  O   UNL A   1      38.903  32.307  38.639  1.00  0.00    -0.744 OA
ENDBRANCH 101 102
ENDBRANCH  69  94
ENDBRANCH  43  44
ENDBRANCH  36  38
ENDBRANCH  35  36
ENDBRANCH  34  35
ENDBRANCH  33  34
ENDBRANCH  32  33
ENDBRANCH  31  32
ENDBRANCH   1  31
TORSDOF 26
ENDMDL
