MODEL 1
REMARK VINA RESULT:      -8.3      0.000      0.000
REMARK SMILES O=C(CCCCCN1C(=O)/C(=C2\C(=O)Nc3ccccc32)SC1=S)OCCOCCOCCOCCOC(=O)c1ccc(-c2c3nc(c(-c4c(F)cc(S(=O)(=O)[O-])cc4F)c4ccc([nH]4)c(-c4c(F)cc(S(=O)(=O)[O-])cc4F)c4nc(c(-c5c(F)cc(S(=O)(=O)[O-])cc5F)c5ccc2[nH]5)C=C4)C=C3)cc1
REMARK SMILES IDX 30 1 29 2 28 3 27 4 26 5 25 6 2 7 1 8 3 9 4 10 5 11 6 12
REMARK SMILES IDX 7 13 8 14 9 15 23 16 10 17 11 18 22 19 24 20 12 21 13 22
REMARK SMILES IDX 21 23 14 24 15 25 16 26 20 27 17 29 19 30 18 31 31 32 32 33
REMARK SMILES IDX 33 34 34 35 35 36 36 37 37 38 38 39 39 40 40 41 41 42 105 43
REMARK SMILES IDX 42 44 104 45 43 46 44 47 45 48 98 49 46 50 103 51 97 52
REMARK SMILES IDX 99 53 47 54 102 55 96 56 95 57 48 59 82 60 61 61 81 62 62 63
REMARK SMILES IDX 65 64 80 65 100 66 63 67 64 68 79 70 101 71 66 72 49 73
REMARK SMILES IDX 50 74 59 75 51 76 52 77 58 78 60 79 53 80 54 81 55 82 56 83
REMARK SMILES IDX 57 84 83 85 84 86 93 87 85 88 86 89 92 90 94 91 87 92 88 93
REMARK SMILES IDX 89 94 90 95 91 96 67 97 68 98 77 99 69 100 70 101 76 102
REMARK SMILES IDX 78 103 71 104 72 105 73 106 74 107 75 108
REMARK H PARENT 15 28 99 58 65 69
REMARK Flexibility Score: inf
ROOT
ATOM      1  C   UNL A   1      38.242  31.175  29.135  1.00  0.00     0.188 C 
ENDROOT
BRANCH   1   2
ATOM      2  C   UNL A   1      38.156  29.798  28.488  1.00  0.00     0.188 C 
BRANCH   2   3
ATOM      3  O   UNL A   1      36.842  29.352  28.159  1.00  0.00    -0.376 OA
BRANCH   3   4
ATOM      4  C   UNL A   1      35.894  30.319  27.758  1.00  0.00     0.202 C 
BRANCH   4   5
ATOM      5  C   UNL A   1      34.624  29.670  27.249  1.00  0.00     0.261 C 
BRANCH   5   6
ATOM      6  O   UNL A   1      33.484  30.541  27.084  1.00  0.00    -0.463 OA
BRANCH   6   7
ATOM      7  C   UNL A   1      32.326  30.384  26.421  1.00  0.00     0.305 C 
ATOM      8  O   UNL A   1      31.515  31.314  26.451  1.00  0.00    -0.252 OA
BRANCH   7   9
ATOM      9  C   UNL A   1      31.955  29.137  25.634  1.00  0.00     0.123 C 
BRANCH   9  10
ATOM     10  C   UNL A   1      32.489  28.909  24.232  1.00  0.00     0.012 C 
BRANCH  10  11
ATOM     11  C   UNL A   1      33.651  27.943  24.058  1.00  0.00     0.002 C 
BRANCH  11  12
ATOM     12  C   UNL A   1      33.629  26.631  24.873  1.00  0.00     0.022 C 
BRANCH  12  13
ATOM     13  C   UNL A   1      33.849  25.324  24.086  1.00  0.00     0.127 C 
BRANCH  13  14
ATOM     14  N   UNL A   1      33.227  24.196  24.762  1.00  0.00    -0.293 N 
ATOM     15  C   UNL A   1      34.039  23.360  25.521  1.00  0.00     0.267 C 
ATOM     16  C   UNL A   1      31.929  23.782  24.581  1.00  0.00     0.148 C 
ATOM     17  O   UNL A   1      35.020  23.707  26.150  1.00  0.00    -0.268 OA
ATOM     18  C   UNL A   1      33.474  21.986  25.413  1.00  0.00     0.093 C 
ATOM     19  S   UNL A   1      31.756  22.173  25.262  1.00  0.00    -0.053 SA
ATOM     20  S   UNL A   1      30.681  24.553  23.789  1.00  0.00    -0.052 S 
ATOM     21  C   UNL A   1      34.186  20.881  25.147  1.00  0.00     0.069 C 
ATOM     22  C   UNL A   1      35.692  20.754  25.276  1.00  0.00     0.257 C 
ATOM     23  C   UNL A   1      33.712  19.581  24.625  1.00  0.00     0.012 A 
ATOM     24  O   UNL A   1      36.510  21.604  25.532  1.00  0.00    -0.269 OA
ATOM     25  N   UNL A   1      35.966  19.422  25.001  1.00  0.00    -0.321 N 
ATOM     26  C   UNL A   1      34.828  18.738  24.599  1.00  0.00     0.049 A 
ATOM     27  C   UNL A   1      32.524  19.143  24.063  1.00  0.00     0.011 A 
ATOM     28  H   UNL A   1      36.858  19.014  25.081  1.00  0.00     0.170 HD
ATOM     29  C   UNL A   1      34.780  17.439  24.131  1.00  0.00     0.027 A 
ATOM     30  C   UNL A   1      32.453  17.840  23.558  1.00  0.00     0.001 A 
ATOM     31  C   UNL A   1      33.566  16.988  23.610  1.00  0.00     0.002 A 
ENDBRANCH  13  14
ENDBRANCH  12  13
ENDBRANCH  11  12
ENDBRANCH  10  11
ENDBRANCH   9  10
ENDBRANCH   7   9
ENDBRANCH   6   7
ENDBRANCH   5   6
ENDBRANCH   4   5
ENDBRANCH   3   4
ENDBRANCH   2   3
ENDBRANCH   1   2
BRANCH   1  32
ATOM     32  O   UNL A   1      38.359  31.223  30.549  1.00  0.00    -0.377 OA
BRANCH  32  33
ATOM     33  C   UNL A   1      37.748  30.239  31.365  1.00  0.00     0.188 C 
BRANCH  33  34
ATOM     34  C   UNL A   1      37.145  30.817  32.651  1.00  0.00     0.188 C 
BRANCH  34  35
ATOM     35  O   UNL A   1      37.427  32.182  32.943  1.00  0.00    -0.376 OA
BRANCH  35  36
ATOM     36  C   UNL A   1      36.357  32.996  33.425  1.00  0.00     0.202 C 
BRANCH  36  37
ATOM     37  C   UNL A   1      36.500  33.715  34.787  1.00  0.00     0.261 C 
BRANCH  37  38
ATOM     38  O   UNL A   1      37.776  34.347  35.025  1.00  0.00    -0.460 OA
BRANCH  38  39
ATOM     39  C   UNL A   1      38.501  33.920  36.088  1.00  0.00     0.338 C 
ATOM     40  O   UNL A   1      38.280  34.160  37.264  1.00  0.00    -0.246 OA
BRANCH  39  41
ATOM     41  C   UNL A   1      39.508  32.923  35.639  1.00  0.00     0.060 A 
ATOM     42  C   UNL A   1      40.678  33.324  34.996  1.00  0.00     0.016 A 
ATOM     43  C   UNL A   1      39.286  31.561  35.895  1.00  0.00     0.016 A 
ATOM     44  C   UNL A   1      41.629  32.363  34.623  1.00  0.00     0.010 A 
ATOM     45  C   UNL A   1      40.221  30.598  35.494  1.00  0.00     0.010 A 
ATOM     46  C   UNL A   1      41.415  30.993  34.874  1.00  0.00    -0.014 A 
BRANCH  46  47
ATOM     47  C   UNL A   1      42.527  30.021  34.680  1.00  0.00     0.031 A 
ATOM     48  C   UNL A   1      42.751  29.287  33.390  1.00  0.00     0.074 A 
ATOM     49  C   UNL A   1      43.371  29.824  35.712  1.00  0.00     0.049 A 
ATOM     50  N   UNL A   1      43.749  28.508  33.051  1.00  0.00    -0.248 NA
ATOM     51  C   UNL A   1      41.728  29.442  32.349  1.00  0.00     0.031 C 
ATOM     52  C   UNL A   1      43.247  30.468  37.021  1.00  0.00     0.029 A 
ATOM     53  N   UNL A   1      44.501  29.054  35.821  1.00  0.00    -0.354 N 
ATOM     54  C   UNL A   1      43.502  28.108  31.743  1.00  0.00     0.074 A 
ATOM     55  C   UNL A   1      42.222  28.685  31.374  1.00  0.00     0.031 C 
ATOM     56  C   UNL A   1      44.286  30.102  37.786  1.00  0.00     0.029 A 
ATOM     57  C   UNL A   1      45.130  29.178  37.036  1.00  0.00     0.049 A 
ATOM     58  H   UNL A   1      44.828  28.470  35.099  1.00  0.00     0.167 HD
ATOM     59  C   UNL A   1      44.278  27.350  30.926  1.00  0.00     0.037 A 
ATOM     60  C   UNL A   1      46.270  28.624  37.496  1.00  0.00     0.037 A 
ATOM     61  C   UNL A   1      45.529  26.740  31.319  1.00  0.00     0.049 A 
ATOM     62  C   UNL A   1      47.071  27.727  36.597  1.00  0.00     0.074 A 
ATOM     63  C   UNL A   1      46.385  25.959  30.558  1.00  0.00     0.029 A 
ATOM     64  N   UNL A   1      46.099  26.825  32.584  1.00  0.00    -0.354 N 
ATOM     65  N   UNL A   1      46.851  27.402  35.345  1.00  0.00    -0.248 NA
ATOM     66  C   UNL A   1      48.281  27.126  37.173  1.00  0.00     0.031 C 
ATOM     67  C   UNL A   1      47.438  25.528  31.374  1.00  0.00     0.029 A 
ATOM     68  C   UNL A   1      47.276  26.089  32.630  1.00  0.00     0.049 A 
ATOM     69  H   UNL A   1      45.723  27.333  33.338  1.00  0.00     0.167 HD
ATOM     70  C   UNL A   1      47.907  26.576  34.976  1.00  0.00     0.074 A 
ATOM     71  C   UNL A   1      48.775  26.468  36.131  1.00  0.00     0.031 C 
ATOM     72  C   UNL A   1      48.133  25.965  33.786  1.00  0.00     0.037 A 
BRANCH  59  73
ATOM     73  C   UNL A   1      43.803  27.138  29.508  1.00  0.00     0.058 A 
ATOM     74  C   UNL A   1      43.171  25.944  29.122  1.00  0.00     0.135 A 
ATOM     75  C   UNL A   1      43.923  28.150  28.541  1.00  0.00     0.135 A 
ATOM     76  F   UNL A   1      43.024  24.941  30.001  1.00  0.00    -0.206 F 
ATOM     77  C   UNL A   1      42.713  25.746  27.822  1.00  0.00     0.059 A 
ATOM     78  C   UNL A   1      43.447  27.986  27.242  1.00  0.00     0.059 A 
ATOM     79  F   UNL A   1      44.506  29.318  28.853  1.00  0.00    -0.206 F 
ATOM     80  C   UNL A   1      42.861  26.772  26.887  1.00  0.00     0.060 A 
BRANCH  80  81
ATOM     81  S   UNL A   1      42.296  26.481  25.197  1.00  0.00     0.124 S 
ATOM     82  O   UNL A   1      42.390  27.822  24.626  1.00  0.00    -0.237 OA
ATOM     83  O   UNL A   1      43.268  25.511  24.705  1.00  0.00    -0.237 OA
ATOM     84  O   UNL A   1      40.939  25.974  25.371  1.00  0.00    -0.744 OA
ENDBRANCH  80  81
ENDBRANCH  59  73
BRANCH  60  85
ATOM     85  C   UNL A   1      46.741  28.961  38.865  1.00  0.00     0.058 A 
ATOM     86  C   UNL A   1      46.320  28.211  39.973  1.00  0.00     0.135 A 
ATOM     87  C   UNL A   1      47.659  29.999  39.087  1.00  0.00     0.135 A 
ATOM     88  F   UNL A   1      45.436  27.214  39.811  1.00  0.00    -0.206 F 
ATOM     89  C   UNL A   1      46.794  28.475  41.252  1.00  0.00     0.059 A 
ATOM     90  C   UNL A   1      48.169  30.264  40.353  1.00  0.00     0.059 A 
ATOM     91  F   UNL A   1      48.102  30.738  38.056  1.00  0.00    -0.206 F 
ATOM     92  C   UNL A   1      47.729  29.497  41.430  1.00  0.00     0.060 A 
BRANCH  92  93
ATOM     93  S   UNL A   1      48.392  29.776  43.085  1.00  0.00     0.124 S 
ATOM     94  O   UNL A   1      47.241  29.460  43.923  1.00  0.00    -0.237 OA
ATOM     95  O   UNL A   1      49.497  28.823  43.132  1.00  0.00    -0.237 OA
ATOM     96  O   UNL A   1      48.786  31.181  43.059  1.00  0.00    -0.744 OA
ENDBRANCH  92  93
ENDBRANCH  60  85
BRANCH  72  97
ATOM     97  C   UNL A   1      49.379  25.122  33.665  1.00  0.00     0.058 A 
ATOM     98  C   UNL A   1      49.378  23.752  33.976  1.00  0.00     0.135 A 
ATOM     99  C   UNL A   1      50.584  25.682  33.207  1.00  0.00     0.135 A 
ATOM    100  F   UNL A   1      48.258  23.163  34.426  1.00  0.00    -0.206 F 
ATOM    101  C   UNL A   1      50.529  22.978  33.871  1.00  0.00     0.059 A 
ATOM    102  C   UNL A   1      51.740  24.919  33.061  1.00  0.00     0.059 A 
ATOM    103  F   UNL A   1      50.645  26.984  32.885  1.00  0.00    -0.206 F 
ATOM    104  C   UNL A   1      51.707  23.570  33.409  1.00  0.00     0.060 A 
BRANCH 104 105
ATOM    105  S   UNL A   1      53.187  22.547  33.264  1.00  0.00     0.124 S 
ATOM    106  O   UNL A   1      53.518  22.303  34.664  1.00  0.00    -0.237 OA
ATOM    107  O   UNL A   1      52.693  21.391  32.519  1.00  0.00    -0.237 OA
ATOM    108  O   UNL A   1      54.123  23.400  32.538  1.00  0.00    -0.744 OA
ENDBRANCH 104 105
ENDBRANCH  72  97
ENDBRANCH  46  47
ENDBRANCH  39  41
ENDBRANCH  38  39
ENDBRANCH  37  38
ENDBRANCH  36  37
ENDBRANCH  35  36
ENDBRANCH  34  35
ENDBRANCH  33  34
ENDBRANCH  32  33
ENDBRANCH   1  32
TORSDOF 28
ENDMDL
MODEL 2
REMARK VINA RESULT:      -8.3      1.986      8.224
REMARK SMILES O=C(CCCCCN1C(=O)/C(=C2\C(=O)Nc3ccccc32)SC1=S)OCCOCCOCCOCCOC(=O)c1ccc(-c2c3nc(c(-c4c(F)cc(S(=O)(=O)[O-])cc4F)c4ccc([nH]4)c(-c4c(F)cc(S(=O)(=O)[O-])cc4F)c4nc(c(-c5c(F)cc(S(=O)(=O)[O-])cc5F)c5ccc2[nH]5)C=C4)C=C3)cc1
REMARK SMILES IDX 30 1 29 2 28 3 27 4 26 5 25 6 2 7 1 8 3 9 4 10 5 11 6 12
REMARK SMILES IDX 7 13 8 14 9 15 23 16 10 17 11 18 22 19 24 20 12 21 13 22
REMARK SMILES IDX 21 23 14 24 15 25 16 26 20 27 17 29 19 30 18 31 31 32 32 33
REMARK SMILES IDX 33 34 34 35 35 36 36 37 37 38 38 39 39 40 40 41 41 42 105 43
REMARK SMILES IDX 42 44 104 45 43 46 44 47 45 48 98 49 46 50 103 51 97 52
REMARK SMILES IDX 99 53 47 54 102 55 96 56 95 57 48 59 82 60 61 61 81 62 62 63
REMARK SMILES IDX 65 64 80 65 100 66 63 67 64 68 79 70 101 71 66 72 49 73
REMARK SMILES IDX 50 74 59 75 51 76 52 77 58 78 60 79 53 80 54 81 55 82 56 83
REMARK SMILES IDX 57 84 83 85 84 86 93 87 85 88 86 89 92 90 94 91 87 92 88 93
REMARK SMILES IDX 89 94 90 95 91 96 67 97 68 98 77 99 69 100 70 101 76 102
REMARK SMILES IDX 78 103 71 104 72 105 73 106 74 107 75 108
REMARK H PARENT 15 28 99 58 65 69
REMARK Flexibility Score: inf
ROOT
ATOM      1  C   UNL A   1      32.384  36.238  31.436  1.00  0.00     0.188 C 
ENDROOT
BRANCH   1   2
ATOM      2  C   UNL A   1      33.244  36.039  30.194  1.00  0.00     0.188 C 
BRANCH   2   3
ATOM      3  O   UNL A   1      32.534  35.756  28.991  1.00  0.00    -0.376 OA
BRANCH   3   4
ATOM      4  C   UNL A   1      33.029  34.732  28.153  1.00  0.00     0.202 C 
BRANCH   4   5
ATOM      5  C   UNL A   1      34.029  33.858  28.880  1.00  0.00     0.261 C 
BRANCH   5   6
ATOM      6  O   UNL A   1      34.576  32.753  28.128  1.00  0.00    -0.463 OA
BRANCH   6   7
ATOM      7  C   UNL A   1      34.058  31.564  27.780  1.00  0.00     0.305 C 
ATOM      8  O   UNL A   1      32.947  31.555  27.239  1.00  0.00    -0.252 OA
BRANCH   7   9
ATOM      9  C   UNL A   1      34.752  30.231  28.007  1.00  0.00     0.123 C 
BRANCH   9  10
ATOM     10  C   UNL A   1      34.181  28.944  27.440  1.00  0.00     0.012 C 
BRANCH  10  11
ATOM     11  C   UNL A   1      34.627  28.516  26.050  1.00  0.00     0.002 C 
BRANCH  11  12
ATOM     12  C   UNL A   1      33.575  27.874  25.119  1.00  0.00     0.022 C 
BRANCH  12  13
ATOM     13  C   UNL A   1      32.095  28.134  25.463  1.00  0.00     0.127 C 
BRANCH  13  14
ATOM     14  N   UNL A   1      31.239  27.102  24.902  1.00  0.00    -0.293 N 
ATOM     15  C   UNL A   1      30.827  26.068  25.736  1.00  0.00     0.267 C 
ATOM     16  C   UNL A   1      30.934  26.964  23.569  1.00  0.00     0.148 C 
ATOM     17  O   UNL A   1      30.600  26.167  26.927  1.00  0.00    -0.268 OA
ATOM     18  C   UNL A   1      30.722  24.843  24.896  1.00  0.00     0.093 C 
ATOM     19  S   UNL A   1      30.236  25.373  23.317  1.00  0.00    -0.053 SA
ATOM     20  S   UNL A   1      31.216  28.021  22.312  1.00  0.00    -0.052 S 
ATOM     21  C   UNL A   1      31.229  23.643  25.218  1.00  0.00     0.069 C 
ATOM     22  C   UNL A   1      31.657  23.216  26.608  1.00  0.00     0.257 C 
ATOM     23  C   UNL A   1      31.541  22.504  24.328  1.00  0.00     0.012 A 
ATOM     24  O   UNL A   1      31.718  23.867  27.622  1.00  0.00    -0.269 OA
ATOM     25  N   UNL A   1      32.012  21.881  26.481  1.00  0.00    -0.321 N 
ATOM     26  C   UNL A   1      31.971  21.464  25.158  1.00  0.00     0.049 A 
ATOM     27  C   UNL A   1      31.631  22.351  22.954  1.00  0.00     0.011 A 
ATOM     28  H   UNL A   1      32.263  21.301  27.236  1.00  0.00     0.170 HD
ATOM     29  C   UNL A   1      32.390  20.239  24.675  1.00  0.00     0.027 A 
ATOM     30  C   UNL A   1      32.075  21.129  22.436  1.00  0.00     0.001 A 
ATOM     31  C   UNL A   1      32.431  20.075  23.290  1.00  0.00     0.002 A 
ENDBRANCH  13  14
ENDBRANCH  12  13
ENDBRANCH  11  12
ENDBRANCH  10  11
ENDBRANCH   9  10
ENDBRANCH   7   9
ENDBRANCH   6   7
ENDBRANCH   5   6
ENDBRANCH   4   5
ENDBRANCH   3   4
ENDBRANCH   2   3
ENDBRANCH   1   2
BRANCH   1  32
ATOM     32  O   UNL A   1      32.620  35.371  32.536  1.00  0.00    -0.377 OA
BRANCH  32  33
ATOM     33  C   UNL A   1      33.931  34.944  32.860  1.00  0.00     0.188 C 
BRANCH  33  34
ATOM     34  C   UNL A   1      34.008  33.451  33.200  1.00  0.00     0.188 C 
BRANCH  34  35
ATOM     35  O   UNL A   1      35.239  32.969  33.728  1.00  0.00    -0.376 OA
BRANCH  35  36
ATOM     36  C   UNL A   1      36.248  32.560  32.803  1.00  0.00     0.202 C 
BRANCH  36  37
ATOM     37  C   UNL A   1      37.374  31.610  33.274  1.00  0.00     0.261 C 
BRANCH  37  38
ATOM     38  O   UNL A   1      37.598  31.572  34.700  1.00  0.00    -0.460 OA
BRANCH  38  39
ATOM     39  C   UNL A   1      38.523  32.420  35.214  1.00  0.00     0.338 C 
ATOM     40  O   UNL A   1      38.310  33.507  35.725  1.00  0.00    -0.246 OA
BRANCH  39  41
ATOM     41  C   UNL A   1      39.846  31.746  35.263  1.00  0.00     0.060 A 
ATOM     42  C   UNL A   1      39.982  30.468  35.804  1.00  0.00     0.016 A 
ATOM     43  C   UNL A   1      40.968  32.397  34.727  1.00  0.00     0.016 A 
ATOM     44  C   UNL A   1      41.236  29.840  35.795  1.00  0.00     0.010 A 
ATOM     45  C   UNL A   1      42.228  31.783  34.748  1.00  0.00     0.010 A 
ATOM     46  C   UNL A   1      42.369  30.486  35.262  1.00  0.00    -0.014 A 
BRANCH  46  47
ATOM     47  C   UNL A   1      43.630  29.721  35.056  1.00  0.00     0.031 A 
ATOM     48  C   UNL A   1      44.602  29.439  36.165  1.00  0.00     0.074 A 
ATOM     49  C   UNL A   1      43.879  29.250  33.819  1.00  0.00     0.049 A 
ATOM     50  N   UNL A   1      45.673  28.684  36.146  1.00  0.00    -0.248 NA
ATOM     51  C   UNL A   1      44.344  30.086  37.457  1.00  0.00     0.031 C 
ATOM     52  C   UNL A   1      43.017  29.472  32.656  1.00  0.00     0.029 A 
ATOM     53  N   UNL A   1      44.903  28.477  33.335  1.00  0.00    -0.354 N 
ATOM     54  C   UNL A   1      46.201  28.728  37.430  1.00  0.00     0.074 A 
ATOM     55  C   UNL A   1      45.360  29.637  38.188  1.00  0.00     0.031 C 
ATOM     56  C   UNL A   1      43.525  28.812  31.605  1.00  0.00     0.029 A 
ATOM     57  C   UNL A   1      44.760  28.147  32.009  1.00  0.00     0.049 A 
ATOM     58  H   UNL A   1      45.668  28.188  33.885  1.00  0.00     0.167 HD
ATOM     59  C   UNL A   1      47.270  28.058  37.932  1.00  0.00     0.037 A 
ATOM     60  C   UNL A   1      45.524  27.380  31.206  1.00  0.00     0.037 A 
ATOM     61  C   UNL A   1      48.130  27.191  37.158  1.00  0.00     0.049 A 
ATOM     62  C   UNL A   1      46.746  26.711  31.767  1.00  0.00     0.074 A 
ATOM     63  C   UNL A   1      49.234  26.468  37.582  1.00  0.00     0.029 A 
ATOM     64  N   UNL A   1      47.998  26.938  35.798  1.00  0.00    -0.354 N 
ATOM     65  N   UNL A   1      47.201  26.719  32.997  1.00  0.00    -0.248 NA
ATOM     66  C   UNL A   1      47.555  25.921  30.829  1.00  0.00     0.031 C 
ATOM     67  C   UNL A   1      49.799  25.827  36.473  1.00  0.00     0.029 A 
ATOM     68  C   UNL A   1      49.014  26.096  35.364  1.00  0.00     0.049 A 
ATOM     69  H   UNL A   1      47.287  27.304  35.224  1.00  0.00     0.167 HD
ATOM     70  C   UNL A   1      48.337  25.919  32.987  1.00  0.00     0.074 A 
ATOM     71  C   UNL A   1      48.489  25.427  31.633  1.00  0.00     0.031 C 
ATOM     72  C   UNL A   1      49.177  25.620  34.011  1.00  0.00     0.037 A 
BRANCH  59  73
ATOM     73  C   UNL A   1      47.576  28.226  39.402  1.00  0.00     0.058 A 
ATOM     74  C   UNL A   1      47.063  27.337  40.360  1.00  0.00     0.135 A 
ATOM     75  C   UNL A   1      48.433  29.244  39.855  1.00  0.00     0.135 A 
ATOM     76  F   UNL A   1      46.240  26.343  39.990  1.00  0.00    -0.206 F 
ATOM     77  C   UNL A   1      47.353  27.473  41.715  1.00  0.00     0.059 A 
ATOM     78  C   UNL A   1      48.762  29.382  41.202  1.00  0.00     0.059 A 
ATOM     79  F   UNL A   1      48.966  30.117  38.986  1.00  0.00    -0.206 F 
ATOM     80  C   UNL A   1      48.200  28.504  42.127  1.00  0.00     0.060 A 
BRANCH  80  81
ATOM     81  S   UNL A   1      48.535  28.687  43.892  1.00  0.00     0.124 S 
ATOM     82  O   UNL A   1      47.247  29.169  44.382  1.00  0.00    -0.237 OA
ATOM     83  O   UNL A   1      48.895  27.329  44.284  1.00  0.00    -0.237 OA
ATOM     84  O   UNL A   1      49.621  29.660  43.936  1.00  0.00    -0.744 OA
ENDBRANCH  80  81
ENDBRANCH  59  73
BRANCH  60  85
ATOM     85  C   UNL A   1      45.108  27.165  29.795  1.00  0.00     0.058 A 
ATOM     86  C   UNL A   1      45.449  28.090  28.798  1.00  0.00     0.135 A 
ATOM     87  C   UNL A   1      44.412  26.009  29.407  1.00  0.00     0.135 A 
ATOM     88  F   UNL A   1      46.106  29.214  29.123  1.00  0.00    -0.206 F 
ATOM     89  C   UNL A   1      45.118  27.878  27.466  1.00  0.00     0.059 A 
ATOM     90  C   UNL A   1      44.096  25.761  28.076  1.00  0.00     0.059 A 
ATOM     91  F   UNL A   1      44.075  25.087  30.323  1.00  0.00    -0.206 F 
ATOM     92  C   UNL A   1      44.452  26.702  27.112  1.00  0.00     0.060 A 
BRANCH  92  93
ATOM     93  S   UNL A   1      44.099  26.406  25.367  1.00  0.00     0.124 S 
ATOM     94  O   UNL A   1      43.892  27.762  24.872  1.00  0.00    -0.237 OA
ATOM     95  O   UNL A   1      45.320  25.743  24.921  1.00  0.00    -0.237 OA
ATOM     96  O   UNL A   1      42.910  25.560  25.402  1.00  0.00    -0.744 OA
ENDBRANCH  92  93
ENDBRANCH  60  85
BRANCH  72  97
ATOM     97  C   UNL A   1      50.341  24.709  33.709  1.00  0.00     0.058 A 
ATOM     98  C   UNL A   1      51.576  25.210  33.265  1.00  0.00     0.135 A 
ATOM     99  C   UNL A   1      50.232  23.320  33.890  1.00  0.00     0.135 A 
ATOM    100  F   UNL A   1      51.738  26.528  33.065  1.00  0.00    -0.206 F 
ATOM    101  C   UNL A   1      52.647  24.368  32.981  1.00  0.00     0.059 A 
ATOM    102  C   UNL A   1      51.302  22.461  33.645  1.00  0.00     0.059 A 
ATOM    103  F   UNL A   1      49.080  22.782  34.321  1.00  0.00    -0.206 F 
ATOM    104  C   UNL A   1      52.501  22.993  33.176  1.00  0.00     0.060 A 
BRANCH 104 105
ATOM    105  S   UNL A   1      53.905  21.917  32.817  1.00  0.00     0.124 S 
ATOM    106  O   UNL A   1      54.831  22.842  32.173  1.00  0.00    -0.237 OA
ATOM    107  O   UNL A   1      54.292  21.458  34.149  1.00  0.00    -0.237 OA
ATOM    108  O   UNL A   1      53.338  20.891  31.948  1.00  0.00    -0.744 OA
ENDBRANCH 104 105
ENDBRANCH  72  97
ENDBRANCH  46  47
ENDBRANCH  39  41
ENDBRANCH  38  39
ENDBRANCH  37  38
ENDBRANCH  36  37
ENDBRANCH  35  36
ENDBRANCH  34  35
ENDBRANCH  33  34
ENDBRANCH  32  33
ENDBRANCH   1  32
TORSDOF 28
ENDMDL
MODEL 3
REMARK VINA RESULT:      -8.2      0.996      7.634
REMARK SMILES O=C(CCCCCN1C(=O)/C(=C2\C(=O)Nc3ccccc32)SC1=S)OCCOCCOCCOCCOC(=O)c1ccc(-c2c3nc(c(-c4c(F)cc(S(=O)(=O)[O-])cc4F)c4ccc([nH]4)c(-c4c(F)cc(S(=O)(=O)[O-])cc4F)c4nc(c(-c5c(F)cc(S(=O)(=O)[O-])cc5F)c5ccc2[nH]5)C=C4)C=C3)cc1
REMARK SMILES IDX 30 1 29 2 28 3 27 4 26 5 25 6 2 7 1 8 3 9 4 10 5 11 6 12
REMARK SMILES IDX 7 13 8 14 9 15 23 16 10 17 11 18 22 19 24 20 12 21 13 22
REMARK SMILES IDX 21 23 14 24 15 25 16 26 20 27 17 29 19 30 18 31 31 32 32 33
REMARK SMILES IDX 33 34 34 35 35 36 36 37 37 38 38 39 39 40 40 41 41 42 105 43
REMARK SMILES IDX 42 44 104 45 43 46 44 47 45 48 98 49 46 50 103 51 97 52
REMARK SMILES IDX 99 53 47 54 102 55 96 56 95 57 48 59 82 60 61 61 81 62 62 63
REMARK SMILES IDX 65 64 80 65 100 66 63 67 64 68 79 70 101 71 66 72 49 73
REMARK SMILES IDX 50 74 59 75 51 76 52 77 58 78 60 79 53 80 54 81 55 82 56 83
REMARK SMILES IDX 57 84 83 85 84 86 93 87 85 88 86 89 92 90 94 91 87 92 88 93
REMARK SMILES IDX 89 94 90 95 91 96 67 97 68 98 77 99 69 100 70 101 76 102
REMARK SMILES IDX 78 103 71 104 72 105 73 106 74 107 75 108
REMARK H PARENT 15 28 99 58 65 69
REMARK Flexibility Score: inf
ROOT
ATOM      1  C   UNL A   1      38.337  31.144  29.343  1.00  0.00     0.188 C 
ENDROOT
BRANCH   1   2
ATOM      2  C   UNL A   1      38.095  29.781  28.705  1.00  0.00     0.188 C 
BRANCH   2   3
ATOM      3  O   UNL A   1      36.729  29.405  28.554  1.00  0.00    -0.376 OA
BRANCH   3   4
ATOM      4  C   UNL A   1      35.848  30.332  27.955  1.00  0.00     0.202 C 
BRANCH   4   5
ATOM      5  C   UNL A   1      34.623  29.644  27.389  1.00  0.00     0.261 C 
BRANCH   5   6
ATOM      6  O   UNL A   1      33.456  30.474  27.198  1.00  0.00    -0.463 OA
BRANCH   6   7
ATOM      7  C   UNL A   1      32.410  30.368  26.362  1.00  0.00     0.305 C 
ATOM      8  O   UNL A   1      31.544  31.248  26.409  1.00  0.00    -0.252 OA
BRANCH   7   9
ATOM      9  C   UNL A   1      32.228  29.239  25.361  1.00  0.00     0.123 C 
BRANCH   9  10
ATOM     10  C   UNL A   1      33.094  29.147  24.118  1.00  0.00     0.012 C 
BRANCH  10  11
ATOM     11  C   UNL A   1      33.826  27.840  23.852  1.00  0.00     0.002 C 
BRANCH  11  12
ATOM     12  C   UNL A   1      33.032  26.524  24.001  1.00  0.00     0.022 C 
BRANCH  12  13
ATOM     13  C   UNL A   1      33.821  25.215  23.799  1.00  0.00     0.127 C 
BRANCH  13  14
ATOM     14  N   UNL A   1      33.203  24.116  24.525  1.00  0.00    -0.293 N 
ATOM     15  C   UNL A   1      34.017  23.322  25.327  1.00  0.00     0.267 C 
ATOM     16  C   UNL A   1      31.909  23.685  24.358  1.00  0.00     0.148 C 
ATOM     17  O   UNL A   1      34.993  23.705  25.943  1.00  0.00    -0.268 OA
ATOM     18  C   UNL A   1      33.462  21.941  25.282  1.00  0.00     0.093 C 
ATOM     19  S   UNL A   1      31.743  22.109  25.115  1.00  0.00    -0.053 SA
ATOM     20  S   UNL A   1      30.659  24.408  23.526  1.00  0.00    -0.052 S 
ATOM     21  C   UNL A   1      34.183  20.829  25.072  1.00  0.00     0.069 C 
ATOM     22  C   UNL A   1      35.688  20.719  25.213  1.00  0.00     0.257 C 
ATOM     23  C   UNL A   1      33.720  19.503  24.610  1.00  0.00     0.012 A 
ATOM     24  O   UNL A   1      36.499  21.585  25.431  1.00  0.00    -0.269 OA
ATOM     25  N   UNL A   1      35.972  19.378  25.003  1.00  0.00    -0.321 N 
ATOM     26  C   UNL A   1      34.841  18.667  24.629  1.00  0.00     0.049 A 
ATOM     27  C   UNL A   1      32.537  19.031  24.065  1.00  0.00     0.011 A 
ATOM     28  H   UNL A   1      36.867  18.980  25.106  1.00  0.00     0.170 HD
ATOM     29  C   UNL A   1      34.804  17.347  24.223  1.00  0.00     0.027 A 
ATOM     30  C   UNL A   1      32.477  17.705  23.622  1.00  0.00     0.001 A 
ATOM     31  C   UNL A   1      33.595  16.864  23.720  1.00  0.00     0.002 A 
ENDBRANCH  13  14
ENDBRANCH  12  13
ENDBRANCH  11  12
ENDBRANCH  10  11
ENDBRANCH   9  10
ENDBRANCH   7   9
ENDBRANCH   6   7
ENDBRANCH   5   6
ENDBRANCH   4   5
ENDBRANCH   3   4
ENDBRANCH   2   3
ENDBRANCH   1   2
BRANCH   1  32
ATOM     32  O   UNL A   1      38.392  31.198  30.761  1.00  0.00    -0.377 OA
BRANCH  32  33
ATOM     33  C   UNL A   1      37.717  30.237  31.553  1.00  0.00     0.188 C 
BRANCH  33  34
ATOM     34  C   UNL A   1      37.180  30.815  32.869  1.00  0.00     0.188 C 
BRANCH  34  35
ATOM     35  O   UNL A   1      37.333  32.215  33.072  1.00  0.00    -0.376 OA
BRANCH  35  36
ATOM     36  C   UNL A   1      36.293  32.906  33.765  1.00  0.00     0.202 C 
BRANCH  36  37
ATOM     37  C   UNL A   1      36.640  33.748  35.016  1.00  0.00     0.261 C 
BRANCH  37  38
ATOM     38  O   UNL A   1      37.917  34.420  34.977  1.00  0.00    -0.460 OA
BRANCH  38  39
ATOM     39  C   UNL A   1      38.753  34.244  36.031  1.00  0.00     0.338 C 
ATOM     40  O   UNL A   1      38.590  34.660  37.166  1.00  0.00    -0.246 OA
BRANCH  39  41
ATOM     41  C   UNL A   1      39.821  33.278  35.666  1.00  0.00     0.060 A 
ATOM     42  C   UNL A   1      41.099  33.716  35.319  1.00  0.00     0.016 A 
ATOM     43  C   UNL A   1      39.543  31.903  35.702  1.00  0.00     0.016 A 
ATOM     44  C   UNL A   1      42.097  32.778  35.023  1.00  0.00     0.010 A 
ATOM     45  C   UNL A   1      40.532  30.966  35.374  1.00  0.00     0.010 A 
ATOM     46  C   UNL A   1      41.828  31.395  35.054  1.00  0.00    -0.014 A 
BRANCH  46  47
ATOM     47  C   UNL A   1      42.949  30.419  34.961  1.00  0.00     0.031 A 
ATOM     48  C   UNL A   1      43.721  29.950  36.161  1.00  0.00     0.074 A 
ATOM     49  C   UNL A   1      43.252  29.930  33.743  1.00  0.00     0.049 A 
ATOM     50  N   UNL A   1      44.637  29.016  36.234  1.00  0.00    -0.248 NA
ATOM     51  C   UNL A   1      43.435  30.613  37.439  1.00  0.00     0.031 C 
ATOM     52  C   UNL A   1      42.583  30.320  32.501  1.00  0.00     0.029 A 
ATOM     53  N   UNL A   1      44.173  28.992  33.350  1.00  0.00    -0.354 N 
ATOM     54  C   UNL A   1      45.013  28.944  37.570  1.00  0.00     0.074 A 
ATOM     55  C   UNL A   1      44.265  29.979  38.261  1.00  0.00     0.031 C 
ATOM     56  C   UNL A   1      43.084  29.595  31.491  1.00  0.00     0.029 A 
ATOM     57  C   UNL A   1      44.127  28.713  32.005  1.00  0.00     0.049 A 
ATOM     58  H   UNL A   1      44.805  28.562  33.970  1.00  0.00     0.167 HD
ATOM     59  C   UNL A   1      45.882  28.085  38.163  1.00  0.00     0.037 A 
ATOM     60  C   UNL A   1      44.830  27.834  31.265  1.00  0.00     0.037 A 
ATOM     61  C   UNL A   1      46.658  27.090  37.458  1.00  0.00     0.049 A 
ATOM     62  C   UNL A   1      45.842  26.947  31.934  1.00  0.00     0.074 A 
ATOM     63  C   UNL A   1      47.561  26.174  37.976  1.00  0.00     0.029 A 
ATOM     64  N   UNL A   1      46.641  26.886  36.083  1.00  0.00    -0.354 N 
ATOM     65  N   UNL A   1      46.146  26.855  33.206  1.00  0.00    -0.248 NA
ATOM     66  C   UNL A   1      46.602  26.040  31.064  1.00  0.00     0.031 C 
ATOM     67  C   UNL A   1      48.127  25.458  36.914  1.00  0.00     0.029 A 
ATOM     68  C   UNL A   1      47.535  25.881  35.736  1.00  0.00     0.049 A 
ATOM     69  H   UNL A   1      46.077  27.382  35.448  1.00  0.00     0.167 HD
ATOM     70  C   UNL A   1      47.117  25.864  33.294  1.00  0.00     0.074 A 
ATOM     71  C   UNL A   1      47.334  25.373  31.948  1.00  0.00     0.031 C 
ATOM     72  C   UNL A   1      47.767  25.404  34.393  1.00  0.00     0.037 A 
BRANCH  59  73
ATOM     73  C   UNL A   1      46.041  28.174  39.662  1.00  0.00     0.058 A 
ATOM     74  C   UNL A   1      45.260  27.389  40.526  1.00  0.00     0.135 A 
ATOM     75  C   UNL A   1      47.017  29.002  40.243  1.00  0.00     0.135 A 
ATOM     76  F   UNL A   1      44.312  26.576  40.032  1.00  0.00    -0.206 F 
ATOM     77  C   UNL A   1      45.412  27.450  41.909  1.00  0.00     0.059 A 
ATOM     78  C   UNL A   1      47.207  29.058  41.622  1.00  0.00     0.059 A 
ATOM     79  F   UNL A   1      47.803  29.767  39.469  1.00  0.00    -0.206 F 
ATOM     80  C   UNL A   1      46.385  28.293  42.448  1.00  0.00     0.060 A 
BRANCH  80  81
ATOM     81  S   UNL A   1      46.541  28.387  44.244  1.00  0.00     0.124 S 
ATOM     82  O   UNL A   1      46.742  29.820  44.442  1.00  0.00    -0.237 OA
ATOM     83  O   UNL A   1      45.260  27.857  44.697  1.00  0.00    -0.237 OA
ATOM     84  O   UNL A   1      47.701  27.551  44.533  1.00  0.00    -0.744 OA
ENDBRANCH  80  81
ENDBRANCH  59  73
BRANCH  60  85
ATOM     85  C   UNL A   1      44.548  27.718  29.810  1.00  0.00     0.058 A 
ATOM     86  C   UNL A   1      43.570  26.832  29.337  1.00  0.00     0.135 A 
ATOM     87  C   UNL A   1      45.209  28.526  28.871  1.00  0.00     0.135 A 
ATOM     88  F   UNL A   1      42.918  26.033  30.197  1.00  0.00    -0.206 F 
ATOM     89  C   UNL A   1      43.253  26.751  27.987  1.00  0.00     0.059 A 
ATOM     90  C   UNL A   1      44.889  28.484  27.519  1.00  0.00     0.059 A 
ATOM     91  F   UNL A   1      46.145  29.400  29.275  1.00  0.00    -0.206 F 
ATOM     92  C   UNL A   1      43.910  27.591  27.086  1.00  0.00     0.060 A 
BRANCH  92  93
ATOM     93  S   UNL A   1      43.432  27.529  25.347  1.00  0.00     0.124 S 
ATOM     94  O   UNL A   1      42.428  28.584  25.277  1.00  0.00    -0.237 OA
ATOM     95  O   UNL A   1      44.698  27.806  24.676  1.00  0.00    -0.237 OA
ATOM     96  O   UNL A   1      42.928  26.168  25.183  1.00  0.00    -0.744 OA
ENDBRANCH  92  93
ENDBRANCH  60  85
BRANCH  72  97
ATOM     97  C   UNL A   1      48.778  24.303  34.189  1.00  0.00     0.058 A 
ATOM     98  C   UNL A   1      48.448  22.951  34.377  1.00  0.00     0.135 A 
ATOM     99  C   UNL A   1      50.088  24.599  33.774  1.00  0.00     0.135 A 
ATOM    100  F   UNL A   1      47.214  22.607  34.782  1.00  0.00    -0.206 F 
ATOM    101  C   UNL A   1      49.384  21.937  34.195  1.00  0.00     0.059 A 
ATOM    102  C   UNL A   1      51.031  23.598  33.551  1.00  0.00     0.059 A 
ATOM    103  F   UNL A   1      50.461  25.872  33.568  1.00  0.00    -0.206 F 
ATOM    104  C   UNL A   1      50.674  22.271  33.779  1.00  0.00     0.060 A 
BRANCH 104 105
ATOM    105  S   UNL A   1      51.871  20.942  33.532  1.00  0.00     0.124 S 
ATOM    106  O   UNL A   1      52.921  21.309  34.477  1.00  0.00    -0.237 OA
ATOM    107  O   UNL A   1      51.093  19.756  33.878  1.00  0.00    -0.237 OA
ATOM    108  O   UNL A   1      52.228  21.061  32.122  1.00  0.00    -0.744 OA
ENDBRANCH 104 105
ENDBRANCH  72  97
ENDBRANCH  46  47
ENDBRANCH  39  41
ENDBRANCH  38  39
ENDBRANCH  37  38
ENDBRANCH  36  37
ENDBRANCH  35  36
ENDBRANCH  34  35
ENDBRANCH  33  34
ENDBRANCH  32  33
ENDBRANCH   1  32
TORSDOF 28
ENDMDL
