MODEL 1
REMARK VINA RESULT:      -8.7      0.000      0.000
REMARK SMILES CCCOc1ccccc1C(=O)OCCOCCOCCOCCOC(=O)c1ccc(-c2c3nc(c(-c4c(F)cc(S(=O)(=O)[O-])cc4F)c4ccc([nH]4)c(-c4c(F)cc(S(=O)(=O)[O-])cc4F)c4nc(c(-c5c(F)cc(S(=O)(=O)[O-])cc5F)c5ccc2[nH]5)C=C4)C=C3)cc1
REMARK SMILES IDX 19 1 18 2 17 3 16 4 15 5 14 6 13 7 11 8 12 9 10 10 5 11 6 12
REMARK SMILES IDX 7 13 9 14 8 15 4 16 3 17 2 18 1 19 20 20 21 21 22 22 23 23
REMARK SMILES IDX 24 24 25 25 26 26 27 27 28 28 29 29 93 30 30 31 92 32 31 33
REMARK SMILES IDX 32 34 33 35 86 36 34 37 91 38 85 39 87 40 35 41 90 42 84 43
REMARK SMILES IDX 83 44 36 46 70 47 49 48 69 49 50 50 53 51 68 52 88 53 51 54
REMARK SMILES IDX 52 55 67 57 89 58 54 59 37 60 38 61 47 62 39 63 40 64 46 65
REMARK SMILES IDX 48 66 41 67 42 68 43 69 44 70 45 71 71 72 72 73 81 74 73 75
REMARK SMILES IDX 74 76 80 77 82 78 75 79 76 80 77 81 78 82 79 83 55 84 56 85
REMARK SMILES IDX 65 86 57 87 58 88 64 89 66 90 59 91 60 92 61 93 62 94 63 95
REMARK H PARENT 87 45 53 56
REMARK Flexibility Score: inf
ROOT
ATOM      1  O   UNL A   1      38.970  21.619  26.373  1.00  0.00    -0.377 OA
ENDROOT
BRANCH   1   2
ATOM      2  C   UNL A   1      38.325  22.304  25.321  1.00  0.00     0.188 C 
BRANCH   2   3
ATOM      3  C   UNL A   1      36.825  22.657  25.438  1.00  0.00     0.188 C 
BRANCH   3   4
ATOM      4  O   UNL A   1      36.070  23.069  24.317  1.00  0.00    -0.376 OA
BRANCH   4   5
ATOM      5  C   UNL A   1      34.676  22.848  24.206  1.00  0.00     0.202 C 
BRANCH   5   6
ATOM      6  C   UNL A   1      33.838  23.206  22.980  1.00  0.00     0.261 C 
BRANCH   6   7
ATOM      7  O   UNL A   1      32.839  24.208  23.156  1.00  0.00    -0.460 OA
BRANCH   7   8
ATOM      8  C   UNL A   1      33.248  25.483  22.981  1.00  0.00     0.342 C 
ATOM      9  O   UNL A   1      33.760  25.943  21.969  1.00  0.00    -0.246 OA
BRANCH   8  10
ATOM     10  C   UNL A   1      32.935  26.334  24.151  1.00  0.00     0.102 A 
ATOM     11  C   UNL A   1      31.691  26.943  24.359  1.00  0.00     0.133 A 
ATOM     12  C   UNL A   1      31.465  27.672  25.531  1.00  0.00     0.047 A 
ATOM     13  C   UNL A   1      32.470  27.783  26.497  1.00  0.00     0.004 A 
ATOM     14  C   UNL A   1      33.944  26.463  25.119  1.00  0.00     0.019 A 
ATOM     15  C   UNL A   1      33.713  27.189  26.286  1.00  0.00     0.001 A 
BRANCH  11  16
ATOM     16  O   UNL A   1      30.729  26.942  23.391  1.00  0.00    -0.493 OA
BRANCH  16  17
ATOM     17  C   UNL A   1      30.845  28.002  22.438  1.00  0.00     0.229 C 
BRANCH  17  18
ATOM     18  C   UNL A   1      30.092  29.238  22.933  1.00  0.00     0.038 C 
ATOM     19  C   UNL A   1      28.989  29.694  21.984  1.00  0.00     0.007 C 
ENDBRANCH  17  18
ENDBRANCH  16  17
ENDBRANCH  11  16
ENDBRANCH   8  10
ENDBRANCH   7   8
ENDBRANCH   6   7
ENDBRANCH   5   6
ENDBRANCH   4   5
ENDBRANCH   3   4
ENDBRANCH   2   3
ENDBRANCH   1   2
BRANCH   1  20
ATOM     20  C   UNL A   1      40.096  20.792  26.125  1.00  0.00     0.188 C 
BRANCH  20  21
ATOM     21  C   UNL A   1      40.967  20.234  27.270  1.00  0.00     0.188 C 
BRANCH  21  22
ATOM     22  O   UNL A   1      42.232  20.854  27.418  1.00  0.00    -0.376 OA
BRANCH  22  23
ATOM     23  C   UNL A   1      42.305  22.129  28.029  1.00  0.00     0.202 C 
BRANCH  23  24
ATOM     24  C   UNL A   1      42.636  23.341  27.146  1.00  0.00     0.261 C 
BRANCH  24  25
ATOM     25  O   UNL A   1      41.519  24.063  26.612  1.00  0.00    -0.460 OA
BRANCH  25  26
ATOM     26  C   UNL A   1      41.771  25.292  26.109  1.00  0.00     0.338 C 
ATOM     27  O   UNL A   1      42.152  25.561  24.990  1.00  0.00    -0.246 OA
BRANCH  26  28
ATOM     28  C   UNL A   1      41.305  26.282  27.103  1.00  0.00     0.060 A 
ATOM     29  C   UNL A   1      41.893  27.553  27.108  1.00  0.00     0.016 A 
ATOM     30  C   UNL A   1      40.315  25.950  28.030  1.00  0.00     0.016 A 
ATOM     31  C   UNL A   1      41.537  28.476  28.086  1.00  0.00     0.010 A 
ATOM     32  C   UNL A   1      39.978  26.867  29.028  1.00  0.00     0.010 A 
ATOM     33  C   UNL A   1      40.632  28.111  29.090  1.00  0.00    -0.014 A 
BRANCH  33  34
ATOM     34  C   UNL A   1      40.609  28.913  30.335  1.00  0.00     0.031 A 
ATOM     35  C   UNL A   1      39.569  29.998  30.444  1.00  0.00     0.074 A 
ATOM     36  C   UNL A   1      41.418  28.633  31.370  1.00  0.00     0.049 A 
ATOM     37  N   UNL A   1      39.315  30.811  31.437  1.00  0.00    -0.248 NA
ATOM     38  C   UNL A   1      38.695  30.189  29.274  1.00  0.00     0.031 C 
ATOM     39  C   UNL A   1      42.425  27.573  31.396  1.00  0.00     0.029 A 
ATOM     40  N   UNL A   1      41.512  29.218  32.607  1.00  0.00    -0.354 N 
ATOM     41  C   UNL A   1      38.256  31.605  31.009  1.00  0.00     0.074 A 
ATOM     42  C   UNL A   1      37.942  31.208  29.657  1.00  0.00     0.031 C 
ATOM     43  C   UNL A   1      43.038  27.585  32.593  1.00  0.00     0.029 A 
ATOM     44  C   UNL A   1      42.486  28.669  33.405  1.00  0.00     0.049 A 
ATOM     45  H   UNL A   1      40.933  29.961  32.897  1.00  0.00     0.167 HD
ATOM     46  C   UNL A   1      37.595  32.571  31.689  1.00  0.00     0.037 A 
ATOM     47  C   UNL A   1      42.890  29.014  34.644  1.00  0.00     0.037 A 
ATOM     48  C   UNL A   1      37.917  32.963  33.035  1.00  0.00     0.049 A 
ATOM     49  C   UNL A   1      42.182  30.140  35.358  1.00  0.00     0.074 A 
ATOM     50  C   UNL A   1      37.313  33.929  33.818  1.00  0.00     0.029 A 
ATOM     51  N   UNL A   1      38.937  32.411  33.797  1.00  0.00    -0.354 N 
ATOM     52  N   UNL A   1      41.176  30.878  34.949  1.00  0.00    -0.248 NA
ATOM     53  C   UNL A   1      42.656  30.470  36.709  1.00  0.00     0.031 C 
ATOM     54  C   UNL A   1      38.005  34.003  35.032  1.00  0.00     0.029 A 
ATOM     55  C   UNL A   1      38.995  33.033  35.033  1.00  0.00     0.049 A 
ATOM     56  H   UNL A   1      39.533  31.685  33.502  1.00  0.00     0.167 HD
ATOM     57  C   UNL A   1      40.873  31.732  36.005  1.00  0.00     0.074 A 
ATOM     58  C   UNL A   1      41.796  31.409  37.075  1.00  0.00     0.031 C 
ATOM     59  C   UNL A   1      39.918  32.694  36.089  1.00  0.00     0.037 A 
BRANCH  46  60
ATOM     60  C   UNL A   1      36.487  33.292  30.970  1.00  0.00     0.058 A 
ATOM     61  C   UNL A   1      35.132  33.041  31.248  1.00  0.00     0.135 A 
ATOM     62  C   UNL A   1      36.786  34.261  29.999  1.00  0.00     0.135 A 
ATOM     63  F   UNL A   1      34.787  32.107  32.147  1.00  0.00    -0.206 F 
ATOM     64  C   UNL A   1      34.116  33.708  30.570  1.00  0.00     0.059 A 
ATOM     65  C   UNL A   1      35.786  34.962  29.333  1.00  0.00     0.059 A 
ATOM     66  F   UNL A   1      38.063  34.535  29.688  1.00  0.00    -0.206 F 
ATOM     67  C   UNL A   1      34.454  34.669  29.616  1.00  0.00     0.060 A 
BRANCH  67  68
ATOM     68  S   UNL A   1      33.124  35.534  28.755  1.00  0.00     0.124 S 
ATOM     69  O   UNL A   1      33.871  36.529  27.989  1.00  0.00    -0.237 OA
ATOM     70  O   UNL A   1      32.511  34.464  27.975  1.00  0.00    -0.237 OA
ATOM     71  O   UNL A   1      32.304  36.066  29.839  1.00  0.00    -0.744 OA
ENDBRANCH  67  68
ENDBRANCH  46  60
BRANCH  47  72
ATOM     72  C   UNL A   1      44.022  28.295  35.289  1.00  0.00     0.058 A 
ATOM     73  C   UNL A   1      43.802  27.225  36.169  1.00  0.00     0.135 A 
ATOM     74  C   UNL A   1      45.351  28.674  35.045  1.00  0.00     0.135 A 
ATOM     75  F   UNL A   1      42.550  26.830  36.446  1.00  0.00    -0.206 F 
ATOM     76  C   UNL A   1      44.856  26.568  36.798  1.00  0.00     0.059 A 
ATOM     77  C   UNL A   1      46.423  28.015  35.638  1.00  0.00     0.059 A 
ATOM     78  F   UNL A   1      45.619  29.687  34.205  1.00  0.00    -0.206 F 
ATOM     79  C   UNL A   1      46.165  26.970  36.522  1.00  0.00     0.060 A 
BRANCH  79  80
ATOM     80  S   UNL A   1      47.527  26.079  37.306  1.00  0.00     0.124 S 
ATOM     81  O   UNL A   1      46.879  25.535  38.494  1.00  0.00    -0.237 OA
ATOM     82  O   UNL A   1      47.892  25.112  36.277  1.00  0.00    -0.237 OA
ATOM     83  O   UNL A   1      48.515  27.126  37.550  1.00  0.00    -0.744 OA
ENDBRANCH  79  80
ENDBRANCH  47  72
BRANCH  59  84
ATOM     84  C   UNL A   1      39.786  33.428  37.398  1.00  0.00     0.058 A 
ATOM     85  C   UNL A   1      40.580  34.542  37.713  1.00  0.00     0.135 A 
ATOM     86  C   UNL A   1      38.832  33.016  38.345  1.00  0.00     0.135 A 
ATOM     87  F   UNL A   1      41.506  34.981  36.846  1.00  0.00    -0.206 F 
ATOM     88  C   UNL A   1      40.469  35.190  38.940  1.00  0.00     0.059 A 
ATOM     89  C   UNL A   1      38.679  33.673  39.561  1.00  0.00     0.059 A 
ATOM     90  F   UNL A   1      38.033  31.969  38.089  1.00  0.00    -0.206 F 
ATOM     91  C   UNL A   1      39.518  34.744  39.860  1.00  0.00     0.060 A 
BRANCH  91  92
ATOM     92  S   UNL A   1      39.393  35.583  41.452  1.00  0.00     0.124 S 
ATOM     93  O   UNL A   1      38.684  36.804  41.085  1.00  0.00    -0.237 OA
ATOM     94  O   UNL A   1      38.637  34.626  42.253  1.00  0.00    -0.237 OA
ATOM     95  O   UNL A   1      40.786  35.763  41.852  1.00  0.00    -0.744 OA
ENDBRANCH  91  92
ENDBRANCH  59  84
ENDBRANCH  33  34
ENDBRANCH  26  28
ENDBRANCH  25  26
ENDBRANCH  24  25
ENDBRANCH  23  24
ENDBRANCH  22  23
ENDBRANCH  21  22
ENDBRANCH  20  21
ENDBRANCH   1  20
TORSDOF 26
ENDMDL
MODEL 2
REMARK VINA RESULT:      -8.1      3.714      6.009
REMARK SMILES CCCOc1ccccc1C(=O)OCCOCCOCCOCCOC(=O)c1ccc(-c2c3nc(c(-c4c(F)cc(S(=O)(=O)[O-])cc4F)c4ccc([nH]4)c(-c4c(F)cc(S(=O)(=O)[O-])cc4F)c4nc(c(-c5c(F)cc(S(=O)(=O)[O-])cc5F)c5ccc2[nH]5)C=C4)C=C3)cc1
REMARK SMILES IDX 19 1 18 2 17 3 16 4 15 5 14 6 13 7 11 8 12 9 10 10 5 11 6 12
REMARK SMILES IDX 7 13 9 14 8 15 4 16 3 17 2 18 1 19 20 20 21 21 22 22 23 23
REMARK SMILES IDX 24 24 25 25 26 26 27 27 28 28 29 29 93 30 30 31 92 32 31 33
REMARK SMILES IDX 32 34 33 35 86 36 34 37 91 38 85 39 87 40 35 41 90 42 84 43
REMARK SMILES IDX 83 44 36 46 70 47 49 48 69 49 50 50 53 51 68 52 88 53 51 54
REMARK SMILES IDX 52 55 67 57 89 58 54 59 37 60 38 61 47 62 39 63 40 64 46 65
REMARK SMILES IDX 48 66 41 67 42 68 43 69 44 70 45 71 71 72 72 73 81 74 73 75
REMARK SMILES IDX 74 76 80 77 82 78 75 79 76 80 77 81 78 82 79 83 55 84 56 85
REMARK SMILES IDX 65 86 57 87 58 88 64 89 66 90 59 91 60 92 61 93 62 94 63 95
REMARK H PARENT 87 45 53 56
REMARK Flexibility Score: inf
ROOT
ATOM      1  O   UNL A   1      42.682  20.079  26.500  1.00  0.00    -0.377 OA
ENDROOT
BRANCH   1   2
ATOM      2  C   UNL A   1      41.422  20.711  26.449  1.00  0.00     0.188 C 
BRANCH   2   3
ATOM      3  C   UNL A   1      40.989  21.660  27.591  1.00  0.00     0.188 C 
BRANCH   3   4
ATOM      4  O   UNL A   1      41.850  22.665  28.087  1.00  0.00    -0.376 OA
BRANCH   4   5
ATOM      5  C   UNL A   1      42.788  22.432  29.120  1.00  0.00     0.202 C 
BRANCH   5   6
ATOM      6  C   UNL A   1      44.090  23.211  29.298  1.00  0.00     0.261 C 
BRANCH   6   7
ATOM      7  O   UNL A   1      44.003  24.632  29.218  1.00  0.00    -0.460 OA
BRANCH   7   8
ATOM      8  C   UNL A   1      45.165  25.302  29.376  1.00  0.00     0.342 C 
ATOM      9  O   UNL A   1      45.689  25.592  30.444  1.00  0.00    -0.246 OA
BRANCH   8  10
ATOM     10  C   UNL A   1      45.820  25.598  28.082  1.00  0.00     0.102 A 
ATOM     11  C   UNL A   1      45.685  26.816  27.403  1.00  0.00     0.133 A 
ATOM     12  C   UNL A   1      46.400  27.031  26.221  1.00  0.00     0.047 A 
ATOM     13  C   UNL A   1      47.255  26.044  25.724  1.00  0.00     0.004 A 
ATOM     14  C   UNL A   1      46.669  24.605  27.569  1.00  0.00     0.019 A 
ATOM     15  C   UNL A   1      47.380  24.826  26.391  1.00  0.00     0.001 A 
BRANCH  11  16
ATOM     16  O   UNL A   1      44.781  27.756  27.805  1.00  0.00    -0.493 OA
BRANCH  16  17
ATOM     17  C   UNL A   1      45.298  29.089  27.864  1.00  0.00     0.229 C 
BRANCH  17  18
ATOM     18  C   UNL A   1      45.115  29.661  29.270  1.00  0.00     0.038 C 
ATOM     19  C   UNL A   1      44.054  30.755  29.344  1.00  0.00     0.007 C 
ENDBRANCH  17  18
ENDBRANCH  16  17
ENDBRANCH  11  16
ENDBRANCH   8  10
ENDBRANCH   7   8
ENDBRANCH   6   7
ENDBRANCH   5   6
ENDBRANCH   4   5
ENDBRANCH   3   4
ENDBRANCH   2   3
ENDBRANCH   1   2
BRANCH   1  20
ATOM     20  C   UNL A   1      43.614  20.219  25.439  1.00  0.00     0.188 C 
BRANCH  20  21
ATOM     21  C   UNL A   1      44.691  21.323  25.439  1.00  0.00     0.188 C 
BRANCH  21  22
ATOM     22  O   UNL A   1      44.646  22.206  24.333  1.00  0.00    -0.376 OA
BRANCH  22  23
ATOM     23  C   UNL A   1      43.734  23.289  24.355  1.00  0.00     0.202 C 
BRANCH  23  24
ATOM     24  C   UNL A   1      43.588  24.090  25.658  1.00  0.00     0.261 C 
BRANCH  24  25
ATOM     25  O   UNL A   1      42.358  24.805  25.831  1.00  0.00    -0.460 OA
BRANCH  25  26
ATOM     26  C   UNL A   1      42.367  26.120  25.522  1.00  0.00     0.338 C 
ATOM     27  O   UNL A   1      42.653  26.620  24.455  1.00  0.00    -0.246 OA
BRANCH  26  28
ATOM     28  C   UNL A   1      41.769  26.848  26.662  1.00  0.00     0.060 A 
ATOM     29  C   UNL A   1      41.784  28.248  26.644  1.00  0.00     0.016 A 
ATOM     30  C   UNL A   1      41.221  26.153  27.742  1.00  0.00     0.016 A 
ATOM     31  C   UNL A   1      41.307  28.958  27.741  1.00  0.00     0.010 A 
ATOM     32  C   UNL A   1      40.768  26.866  28.854  1.00  0.00     0.010 A 
ATOM     33  C   UNL A   1      40.864  28.269  28.876  1.00  0.00    -0.014 A 
BRANCH  33  34
ATOM     34  C   UNL A   1      40.790  29.009  30.157  1.00  0.00     0.031 A 
ATOM     35  C   UNL A   1      39.715  30.056  30.294  1.00  0.00     0.074 A 
ATOM     36  C   UNL A   1      41.585  28.703  31.197  1.00  0.00     0.049 A 
ATOM     37  N   UNL A   1      39.414  30.812  31.318  1.00  0.00    -0.248 NA
ATOM     38  C   UNL A   1      38.861  30.277  29.115  1.00  0.00     0.031 C 
ATOM     39  C   UNL A   1      42.623  27.673  31.195  1.00  0.00     0.029 A 
ATOM     40  N   UNL A   1      41.633  29.230  32.462  1.00  0.00    -0.354 N 
ATOM     41  C   UNL A   1      38.342  31.594  30.905  1.00  0.00     0.074 A 
ATOM     42  C   UNL A   1      38.068  31.253  29.528  1.00  0.00     0.031 C 
ATOM     43  C   UNL A   1      43.209  27.647  32.405  1.00  0.00     0.029 A 
ATOM     44  C   UNL A   1      42.607  28.672  33.254  1.00  0.00     0.049 A 
ATOM     45  H   UNL A   1      41.026  29.941  32.773  1.00  0.00     0.167 HD
ATOM     46  C   UNL A   1      37.636  32.506  31.615  1.00  0.00     0.037 A 
ATOM     47  C   UNL A   1      42.973  28.970  34.517  1.00  0.00     0.037 A 
ATOM     48  C   UNL A   1      37.917  32.842  32.985  1.00  0.00     0.049 A 
ATOM     49  C   UNL A   1      42.215  30.038  35.268  1.00  0.00     0.074 A 
ATOM     50  C   UNL A   1      37.266  33.751  33.799  1.00  0.00     0.029 A 
ATOM     51  N   UNL A   1      38.937  32.285  33.743  1.00  0.00    -0.354 N 
ATOM     52  N   UNL A   1      41.196  30.765  34.872  1.00  0.00    -0.248 NA
ATOM     53  C   UNL A   1      42.650  30.316  36.644  1.00  0.00     0.031 C 
ATOM     54  C   UNL A   1      37.929  33.786  35.030  1.00  0.00     0.029 A 
ATOM     55  C   UNL A   1      38.949  32.847  35.008  1.00  0.00     0.049 A 
ATOM     56  H   UNL A   1      39.561  31.591  33.428  1.00  0.00     0.167 HD
ATOM     57  C   UNL A   1      40.845  31.557  35.960  1.00  0.00     0.074 A 
ATOM     58  C   UNL A   1      41.754  31.210  37.034  1.00  0.00     0.031 C 
ATOM     59  C   UNL A   1      39.859  32.485  36.067  1.00  0.00     0.037 A 
BRANCH  46  60
ATOM     60  C   UNL A   1      36.522  33.228  30.906  1.00  0.00     0.058 A 
ATOM     61  C   UNL A   1      36.770  34.214  29.936  1.00  0.00     0.135 A 
ATOM     62  C   UNL A   1      35.183  32.913  31.190  1.00  0.00     0.135 A 
ATOM     63  F   UNL A   1      38.030  34.574  29.644  1.00  0.00    -0.206 F 
ATOM     64  C   UNL A   1      35.731  34.880  29.295  1.00  0.00     0.059 A 
ATOM     65  C   UNL A   1      34.129  33.544  30.536  1.00  0.00     0.059 A 
ATOM     66  F   UNL A   1      34.887  31.985  32.113  1.00  0.00    -0.206 F 
ATOM     67  C   UNL A   1      34.414  34.536  29.599  1.00  0.00     0.060 A 
BRANCH  67  68
ATOM     68  S   UNL A   1      33.077  35.400  28.748  1.00  0.00     0.124 S 
ATOM     69  O   UNL A   1      32.526  34.336  27.914  1.00  0.00    -0.237 OA
ATOM     70  O   UNL A   1      32.234  35.836  29.856  1.00  0.00    -0.237 OA
ATOM     71  O   UNL A   1      33.764  36.467  28.028  1.00  0.00    -0.744 OA
ENDBRANCH  67  68
ENDBRANCH  46  60
BRANCH  47  72
ATOM     72  C   UNL A   1      44.112  28.254  35.153  1.00  0.00     0.058 A 
ATOM     73  C   UNL A   1      45.420  28.761  35.093  1.00  0.00     0.135 A 
ATOM     74  C   UNL A   1      43.916  27.038  35.826  1.00  0.00     0.135 A 
ATOM     75  F   UNL A   1      45.664  29.914  34.451  1.00  0.00    -0.206 F 
ATOM     76  C   UNL A   1      46.493  28.081  35.661  1.00  0.00     0.059 A 
ATOM     77  C   UNL A   1      44.968  26.354  36.428  1.00  0.00     0.059 A 
ATOM     78  F   UNL A   1      42.685  26.512  35.921  1.00  0.00    -0.206 F 
ATOM     79  C   UNL A   1      46.255  26.878  36.330  1.00  0.00     0.060 A 
BRANCH  79  80
ATOM     80  S   UNL A   1      47.649  26.028  37.105  1.00  0.00     0.124 S 
ATOM     81  O   UNL A   1      47.001  24.841  37.652  1.00  0.00    -0.237 OA
ATOM     82  O   UNL A   1      48.539  25.804  35.971  1.00  0.00    -0.237 OA
ATOM     83  O   UNL A   1      48.128  26.995  38.086  1.00  0.00    -0.744 OA
ENDBRANCH  79  80
ENDBRANCH  47  72
BRANCH  59  84
ATOM     84  C   UNL A   1      39.676  33.151  37.406  1.00  0.00     0.058 A 
ATOM     85  C   UNL A   1      40.470  34.233  37.818  1.00  0.00     0.135 A 
ATOM     86  C   UNL A   1      38.673  32.706  38.285  1.00  0.00     0.135 A 
ATOM     87  F   UNL A   1      41.442  34.701  37.019  1.00  0.00    -0.206 F 
ATOM     88  C   UNL A   1      40.312  34.817  39.071  1.00  0.00     0.059 A 
ATOM     89  C   UNL A   1      38.472  33.299  39.527  1.00  0.00     0.059 A 
ATOM     90  F   UNL A   1      37.871  31.688  37.937  1.00  0.00    -0.206 F 
ATOM     91  C   UNL A   1      39.312  34.338  39.921  1.00  0.00     0.060 A 
BRANCH  91  92
ATOM     92  S   UNL A   1      39.125  35.095  41.549  1.00  0.00     0.124 S 
ATOM     93  O   UNL A   1      39.120  33.923  42.418  1.00  0.00    -0.237 OA
ATOM     94  O   UNL A   1      40.307  35.945  41.637  1.00  0.00    -0.237 OA
ATOM     95  O   UNL A   1      37.854  35.807  41.449  1.00  0.00    -0.744 OA
ENDBRANCH  91  92
ENDBRANCH  59  84
ENDBRANCH  33  34
ENDBRANCH  26  28
ENDBRANCH  25  26
ENDBRANCH  24  25
ENDBRANCH  23  24
ENDBRANCH  22  23
ENDBRANCH  21  22
ENDBRANCH  20  21
ENDBRANCH   1  20
TORSDOF 26
ENDMDL
MODEL 3
REMARK VINA RESULT:      -7.8      3.808      6.649
REMARK SMILES CCCOc1ccccc1C(=O)OCCOCCOCCOCCOC(=O)c1ccc(-c2c3nc(c(-c4c(F)cc(S(=O)(=O)[O-])cc4F)c4ccc([nH]4)c(-c4c(F)cc(S(=O)(=O)[O-])cc4F)c4nc(c(-c5c(F)cc(S(=O)(=O)[O-])cc5F)c5ccc2[nH]5)C=C4)C=C3)cc1
REMARK SMILES IDX 19 1 18 2 17 3 16 4 15 5 14 6 13 7 11 8 12 9 10 10 5 11 6 12
REMARK SMILES IDX 7 13 9 14 8 15 4 16 3 17 2 18 1 19 20 20 21 21 22 22 23 23
REMARK SMILES IDX 24 24 25 25 26 26 27 27 28 28 29 29 93 30 30 31 92 32 31 33
REMARK SMILES IDX 32 34 33 35 86 36 34 37 91 38 85 39 87 40 35 41 90 42 84 43
REMARK SMILES IDX 83 44 36 46 70 47 49 48 69 49 50 50 53 51 68 52 88 53 51 54
REMARK SMILES IDX 52 55 67 57 89 58 54 59 37 60 38 61 47 62 39 63 40 64 46 65
REMARK SMILES IDX 48 66 41 67 42 68 43 69 44 70 45 71 71 72 72 73 81 74 73 75
REMARK SMILES IDX 74 76 80 77 82 78 75 79 76 80 77 81 78 82 79 83 55 84 56 85
REMARK SMILES IDX 65 86 57 87 58 88 64 89 66 90 59 91 60 92 61 93 62 94 63 95
REMARK H PARENT 87 45 53 56
REMARK Flexibility Score: inf
ROOT
ATOM      1  O   UNL A   1      43.197  19.923  26.349  1.00  0.00    -0.377 OA
ENDROOT
BRANCH   1   2
ATOM      2  C   UNL A   1      41.927  20.517  26.505  1.00  0.00     0.188 C 
BRANCH   2   3
ATOM      3  C   UNL A   1      41.679  21.513  27.661  1.00  0.00     0.188 C 
BRANCH   3   4
ATOM      4  O   UNL A   1      42.702  22.361  28.142  1.00  0.00    -0.376 OA
BRANCH   4   5
ATOM      5  C   UNL A   1      42.693  22.913  29.445  1.00  0.00     0.202 C 
BRANCH   5   6
ATOM      6  C   UNL A   1      43.842  23.714  30.054  1.00  0.00     0.261 C 
BRANCH   6   7
ATOM      7  O   UNL A   1      44.273  24.867  29.334  1.00  0.00    -0.460 OA
BRANCH   7   8
ATOM      8  C   UNL A   1      45.374  25.483  29.816  1.00  0.00     0.342 C 
ATOM      9  O   UNL A   1      45.940  25.226  30.870  1.00  0.00    -0.246 OA
BRANCH   8  10
ATOM     10  C   UNL A   1      45.906  26.492  28.873  1.00  0.00     0.102 A 
ATOM     11  C   UNL A   1      47.218  26.484  28.384  1.00  0.00     0.133 A 
ATOM     12  C   UNL A   1      47.610  27.438  27.439  1.00  0.00     0.047 A 
ATOM     13  C   UNL A   1      46.696  28.388  26.975  1.00  0.00     0.004 A 
ATOM     14  C   UNL A   1      44.998  27.459  28.413  1.00  0.00     0.019 A 
ATOM     15  C   UNL A   1      45.393  28.407  27.471  1.00  0.00     0.001 A 
BRANCH  11  16
ATOM     16  O   UNL A   1      48.160  25.639  28.894  1.00  0.00    -0.493 OA
BRANCH  16  17
ATOM     17  C   UNL A   1      48.905  24.917  27.908  1.00  0.00     0.229 C 
BRANCH  17  18
ATOM     18  C   UNL A   1      50.379  25.321  27.963  1.00  0.00     0.038 C 
ATOM     19  C   UNL A   1      50.847  25.708  29.362  1.00  0.00     0.007 C 
ENDBRANCH  17  18
ENDBRANCH  16  17
ENDBRANCH  11  16
ENDBRANCH   8  10
ENDBRANCH   7   8
ENDBRANCH   6   7
ENDBRANCH   5   6
ENDBRANCH   4   5
ENDBRANCH   3   4
ENDBRANCH   2   3
ENDBRANCH   1   2
BRANCH   1  20
ATOM     20  C   UNL A   1      44.025  20.246  25.242  1.00  0.00     0.188 C 
BRANCH  20  21
ATOM     21  C   UNL A   1      45.039  21.408  25.293  1.00  0.00     0.188 C 
BRANCH  21  22
ATOM     22  O   UNL A   1      44.894  22.376  24.270  1.00  0.00    -0.376 OA
BRANCH  22  23
ATOM     23  C   UNL A   1      43.944  23.413  24.434  1.00  0.00     0.202 C 
BRANCH  23  24
ATOM     24  C   UNL A   1      43.934  24.185  25.763  1.00  0.00     0.261 C 
BRANCH  24  25
ATOM     25  O   UNL A   1      42.677  24.745  26.162  1.00  0.00    -0.460 OA
BRANCH  25  26
ATOM     26  C   UNL A   1      42.388  25.985  25.708  1.00  0.00     0.338 C 
ATOM     27  O   UNL A   1      42.431  26.373  24.560  1.00  0.00    -0.246 OA
BRANCH  26  28
ATOM     28  C   UNL A   1      41.811  26.747  26.836  1.00  0.00     0.060 A 
ATOM     29  C   UNL A   1      41.851  28.146  26.788  1.00  0.00     0.016 A 
ATOM     30  C   UNL A   1      41.258  26.085  27.934  1.00  0.00     0.016 A 
ATOM     31  C   UNL A   1      41.394  28.889  27.872  1.00  0.00     0.010 A 
ATOM     32  C   UNL A   1      40.826  26.831  29.034  1.00  0.00     0.010 A 
ATOM     33  C   UNL A   1      40.947  28.231  29.025  1.00  0.00    -0.014 A 
BRANCH  33  34
ATOM     34  C   UNL A   1      40.895  29.001  30.291  1.00  0.00     0.031 A 
ATOM     35  C   UNL A   1      39.825  30.054  30.420  1.00  0.00     0.074 A 
ATOM     36  C   UNL A   1      41.704  28.715  31.324  1.00  0.00     0.049 A 
ATOM     37  N   UNL A   1      39.543  30.834  31.432  1.00  0.00    -0.248 NA
ATOM     38  C   UNL A   1      38.954  30.252  29.249  1.00  0.00     0.031 C 
ATOM     39  C   UNL A   1      42.739  27.681  31.330  1.00  0.00     0.029 A 
ATOM     40  N   UNL A   1      41.774  29.269  32.576  1.00  0.00    -0.354 N 
ATOM     41  C   UNL A   1      38.467  31.611  31.017  1.00  0.00     0.074 A 
ATOM     42  C   UNL A   1      38.171  31.240  29.653  1.00  0.00     0.031 C 
ATOM     43  C   UNL A   1      43.344  27.679  32.531  1.00  0.00     0.029 A 
ATOM     44  C   UNL A   1      42.757  28.726  33.366  1.00  0.00     0.049 A 
ATOM     45  H   UNL A   1      41.174  29.989  32.881  1.00  0.00     0.167 HD
ATOM     46  C   UNL A   1      37.775  32.541  31.717  1.00  0.00     0.037 A 
ATOM     47  C   UNL A   1      43.144  29.050  34.617  1.00  0.00     0.037 A 
ATOM     48  C   UNL A   1      38.078  32.905  33.075  1.00  0.00     0.049 A 
ATOM     49  C   UNL A   1      42.401  30.137  35.355  1.00  0.00     0.074 A 
ATOM     50  C   UNL A   1      37.443  33.835  33.879  1.00  0.00     0.029 A 
ATOM     51  N   UNL A   1      39.108  32.361  33.830  1.00  0.00    -0.354 N 
ATOM     52  N   UNL A   1      41.379  30.859  34.958  1.00  0.00    -0.248 NA
ATOM     53  C   UNL A   1      42.858  30.444  36.717  1.00  0.00     0.031 C 
ATOM     54  C   UNL A   1      38.125  33.895  35.099  1.00  0.00     0.029 A 
ATOM     55  C   UNL A   1      39.141  32.952  35.081  1.00  0.00     0.049 A 
ATOM     56  H   UNL A   1      39.725  31.659  33.521  1.00  0.00     0.167 HD
ATOM     57  C   UNL A   1      41.047  31.677  36.034  1.00  0.00     0.074 A 
ATOM     58  C   UNL A   1      41.971  31.350  37.101  1.00  0.00     0.031 C 
ATOM     59  C   UNL A   1      40.066  32.610  36.135  1.00  0.00     0.037 A 
BRANCH  46  60
ATOM     60  C   UNL A   1      36.653  33.250  31.009  1.00  0.00     0.058 A 
ATOM     61  C   UNL A   1      36.890  34.214  30.016  1.00  0.00     0.135 A 
ATOM     62  C   UNL A   1      35.317  32.946  31.320  1.00  0.00     0.135 A 
ATOM     63  F   UNL A   1      38.146  34.564  29.696  1.00  0.00    -0.206 F 
ATOM     64  C   UNL A   1      35.843  34.870  29.375  1.00  0.00     0.059 A 
ATOM     65  C   UNL A   1      34.256  33.567  30.668  1.00  0.00     0.059 A 
ATOM     66  F   UNL A   1      35.032  32.039  32.267  1.00  0.00    -0.206 F 
ATOM     67  C   UNL A   1      34.529  34.537  29.706  1.00  0.00     0.060 A 
BRANCH  67  68
ATOM     68  S   UNL A   1      33.183  35.387  28.856  1.00  0.00     0.124 S 
ATOM     69  O   UNL A   1      32.541  34.282  28.149  1.00  0.00    -0.237 OA
ATOM     70  O   UNL A   1      32.424  35.954  29.966  1.00  0.00    -0.237 OA
ATOM     71  O   UNL A   1      33.871  36.356  28.010  1.00  0.00    -0.744 OA
ENDBRANCH  67  68
ENDBRANCH  46  60
BRANCH  47  72
ATOM     72  C   UNL A   1      44.290  28.344  35.251  1.00  0.00     0.058 A 
ATOM     73  C   UNL A   1      44.098  27.209  36.053  1.00  0.00     0.135 A 
ATOM     74  C   UNL A   1      45.606  28.801  35.076  1.00  0.00     0.135 A 
ATOM     75  F   UNL A   1      42.859  26.738  36.262  1.00  0.00    -0.206 F 
ATOM     76  C   UNL A   1      45.164  26.563  36.672  1.00  0.00     0.059 A 
ATOM     77  C   UNL A   1      46.692  28.156  35.660  1.00  0.00     0.059 A 
ATOM     78  F   UNL A   1      45.848  29.879  34.312  1.00  0.00    -0.206 F 
ATOM     79  C   UNL A   1      46.459  27.044  36.466  1.00  0.00     0.060 A 
BRANCH  79  80
ATOM     80  S   UNL A   1      47.840  26.169  37.236  1.00  0.00     0.124 S 
ATOM     81  O   UNL A   1      47.621  24.805  36.769  1.00  0.00    -0.237 OA
ATOM     82  O   UNL A   1      48.993  26.861  36.669  1.00  0.00    -0.237 OA
ATOM     83  O   UNL A   1      47.624  26.391  38.662  1.00  0.00    -0.744 OA
ENDBRANCH  79  80
ENDBRANCH  47  72
BRANCH  59  84
ATOM     84  C   UNL A   1      39.906  33.306  37.461  1.00  0.00     0.058 A 
ATOM     85  C   UNL A   1      38.925  32.927  38.392  1.00  0.00     0.135 A 
ATOM     86  C   UNL A   1      40.766  34.361  37.813  1.00  0.00     0.135 A 
ATOM     87  F   UNL A   1      38.078  31.924  38.110  1.00  0.00    -0.206 F 
ATOM     88  C   UNL A   1      38.768  33.600  39.599  1.00  0.00     0.059 A 
ATOM     89  C   UNL A   1      40.651  35.024  39.031  1.00  0.00     0.059 A 
ATOM     90  F   UNL A   1      41.734  34.755  36.971  1.00  0.00    -0.206 F 
ATOM     91  C   UNL A   1      39.634  34.652  39.907  1.00  0.00     0.060 A 
BRANCH  91  92
ATOM     92  S   UNL A   1      39.412  35.527  41.470  1.00  0.00     0.124 S 
ATOM     93  O   UNL A   1      38.008  35.914  41.392  1.00  0.00    -0.237 OA
ATOM     94  O   UNL A   1      39.733  34.497  42.453  1.00  0.00    -0.237 OA
ATOM     95  O   UNL A   1      40.372  36.624  41.385  1.00  0.00    -0.744 OA
ENDBRANCH  91  92
ENDBRANCH  59  84
ENDBRANCH  33  34
ENDBRANCH  26  28
ENDBRANCH  25  26
ENDBRANCH  24  25
ENDBRANCH  23  24
ENDBRANCH  22  23
ENDBRANCH  21  22
ENDBRANCH  20  21
ENDBRANCH   1  20
TORSDOF 26
ENDMDL
