MODEL 1
REMARK VINA RESULT:      -9.1      0.000      0.000
REMARK SMILES CC[C@@H](C)[C@H](NC(=O)CCc1ccc(F)c(F)c1)C(=O)OCCOCCOCCOCCOC(=O)c1ccc(-c2c3nc(c(-c4c(F)cc(S(=O)(=O)[O-])cc4F)c4ccc([nH]4)c(-c4c(F)cc(S(=O)(=O)[O-])cc4F)c4nc(c(-c5c(F)cc(S(=O)(=O)[O-])cc5F)c5ccc2[nH]5)C=C4)C=C3)cc1
REMARK SMILES IDX 26 1 25 2 24 3 23 4 22 5 21 6 19 7 20 8 5 9 3 10 4 11 2 12
REMARK SMILES IDX 1 13 6 14 7 15 8 17 9 18 10 19 11 20 12 21 18 22 13 23 16 24
REMARK SMILES IDX 14 25 17 26 15 27 27 28 28 29 29 30 30 31 31 32 32 33 33 34
REMARK SMILES IDX 34 35 35 36 36 37 37 38 101 39 38 40 100 41 39 42 40 43
REMARK SMILES IDX 41 44 94 45 42 46 99 47 93 48 95 49 43 50 98 51 92 52 91 53
REMARK SMILES IDX 44 55 78 56 57 57 77 58 58 59 61 60 76 61 96 62 59 63 60 64
REMARK SMILES IDX 75 66 97 67 62 68 45 69 46 70 55 71 47 72 48 73 54 74 56 75
REMARK SMILES IDX 49 76 50 77 51 78 52 79 53 80 79 81 80 82 89 83 81 84 82 85
REMARK SMILES IDX 88 86 90 87 83 88 84 89 85 90 86 91 87 92 63 93 64 94 73 95
REMARK SMILES IDX 65 96 66 97 72 98 74 99 67 100 68 101 69 102 70 103 71 104
REMARK H PARENT 6 16 95 54 61 65
REMARK Flexibility Score: inf
ROOT
ATOM      1  C   UNL A   1      39.685  21.158  26.052  1.00  0.00     0.188 C 
ENDROOT
BRANCH   1   2
ATOM      2  C   UNL A   1      38.546  22.188  26.180  1.00  0.00     0.188 C 
BRANCH   2   3
ATOM      3  O   UNL A   1      37.263  21.946  25.615  1.00  0.00    -0.376 OA
BRANCH   3   4
ATOM      4  C   UNL A   1      36.229  22.909  25.764  1.00  0.00     0.202 C 
BRANCH   4   5
ATOM      5  C   UNL A   1      35.775  23.722  24.538  1.00  0.00     0.261 C 
BRANCH   5   6
ATOM      6  O   UNL A   1      34.725  24.685  24.770  1.00  0.00    -0.462 OA
BRANCH   6   7
ATOM      7  C   UNL A   1      34.058  25.123  23.675  1.00  0.00     0.328 C 
ATOM      8  O   UNL A   1      34.568  25.221  22.561  1.00  0.00    -0.250 OA
BRANCH   7   9
ATOM      9  C   UNL A   1      32.623  25.655  23.959  1.00  0.00     0.195 C 
BRANCH   9  10
ATOM     10  C   UNL A   1      32.728  26.470  25.279  1.00  0.00     0.019 C 
ATOM     11  C   UNL A   1      31.863  25.883  26.404  1.00  0.00     0.010 C 
BRANCH  10  12
ATOM     12  C   UNL A   1      32.385  27.954  25.048  1.00  0.00     0.002 C 
ATOM     13  C   UNL A   1      31.010  28.122  24.424  1.00  0.00     0.004 C 
ENDBRANCH  10  12
ENDBRANCH   9  10
BRANCH   9  14
ATOM     14  N   UNL A   1      31.369  24.868  23.946  1.00  0.00    -0.343 N 
ATOM     15  C   UNL A   1      31.094  23.653  23.374  1.00  0.00     0.221 C 
ATOM     16  H   UNL A   1      30.615  25.284  24.421  1.00  0.00     0.164 HD
ATOM     17  O   UNL A   1      29.935  23.428  23.014  1.00  0.00    -0.275 OA
BRANCH  15  18
ATOM     18  C   UNL A   1      32.131  22.541  23.288  1.00  0.00     0.105 C 
BRANCH  18  19
ATOM     19  C   UNL A   1      32.409  21.742  24.560  1.00  0.00     0.045 C 
BRANCH  19  20
ATOM     20  C   UNL A   1      32.669  20.290  24.248  1.00  0.00    -0.044 A 
ATOM     21  C   UNL A   1      33.628  19.565  24.981  1.00  0.00     0.007 A 
ATOM     22  C   UNL A   1      32.078  19.701  23.123  1.00  0.00     0.046 A 
ATOM     23  C   UNL A   1      34.074  18.324  24.524  1.00  0.00     0.043 A 
ATOM     24  C   UNL A   1      32.525  18.459  22.681  1.00  0.00     0.159 A 
ATOM     25  C   UNL A   1      33.535  17.788  23.361  1.00  0.00     0.158 A 
ATOM     26  F   UNL A   1      32.031  17.959  21.541  1.00  0.00    -0.204 F 
ATOM     27  F   UNL A   1      34.021  16.638  22.877  1.00  0.00    -0.204 F 
ENDBRANCH  19  20
ENDBRANCH  18  19
ENDBRANCH  15  18
ENDBRANCH   9  14
ENDBRANCH   7   9
ENDBRANCH   6   7
ENDBRANCH   5   6
ENDBRANCH   4   5
ENDBRANCH   3   4
ENDBRANCH   2   3
ENDBRANCH   1   2
BRANCH   1  28
ATOM     28  O   UNL A   1      40.509  21.030  27.185  1.00  0.00    -0.377 OA
BRANCH  28  29
ATOM     29  C   UNL A   1      41.570  20.105  27.081  1.00  0.00     0.188 C 
BRANCH  29  30
ATOM     30  C   UNL A   1      42.723  20.493  26.143  1.00  0.00     0.188 C 
BRANCH  30  31
ATOM     31  O   UNL A   1      43.283  21.776  26.420  1.00  0.00    -0.376 OA
BRANCH  31  32
ATOM     32  C   UNL A   1      43.068  22.821  25.480  1.00  0.00     0.202 C 
BRANCH  32  33
ATOM     33  C   UNL A   1      42.056  23.918  25.856  1.00  0.00     0.261 C 
BRANCH  33  34
ATOM     34  O   UNL A   1      42.497  25.279  25.742  1.00  0.00    -0.460 OA
BRANCH  34  35
ATOM     35  C   UNL A   1      43.533  25.684  26.507  1.00  0.00     0.338 C 
ATOM     36  O   UNL A   1      44.720  25.547  26.262  1.00  0.00    -0.246 OA
BRANCH  35  37
ATOM     37  C   UNL A   1      42.986  26.529  27.591  1.00  0.00     0.060 A 
ATOM     38  C   UNL A   1      43.417  27.859  27.692  1.00  0.00     0.016 A 
ATOM     39  C   UNL A   1      42.025  26.031  28.474  1.00  0.00     0.016 A 
ATOM     40  C   UNL A   1      42.908  28.688  28.692  1.00  0.00     0.010 A 
ATOM     41  C   UNL A   1      41.540  26.851  29.497  1.00  0.00     0.010 A 
ATOM     42  C   UNL A   1      42.004  28.172  29.629  1.00  0.00    -0.014 A 
BRANCH  42  43
ATOM     43  C   UNL A   1      41.731  28.932  30.873  1.00  0.00     0.031 A 
ATOM     44  C   UNL A   1      40.568  29.888  30.869  1.00  0.00     0.074 A 
ATOM     45  C   UNL A   1      42.475  28.769  31.982  1.00  0.00     0.049 A 
ATOM     46  N   UNL A   1      40.155  30.700  31.805  1.00  0.00    -0.248 NA
ATOM     47  C   UNL A   1      39.763  29.930  29.636  1.00  0.00     0.031 C 
ATOM     48  C   UNL A   1      43.597  27.842  32.122  1.00  0.00     0.029 A 
ATOM     49  N   UNL A   1      42.398  29.391  33.204  1.00  0.00    -0.354 N 
ATOM     50  C   UNL A   1      39.048  31.351  31.275  1.00  0.00     0.074 A 
ATOM     51  C   UNL A   1      38.871  30.865  29.925  1.00  0.00     0.031 C 
ATOM     52  C   UNL A   1      44.117  27.972  33.356  1.00  0.00     0.029 A 
ATOM     53  C   UNL A   1      43.387  29.012  34.081  1.00  0.00     0.049 A 
ATOM     54  H   UNL A   1      41.701  30.049  33.430  1.00  0.00     0.167 HD
ATOM     55  C   UNL A   1      38.243  32.266  31.864  1.00  0.00     0.037 A 
ATOM     56  C   UNL A   1      43.680  29.472  35.315  1.00  0.00     0.037 A 
ATOM     57  C   UNL A   1      38.431  32.755  33.204  1.00  0.00     0.049 A 
ATOM     58  C   UNL A   1      42.817  30.551  35.922  1.00  0.00     0.074 A 
ATOM     59  C   UNL A   1      37.670  33.680  33.897  1.00  0.00     0.029 A 
ATOM     60  N   UNL A   1      39.458  32.365  34.051  1.00  0.00    -0.354 N 
ATOM     61  N   UNL A   1      41.759  31.146  35.420  1.00  0.00    -0.248 NA
ATOM     62  C   UNL A   1      43.183  31.020  37.267  1.00  0.00     0.031 C 
ATOM     63  C   UNL A   1      38.270  33.890  35.142  1.00  0.00     0.029 A 
ATOM     64  C   UNL A   1      39.366  33.050  35.251  1.00  0.00     0.049 A 
ATOM     65  H   UNL A   1      40.151  31.700  33.832  1.00  0.00     0.167 HD
ATOM     66  C   UNL A   1      41.318  32.033  36.398  1.00  0.00     0.074 A 
ATOM     67  C   UNL A   1      42.216  31.890  37.525  1.00  0.00     0.031 C 
ATOM     68  C   UNL A   1      40.263  32.887  36.369  1.00  0.00     0.037 A 
BRANCH  55  69
ATOM     69  C   UNL A   1      37.108  32.821  31.049  1.00  0.00     0.058 A 
ATOM     70  C   UNL A   1      37.325  33.721  29.993  1.00  0.00     0.135 A 
ATOM     71  C   UNL A   1      35.786  32.425  31.309  1.00  0.00     0.135 A 
ATOM     72  F   UNL A   1      38.566  34.152  29.715  1.00  0.00    -0.206 F 
ATOM     73  C   UNL A   1      36.270  34.225  29.239  1.00  0.00     0.059 A 
ATOM     74  C   UNL A   1      34.719  32.893  30.549  1.00  0.00     0.059 A 
ATOM     75  F   UNL A   1      35.520  31.573  32.312  1.00  0.00    -0.206 F 
ATOM     76  C   UNL A   1      34.970  33.802  29.523  1.00  0.00     0.060 A 
BRANCH  76  77
ATOM     77  S   UNL A   1      33.616  34.456  28.526  1.00  0.00     0.124 S 
ATOM     78  O   UNL A   1      34.266  35.575  27.849  1.00  0.00    -0.237 OA
ATOM     79  O   UNL A   1      33.275  33.316  27.680  1.00  0.00    -0.237 OA
ATOM     80  O   UNL A   1      32.609  34.822  29.516  1.00  0.00    -0.744 OA
ENDBRANCH  76  77
ENDBRANCH  55  69
BRANCH  56  81
ATOM     81  C   UNL A   1      44.854  28.933  36.054  1.00  0.00     0.058 A 
ATOM     82  C   UNL A   1      46.134  29.485  35.897  1.00  0.00     0.135 A 
ATOM     83  C   UNL A   1      44.722  27.839  36.926  1.00  0.00     0.135 A 
ATOM     84  F   UNL A   1      46.319  30.522  35.064  1.00  0.00    -0.206 F 
ATOM     85  C   UNL A   1      47.241  28.965  36.560  1.00  0.00     0.059 A 
ATOM     86  C   UNL A   1      45.809  27.319  37.622  1.00  0.00     0.059 A 
ATOM     87  F   UNL A   1      43.519  27.274  37.119  1.00  0.00    -0.206 F 
ATOM     88  C   UNL A   1      47.067  27.883  37.425  1.00  0.00     0.060 A 
BRANCH  88  89
ATOM     89  S   UNL A   1      48.503  27.247  38.317  1.00  0.00     0.124 S 
ATOM     90  O   UNL A   1      48.928  26.154  37.449  1.00  0.00    -0.237 OA
ATOM     91  O   UNL A   1      49.380  28.413  38.353  1.00  0.00    -0.237 OA
ATOM     92  O   UNL A   1      47.948  26.849  39.607  1.00  0.00    -0.744 OA
ENDBRANCH  88  89
ENDBRANCH  56  81
BRANCH  68  93
ATOM     93  C   UNL A   1      39.988  33.703  37.603  1.00  0.00     0.058 A 
ATOM     94  C   UNL A   1      40.633  34.927  37.844  1.00  0.00     0.135 A 
ATOM     95  C   UNL A   1      39.018  33.283  38.528  1.00  0.00     0.135 A 
ATOM     96  F   UNL A   1      41.572  35.375  36.995  1.00  0.00    -0.206 F 
ATOM     97  C   UNL A   1      40.341  35.692  38.969  1.00  0.00     0.059 A 
ATOM     98  C   UNL A   1      38.688  34.047  39.642  1.00  0.00     0.059 A 
ATOM     99  F   UNL A   1      38.360  32.127  38.341  1.00  0.00    -0.206 F 
ATOM    100  C   UNL A   1      39.364  35.246  39.861  1.00  0.00     0.060 A 
BRANCH 100 101
ATOM    101  S   UNL A   1      38.972  36.267  41.298  1.00  0.00     0.124 S 
ATOM    102  O   UNL A   1      40.239  36.256  42.021  1.00  0.00    -0.237 OA
ATOM    103  O   UNL A   1      38.602  37.538  40.685  1.00  0.00    -0.237 OA
ATOM    104  O   UNL A   1      37.877  35.545  41.939  1.00  0.00    -0.744 OA
ENDBRANCH 100 101
ENDBRANCH  68  93
ENDBRANCH  42  43
ENDBRANCH  35  37
ENDBRANCH  34  35
ENDBRANCH  33  34
ENDBRANCH  32  33
ENDBRANCH  31  32
ENDBRANCH  30  31
ENDBRANCH  29  30
ENDBRANCH  28  29
ENDBRANCH   1  28
TORSDOF 29
ENDMDL
MODEL 2
REMARK VINA RESULT:      -9.0      1.422      8.092
REMARK SMILES CC[C@@H](C)[C@H](NC(=O)CCc1ccc(F)c(F)c1)C(=O)OCCOCCOCCOCCOC(=O)c1ccc(-c2c3nc(c(-c4c(F)cc(S(=O)(=O)[O-])cc4F)c4ccc([nH]4)c(-c4c(F)cc(S(=O)(=O)[O-])cc4F)c4nc(c(-c5c(F)cc(S(=O)(=O)[O-])cc5F)c5ccc2[nH]5)C=C4)C=C3)cc1
REMARK SMILES IDX 26 1 25 2 24 3 23 4 22 5 21 6 19 7 20 8 5 9 3 10 4 11 2 12
REMARK SMILES IDX 1 13 6 14 7 15 8 17 9 18 10 19 11 20 12 21 18 22 13 23 16 24
REMARK SMILES IDX 14 25 17 26 15 27 27 28 28 29 29 30 30 31 31 32 32 33 33 34
REMARK SMILES IDX 34 35 35 36 36 37 37 38 101 39 38 40 100 41 39 42 40 43
REMARK SMILES IDX 41 44 94 45 42 46 99 47 93 48 95 49 43 50 98 51 92 52 91 53
REMARK SMILES IDX 44 55 78 56 57 57 77 58 58 59 61 60 76 61 96 62 59 63 60 64
REMARK SMILES IDX 75 66 97 67 62 68 45 69 46 70 55 71 47 72 48 73 54 74 56 75
REMARK SMILES IDX 49 76 50 77 51 78 52 79 53 80 79 81 80 82 89 83 81 84 82 85
REMARK SMILES IDX 88 86 90 87 83 88 84 89 85 90 86 91 87 92 63 93 64 94 73 95
REMARK SMILES IDX 65 96 66 97 72 98 74 99 67 100 68 101 69 102 70 103 71 104
REMARK H PARENT 6 16 95 54 61 65
REMARK Flexibility Score: inf
ROOT
ATOM      1  C   UNL A   1      40.252  21.463  26.878  1.00  0.00     0.188 C 
ENDROOT
BRANCH   1   2
ATOM      2  C   UNL A   1      39.200  22.175  26.004  1.00  0.00     0.188 C 
BRANCH   2   3
ATOM      3  O   UNL A   1      38.074  21.477  25.486  1.00  0.00    -0.376 OA
BRANCH   3   4
ATOM      4  C   UNL A   1      36.771  22.025  25.632  1.00  0.00     0.202 C 
BRANCH   4   5
ATOM      5  C   UNL A   1      36.347  23.205  24.739  1.00  0.00     0.261 C 
BRANCH   5   6
ATOM      6  O   UNL A   1      35.668  24.291  25.405  1.00  0.00    -0.462 OA
BRANCH   6   7
ATOM      7  C   UNL A   1      34.320  24.198  25.488  1.00  0.00     0.328 C 
ATOM      8  O   UNL A   1      33.726  23.792  26.486  1.00  0.00    -0.250 OA
BRANCH   7   9
ATOM      9  C   UNL A   1      33.565  24.490  24.159  1.00  0.00     0.195 C 
BRANCH   9  10
ATOM     10  C   UNL A   1      32.817  25.834  24.385  1.00  0.00     0.019 C 
ATOM     11  C   UNL A   1      31.402  25.828  23.786  1.00  0.00     0.010 C 
BRANCH  10  12
ATOM     12  C   UNL A   1      33.630  27.025  23.844  1.00  0.00     0.002 C 
ATOM     13  C   UNL A   1      33.422  27.215  22.351  1.00  0.00     0.004 C 
ENDBRANCH  10  12
ENDBRANCH   9  10
BRANCH   9  14
ATOM     14  N   UNL A   1      32.706  23.551  23.404  1.00  0.00    -0.343 N 
ATOM     15  C   UNL A   1      32.790  22.189  23.271  1.00  0.00     0.221 C 
ATOM     16  H   UNL A   1      31.959  23.970  22.921  1.00  0.00     0.164 HD
ATOM     17  O   UNL A   1      32.357  21.677  22.234  1.00  0.00    -0.275 OA
BRANCH  15  18
ATOM     18  C   UNL A   1      33.276  21.289  24.399  1.00  0.00     0.105 C 
BRANCH  18  19
ATOM     19  C   UNL A   1      32.367  20.134  24.815  1.00  0.00     0.045 C 
BRANCH  19  20
ATOM     20  C   UNL A   1      33.161  18.875  25.057  1.00  0.00    -0.044 A 
ATOM     21  C   UNL A   1      34.485  18.768  24.592  1.00  0.00     0.007 A 
ATOM     22  C   UNL A   1      32.533  17.747  25.601  1.00  0.00     0.046 A 
ATOM     23  C   UNL A   1      35.124  17.526  24.560  1.00  0.00     0.043 A 
ATOM     24  C   UNL A   1      33.182  16.516  25.571  1.00  0.00     0.159 A 
ATOM     25  C   UNL A   1      34.456  16.402  25.030  1.00  0.00     0.158 A 
ATOM     26  F   UNL A   1      32.526  15.426  25.991  1.00  0.00    -0.204 F 
ATOM     27  F   UNL A   1      35.035  15.199  24.922  1.00  0.00    -0.204 F 
ENDBRANCH  19  20
ENDBRANCH  18  19
ENDBRANCH  15  18
ENDBRANCH   9  14
ENDBRANCH   7   9
ENDBRANCH   6   7
ENDBRANCH   5   6
ENDBRANCH   4   5
ENDBRANCH   3   4
ENDBRANCH   2   3
ENDBRANCH   1   2
BRANCH   1  28
ATOM     28  O   UNL A   1      41.483  22.133  27.001  1.00  0.00    -0.377 OA
BRANCH  28  29
ATOM     29  C   UNL A   1      42.524  21.680  26.161  1.00  0.00     0.188 C 
BRANCH  29  30
ATOM     30  C   UNL A   1      43.202  22.743  25.284  1.00  0.00     0.188 C 
BRANCH  30  31
ATOM     31  O   UNL A   1      42.704  24.063  25.492  1.00  0.00    -0.376 OA
BRANCH  31  32
ATOM     32  C   UNL A   1      43.534  25.161  25.134  1.00  0.00     0.202 C 
BRANCH  32  33
ATOM     33  C   UNL A   1      45.050  25.008  25.356  1.00  0.00     0.261 C 
BRANCH  33  34
ATOM     34  O   UNL A   1      45.582  25.512  26.590  1.00  0.00    -0.460 OA
BRANCH  34  35
ATOM     35  C   UNL A   1      45.189  24.931  27.744  1.00  0.00     0.338 C 
ATOM     36  O   UNL A   1      45.519  23.833  28.159  1.00  0.00    -0.246 OA
BRANCH  35  37
ATOM     37  C   UNL A   1      44.464  25.950  28.534  1.00  0.00     0.060 A 
ATOM     38  C   UNL A   1      44.745  27.305  28.307  1.00  0.00     0.016 A 
ATOM     39  C   UNL A   1      43.487  25.579  29.461  1.00  0.00     0.016 A 
ATOM     40  C   UNL A   1      44.068  28.291  29.024  1.00  0.00     0.010 A 
ATOM     41  C   UNL A   1      42.832  26.567  30.203  1.00  0.00     0.010 A 
ATOM     42  C   UNL A   1      43.144  27.924  30.010  1.00  0.00    -0.014 A 
BRANCH  42  43
ATOM     43  C   UNL A   1      42.687  28.936  30.993  1.00  0.00     0.031 A 
ATOM     44  C   UNL A   1      43.489  29.097  32.257  1.00  0.00     0.074 A 
ATOM     45  C   UNL A   1      41.609  29.708  30.769  1.00  0.00     0.049 A 
ATOM     46  N   UNL A   1      43.272  29.869  33.288  1.00  0.00    -0.248 NA
ATOM     47  C   UNL A   1      44.702  28.268  32.369  1.00  0.00     0.031 C 
ATOM     48  C   UNL A   1      40.779  29.676  29.565  1.00  0.00     0.029 A 
ATOM     49  N   UNL A   1      41.021  30.667  31.557  1.00  0.00    -0.354 N 
ATOM     50  C   UNL A   1      44.315  29.619  34.171  1.00  0.00     0.074 A 
ATOM     51  C   UNL A   1      45.148  28.600  33.571  1.00  0.00     0.031 C 
ATOM     52  C   UNL A   1      39.777  30.562  29.704  1.00  0.00     0.029 A 
ATOM     53  C   UNL A   1      39.874  31.200  31.017  1.00  0.00     0.049 A 
ATOM     54  H   UNL A   1      41.386  30.945  32.427  1.00  0.00     0.167 HD
ATOM     55  C   UNL A   1      44.564  30.193  35.371  1.00  0.00     0.037 A 
ATOM     56  C   UNL A   1      38.994  32.080  31.538  1.00  0.00     0.037 A 
ATOM     57  C   UNL A   1      43.726  31.199  35.967  1.00  0.00     0.049 A 
ATOM     58  C   UNL A   1      39.248  32.649  32.913  1.00  0.00     0.074 A 
ATOM     59  C   UNL A   1      43.890  31.848  37.178  1.00  0.00     0.029 A 
ATOM     60  N   UNL A   1      42.560  31.694  35.402  1.00  0.00    -0.354 N 
ATOM     61  N   UNL A   1      40.249  32.420  33.731  1.00  0.00    -0.248 NA
ATOM     62  C   UNL A   1      38.256  33.600  33.435  1.00  0.00     0.031 C 
ATOM     63  C   UNL A   1      42.794  32.695  37.369  1.00  0.00     0.029 A 
ATOM     64  C   UNL A   1      41.981  32.623  36.250  1.00  0.00     0.049 A 
ATOM     65  H   UNL A   1      42.198  31.425  34.526  1.00  0.00     0.167 HD
ATOM     66  C   UNL A   1      40.023  33.221  34.847  1.00  0.00     0.074 A 
ATOM     67  C   UNL A   1      38.796  33.948  34.595  1.00  0.00     0.031 C 
ATOM     68  C   UNL A   1      40.763  33.347  35.978  1.00  0.00     0.037 A 
BRANCH  55  69
ATOM     69  C   UNL A   1      45.773  29.722  36.130  1.00  0.00     0.058 A 
ATOM     70  C   UNL A   1      45.702  28.668  37.055  1.00  0.00     0.135 A 
ATOM     71  C   UNL A   1      47.027  30.314  35.908  1.00  0.00     0.135 A 
ATOM     72  F   UNL A   1      44.525  28.082  37.324  1.00  0.00    -0.206 F 
ATOM     73  C   UNL A   1      46.827  28.234  37.750  1.00  0.00     0.059 A 
ATOM     74  C   UNL A   1      48.171  29.876  36.569  1.00  0.00     0.059 A 
ATOM     75  F   UNL A   1      47.151  31.331  35.040  1.00  0.00    -0.206 F 
ATOM     76  C   UNL A   1      48.058  28.842  37.497  1.00  0.00     0.060 A 
BRANCH  76  77
ATOM     77  S   UNL A   1      49.508  28.256  38.396  1.00  0.00     0.124 S 
ATOM     78  O   UNL A   1      48.921  27.875  39.678  1.00  0.00    -0.237 OA
ATOM     79  O   UNL A   1      49.969  27.154  37.557  1.00  0.00    -0.237 OA
ATOM     80  O   UNL A   1      50.383  29.423  38.430  1.00  0.00    -0.744 OA
ENDBRANCH  76  77
ENDBRANCH  55  69
BRANCH  56  81
ATOM     81  C   UNL A   1      37.779  32.466  30.770  1.00  0.00     0.058 A 
ATOM     82  C   UNL A   1      36.644  31.642  30.734  1.00  0.00     0.135 A 
ATOM     83  C   UNL A   1      37.733  33.664  30.038  1.00  0.00     0.135 A 
ATOM     84  F   UNL A   1      36.640  30.478  31.404  1.00  0.00    -0.206 F 
ATOM     85  C   UNL A   1      35.517  31.980  29.992  1.00  0.00     0.059 A 
ATOM     86  C   UNL A   1      36.608  34.038  29.311  1.00  0.00     0.059 A 
ATOM     87  F   UNL A   1      38.789  34.493  30.040  1.00  0.00    -0.206 F 
ATOM     88  C   UNL A   1      35.507  33.185  29.286  1.00  0.00     0.060 A 
BRANCH  88  89
ATOM     89  S   UNL A   1      34.022  33.637  28.364  1.00  0.00     0.124 S 
ATOM     90  O   UNL A   1      34.569  34.510  27.332  1.00  0.00    -0.237 OA
ATOM     91  O   UNL A   1      33.537  32.337  27.911  1.00  0.00    -0.237 OA
ATOM     92  O   UNL A   1      33.189  34.292  29.369  1.00  0.00    -0.744 OA
ENDBRANCH  88  89
ENDBRANCH  56  81
BRANCH  68  93
ATOM     93  C   UNL A   1      40.300  34.337  37.012  1.00  0.00     0.058 A 
ATOM     94  C   UNL A   1      39.469  33.962  38.080  1.00  0.00     0.135 A 
ATOM     95  C   UNL A   1      40.747  35.668  36.968  1.00  0.00     0.135 A 
ATOM     96  F   UNL A   1      39.008  32.704  38.169  1.00  0.00    -0.206 F 
ATOM     97  C   UNL A   1      39.079  34.877  39.053  1.00  0.00     0.059 A 
ATOM     98  C   UNL A   1      40.396  36.591  37.948  1.00  0.00     0.059 A 
ATOM     99  F   UNL A   1      41.555  36.078  35.978  1.00  0.00    -0.206 F 
ATOM    100  C   UNL A   1      39.550  36.189  38.981  1.00  0.00     0.060 A 
BRANCH 100 101
ATOM    101  S   UNL A   1      39.065  37.357  40.269  1.00  0.00     0.124 S 
ATOM    102  O   UNL A   1      38.352  36.488  41.199  1.00  0.00    -0.237 OA
ATOM    103  O   UNL A   1      40.353  37.862  40.734  1.00  0.00    -0.237 OA
ATOM    104  O   UNL A   1      38.239  38.327  39.557  1.00  0.00    -0.744 OA
ENDBRANCH 100 101
ENDBRANCH  68  93
ENDBRANCH  42  43
ENDBRANCH  35  37
ENDBRANCH  34  35
ENDBRANCH  33  34
ENDBRANCH  32  33
ENDBRANCH  31  32
ENDBRANCH  30  31
ENDBRANCH  29  30
ENDBRANCH  28  29
ENDBRANCH   1  28
TORSDOF 29
ENDMDL
MODEL 3
REMARK VINA RESULT:      -8.3      2.665      4.238
REMARK SMILES CC[C@@H](C)[C@H](NC(=O)CCc1ccc(F)c(F)c1)C(=O)OCCOCCOCCOCCOC(=O)c1ccc(-c2c3nc(c(-c4c(F)cc(S(=O)(=O)[O-])cc4F)c4ccc([nH]4)c(-c4c(F)cc(S(=O)(=O)[O-])cc4F)c4nc(c(-c5c(F)cc(S(=O)(=O)[O-])cc5F)c5ccc2[nH]5)C=C4)C=C3)cc1
REMARK SMILES IDX 26 1 25 2 24 3 23 4 22 5 21 6 19 7 20 8 5 9 3 10 4 11 2 12
REMARK SMILES IDX 1 13 6 14 7 15 8 17 9 18 10 19 11 20 12 21 18 22 13 23 16 24
REMARK SMILES IDX 14 25 17 26 15 27 27 28 28 29 29 30 30 31 31 32 32 33 33 34
REMARK SMILES IDX 34 35 35 36 36 37 37 38 101 39 38 40 100 41 39 42 40 43
REMARK SMILES IDX 41 44 94 45 42 46 99 47 93 48 95 49 43 50 98 51 92 52 91 53
REMARK SMILES IDX 44 55 78 56 57 57 77 58 58 59 61 60 76 61 96 62 59 63 60 64
REMARK SMILES IDX 75 66 97 67 62 68 45 69 46 70 55 71 47 72 48 73 54 74 56 75
REMARK SMILES IDX 49 76 50 77 51 78 52 79 53 80 79 81 80 82 89 83 81 84 82 85
REMARK SMILES IDX 88 86 90 87 83 88 84 89 85 90 86 91 87 92 63 93 64 94 73 95
REMARK SMILES IDX 65 96 66 97 72 98 74 99 67 100 68 101 69 102 70 103 71 104
REMARK H PARENT 6 16 95 54 61 65
REMARK Flexibility Score: inf
ROOT
ATOM      1  C   UNL A   1      40.533  21.400  27.190  1.00  0.00     0.188 C 
ENDROOT
BRANCH   1   2
ATOM      2  C   UNL A   1      39.513  22.049  26.234  1.00  0.00     0.188 C 
BRANCH   2   3
ATOM      3  O   UNL A   1      38.536  21.270  25.554  1.00  0.00    -0.376 OA
BRANCH   3   4
ATOM      4  C   UNL A   1      37.235  21.796  25.334  1.00  0.00     0.202 C 
BRANCH   4   5
ATOM      5  C   UNL A   1      37.074  23.291  25.003  1.00  0.00     0.261 C 
BRANCH   5   6
ATOM      6  O   UNL A   1      35.719  23.781  24.928  1.00  0.00    -0.462 OA
BRANCH   6   7
ATOM      7  C   UNL A   1      34.931  23.230  23.974  1.00  0.00     0.328 C 
ATOM      8  O   UNL A   1      35.186  23.274  22.772  1.00  0.00    -0.250 OA
BRANCH   7   9
ATOM      9  C   UNL A   1      33.577  22.666  24.495  1.00  0.00     0.195 C 
BRANCH   9  10
ATOM     10  C   UNL A   1      33.616  21.139  24.206  1.00  0.00     0.019 C 
ATOM     11  C   UNL A   1      32.419  20.669  23.364  1.00  0.00     0.010 C 
BRANCH  10  12
ATOM     12  C   UNL A   1      33.717  20.326  25.510  1.00  0.00     0.002 C 
ATOM     13  C   UNL A   1      32.815  19.103  25.479  1.00  0.00     0.004 C 
ENDBRANCH  10  12
ENDBRANCH   9  10
BRANCH   9  14
ATOM     14  N   UNL A   1      32.228  23.204  24.212  1.00  0.00    -0.343 N 
ATOM     15  C   UNL A   1      31.809  24.498  24.041  1.00  0.00     0.221 C 
ATOM     16  H   UNL A   1      31.519  22.525  24.135  1.00  0.00     0.164 HD
ATOM     17  O   UNL A   1      30.646  24.779  24.344  1.00  0.00    -0.275 OA
BRANCH  15  18
ATOM     18  C   UNL A   1      32.683  25.555  23.378  1.00  0.00     0.105 C 
BRANCH  18  19
ATOM     19  C   UNL A   1      32.046  26.913  23.093  1.00  0.00     0.045 C 
BRANCH  19  20
ATOM     20  C   UNL A   1      32.319  27.889  24.210  1.00  0.00    -0.044 A 
ATOM     21  C   UNL A   1      33.110  27.508  25.311  1.00  0.00     0.007 A 
ATOM     22  C   UNL A   1      31.656  29.122  24.238  1.00  0.00     0.046 A 
ATOM     23  C   UNL A   1      33.136  28.292  26.466  1.00  0.00     0.043 A 
ATOM     24  C   UNL A   1      31.694  29.899  25.392  1.00  0.00     0.159 A 
ATOM     25  C   UNL A   1      32.406  29.474  26.507  1.00  0.00     0.158 A 
ATOM     26  F   UNL A   1      30.963  31.021  25.445  1.00  0.00    -0.204 F 
ATOM     27  F   UNL A   1      32.363  30.183  27.643  1.00  0.00    -0.204 F 
ENDBRANCH  19  20
ENDBRANCH  18  19
ENDBRANCH  15  18
ENDBRANCH   9  14
ENDBRANCH   7   9
ENDBRANCH   6   7
ENDBRANCH   5   6
ENDBRANCH   4   5
ENDBRANCH   3   4
ENDBRANCH   2   3
ENDBRANCH   1   2
BRANCH   1  28
ATOM     28  O   UNL A   1      41.845  21.900  27.097  1.00  0.00    -0.377 OA
BRANCH  28  29
ATOM     29  C   UNL A   1      42.562  21.552  25.932  1.00  0.00     0.188 C 
BRANCH  29  30
ATOM     30  C   UNL A   1      43.055  22.717  25.062  1.00  0.00     0.188 C 
BRANCH  30  31
ATOM     31  O   UNL A   1      42.593  23.995  25.498  1.00  0.00    -0.376 OA
BRANCH  31  32
ATOM     32  C   UNL A   1      43.500  25.090  25.453  1.00  0.00     0.202 C 
BRANCH  32  33
ATOM     33  C   UNL A   1      44.946  24.834  25.913  1.00  0.00     0.261 C 
BRANCH  33  34
ATOM     34  O   UNL A   1      45.320  25.344  27.202  1.00  0.00    -0.460 OA
BRANCH  34  35
ATOM     35  C   UNL A   1      44.904  24.679  28.300  1.00  0.00     0.338 C 
ATOM     36  O   UNL A   1      44.849  23.470  28.447  1.00  0.00    -0.246 OA
BRANCH  35  37
ATOM     37  C   UNL A   1      44.740  25.670  29.387  1.00  0.00     0.060 A 
ATOM     38  C   UNL A   1      44.183  25.252  30.603  1.00  0.00     0.016 A 
ATOM     39  C   UNL A   1      45.169  26.990  29.226  1.00  0.00     0.016 A 
ATOM     40  C   UNL A   1      44.030  26.157  31.653  1.00  0.00     0.010 A 
ATOM     41  C   UNL A   1      44.984  27.905  30.266  1.00  0.00     0.010 A 
ATOM     42  C   UNL A   1      44.384  27.500  31.472  1.00  0.00    -0.014 A 
BRANCH  42  43
ATOM     43  C   UNL A   1      43.912  28.516  32.443  1.00  0.00     0.031 A 
ATOM     44  C   UNL A   1      42.646  29.261  32.116  1.00  0.00     0.074 A 
ATOM     45  C   UNL A   1      44.568  28.759  33.592  1.00  0.00     0.049 A 
ATOM     46  N   UNL A   1      42.055  30.226  32.771  1.00  0.00    -0.248 NA
ATOM     47  C   UNL A   1      41.954  28.861  30.879  1.00  0.00     0.031 C 
ATOM     48  C   UNL A   1      45.779  28.071  34.038  1.00  0.00     0.029 A 
ATOM     49  N   UNL A   1      44.309  29.666  34.590  1.00  0.00    -0.354 N 
ATOM     50  C   UNL A   1      40.928  30.550  32.026  1.00  0.00     0.074 A 
ATOM     51  C   UNL A   1      40.932  29.703  30.854  1.00  0.00     0.031 C 
ATOM     52  C   UNL A   1      46.167  28.596  35.215  1.00  0.00     0.029 A 
ATOM     53  C   UNL A   1      45.254  29.676  35.588  1.00  0.00     0.049 A 
ATOM     54  H   UNL A   1      43.519  30.253  34.590  1.00  0.00     0.167 HD
ATOM     55  C   UNL A   1      39.969  31.464  32.298  1.00  0.00     0.037 A 
ATOM     56  C   UNL A   1      45.378  30.483  36.662  1.00  0.00     0.037 A 
ATOM     57  C   UNL A   1      39.975  32.312  33.461  1.00  0.00     0.049 A 
ATOM     58  C   UNL A   1      44.340  31.551  36.904  1.00  0.00     0.074 A 
ATOM     59  C   UNL A   1      39.049  33.270  33.832  1.00  0.00     0.029 A 
ATOM     60  N   UNL A   1      40.964  32.310  34.435  1.00  0.00    -0.354 N 
ATOM     61  N   UNL A   1      43.266  31.835  36.204  1.00  0.00    -0.248 NA
ATOM     62  C   UNL A   1      44.525  32.406  38.085  1.00  0.00     0.031 C 
ATOM     63  C   UNL A   1      39.506  33.885  35.002  1.00  0.00     0.029 A 
ATOM     64  C   UNL A   1      40.682  33.268  35.394  1.00  0.00     0.049 A 
ATOM     65  H   UNL A   1      41.749  31.715  34.442  1.00  0.00     0.167 HD
ATOM     66  C   UNL A   1      42.634  32.878  36.877  1.00  0.00     0.074 A 
ATOM     67  C   UNL A   1      43.440  33.167  38.045  1.00  0.00     0.031 C 
ATOM     68  C   UNL A   1      41.490  33.535  36.559  1.00  0.00     0.037 A 
BRANCH  55  69
ATOM     69  C   UNL A   1      38.850  31.616  31.304  1.00  0.00     0.058 A 
ATOM     70  C   UNL A   1      38.907  32.560  30.266  1.00  0.00     0.135 A 
ATOM     71  C   UNL A   1      37.719  30.788  31.374  1.00  0.00     0.135 A 
ATOM     72  F   UNL A   1      39.953  33.395  30.165  1.00  0.00    -0.206 F 
ATOM     73  C   UNL A   1      37.871  32.691  29.346  1.00  0.00     0.059 A 
ATOM     74  C   UNL A   1      36.685  30.881  30.447  1.00  0.00     0.059 A 
ATOM     75  F   UNL A   1      37.610  29.873  32.351  1.00  0.00    -0.206 F 
ATOM     76  C   UNL A   1      36.766  31.844  29.443  1.00  0.00     0.060 A 
BRANCH  76  77
ATOM     77  S   UNL A   1      35.439  32.019  28.233  1.00  0.00     0.124 S 
ATOM     78  O   UNL A   1      34.269  32.133  29.099  1.00  0.00    -0.237 OA
ATOM     79  O   UNL A   1      35.823  33.236  27.524  1.00  0.00    -0.237 OA
ATOM     80  O   UNL A   1      35.524  30.789  27.453  1.00  0.00    -0.744 OA
ENDBRANCH  76  77
ENDBRANCH  55  69
BRANCH  56  81
ATOM     81  C   UNL A   1      46.539  30.331  37.581  1.00  0.00     0.058 A 
ATOM     82  C   UNL A   1      47.731  31.044  37.379  1.00  0.00     0.135 A 
ATOM     83  C   UNL A   1      46.487  29.452  38.676  1.00  0.00     0.135 A 
ATOM     84  F   UNL A   1      47.839  31.885  36.338  1.00  0.00    -0.206 F 
ATOM     85  C   UNL A   1      48.830  30.882  38.215  1.00  0.00     0.059 A 
ATOM     86  C   UNL A   1      47.563  29.295  39.543  1.00  0.00     0.059 A 
ATOM     87  F   UNL A   1      45.370  28.748  38.920  1.00  0.00    -0.206 F 
ATOM     88  C   UNL A   1      48.736  30.007  39.299  1.00  0.00     0.060 A 
BRANCH  88  89
ATOM     89  S   UNL A   1      50.153  29.840  40.405  1.00  0.00     0.124 S 
ATOM     90  O   UNL A   1      51.003  30.939  39.963  1.00  0.00    -0.237 OA
ATOM     91  O   UNL A   1      49.534  29.998  41.718  1.00  0.00    -0.237 OA
ATOM     92  O   UNL A   1      50.651  28.499  40.114  1.00  0.00    -0.744 OA
ENDBRANCH  88  89
ENDBRANCH  56  81
BRANCH  68  93
ATOM     93  C   UNL A   1      41.009  34.602  37.506  1.00  0.00     0.058 A 
ATOM     94  C   UNL A   1      41.474  35.924  37.433  1.00  0.00     0.135 A 
ATOM     95  C   UNL A   1      40.021  34.307  38.460  1.00  0.00     0.135 A 
ATOM     96  F   UNL A   1      42.421  36.261  36.543  1.00  0.00    -0.206 F 
ATOM     97  C   UNL A   1      40.992  36.911  38.288  1.00  0.00     0.059 A 
ATOM     98  C   UNL A   1      39.502  35.285  39.303  1.00  0.00     0.059 A 
ATOM     99  F   UNL A   1      39.530  33.062  38.564  1.00  0.00    -0.206 F 
ATOM    100  C   UNL A   1      40.004  36.583  39.218  1.00  0.00     0.060 A 
BRANCH 100 101
ATOM    101  S   UNL A   1      39.363  37.881  40.298  1.00  0.00     0.124 S 
ATOM    102  O   UNL A   1      40.499  38.793  40.366  1.00  0.00    -0.237 OA
ATOM    103  O   UNL A   1      38.206  38.364  39.550  1.00  0.00    -0.237 OA
ATOM    104  O   UNL A   1      39.051  37.172  41.535  1.00  0.00    -0.744 OA
ENDBRANCH 100 101
ENDBRANCH  68  93
ENDBRANCH  42  43
ENDBRANCH  35  37
ENDBRANCH  34  35
ENDBRANCH  33  34
ENDBRANCH  32  33
ENDBRANCH  31  32
ENDBRANCH  30  31
ENDBRANCH  29  30
ENDBRANCH  28  29
ENDBRANCH   1  28
TORSDOF 29
ENDMDL
