MODEL 1
REMARK VINA RESULT:      -8.3      0.000      0.000
REMARK SMILES O=C(OCCOCCOCCOCCOC(=O)c1ccc(C[NH2+]Cc2cc(F)ccc2F)nc1)c1ccc(-c2c3nc(c(-c4c(F)cc(S(=O)(=O)[O-])cc4F)c4ccc([nH]4)c(-c4c(F)cc(S(=O)(=O)[O-])cc4F)c4nc(c(-c5c(F)cc(S(=O)(=O)[O-])cc5F)c5ccc2[nH]5)C=C4)C=C3)cc1
REMARK SMILES IDX 10 1 9 2 8 3 7 4 6 5 5 6 4 7 3 8 2 9 1 10 35 11 36 12 100 13
REMARK SMILES IDX 37 14 99 15 38 16 39 17 40 18 93 19 41 20 98 21 92 22 94 23
REMARK SMILES IDX 42 24 97 25 91 26 90 27 43 29 77 30 56 31 76 32 57 33 60 34
REMARK SMILES IDX 75 35 95 36 58 37 59 38 74 40 96 41 61 42 44 43 45 44 54 45
REMARK SMILES IDX 46 46 47 47 53 48 55 49 48 50 49 51 50 52 51 53 52 54 78 55
REMARK SMILES IDX 79 56 88 57 80 58 81 59 87 60 89 61 82 62 83 63 84 64 85 65
REMARK SMILES IDX 86 66 62 67 63 68 72 69 64 70 65 71 71 72 73 73 66 74 67 75
REMARK SMILES IDX 68 76 69 77 70 78 11 79 12 80 13 81 14 82 15 83 16 84 17 85
REMARK SMILES IDX 18 86 19 87 34 88 20 89 33 90 21 91 22 92 23 93 24 96 25 97
REMARK SMILES IDX 26 98 31 99 27 100 30 101 32 102 28 103 29 104
REMARK H PARENT 94 28 60 39 23 94 23 95
REMARK Flexibility Score: inf
ROOT
ATOM      1  C   UNL A   1      36.710  32.339  29.271  1.00  0.00     0.188 C 
ENDROOT
BRANCH   1   2
ATOM      2  O   UNL A   1      36.084  33.509  29.794  1.00  0.00    -0.377 OA
BRANCH   2   3
ATOM      3  C   UNL A   1      34.654  33.498  29.829  1.00  0.00     0.188 C 
BRANCH   3   4
ATOM      4  C   UNL A   1      33.998  34.875  29.958  1.00  0.00     0.188 C 
BRANCH   4   5
ATOM      5  O   UNL A   1      33.660  35.126  31.321  1.00  0.00    -0.376 OA
BRANCH   5   6
ATOM      6  C   UNL A   1      34.008  34.104  32.251  1.00  0.00     0.202 C 
BRANCH   6   7
ATOM      7  C   UNL A   1      34.574  34.601  33.586  1.00  0.00     0.261 C 
BRANCH   7   8
ATOM      8  O   UNL A   1      35.012  33.533  34.445  1.00  0.00    -0.460 OA
BRANCH   8   9
ATOM      9  C   UNL A   1      36.205  33.448  35.094  1.00  0.00     0.338 C 
ATOM     10  O   UNL A   1      36.275  33.784  36.275  1.00  0.00    -0.246 OA
BRANCH   9  11
ATOM     11  C   UNL A   1      37.430  32.916  34.433  1.00  0.00     0.060 A 
ATOM     12  C   UNL A   1      38.701  33.010  34.989  1.00  0.00     0.016 A 
ATOM     13  C   UNL A   1      37.291  32.233  33.216  1.00  0.00     0.016 A 
ATOM     14  C   UNL A   1      39.827  32.614  34.291  1.00  0.00     0.010 A 
ATOM     15  C   UNL A   1      38.419  31.735  32.548  1.00  0.00     0.010 A 
ATOM     16  C   UNL A   1      39.700  31.973  33.064  1.00  0.00    -0.014 A 
BRANCH  16  17
ATOM     17  C   UNL A   1      40.942  31.697  32.308  1.00  0.00     0.031 A 
ATOM     18  C   UNL A   1      41.482  32.769  31.407  1.00  0.00     0.074 A 
ATOM     19  C   UNL A   1      41.651  30.581  32.575  1.00  0.00     0.049 A 
ATOM     20  N   UNL A   1      42.528  32.744  30.628  1.00  0.00    -0.248 NA
ATOM     21  C   UNL A   1      40.751  34.050  31.389  1.00  0.00     0.031 C 
ATOM     22  C   UNL A   1      41.259  29.538  33.530  1.00  0.00     0.029 A 
ATOM     23  N   UNL A   1      42.870  30.160  32.113  1.00  0.00    -0.354 N 
ATOM     24  C   UNL A   1      42.563  33.985  30.004  1.00  0.00     0.074 A 
ATOM     25  C   UNL A   1      41.427  34.739  30.483  1.00  0.00     0.031 C 
ATOM     26  C   UNL A   1      42.240  28.627  33.618  1.00  0.00     0.029 A 
ATOM     27  C   UNL A   1      43.285  28.968  32.663  1.00  0.00     0.049 A 
ATOM     28  H   UNL A   1      43.397  30.661  31.450  1.00  0.00     0.167 HD
ATOM     29  C   UNL A   1      43.468  34.449  29.113  1.00  0.00     0.037 A 
ATOM     30  C   UNL A   1      44.372  28.221  32.392  1.00  0.00     0.037 A 
ATOM     31  C   UNL A   1      44.597  33.680  28.669  1.00  0.00     0.049 A 
ATOM     32  C   UNL A   1      45.324  28.727  31.340  1.00  0.00     0.074 A 
ATOM     33  C   UNL A   1      45.529  33.987  27.697  1.00  0.00     0.029 A 
ATOM     34  N   UNL A   1      44.953  32.443  29.194  1.00  0.00    -0.354 N 
ATOM     35  N   UNL A   1      45.280  29.854  30.666  1.00  0.00    -0.248 NA
ATOM     36  C   UNL A   1      46.455  27.859  30.993  1.00  0.00     0.031 C 
ATOM     37  C   UNL A   1      46.436  32.922  27.617  1.00  0.00     0.029 A 
ATOM     38  C   UNL A   1      46.091  31.972  28.567  1.00  0.00     0.049 A 
ATOM     39  H   UNL A   1      44.465  31.972  29.908  1.00  0.00     0.167 HD
ATOM     40  C   UNL A   1      46.375  29.829  29.812  1.00  0.00     0.074 A 
ATOM     41  C   UNL A   1      47.082  28.592  30.085  1.00  0.00     0.031 C 
ATOM     42  C   UNL A   1      46.759  30.733  28.876  1.00  0.00     0.037 A 
BRANCH  29  43
ATOM     43  C   UNL A   1      43.225  35.815  28.536  1.00  0.00     0.058 A 
ATOM     44  C   UNL A   1      42.650  35.994  27.267  1.00  0.00     0.135 A 
ATOM     45  C   UNL A   1      43.604  36.962  29.250  1.00  0.00     0.135 A 
ATOM     46  F   UNL A   1      42.303  34.930  26.526  1.00  0.00    -0.206 F 
ATOM     47  C   UNL A   1      42.483  37.263  26.718  1.00  0.00     0.059 A 
ATOM     48  C   UNL A   1      43.428  38.241  28.729  1.00  0.00     0.059 A 
ATOM     49  F   UNL A   1      44.173  36.847  30.460  1.00  0.00    -0.206 F 
ATOM     50  C   UNL A   1      42.879  38.380  27.455  1.00  0.00     0.060 A 
BRANCH  50  51
ATOM     51  S   UNL A   1      42.672  40.017  26.722  1.00  0.00     0.124 S 
ATOM     52  O   UNL A   1      43.795  40.063  25.790  1.00  0.00    -0.237 OA
ATOM     53  O   UNL A   1      41.348  39.923  26.115  1.00  0.00    -0.237 OA
ATOM     54  O   UNL A   1      42.772  40.917  27.867  1.00  0.00    -0.744 OA
ENDBRANCH  50  51
ENDBRANCH  29  43
BRANCH  30  55
ATOM     55  C   UNL A   1      44.570  26.899  33.050  1.00  0.00     0.058 A 
ATOM     56  C   UNL A   1      45.105  26.786  34.342  1.00  0.00     0.135 A 
ATOM     57  C   UNL A   1      44.244  25.707  32.380  1.00  0.00     0.135 A 
ATOM     58  F   UNL A   1      45.440  27.890  35.027  1.00  0.00    -0.206 F 
ATOM     59  C   UNL A   1      45.332  25.544  34.934  1.00  0.00     0.059 A 
ATOM     60  C   UNL A   1      44.430  24.458  32.962  1.00  0.00     0.059 A 
ATOM     61  F   UNL A   1      43.719  25.751  31.144  1.00  0.00    -0.206 F 
ATOM     62  C   UNL A   1      44.995  24.385  34.233  1.00  0.00     0.060 A 
BRANCH  62  63
ATOM     63  S   UNL A   1      45.281  22.777  35.003  1.00  0.00     0.124 S 
ATOM     64  O   UNL A   1      46.621  22.458  34.524  1.00  0.00    -0.237 OA
ATOM     65  O   UNL A   1      45.167  23.087  36.425  1.00  0.00    -0.237 OA
ATOM     66  O   UNL A   1      44.204  21.951  34.463  1.00  0.00    -0.744 OA
ENDBRANCH  62  63
ENDBRANCH  30  55
BRANCH  42  67
ATOM     67  C   UNL A   1      48.003  30.411  28.104  1.00  0.00     0.058 A 
ATOM     68  C   UNL A   1      49.247  30.948  28.467  1.00  0.00     0.135 A 
ATOM     69  C   UNL A   1      47.952  29.530  27.013  1.00  0.00     0.135 A 
ATOM     70  F   UNL A   1      49.341  31.800  29.500  1.00  0.00    -0.206 F 
ATOM     71  C   UNL A   1      50.399  30.645  27.753  1.00  0.00     0.059 A 
ATOM     72  C   UNL A   1      49.097  29.192  26.302  1.00  0.00     0.059 A 
ATOM     73  F   UNL A   1      46.785  28.983  26.639  1.00  0.00    -0.206 F 
ATOM     74  C   UNL A   1      50.313  29.767  26.670  1.00  0.00     0.060 A 
BRANCH  74  75
ATOM     75  S   UNL A   1      51.818  29.363  25.761  1.00  0.00     0.124 S 
ATOM     76  O   UNL A   1      51.276  28.937  24.475  1.00  0.00    -0.237 OA
ATOM     77  O   UNL A   1      52.535  30.634  25.758  1.00  0.00    -0.237 OA
ATOM     78  O   UNL A   1      52.427  28.309  26.567  1.00  0.00    -0.744 OA
ENDBRANCH  74  75
ENDBRANCH  42  67
ENDBRANCH  16  17
ENDBRANCH   9  11
ENDBRANCH   8   9
ENDBRANCH   7   8
ENDBRANCH   6   7
ENDBRANCH   5   6
ENDBRANCH   4   5
ENDBRANCH   3   4
ENDBRANCH   2   3
ENDBRANCH   1   2
BRANCH   1  79
ATOM     79  C   UNL A   1      36.124  31.683  28.002  1.00  0.00     0.188 C 
BRANCH  79  80
ATOM     80  O   UNL A   1      35.519  30.413  28.206  1.00  0.00    -0.376 OA
BRANCH  80  81
ATOM     81  C   UNL A   1      34.190  30.288  27.701  1.00  0.00     0.202 C 
BRANCH  81  82
ATOM     82  C   UNL A   1      33.926  28.943  27.015  1.00  0.00     0.261 C 
BRANCH  82  83
ATOM     83  O   UNL A   1      33.477  29.047  25.652  1.00  0.00    -0.460 OA
BRANCH  83  84
ATOM     84  C   UNL A   1      32.181  28.768  25.384  1.00  0.00     0.339 C 
ATOM     85  O   UNL A   1      31.352  29.512  24.893  1.00  0.00    -0.246 OA
BRANCH  84  86
ATOM     86  C   UNL A   1      31.999  27.318  25.581  1.00  0.00     0.078 A 
ATOM     87  C   UNL A   1      32.663  26.376  24.797  1.00  0.00     0.019 A 
ATOM     88  C   UNL A   1      30.996  26.876  26.433  1.00  0.00     0.127 A 
ATOM     89  C   UNL A   1      32.259  25.045  24.853  1.00  0.00     0.031 A 
ATOM     90  N   UNL A   1      30.584  25.583  26.502  1.00  0.00    -0.254 NA
ATOM     91  C   UNL A   1      31.203  24.684  25.694  1.00  0.00     0.094 A 
BRANCH  91  92
ATOM     92  C   UNL A   1      30.657  23.264  25.614  1.00  0.00     0.318 C 
BRANCH  92  93
ATOM     93  N   UNL A   1      31.503  22.247  26.246  1.00  0.00    -0.337 N 
ATOM     94  H   UNL A   1      30.915  21.652  26.830  1.00  0.00     0.346 HD
ATOM     95  H   UNL A   1      32.210  22.735  26.795  1.00  0.00     0.346 HD
BRANCH  93  96
ATOM     96  C   UNL A   1      32.200  21.408  25.276  1.00  0.00     0.300 C 
BRANCH  96  97
ATOM     97  C   UNL A   1      33.674  21.715  25.173  1.00  0.00     0.045 A 
ATOM     98  C   UNL A   1      34.217  22.205  23.975  1.00  0.00     0.051 A 
ATOM     99  C   UNL A   1      34.543  21.486  26.247  1.00  0.00     0.132 A 
ATOM    100  C   UNL A   1      35.588  22.426  23.871  1.00  0.00     0.123 A 
ATOM    101  C   UNL A   1      35.919  21.676  26.128  1.00  0.00     0.043 A 
ATOM    102  F   UNL A   1      34.063  21.063  27.425  1.00  0.00    -0.206 F 
ATOM    103  F   UNL A   1      36.092  22.911  22.727  1.00  0.00    -0.207 F 
ATOM    104  C   UNL A   1      36.446  22.149  24.930  1.00  0.00     0.042 A 
ENDBRANCH  96  97
ENDBRANCH  93  96
ENDBRANCH  92  93
ENDBRANCH  91  92
ENDBRANCH  84  86
ENDBRANCH  83  84
ENDBRANCH  82  83
ENDBRANCH  81  82
ENDBRANCH  80  81
ENDBRANCH  79  80
ENDBRANCH   1  79
TORSDOF 27
ENDMDL
MODEL 2
REMARK VINA RESULT:      -8.2      5.478     13.047
REMARK SMILES O=C(OCCOCCOCCOCCOC(=O)c1ccc(C[NH2+]Cc2cc(F)ccc2F)nc1)c1ccc(-c2c3nc(c(-c4c(F)cc(S(=O)(=O)[O-])cc4F)c4ccc([nH]4)c(-c4c(F)cc(S(=O)(=O)[O-])cc4F)c4nc(c(-c5c(F)cc(S(=O)(=O)[O-])cc5F)c5ccc2[nH]5)C=C4)C=C3)cc1
REMARK SMILES IDX 10 1 9 2 8 3 7 4 6 5 5 6 4 7 3 8 2 9 1 10 35 11 36 12 100 13
REMARK SMILES IDX 37 14 99 15 38 16 39 17 40 18 93 19 41 20 98 21 92 22 94 23
REMARK SMILES IDX 42 24 97 25 91 26 90 27 43 29 77 30 56 31 76 32 57 33 60 34
REMARK SMILES IDX 75 35 95 36 58 37 59 38 74 40 96 41 61 42 44 43 45 44 54 45
REMARK SMILES IDX 46 46 47 47 53 48 55 49 48 50 49 51 50 52 51 53 52 54 78 55
REMARK SMILES IDX 79 56 88 57 80 58 81 59 87 60 89 61 82 62 83 63 84 64 85 65
REMARK SMILES IDX 86 66 62 67 63 68 72 69 64 70 65 71 71 72 73 73 66 74 67 75
REMARK SMILES IDX 68 76 69 77 70 78 11 79 12 80 13 81 14 82 15 83 16 84 17 85
REMARK SMILES IDX 18 86 19 87 34 88 20 89 33 90 21 91 22 92 23 93 24 96 25 97
REMARK SMILES IDX 26 98 31 99 27 100 30 101 32 102 28 103 29 104
REMARK H PARENT 94 28 60 39 23 94 23 95
REMARK Flexibility Score: inf
ROOT
ATOM      1  C   UNL A   1      44.653  22.148  24.618  1.00  0.00     0.188 C 
ENDROOT
BRANCH   1   2
ATOM      2  O   UNL A   1      43.755  21.042  24.566  1.00  0.00    -0.377 OA
BRANCH   2   3
ATOM      3  C   UNL A   1      43.848  20.101  25.639  1.00  0.00     0.188 C 
BRANCH   3   4
ATOM      4  C   UNL A   1      42.979  18.851  25.482  1.00  0.00     0.188 C 
BRANCH   4   5
ATOM      5  O   UNL A   1      41.601  19.198  25.609  1.00  0.00    -0.376 OA
BRANCH   5   6
ATOM      6  C   UNL A   1      41.273  20.074  26.685  1.00  0.00     0.202 C 
BRANCH   6   7
ATOM      7  C   UNL A   1      40.334  21.230  26.322  1.00  0.00     0.261 C 
BRANCH   7   8
ATOM      8  O   UNL A   1      40.905  22.524  26.586  1.00  0.00    -0.460 OA
BRANCH   8   9
ATOM      9  C   UNL A   1      40.238  23.707  26.665  1.00  0.00     0.338 C 
ATOM     10  O   UNL A   1      39.059  23.759  26.321  1.00  0.00    -0.246 OA
BRANCH   9  11
ATOM     11  C   UNL A   1      40.878  24.943  27.199  1.00  0.00     0.060 A 
ATOM     12  C   UNL A   1      41.523  24.998  28.430  1.00  0.00     0.016 A 
ATOM     13  C   UNL A   1      40.884  26.094  26.398  1.00  0.00     0.016 A 
ATOM     14  C   UNL A   1      41.997  26.191  28.945  1.00  0.00     0.010 A 
ATOM     15  C   UNL A   1      41.455  27.284  26.869  1.00  0.00     0.010 A 
ATOM     16  C   UNL A   1      41.969  27.347  28.172  1.00  0.00    -0.014 A 
BRANCH  16  17
ATOM     17  C   UNL A   1      42.365  28.614  28.826  1.00  0.00     0.031 A 
ATOM     18  C   UNL A   1      43.810  29.019  28.780  1.00  0.00     0.074 A 
ATOM     19  C   UNL A   1      41.415  29.454  29.282  1.00  0.00     0.049 A 
ATOM     20  N   UNL A   1      44.393  30.061  29.305  1.00  0.00    -0.248 NA
ATOM     21  C   UNL A   1      44.722  28.136  28.030  1.00  0.00     0.031 C 
ATOM     22  C   UNL A   1      39.971  29.192  29.255  1.00  0.00     0.029 A 
ATOM     23  N   UNL A   1      41.509  30.716  29.807  1.00  0.00    -0.354 N 
ATOM     24  C   UNL A   1      45.739  29.943  28.980  1.00  0.00     0.074 A 
ATOM     25  C   UNL A   1      45.893  28.723  28.222  1.00  0.00     0.031 C 
ATOM     26  C   UNL A   1      39.316  30.278  29.695  1.00  0.00     0.029 A 
ATOM     27  C   UNL A   1      40.290  31.275  30.119  1.00  0.00     0.049 A 
ATOM     28  H   UNL A   1      42.366  31.179  29.947  1.00  0.00     0.167 HD
ATOM     29  C   UNL A   1      46.751  30.785  29.289  1.00  0.00     0.037 A 
ATOM     30  C   UNL A   1      40.002  32.445  30.719  1.00  0.00     0.037 A 
ATOM     31  C   UNL A   1      46.562  32.001  30.031  1.00  0.00     0.049 A 
ATOM     32  C   UNL A   1      41.154  33.328  31.119  1.00  0.00     0.074 A 
ATOM     33  C   UNL A   1      47.511  32.889  30.499  1.00  0.00     0.029 A 
ATOM     34  N   UNL A   1      45.320  32.506  30.396  1.00  0.00    -0.354 N 
ATOM     35  N   UNL A   1      42.439  33.147  30.912  1.00  0.00    -0.248 NA
ATOM     36  C   UNL A   1      40.827  34.558  31.850  1.00  0.00     0.031 C 
ATOM     37  C   UNL A   1      46.841  33.920  31.171  1.00  0.00     0.029 A 
ATOM     38  C   UNL A   1      45.475  33.693  31.085  1.00  0.00     0.049 A 
ATOM     39  H   UNL A   1      44.456  32.079  30.194  1.00  0.00     0.167 HD
ATOM     40  C   UNL A   1      43.074  34.238  31.491  1.00  0.00     0.074 A 
ATOM     41  C   UNL A   1      42.029  35.091  32.021  1.00  0.00     0.031 C 
ATOM     42  C   UNL A   1      44.401  34.509  31.593  1.00  0.00     0.037 A 
BRANCH  29  43
ATOM     43  C   UNL A   1      48.135  30.376  28.871  1.00  0.00     0.058 A 
ATOM     44  C   UNL A   1      48.666  30.725  27.619  1.00  0.00     0.135 A 
ATOM     45  C   UNL A   1      48.930  29.594  29.724  1.00  0.00     0.135 A 
ATOM     46  F   UNL A   1      47.935  31.441  26.750  1.00  0.00    -0.206 F 
ATOM     47  C   UNL A   1      49.928  30.292  27.218  1.00  0.00     0.059 A 
ATOM     48  C   UNL A   1      50.202  29.167  29.353  1.00  0.00     0.059 A 
ATOM     49  F   UNL A   1      48.464  29.218  30.925  1.00  0.00    -0.206 F 
ATOM     50  C   UNL A   1      50.686  29.510  28.091  1.00  0.00     0.060 A 
BRANCH  50  51
ATOM     51  S   UNL A   1      52.313  28.941  27.551  1.00  0.00     0.124 S 
ATOM     52  O   UNL A   1      52.240  29.176  26.112  1.00  0.00    -0.237 OA
ATOM     53  O   UNL A   1      53.212  29.820  28.292  1.00  0.00    -0.237 OA
ATOM     54  O   UNL A   1      52.335  27.539  27.956  1.00  0.00    -0.744 OA
ENDBRANCH  50  51
ENDBRANCH  29  43
BRANCH  30  55
ATOM     55  C   UNL A   1      38.594  32.804  31.051  1.00  0.00     0.058 A 
ATOM     56  C   UNL A   1      37.742  33.410  30.115  1.00  0.00     0.135 A 
ATOM     57  C   UNL A   1      38.075  32.563  32.336  1.00  0.00     0.135 A 
ATOM     58  F   UNL A   1      38.185  33.669  28.875  1.00  0.00    -0.206 F 
ATOM     59  C   UNL A   1      36.441  33.786  30.446  1.00  0.00     0.059 A 
ATOM     60  C   UNL A   1      36.771  32.899  32.680  1.00  0.00     0.059 A 
ATOM     61  F   UNL A   1      38.839  31.977  33.271  1.00  0.00    -0.206 F 
ATOM     62  C   UNL A   1      35.966  33.530  31.734  1.00  0.00     0.060 A 
BRANCH  62  63
ATOM     63  S   UNL A   1      34.278  34.010  32.160  1.00  0.00     0.124 S 
ATOM     64  O   UNL A   1      33.745  32.761  32.691  1.00  0.00    -0.237 OA
ATOM     65  O   UNL A   1      34.493  35.077  33.132  1.00  0.00    -0.237 OA
ATOM     66  O   UNL A   1      33.721  34.443  30.881  1.00  0.00    -0.744 OA
ENDBRANCH  62  63
ENDBRANCH  30  55
BRANCH  42  67
ATOM     67  C   UNL A   1      44.773  35.783  32.288  1.00  0.00     0.058 A 
ATOM     68  C   UNL A   1      45.055  35.809  33.663  1.00  0.00     0.135 A 
ATOM     69  C   UNL A   1      44.881  36.980  31.565  1.00  0.00     0.135 A 
ATOM     70  F   UNL A   1      44.957  34.687  34.394  1.00  0.00    -0.206 F 
ATOM     71  C   UNL A   1      45.404  36.990  34.305  1.00  0.00     0.059 A 
ATOM     72  C   UNL A   1      45.255  38.168  32.183  1.00  0.00     0.059 A 
ATOM     73  F   UNL A   1      44.633  37.000  30.246  1.00  0.00    -0.206 F 
ATOM     74  C   UNL A   1      45.499  38.165  33.556  1.00  0.00     0.060 A 
BRANCH  74  75
ATOM     75  S   UNL A   1      45.973  39.690  34.395  1.00  0.00     0.124 S 
ATOM     76  O   UNL A   1      46.178  39.221  35.760  1.00  0.00    -0.237 OA
ATOM     77  O   UNL A   1      47.178  40.085  33.672  1.00  0.00    -0.237 OA
ATOM     78  O   UNL A   1      44.818  40.559  34.194  1.00  0.00    -0.744 OA
ENDBRANCH  74  75
ENDBRANCH  42  67
ENDBRANCH  16  17
ENDBRANCH   9  11
ENDBRANCH   8   9
ENDBRANCH   7   8
ENDBRANCH   6   7
ENDBRANCH   5   6
ENDBRANCH   4   5
ENDBRANCH   3   4
ENDBRANCH   2   3
ENDBRANCH   1   2
BRANCH   1  79
ATOM     79  C   UNL A   1      45.041  22.730  25.995  1.00  0.00     0.188 C 
BRANCH  79  80
ATOM     80  O   UNL A   1      44.164  23.734  26.492  1.00  0.00    -0.376 OA
BRANCH  80  81
ATOM     81  C   UNL A   1      44.751  25.027  26.642  1.00  0.00     0.202 C 
BRANCH  81  82
ATOM     82  C   UNL A   1      44.727  25.857  25.353  1.00  0.00     0.261 C 
BRANCH  82  83
ATOM     83  O   UNL A   1      45.989  25.925  24.666  1.00  0.00    -0.460 OA
BRANCH  83  84
ATOM     84  C   UNL A   1      46.542  27.143  24.468  1.00  0.00     0.339 C 
ATOM     85  O   UNL A   1      46.035  28.229  24.687  1.00  0.00    -0.246 OA
BRANCH  84  86
ATOM     86  C   UNL A   1      47.966  26.929  24.153  1.00  0.00     0.078 A 
ATOM     87  C   UNL A   1      48.881  26.504  25.114  1.00  0.00     0.019 A 
ATOM     88  C   UNL A   1      48.452  27.346  22.921  1.00  0.00     0.127 A 
ATOM     89  C   UNL A   1      50.241  26.569  24.828  1.00  0.00     0.031 A 
ATOM     90  N   UNL A   1      49.775  27.421  22.621  1.00  0.00    -0.254 NA
ATOM     91  C   UNL A   1      50.658  27.054  23.585  1.00  0.00     0.094 A 
BRANCH  91  92
ATOM     92  C   UNL A   1      52.146  27.286  23.352  1.00  0.00     0.318 C 
BRANCH  92  93
ATOM     93  N   UNL A   1      52.458  28.151  22.211  1.00  0.00    -0.337 N 
ATOM     94  H   UNL A   1      51.768  27.984  21.478  1.00  0.00     0.346 HD
ATOM     95  H   UNL A   1      53.402  27.922  21.901  1.00  0.00     0.346 HD
BRANCH  93  96
ATOM     96  C   UNL A   1      52.439  29.570  22.555  1.00  0.00     0.300 C 
BRANCH  96  97
ATOM     97  C   UNL A   1      52.601  30.475  21.358  1.00  0.00     0.045 A 
ATOM     98  C   UNL A   1      53.815  31.142  21.130  1.00  0.00     0.051 A 
ATOM     99  C   UNL A   1      51.544  30.705  20.469  1.00  0.00     0.132 A 
ATOM    100  C   UNL A   1      53.934  32.024  20.058  1.00  0.00     0.123 A 
ATOM    101  C   UNL A   1      51.657  31.614  19.417  1.00  0.00     0.043 A 
ATOM    102  F   UNL A   1      50.382  30.054  20.620  1.00  0.00    -0.206 F 
ATOM    103  F   UNL A   1      55.103  32.642  19.840  1.00  0.00    -0.207 F 
ATOM    104  C   UNL A   1      52.861  32.279  19.211  1.00  0.00     0.042 A 
ENDBRANCH  96  97
ENDBRANCH  93  96
ENDBRANCH  92  93
ENDBRANCH  91  92
ENDBRANCH  84  86
ENDBRANCH  83  84
ENDBRANCH  82  83
ENDBRANCH  81  82
ENDBRANCH  80  81
ENDBRANCH  79  80
ENDBRANCH   1  79
TORSDOF 27
ENDMDL
MODEL 3
REMARK VINA RESULT:      -8.0      4.308     10.917
REMARK SMILES O=C(OCCOCCOCCOCCOC(=O)c1ccc(C[NH2+]Cc2cc(F)ccc2F)nc1)c1ccc(-c2c3nc(c(-c4c(F)cc(S(=O)(=O)[O-])cc4F)c4ccc([nH]4)c(-c4c(F)cc(S(=O)(=O)[O-])cc4F)c4nc(c(-c5c(F)cc(S(=O)(=O)[O-])cc5F)c5ccc2[nH]5)C=C4)C=C3)cc1
REMARK SMILES IDX 10 1 9 2 8 3 7 4 6 5 5 6 4 7 3 8 2 9 1 10 35 11 36 12 100 13
REMARK SMILES IDX 37 14 99 15 38 16 39 17 40 18 93 19 41 20 98 21 92 22 94 23
REMARK SMILES IDX 42 24 97 25 91 26 90 27 43 29 77 30 56 31 76 32 57 33 60 34
REMARK SMILES IDX 75 35 95 36 58 37 59 38 74 40 96 41 61 42 44 43 45 44 54 45
REMARK SMILES IDX 46 46 47 47 53 48 55 49 48 50 49 51 50 52 51 53 52 54 78 55
REMARK SMILES IDX 79 56 88 57 80 58 81 59 87 60 89 61 82 62 83 63 84 64 85 65
REMARK SMILES IDX 86 66 62 67 63 68 72 69 64 70 65 71 71 72 73 73 66 74 67 75
REMARK SMILES IDX 68 76 69 77 70 78 11 79 12 80 13 81 14 82 15 83 16 84 17 85
REMARK SMILES IDX 18 86 19 87 34 88 20 89 33 90 21 91 22 92 23 93 24 96 25 97
REMARK SMILES IDX 26 98 31 99 27 100 30 101 32 102 28 103 29 104
REMARK H PARENT 94 28 60 39 23 94 23 95
REMARK Flexibility Score: inf
ROOT
ATOM      1  C   UNL A   1      40.025  23.582  26.497  1.00  0.00     0.188 C 
ENDROOT
BRANCH   1   2
ATOM      2  O   UNL A   1      40.829  23.329  27.647  1.00  0.00    -0.377 OA
BRANCH   2   3
ATOM      3  C   UNL A   1      42.059  22.637  27.418  1.00  0.00     0.188 C 
BRANCH   3   4
ATOM      4  C   UNL A   1      42.433  22.452  25.945  1.00  0.00     0.188 C 
BRANCH   4   5
ATOM      5  O   UNL A   1      43.705  23.046  25.689  1.00  0.00    -0.376 OA
BRANCH   5   6
ATOM      6  C   UNL A   1      44.832  22.378  26.251  1.00  0.00     0.202 C 
BRANCH   6   7
ATOM      7  C   UNL A   1      45.981  23.294  26.688  1.00  0.00     0.261 C 
BRANCH   7   8
ATOM      8  O   UNL A   1      46.893  23.603  25.618  1.00  0.00    -0.460 OA
BRANCH   8   9
ATOM      9  C   UNL A   1      47.055  24.809  25.010  1.00  0.00     0.338 C 
ATOM     10  O   UNL A   1      47.525  24.854  23.875  1.00  0.00    -0.246 OA
BRANCH   9  11
ATOM     11  C   UNL A   1      46.639  26.085  25.657  1.00  0.00     0.060 A 
ATOM     12  C   UNL A   1      45.631  26.903  25.158  1.00  0.00     0.016 A 
ATOM     13  C   UNL A   1      47.251  26.455  26.864  1.00  0.00     0.016 A 
ATOM     14  C   UNL A   1      45.357  28.137  25.717  1.00  0.00     0.010 A 
ATOM     15  C   UNL A   1      46.906  27.657  27.496  1.00  0.00     0.010 A 
ATOM     16  C   UNL A   1      45.990  28.529  26.892  1.00  0.00    -0.014 A 
BRANCH  16  17
ATOM     17  C   UNL A   1      45.755  29.911  27.364  1.00  0.00     0.031 A 
ATOM     18  C   UNL A   1      44.538  30.182  28.200  1.00  0.00     0.074 A 
ATOM     19  C   UNL A   1      46.712  30.846  27.196  1.00  0.00     0.049 A 
ATOM     20  N   UNL A   1      44.111  31.311  28.696  1.00  0.00    -0.248 NA
ATOM     21  C   UNL A   1      43.691  29.022  28.533  1.00  0.00     0.031 C 
ATOM     22  C   UNL A   1      47.986  30.635  26.498  1.00  0.00     0.029 A 
ATOM     23  N   UNL A   1      46.792  32.140  27.638  1.00  0.00    -0.354 N 
ATOM     24  C   UNL A   1      42.933  31.005  29.368  1.00  0.00     0.074 A 
ATOM     25  C   UNL A   1      42.702  29.588  29.208  1.00  0.00     0.031 C 
ATOM     26  C   UNL A   1      48.737  31.742  26.603  1.00  0.00     0.029 A 
ATOM     27  C   UNL A   1      47.967  32.768  27.293  1.00  0.00     0.049 A 
ATOM     28  H   UNL A   1      46.077  32.578  28.153  1.00  0.00     0.167 HD
ATOM     29  C   UNL A   1      42.122  31.839  30.057  1.00  0.00     0.037 A 
ATOM     30  C   UNL A   1      48.355  34.044  27.480  1.00  0.00     0.037 A 
ATOM     31  C   UNL A   1      42.389  33.242  30.213  1.00  0.00     0.049 A 
ATOM     32  C   UNL A   1      47.399  34.969  28.186  1.00  0.00     0.074 A 
ATOM     33  C   UNL A   1      41.602  34.216  30.795  1.00  0.00     0.029 A 
ATOM     34  N   UNL A   1      43.556  33.865  29.789  1.00  0.00    -0.354 N 
ATOM     35  N   UNL A   1      46.228  34.694  28.713  1.00  0.00    -0.248 NA
ATOM     36  C   UNL A   1      47.799  36.376  28.304  1.00  0.00     0.031 C 
ATOM     37  C   UNL A   1      42.285  35.436  30.701  1.00  0.00     0.029 A 
ATOM     38  C   UNL A   1      43.513  35.212  30.097  1.00  0.00     0.049 A 
ATOM     39  H   UNL A   1      44.305  33.413  29.336  1.00  0.00     0.167 HD
ATOM     40  C   UNL A   1      45.749  35.893  29.223  1.00  0.00     0.074 A 
ATOM     41  C   UNL A   1      46.776  36.886  28.974  1.00  0.00     0.031 C 
ATOM     42  C   UNL A   1      44.564  36.161  29.829  1.00  0.00     0.037 A 
BRANCH  29  43
ATOM     43  C   UNL A   1      40.863  31.253  30.631  1.00  0.00     0.058 A 
ATOM     44  C   UNL A   1      39.667  31.201  29.898  1.00  0.00     0.135 A 
ATOM     45  C   UNL A   1      40.845  30.767  31.948  1.00  0.00     0.135 A 
ATOM     46  F   UNL A   1      39.619  31.686  28.647  1.00  0.00    -0.206 F 
ATOM     47  C   UNL A   1      38.491  30.709  30.460  1.00  0.00     0.059 A 
ATOM     48  C   UNL A   1      39.687  30.251  32.523  1.00  0.00     0.059 A 
ATOM     49  F   UNL A   1      41.958  30.808  32.698  1.00  0.00    -0.206 F 
ATOM     50  C   UNL A   1      38.511  30.241  31.774  1.00  0.00     0.060 A 
BRANCH  50  51
ATOM     51  S   UNL A   1      36.975  29.622  32.495  1.00  0.00     0.124 S 
ATOM     52  O   UNL A   1      36.546  30.766  33.293  1.00  0.00    -0.237 OA
ATOM     53  O   UNL A   1      36.168  29.337  31.313  1.00  0.00    -0.237 OA
ATOM     54  O   UNL A   1      37.403  28.452  33.256  1.00  0.00    -0.744 OA
ENDBRANCH  50  51
ENDBRANCH  29  43
BRANCH  30  55
ATOM     55  C   UNL A   1      49.649  34.536  26.927  1.00  0.00     0.058 A 
ATOM     56  C   UNL A   1      49.766  34.984  25.603  1.00  0.00     0.135 A 
ATOM     57  C   UNL A   1      50.811  34.546  27.718  1.00  0.00     0.135 A 
ATOM     58  F   UNL A   1      48.691  34.991  24.799  1.00  0.00    -0.206 F 
ATOM     59  C   UNL A   1      50.989  35.398  25.076  1.00  0.00     0.059 A 
ATOM     60  C   UNL A   1      52.035  34.986  27.226  1.00  0.00     0.059 A 
ATOM     61  F   UNL A   1      50.759  34.139  28.996  1.00  0.00    -0.206 F 
ATOM     62  C   UNL A   1      52.119  35.391  25.896  1.00  0.00     0.060 A 
BRANCH  62  63
ATOM     63  S   UNL A   1      53.701  35.936  25.216  1.00  0.00     0.124 S 
ATOM     64  O   UNL A   1      54.151  36.872  26.240  1.00  0.00    -0.237 OA
ATOM     65  O   UNL A   1      54.448  34.685  25.122  1.00  0.00    -0.237 OA
ATOM     66  O   UNL A   1      53.328  36.530  23.936  1.00  0.00    -0.744 OA
ENDBRANCH  62  63
ENDBRANCH  30  55
BRANCH  42  67
ATOM     67  C   UNL A   1      44.341  37.577  30.268  1.00  0.00     0.058 A 
ATOM     68  C   UNL A   1      43.704  38.508  29.433  1.00  0.00     0.135 A 
ATOM     69  C   UNL A   1      44.737  37.993  31.547  1.00  0.00     0.135 A 
ATOM     70  F   UNL A   1      43.314  38.154  28.198  1.00  0.00    -0.206 F 
ATOM     71  C   UNL A   1      43.494  39.818  29.843  1.00  0.00     0.059 A 
ATOM     72  C   UNL A   1      44.513  39.292  31.987  1.00  0.00     0.059 A 
ATOM     73  F   UNL A   1      45.338  37.133  32.383  1.00  0.00    -0.206 F 
ATOM     74  C   UNL A   1      43.904  40.201  31.122  1.00  0.00     0.060 A 
BRANCH  74  75
ATOM     75  S   UNL A   1      43.609  41.899  31.654  1.00  0.00     0.124 S 
ATOM     76  O   UNL A   1      44.959  42.449  31.636  1.00  0.00    -0.237 OA
ATOM     77  O   UNL A   1      42.707  42.400  30.622  1.00  0.00    -0.237 OA
ATOM     78  O   UNL A   1      43.011  41.741  32.976  1.00  0.00    -0.744 OA
ENDBRANCH  74  75
ENDBRANCH  42  67
ENDBRANCH  16  17
ENDBRANCH   9  11
ENDBRANCH   8   9
ENDBRANCH   7   8
ENDBRANCH   6   7
ENDBRANCH   5   6
ENDBRANCH   4   5
ENDBRANCH   3   4
ENDBRANCH   2   3
ENDBRANCH   1   2
BRANCH   1  79
ATOM     79  C   UNL A   1      38.544  23.974  26.695  1.00  0.00     0.188 C 
BRANCH  79  80
ATOM     80  O   UNL A   1      37.621  23.268  25.874  1.00  0.00    -0.376 OA
BRANCH  80  81
ATOM     81  C   UNL A   1      38.078  22.000  25.403  1.00  0.00     0.202 C 
BRANCH  81  82
ATOM     82  C   UNL A   1      36.939  21.065  24.979  1.00  0.00     0.261 C 
BRANCH  82  83
ATOM     83  O   UNL A   1      35.652  21.412  25.519  1.00  0.00    -0.460 OA
BRANCH  83  84
ATOM     84  C   UNL A   1      34.556  20.835  24.976  1.00  0.00     0.339 C 
ATOM     85  O   UNL A   1      34.418  19.668  24.657  1.00  0.00    -0.246 OA
BRANCH  84  86
ATOM     86  C   UNL A   1      33.463  21.822  25.048  1.00  0.00     0.078 A 
ATOM     87  C   UNL A   1      32.486  21.917  24.059  1.00  0.00     0.019 A 
ATOM     88  C   UNL A   1      33.514  22.812  26.021  1.00  0.00     0.127 A 
ATOM     89  C   UNL A   1      31.642  23.024  24.047  1.00  0.00     0.031 A 
ATOM     90  N   UNL A   1      32.702  23.901  26.027  1.00  0.00    -0.254 NA
ATOM     91  C   UNL A   1      31.789  24.009  25.027  1.00  0.00     0.094 A 
BRANCH  91  92
ATOM     92  C   UNL A   1      30.981  25.295  24.899  1.00  0.00     0.318 C 
BRANCH  92  93
ATOM     93  N   UNL A   1      30.913  25.840  23.540  1.00  0.00    -0.337 N 
ATOM     94  H   UNL A   1      29.963  25.719  23.189  1.00  0.00     0.346 HD
ATOM     95  H   UNL A   1      31.593  25.336  22.972  1.00  0.00     0.346 HD
BRANCH  93  96
ATOM     96  C   UNL A   1      31.255  27.259  23.483  1.00  0.00     0.300 C 
BRANCH  96  97
ATOM     97  C   UNL A   1      30.082  28.140  23.126  1.00  0.00     0.045 A 
ATOM     98  C   UNL A   1      28.781  27.783  23.513  1.00  0.00     0.051 A 
ATOM     99  C   UNL A   1      30.250  29.308  22.373  1.00  0.00     0.132 A 
ATOM    100  C   UNL A   1      27.698  28.570  23.125  1.00  0.00     0.123 A 
ATOM    101  C   UNL A   1      29.162  30.075  21.959  1.00  0.00     0.043 A 
ATOM    102  F   UNL A   1      31.479  29.713  22.021  1.00  0.00    -0.206 F 
ATOM    103  F   UNL A   1      26.463  28.228  23.516  1.00  0.00    -0.207 F 
ATOM    104  C   UNL A   1      27.876  29.702  22.338  1.00  0.00     0.042 A 
ENDBRANCH  96  97
ENDBRANCH  93  96
ENDBRANCH  92  93
ENDBRANCH  91  92
ENDBRANCH  84  86
ENDBRANCH  83  84
ENDBRANCH  82  83
ENDBRANCH  81  82
ENDBRANCH  80  81
ENDBRANCH  79  80
ENDBRANCH   1  79
TORSDOF 27
ENDMDL
