MODEL 1
REMARK VINA RESULT:     -10.9      0.000      0.000
REMARK SMILES O=C(OCCOCCOCCOCCOC(=O)c1ccc(-c2c3nc(c(-c4c(F)cc(S(=O)(=O)[O-])cc4F)c4ccc([nH]4)c(-c4c(F)cc(S(=O)(=O)[O-])cc4F)c4nc(c(-c5c(F)cc(S(=O)(=O)[O-])cc5F)c5ccc2[nH]5)C=C4)C=C3)cc1)C1=Cc2cc(Cl)cc(-c3ccc(CO)cc3)c2O[C@@H]1C(F)(F)F
REMARK SMILES IDX 9 1 8 2 7 3 6 4 5 5 4 6 3 7 2 8 1 9 84 10 85 11 102 12 86 13
REMARK SMILES IDX 101 14 87 15 100 16 88 17 91 18 89 19 90 20 103 21 104 22
REMARK SMILES IDX 105 23 106 24 92 25 93 26 99 27 94 28 98 29 95 30 96 31
REMARK SMILES IDX 97 32 10 34 11 35 12 36 13 37 14 38 15 39 16 40 17 41 18 42
REMARK SMILES IDX 19 43 83 44 20 45 82 46 21 47 22 48 23 49 76 50 24 51 81 52
REMARK SMILES IDX 75 53 77 54 25 55 80 56 74 57 73 58 26 60 60 61 39 62 59 63
REMARK SMILES IDX 40 64 43 65 58 66 78 67 41 68 42 69 57 71 79 72 44 73 27 74
REMARK SMILES IDX 28 75 37 76 29 77 30 78 36 79 38 80 31 81 32 82 33 83 34 84
REMARK SMILES IDX 35 85 61 86 62 87 71 88 63 89 64 90 70 91 72 92 65 93 66 94
REMARK SMILES IDX 67 95 68 96 69 97 45 98 46 99 55 100 47 101 48 102 54 103
REMARK SMILES IDX 56 104 49 105 50 106 51 107 52 108 53 109
REMARK H PARENT 97 33 77 59 43 70
REMARK Flexibility Score: inf
ROOT
ATOM      1  O   UNL A   1      34.816  23.379  22.353  1.00  0.00    -0.377 OA
ENDROOT
BRANCH   1   2
ATOM      2  C   UNL A   1      33.452  23.577  22.611  1.00  0.00     0.188 C 
BRANCH   2   3
ATOM      3  C   UNL A   1      32.996  24.877  21.972  1.00  0.00     0.188 C 
BRANCH   3   4
ATOM      4  O   UNL A   1      33.821  26.087  21.879  1.00  0.00    -0.376 OA
BRANCH   4   5
ATOM      5  C   UNL A   1      33.561  27.701  22.173  1.00  0.00     0.202 C 
BRANCH   5   6
ATOM      6  C   UNL A   1      31.729  28.830  21.922  1.00  0.00     0.261 C 
BRANCH   6   7
ATOM      7  O   UNL A   1      30.326  28.255  21.685  1.00  0.00    -0.460 OA
BRANCH   7   8
ATOM      8  C   UNL A   1      29.380  29.200  21.679  1.00  0.00     0.338 C 
ATOM      9  O   UNL A   1      29.268  30.158  20.955  1.00  0.00    -0.246 OA
BRANCH   8  10
ATOM     10  C   UNL A   1      28.896  28.948  23.021  1.00  0.00     0.087 C 
ATOM     11  C   UNL A   1      29.342  27.673  23.573  1.00  0.00     0.027 C 
ATOM     12  C   UNL A   1      29.399  30.678  23.691  1.00  0.00     0.316 C 
ATOM     13  C   UNL A   1      30.625  27.514  24.820  1.00  0.00     0.019 A 
ATOM     14  O   UNL A   1      30.869  30.540  24.974  1.00  0.00    -0.475 OA
ATOM     15  C   UNL A   1      31.016  26.238  25.140  1.00  0.00     0.032 A 
ATOM     16  C   UNL A   1      31.507  28.876  25.452  1.00  0.00     0.135 A 
ATOM     17  C   UNL A   1      32.134  26.142  25.971  1.00  0.00     0.042 A 
ATOM     18  C   UNL A   1      32.654  28.664  26.227  1.00  0.00     0.026 A 
ATOM     19  Cl  UNL A   1      32.656  24.550  26.413  1.00  0.00    -0.084 Cl
ATOM     20  C   UNL A   1      32.894  27.266  26.466  1.00  0.00     0.033 A 
BRANCH  12  21
ATOM     21  C   UNL A   1      27.779  31.123  23.797  1.00  0.00     0.430 C 
ATOM     22  F   UNL A   1      26.832  30.168  23.763  1.00  0.00    -0.167 F 
ATOM     23  F   UNL A   1      27.613  31.686  25.036  1.00  0.00    -0.167 F 
ATOM     24  F   UNL A   1      27.401  32.104  22.937  1.00  0.00    -0.167 F 
ENDBRANCH  12  21
BRANCH  18  25
ATOM     25  C   UNL A   1      33.582  29.587  26.874  1.00  0.00    -0.015 A 
ATOM     26  C   UNL A   1      34.878  29.264  27.296  1.00  0.00     0.009 A 
ATOM     27  C   UNL A   1      33.102  30.816  27.292  1.00  0.00     0.009 A 
ATOM     28  C   UNL A   1      35.724  30.235  27.883  1.00  0.00     0.007 A 
ATOM     29  C   UNL A   1      33.978  31.816  27.701  1.00  0.00     0.007 A 
ATOM     30  C   UNL A   1      35.307  31.559  27.987  1.00  0.00    -0.023 A 
BRANCH  30  31
ATOM     31  C   UNL A   1      36.197  32.707  28.385  1.00  0.00     0.191 C 
BRANCH  31  32
ATOM     32  O   UNL A   1      35.927  33.903  27.680  1.00  0.00    -0.392 OA
ATOM     33  H   UNL A   1      35.275  33.728  26.983  1.00  0.00     0.211 HD
ENDBRANCH  31  32
ENDBRANCH  30  31
ENDBRANCH  18  25
ENDBRANCH   8  10
ENDBRANCH   7   8
ENDBRANCH   6   7
ENDBRANCH   5   6
ENDBRANCH   4   5
ENDBRANCH   3   4
ENDBRANCH   2   3
ENDBRANCH   1   2
BRANCH   1  34
ATOM     34  C   UNL A   1      35.439  22.811  23.479  1.00  0.00     0.188 C 
BRANCH  34  35
ATOM     35  C   UNL A   1      34.670  21.824  24.353  1.00  0.00     0.188 C 
BRANCH  35  36
ATOM     36  O   UNL A   1      35.310  21.071  25.360  1.00  0.00    -0.376 OA
BRANCH  36  37
ATOM     37  C   UNL A   1      36.693  21.273  25.571  1.00  0.00     0.202 C 
BRANCH  37  38
ATOM     38  C   UNL A   1      37.186  22.572  26.252  1.00  0.00     0.261 C 
BRANCH  38  39
ATOM     39  O   UNL A   1      38.437  23.142  25.819  1.00  0.00    -0.460 OA
BRANCH  39  40
ATOM     40  C   UNL A   1      39.501  23.021  26.654  1.00  0.00     0.338 C 
ATOM     41  O   UNL A   1      40.096  21.997  26.933  1.00  0.00    -0.246 OA
BRANCH  40  42
ATOM     42  C   UNL A   1      39.935  24.390  27.057  1.00  0.00     0.060 A 
ATOM     43  C   UNL A   1      40.315  25.337  26.087  1.00  0.00     0.016 A 
ATOM     44  C   UNL A   1      39.921  24.756  28.401  1.00  0.00     0.016 A 
ATOM     45  C   UNL A   1      40.655  26.660  26.451  1.00  0.00     0.010 A 
ATOM     46  C   UNL A   1      40.260  26.069  28.760  1.00  0.00     0.010 A 
ATOM     47  C   UNL A   1      40.637  27.043  27.796  1.00  0.00    -0.014 A 
BRANCH  47  48
ATOM     48  C   UNL A   1      41.240  28.313  28.323  1.00  0.00     0.031 A 
ATOM     49  C   UNL A   1      42.745  28.317  28.378  1.00  0.00     0.074 A 
ATOM     50  C   UNL A   1      40.570  29.340  28.895  1.00  0.00     0.049 A 
ATOM     51  N   UNL A   1      43.561  29.088  29.045  1.00  0.00    -0.248 NA
ATOM     52  C   UNL A   1      43.410  27.245  27.612  1.00  0.00     0.031 C 
ATOM     53  C   UNL A   1      39.124  29.536  28.915  1.00  0.00     0.029 A 
ATOM     54  N   UNL A   1      41.042  30.378  29.681  1.00  0.00    -0.354 N 
ATOM     55  C   UNL A   1      44.824  28.579  28.787  1.00  0.00     0.074 A 
ATOM     56  C   UNL A   1      44.654  27.358  28.036  1.00  0.00     0.031 C 
ATOM     57  C   UNL A   1      38.819  30.539  29.764  1.00  0.00     0.029 A 
ATOM     58  C   UNL A   1      40.051  31.087  30.333  1.00  0.00     0.049 A 
ATOM     59  H   UNL A   1      41.999  30.591  29.768  1.00  0.00     0.167 HD
ATOM     60  C   UNL A   1      46.033  29.108  29.078  1.00  0.00     0.037 A 
ATOM     61  C   UNL A   1      40.124  32.049  31.282  1.00  0.00     0.037 A 
ATOM     62  C   UNL A   1      46.215  30.321  29.819  1.00  0.00     0.049 A 
ATOM     63  C   UNL A   1      41.478  32.581  31.705  1.00  0.00     0.074 A 
ATOM     64  C   UNL A   1      47.391  30.986  30.102  1.00  0.00     0.029 A 
ATOM     65  N   UNL A   1      45.188  31.038  30.413  1.00  0.00    -0.354 N 
ATOM     66  N   UNL A   1      42.672  32.166  31.354  1.00  0.00    -0.248 NA
ATOM     67  C   UNL A   1      41.498  33.741  32.612  1.00  0.00     0.031 C 
ATOM     68  C   UNL A   1      47.084  32.070  30.929  1.00  0.00     0.029 A 
ATOM     69  C   UNL A   1      45.709  32.127  31.087  1.00  0.00     0.049 A 
ATOM     70  H   UNL A   1      44.233  30.806  30.364  1.00  0.00     0.167 HD
ATOM     71  C   UNL A   1      43.574  33.065  31.924  1.00  0.00     0.074 A 
ATOM     72  C   UNL A   1      42.793  34.022  32.674  1.00  0.00     0.031 C 
ATOM     73  C   UNL A   1      44.926  33.105  31.802  1.00  0.00     0.037 A 
BRANCH  60  74
ATOM     74  C   UNL A   1      47.231  28.367  28.557  1.00  0.00     0.058 A 
ATOM     75  C   UNL A   1      47.780  28.660  27.295  1.00  0.00     0.135 A 
ATOM     76  C   UNL A   1      47.800  27.319  29.293  1.00  0.00     0.135 A 
ATOM     77  F   UNL A   1      47.261  29.642  26.539  1.00  0.00    -0.206 F 
ATOM     78  C   UNL A   1      48.800  27.893  26.751  1.00  0.00     0.059 A 
ATOM     79  C   UNL A   1      48.856  26.568  28.788  1.00  0.00     0.059 A 
ATOM     80  F   UNL A   1      47.315  26.997  30.502  1.00  0.00    -0.206 F 
ATOM     81  C   UNL A   1      49.329  26.846  27.505  1.00  0.00     0.060 A 
BRANCH  81  82
ATOM     82  S   UNL A   1      50.639  25.848  26.774  1.00  0.00     0.124 S 
ATOM     83  O   UNL A   1      51.832  26.562  27.219  1.00  0.00    -0.237 OA
ATOM     84  O   UNL A   1      50.414  24.545  27.391  1.00  0.00    -0.237 OA
ATOM     85  O   UNL A   1      50.363  25.919  25.342  1.00  0.00    -0.744 OA
ENDBRANCH  81  82
ENDBRANCH  60  74
BRANCH  61  86
ATOM     86  C   UNL A   1      38.884  32.638  31.879  1.00  0.00     0.058 A 
ATOM     87  C   UNL A   1      38.320  32.100  33.048  1.00  0.00     0.135 A 
ATOM     88  C   UNL A   1      38.215  33.718  31.280  1.00  0.00     0.135 A 
ATOM     89  F   UNL A   1      38.899  31.048  33.646  1.00  0.00    -0.206 F 
ATOM     90  C   UNL A   1      37.143  32.604  33.599  1.00  0.00     0.059 A 
ATOM     91  C   UNL A   1      37.044  34.251  31.823  1.00  0.00     0.059 A 
ATOM     92  F   UNL A   1      38.701  34.273  30.160  1.00  0.00    -0.206 F 
ATOM     93  C   UNL A   1      36.517  33.689  32.986  1.00  0.00     0.060 A 
BRANCH  93  94
ATOM     94  S   UNL A   1      35.042  34.386  33.767  1.00  0.00     0.124 S 
ATOM     95  O   UNL A   1      33.972  33.656  33.098  1.00  0.00    -0.237 OA
ATOM     96  O   UNL A   1      35.262  34.051  35.171  1.00  0.00    -0.237 OA
ATOM     97  O   UNL A   1      35.132  35.808  33.449  1.00  0.00    -0.744 OA
ENDBRANCH  93  94
ENDBRANCH  61  86
BRANCH  73  98
ATOM     98  C   UNL A   1      45.674  34.273  32.391  1.00  0.00     0.058 A 
ATOM     99  C   UNL A   1      46.191  34.264  33.693  1.00  0.00     0.135 A 
ATOM    100  C   UNL A   1      45.989  35.373  31.570  1.00  0.00     0.135 A 
ATOM    101  F   UNL A   1      45.919  33.243  34.522  1.00  0.00    -0.206 F 
ATOM    102  C   UNL A   1      46.994  35.301  34.163  1.00  0.00     0.059 A 
ATOM    103  C   UNL A   1      46.816  36.401  32.006  1.00  0.00     0.059 A 
ATOM    104  F   UNL A   1      45.527  35.431  30.311  1.00  0.00    -0.206 F 
ATOM    105  C   UNL A   1      47.314  36.358  33.306  1.00  0.00     0.060 A 
BRANCH 105 106
ATOM    106  S   UNL A   1      48.422  37.653  33.901  1.00  0.00     0.124 S 
ATOM    107  O   UNL A   1      47.802  38.012  35.172  1.00  0.00    -0.237 OA
ATOM    108  O   UNL A   1      49.698  36.950  33.992  1.00  0.00    -0.237 OA
ATOM    109  O   UNL A   1      48.348  38.672  32.857  1.00  0.00    -0.744 OA
ENDBRANCH 105 106
ENDBRANCH  73  98
ENDBRANCH  47  48
ENDBRANCH  40  42
ENDBRANCH  39  40
ENDBRANCH  38  39
ENDBRANCH  37  38
ENDBRANCH  36  37
ENDBRANCH  35  36
ENDBRANCH  34  35
ENDBRANCH   1  34
TORSDOF 27
ENDMDL
MODEL 2
REMARK VINA RESULT:     -10.7      3.581     10.113
REMARK SMILES O=C(OCCOCCOCCOCCOC(=O)c1ccc(-c2c3nc(c(-c4c(F)cc(S(=O)(=O)[O-])cc4F)c4ccc([nH]4)c(-c4c(F)cc(S(=O)(=O)[O-])cc4F)c4nc(c(-c5c(F)cc(S(=O)(=O)[O-])cc5F)c5ccc2[nH]5)C=C4)C=C3)cc1)C1=Cc2cc(Cl)cc(-c3ccc(CO)cc3)c2O[C@@H]1C(F)(F)F
REMARK SMILES IDX 9 1 8 2 7 3 6 4 5 5 4 6 3 7 2 8 1 9 84 10 85 11 102 12 86 13
REMARK SMILES IDX 101 14 87 15 100 16 88 17 91 18 89 19 90 20 103 21 104 22
REMARK SMILES IDX 105 23 106 24 92 25 93 26 99 27 94 28 98 29 95 30 96 31
REMARK SMILES IDX 97 32 10 34 11 35 12 36 13 37 14 38 15 39 16 40 17 41 18 42
REMARK SMILES IDX 19 43 83 44 20 45 82 46 21 47 22 48 23 49 76 50 24 51 81 52
REMARK SMILES IDX 75 53 77 54 25 55 80 56 74 57 73 58 26 60 60 61 39 62 59 63
REMARK SMILES IDX 40 64 43 65 58 66 78 67 41 68 42 69 57 71 79 72 44 73 27 74
REMARK SMILES IDX 28 75 37 76 29 77 30 78 36 79 38 80 31 81 32 82 33 83 34 84
REMARK SMILES IDX 35 85 61 86 62 87 71 88 63 89 64 90 70 91 72 92 65 93 66 94
REMARK SMILES IDX 67 95 68 96 69 97 45 98 46 99 55 100 47 101 48 102 54 103
REMARK SMILES IDX 56 104 49 105 50 106 51 107 52 108 53 109
REMARK H PARENT 97 33 77 59 43 70
REMARK Flexibility Score: inf
ROOT
ATOM      1  O   UNL A   1      32.416  30.003  25.951  1.00  0.00    -0.377 OA
ENDROOT
BRANCH   1   2
ATOM      2  C   UNL A   1      32.648  28.639  25.720  1.00  0.00     0.188 C 
BRANCH   2   3
ATOM      3  C   UNL A   1      33.288  28.456  24.356  1.00  0.00     0.188 C 
BRANCH   3   4
ATOM      4  O   UNL A   1      32.541  28.204  23.118  1.00  0.00    -0.376 OA
BRANCH   4   5
ATOM      5  C   UNL A   1      32.036  26.838  22.319  1.00  0.00     0.202 C 
BRANCH   5   6
ATOM      6  C   UNL A   1      30.440  25.479  22.866  1.00  0.00     0.261 C 
BRANCH   6   7
ATOM      7  O   UNL A   1      30.587  23.998  23.239  1.00  0.00    -0.460 OA
BRANCH   7   8
ATOM      8  C   UNL A   1      31.855  23.578  23.178  1.00  0.00     0.338 C 
ATOM      9  O   UNL A   1      32.581  23.492  22.219  1.00  0.00    -0.246 OA
BRANCH   8  10
ATOM     10  C   UNL A   1      31.852  22.880  24.447  1.00  0.00     0.087 C 
ATOM     11  C   UNL A   1      31.919  21.428  24.314  1.00  0.00     0.027 C 
ATOM     12  C   UNL A   1      33.220  23.981  25.229  1.00  0.00     0.316 C 
ATOM     13  C   UNL A   1      33.394  20.457  24.643  1.00  0.00     0.019 A 
ATOM     14  O   UNL A   1      34.873  22.971  25.499  1.00  0.00    -0.475 OA
ATOM     15  C   UNL A   1      33.327  19.119  24.348  1.00  0.00     0.032 A 
ATOM     16  C   UNL A   1      34.916  21.170  25.100  1.00  0.00     0.135 A 
ATOM     17  C   UNL A   1      34.534  18.422  24.437  1.00  0.00     0.042 A 
ATOM     18  C   UNL A   1      36.079  20.391  25.096  1.00  0.00     0.026 A 
ATOM     19  Cl  UNL A   1      34.495  16.726  24.088  1.00  0.00    -0.084 Cl
ATOM     20  C   UNL A   1      35.807  19.015  24.777  1.00  0.00     0.033 A 
BRANCH  12  21
ATOM     21  C   UNL A   1      32.086  24.684  26.256  1.00  0.00     0.430 C 
ATOM     22  F   UNL A   1      31.240  23.892  26.940  1.00  0.00    -0.167 F 
ATOM     23  F   UNL A   1      32.797  25.313  27.244  1.00  0.00    -0.167 F 
ATOM     24  F   UNL A   1      31.351  25.679  25.695  1.00  0.00    -0.167 F 
ENDBRANCH  12  21
BRANCH  18  25
ATOM     25  C   UNL A   1      37.468  20.705  25.418  1.00  0.00    -0.015 A 
ATOM     26  C   UNL A   1      37.962  21.987  25.694  1.00  0.00     0.009 A 
ATOM     27  C   UNL A   1      38.421  19.717  25.249  1.00  0.00     0.009 A 
ATOM     28  C   UNL A   1      39.320  22.194  26.033  1.00  0.00     0.007 A 
ATOM     29  C   UNL A   1      39.708  19.882  25.752  1.00  0.00     0.007 A 
ATOM     30  C   UNL A   1      40.183  21.111  26.171  1.00  0.00    -0.023 A 
BRANCH  30  31
ATOM     31  C   UNL A   1      41.575  21.194  26.740  1.00  0.00     0.191 C 
BRANCH  31  32
ATOM     32  O   UNL A   1      41.680  20.685  28.056  1.00  0.00    -0.392 OA
ATOM     33  H   UNL A   1      41.564  21.407  28.692  1.00  0.00     0.211 HD
ENDBRANCH  31  32
ENDBRANCH  30  31
ENDBRANCH  18  25
ENDBRANCH   8  10
ENDBRANCH   7   8
ENDBRANCH   6   7
ENDBRANCH   5   6
ENDBRANCH   4   5
ENDBRANCH   3   4
ENDBRANCH   2   3
ENDBRANCH   1   2
BRANCH   1  34
ATOM     34  C   UNL A   1      32.995  30.385  27.175  1.00  0.00     0.188 C 
BRANCH  34  35
ATOM     35  C   UNL A   1      33.264  31.861  27.458  1.00  0.00     0.188 C 
BRANCH  35  36
ATOM     36  O   UNL A   1      34.547  32.426  27.294  1.00  0.00    -0.376 OA
BRANCH  36  37
ATOM     37  C   UNL A   1      35.240  32.860  28.446  1.00  0.00     0.202 C 
BRANCH  37  38
ATOM     38  C   UNL A   1      35.650  31.834  29.530  1.00  0.00     0.261 C 
BRANCH  38  39
ATOM     39  O   UNL A   1      36.410  30.677  29.127  1.00  0.00    -0.460 OA
BRANCH  39  40
ATOM     40  C   UNL A   1      36.784  29.805  30.099  1.00  0.00     0.338 C 
ATOM     41  O   UNL A   1      36.085  29.372  30.997  1.00  0.00    -0.246 OA
BRANCH  40  42
ATOM     42  C   UNL A   1      38.164  29.329  29.794  1.00  0.00     0.060 A 
ATOM     43  C   UNL A   1      38.825  28.442  30.665  1.00  0.00     0.016 A 
ATOM     44  C   UNL A   1      38.791  29.726  28.616  1.00  0.00     0.016 A 
ATOM     45  C   UNL A   1      40.102  27.924  30.349  1.00  0.00     0.010 A 
ATOM     46  C   UNL A   1      40.059  29.212  28.305  1.00  0.00     0.010 A 
ATOM     47  C   UNL A   1      40.740  28.307  29.165  1.00  0.00    -0.014 A 
BRANCH  47  48
ATOM     48  C   UNL A   1      42.188  28.053  28.863  1.00  0.00     0.031 A 
ATOM     49  C   UNL A   1      43.060  29.280  28.889  1.00  0.00     0.074 A 
ATOM     50  C   UNL A   1      42.719  26.892  28.412  1.00  0.00     0.049 A 
ATOM     51  N   UNL A   1      44.248  29.479  28.387  1.00  0.00    -0.248 NA
ATOM     52  C   UNL A   1      42.460  30.469  29.524  1.00  0.00     0.031 C 
ATOM     53  C   UNL A   1      42.054  25.595  28.345  1.00  0.00     0.029 A 
ATOM     54  N   UNL A   1      43.945  26.652  27.814  1.00  0.00    -0.354 N 
ATOM     55  C   UNL A   1      44.521  30.816  28.634  1.00  0.00     0.074 A 
ATOM     56  C   UNL A   1      43.326  31.406  29.188  1.00  0.00     0.031 C 
ATOM     57  C   UNL A   1      42.817  24.736  27.637  1.00  0.00     0.029 A 
ATOM     58  C   UNL A   1      44.048  25.408  27.221  1.00  0.00     0.049 A 
ATOM     59  H   UNL A   1      44.676  27.310  27.810  1.00  0.00     0.167 HD
ATOM     60  C   UNL A   1      45.683  31.491  28.488  1.00  0.00     0.037 A 
ATOM     61  C   UNL A   1      45.009  24.878  26.428  1.00  0.00     0.037 A 
ATOM     62  C   UNL A   1      46.876  30.915  27.945  1.00  0.00     0.049 A 
ATOM     63  C   UNL A   1      46.275  25.665  26.160  1.00  0.00     0.074 A 
ATOM     64  C   UNL A   1      48.128  31.485  27.825  1.00  0.00     0.029 A 
ATOM     65  N   UNL A   1      46.958  29.639  27.408  1.00  0.00    -0.354 N 
ATOM     66  N   UNL A   1      46.571  26.895  26.510  1.00  0.00    -0.248 NA
ATOM     67  C   UNL A   1      47.360  24.979  25.436  1.00  0.00     0.031 C 
ATOM     68  C   UNL A   1      48.951  30.580  27.151  1.00  0.00     0.029 A 
ATOM     69  C   UNL A   1      48.235  29.414  26.930  1.00  0.00     0.049 A 
ATOM     70  H   UNL A   1      46.217  28.991  27.372  1.00  0.00     0.167 HD
ATOM     71  C   UNL A   1      47.897  27.095  26.126  1.00  0.00     0.074 A 
ATOM     72  C   UNL A   1      48.336  25.877  25.485  1.00  0.00     0.031 C 
ATOM     73  C   UNL A   1      48.684  28.183  26.325  1.00  0.00     0.037 A 
BRANCH  60  74
ATOM     74  C   UNL A   1      45.692  32.917  28.959  1.00  0.00     0.058 A 
ATOM     75  C   UNL A   1      46.051  33.251  30.278  1.00  0.00     0.135 A 
ATOM     76  C   UNL A   1      45.283  33.953  28.108  1.00  0.00     0.135 A 
ATOM     77  F   UNL A   1      46.432  32.294  31.140  1.00  0.00    -0.206 F 
ATOM     78  C   UNL A   1      45.934  34.547  30.757  1.00  0.00     0.059 A 
ATOM     79  C   UNL A   1      45.204  35.268  28.553  1.00  0.00     0.059 A 
ATOM     80  F   UNL A   1      44.927  33.691  26.840  1.00  0.00    -0.206 F 
ATOM     81  C   UNL A   1      45.506  35.549  29.886  1.00  0.00     0.060 A 
BRANCH  81  82
ATOM     82  S   UNL A   1      45.339  37.224  30.532  1.00  0.00     0.124 S 
ATOM     83  O   UNL A   1      46.654  37.437  31.130  1.00  0.00    -0.237 OA
ATOM     84  O   UNL A   1      45.060  37.993  29.324  1.00  0.00    -0.237 OA
ATOM     85  O   UNL A   1      44.230  37.116  31.475  1.00  0.00    -0.744 OA
ENDBRANCH  81  82
ENDBRANCH  60  74
BRANCH  61  86
ATOM     86  C   UNL A   1      44.865  23.501  25.859  1.00  0.00     0.058 A 
ATOM     87  C   UNL A   1      45.488  22.399  26.468  1.00  0.00     0.135 A 
ATOM     88  C   UNL A   1      44.140  23.259  24.681  1.00  0.00     0.135 A 
ATOM     89  F   UNL A   1      46.220  22.575  27.579  1.00  0.00    -0.206 F 
ATOM     90  C   UNL A   1      45.403  21.115  25.934  1.00  0.00     0.059 A 
ATOM     91  C   UNL A   1      44.026  21.979  24.135  1.00  0.00     0.059 A 
ATOM     92  F   UNL A   1      43.525  24.271  24.050  1.00  0.00    -0.206 F 
ATOM     93  C   UNL A   1      44.659  20.911  24.772  1.00  0.00     0.060 A 
BRANCH  93  94
ATOM     94  S   UNL A   1      44.485  19.223  24.145  1.00  0.00     0.124 S 
ATOM     95  O   UNL A   1      45.658  18.568  24.711  1.00  0.00    -0.237 OA
ATOM     96  O   UNL A   1      43.198  18.827  24.710  1.00  0.00    -0.237 OA
ATOM     97  O   UNL A   1      44.497  19.398  22.697  1.00  0.00    -0.744 OA
ENDBRANCH  93  94
ENDBRANCH  61  86
BRANCH  73  98
ATOM     98  C   UNL A   1      50.142  28.103  25.955  1.00  0.00     0.058 A 
ATOM     99  C   UNL A   1      51.158  27.936  26.906  1.00  0.00     0.135 A 
ATOM    100  C   UNL A   1      50.506  28.061  24.595  1.00  0.00     0.135 A 
ATOM    101  F   UNL A   1      50.871  27.973  28.217  1.00  0.00    -0.206 F 
ATOM    102  C   UNL A   1      52.482  27.729  26.524  1.00  0.00     0.059 A 
ATOM    103  C   UNL A   1      51.815  27.821  24.193  1.00  0.00     0.059 A 
ATOM    104  F   UNL A   1      49.573  28.207  23.641  1.00  0.00    -0.206 F 
ATOM    105  C   UNL A   1      52.797  27.658  25.165  1.00  0.00     0.060 A 
BRANCH 105 106
ATOM    106  S   UNL A   1      54.503  27.306  24.686  1.00  0.00     0.124 S 
ATOM    107  O   UNL A   1      55.054  28.650  24.551  1.00  0.00    -0.237 OA
ATOM    108  O   UNL A   1      54.990  26.531  25.823  1.00  0.00    -0.237 OA
ATOM    109  O   UNL A   1      54.360  26.559  23.440  1.00  0.00    -0.744 OA
ENDBRANCH 105 106
ENDBRANCH  73  98
ENDBRANCH  47  48
ENDBRANCH  40  42
ENDBRANCH  39  40
ENDBRANCH  38  39
ENDBRANCH  37  38
ENDBRANCH  36  37
ENDBRANCH  35  36
ENDBRANCH  34  35
ENDBRANCH   1  34
TORSDOF 27
ENDMDL
MODEL 3
REMARK VINA RESULT:      -9.9      4.378      9.058
REMARK SMILES O=C(OCCOCCOCCOCCOC(=O)c1ccc(-c2c3nc(c(-c4c(F)cc(S(=O)(=O)[O-])cc4F)c4ccc([nH]4)c(-c4c(F)cc(S(=O)(=O)[O-])cc4F)c4nc(c(-c5c(F)cc(S(=O)(=O)[O-])cc5F)c5ccc2[nH]5)C=C4)C=C3)cc1)C1=Cc2cc(Cl)cc(-c3ccc(CO)cc3)c2O[C@@H]1C(F)(F)F
REMARK SMILES IDX 9 1 8 2 7 3 6 4 5 5 4 6 3 7 2 8 1 9 84 10 85 11 102 12 86 13
REMARK SMILES IDX 101 14 87 15 100 16 88 17 91 18 89 19 90 20 103 21 104 22
REMARK SMILES IDX 105 23 106 24 92 25 93 26 99 27 94 28 98 29 95 30 96 31
REMARK SMILES IDX 97 32 10 34 11 35 12 36 13 37 14 38 15 39 16 40 17 41 18 42
REMARK SMILES IDX 19 43 83 44 20 45 82 46 21 47 22 48 23 49 76 50 24 51 81 52
REMARK SMILES IDX 75 53 77 54 25 55 80 56 74 57 73 58 26 60 60 61 39 62 59 63
REMARK SMILES IDX 40 64 43 65 58 66 78 67 41 68 42 69 57 71 79 72 44 73 27 74
REMARK SMILES IDX 28 75 37 76 29 77 30 78 36 79 38 80 31 81 32 82 33 83 34 84
REMARK SMILES IDX 35 85 61 86 62 87 71 88 63 89 64 90 70 91 72 92 65 93 66 94
REMARK SMILES IDX 67 95 68 96 69 97 45 98 46 99 55 100 47 101 48 102 54 103
REMARK SMILES IDX 56 104 49 105 50 106 51 107 52 108 53 109
REMARK H PARENT 97 33 77 59 43 70
REMARK Flexibility Score: inf
ROOT
ATOM      1  O   UNL A   1      32.325  28.667  25.437  1.00  0.00    -0.377 OA
ENDROOT
BRANCH   1   2
ATOM      2  C   UNL A   1      32.484  27.286  25.251  1.00  0.00     0.188 C 
BRANCH   2   3
ATOM      3  C   UNL A   1      33.192  27.029  23.933  1.00  0.00     0.188 C 
BRANCH   3   4
ATOM      4  O   UNL A   1      32.647  26.203  22.849  1.00  0.00    -0.376 OA
BRANCH   4   5
ATOM      5  C   UNL A   1      33.213  24.913  21.968  1.00  0.00     0.202 C 
BRANCH   5   6
ATOM      6  C   UNL A   1      33.139  22.808  22.479  1.00  0.00     0.261 C 
BRANCH   6   7
ATOM      7  O   UNL A   1      34.253  21.990  23.145  1.00  0.00    -0.460 OA
BRANCH   7   8
ATOM      8  C   UNL A   1      35.321  22.733  23.452  1.00  0.00     0.338 C 
ATOM      9  O   UNL A   1      36.084  23.307  22.716  1.00  0.00    -0.246 OA
BRANCH   8  10
ATOM     10  C   UNL A   1      35.484  22.228  24.801  1.00  0.00     0.087 C 
ATOM     11  C   UNL A   1      36.717  21.472  24.996  1.00  0.00     0.027 C 
ATOM     12  C   UNL A   1      35.074  23.907  25.642  1.00  0.00     0.316 C 
ATOM     13  C   UNL A   1      38.154  22.104  25.869  1.00  0.00     0.019 A 
ATOM     14  O   UNL A   1      36.653  24.668  26.510  1.00  0.00    -0.475 OA
ATOM     15  C   UNL A   1      39.277  21.316  25.854  1.00  0.00     0.032 A 
ATOM     16  C   UNL A   1      38.233  23.717  26.521  1.00  0.00     0.135 A 
ATOM     17  C   UNL A   1      40.430  21.904  26.378  1.00  0.00     0.042 A 
ATOM     18  C   UNL A   1      39.459  24.230  26.963  1.00  0.00     0.026 A 
ATOM     19  Cl  UNL A   1      41.871  20.941  26.393  1.00  0.00    -0.084 Cl
ATOM     20  C   UNL A   1      40.513  23.255  26.884  1.00  0.00     0.033 A 
BRANCH  12  21
ATOM     21  C   UNL A   1      33.607  23.288  26.192  1.00  0.00     0.430 C 
ATOM     22  F   UNL A   1      33.379  21.965  26.105  1.00  0.00    -0.167 F 
ATOM     23  F   UNL A   1      33.570  23.526  27.541  1.00  0.00    -0.167 F 
ATOM     24  F   UNL A   1      32.507  23.925  25.715  1.00  0.00    -0.167 F 
ENDBRANCH  12  21
BRANCH  18  25
ATOM     25  C   UNL A   1      39.829  25.519  27.539  1.00  0.00    -0.015 A 
ATOM     26  C   UNL A   1      39.332  26.038  28.742  1.00  0.00     0.009 A 
ATOM     27  C   UNL A   1      40.566  26.397  26.765  1.00  0.00     0.009 A 
ATOM     28  C   UNL A   1      39.776  27.284  29.244  1.00  0.00     0.007 A 
ATOM     29  C   UNL A   1      41.139  27.531  27.332  1.00  0.00     0.007 A 
ATOM     30  C   UNL A   1      40.776  27.992  28.584  1.00  0.00    -0.023 A 
BRANCH  30  31
ATOM     31  C   UNL A   1      41.475  29.204  29.141  1.00  0.00     0.191 C 
BRANCH  31  32
ATOM     32  O   UNL A   1      42.765  29.412  28.600  1.00  0.00    -0.392 OA
ATOM     33  H   UNL A   1      42.944  30.364  28.545  1.00  0.00     0.211 HD
ENDBRANCH  31  32
ENDBRANCH  30  31
ENDBRANCH  18  25
ENDBRANCH   8  10
ENDBRANCH   7   8
ENDBRANCH   6   7
ENDBRANCH   5   6
ENDBRANCH   4   5
ENDBRANCH   3   4
ENDBRANCH   2   3
ENDBRANCH   1   2
BRANCH   1  34
ATOM     34  C   UNL A   1      32.813  29.038  26.704  1.00  0.00     0.188 C 
BRANCH  34  35
ATOM     35  C   UNL A   1      33.166  30.496  26.982  1.00  0.00     0.188 C 
BRANCH  35  36
ATOM     36  O   UNL A   1      34.326  30.854  27.702  1.00  0.00    -0.376 OA
BRANCH  36  37
ATOM     37  C   UNL A   1      34.532  32.220  28.004  1.00  0.00     0.202 C 
BRANCH  37  38
ATOM     38  C   UNL A   1      34.226  32.749  29.425  1.00  0.00     0.261 C 
BRANCH  38  39
ATOM     39  O   UNL A   1      34.527  31.903  30.553  1.00  0.00    -0.460 OA
BRANCH  39  40
ATOM     40  C   UNL A   1      34.944  32.509  31.695  1.00  0.00     0.338 C 
ATOM     41  O   UNL A   1      34.240  33.013  32.551  1.00  0.00    -0.246 OA
BRANCH  40  42
ATOM     42  C   UNL A   1      36.417  32.313  31.816  1.00  0.00     0.060 A 
ATOM     43  C   UNL A   1      37.114  32.791  32.942  1.00  0.00     0.016 A 
ATOM     44  C   UNL A   1      37.109  31.611  30.832  1.00  0.00     0.016 A 
ATOM     45  C   UNL A   1      38.496  32.546  33.105  1.00  0.00     0.010 A 
ATOM     46  C   UNL A   1      38.481  31.370  30.995  1.00  0.00     0.010 A 
ATOM     47  C   UNL A   1      39.201  31.835  32.128  1.00  0.00    -0.014 A 
BRANCH  47  48
ATOM     48  C   UNL A   1      40.698  31.759  32.052  1.00  0.00     0.031 A 
ATOM     49  C   UNL A   1      41.337  32.810  31.183  1.00  0.00     0.074 A 
ATOM     50  C   UNL A   1      41.474  30.759  32.532  1.00  0.00     0.049 A 
ATOM     51  N   UNL A   1      42.529  32.854  30.654  1.00  0.00    -0.248 NA
ATOM     52  C   UNL A   1      40.465  33.942  30.816  1.00  0.00     0.031 C 
ATOM     53  C   UNL A   1      41.055  29.675  33.415  1.00  0.00     0.029 A 
ATOM     54  N   UNL A   1      42.790  30.440  32.241  1.00  0.00    -0.354 N 
ATOM     55  C   UNL A   1      42.535  34.006  29.882  1.00  0.00     0.074 A 
ATOM     56  C   UNL A   1      41.195  34.542  29.894  1.00  0.00     0.031 C 
ATOM     57  C   UNL A   1      42.038  28.755  33.494  1.00  0.00     0.029 A 
ATOM     58  C   UNL A   1      43.181  29.194  32.691  1.00  0.00     0.049 A 
ATOM     59  H   UNL A   1      43.392  31.048  31.756  1.00  0.00     0.167 HD
ATOM     60  C   UNL A   1      43.574  34.618  29.272  1.00  0.00     0.037 A 
ATOM     61  C   UNL A   1      44.313  28.484  32.473  1.00  0.00     0.037 A 
ATOM     62  C   UNL A   1      44.908  34.099  29.257  1.00  0.00     0.049 A 
ATOM     63  C   UNL A   1      45.450  29.112  31.694  1.00  0.00     0.074 A 
ATOM     64  C   UNL A   1      46.049  34.677  28.736  1.00  0.00     0.029 A 
ATOM     65  N   UNL A   1      45.276  32.864  29.769  1.00  0.00    -0.354 N 
ATOM     66  N   UNL A   1      45.484  30.266  31.071  1.00  0.00    -0.248 NA
ATOM     67  C   UNL A   1      46.720  28.368  31.631  1.00  0.00     0.031 C 
ATOM     68  C   UNL A   1      47.096  33.760  28.870  1.00  0.00     0.029 A 
ATOM     69  C   UNL A   1      46.624  32.650  29.552  1.00  0.00     0.049 A 
ATOM     70  H   UNL A   1      44.667  32.234  30.220  1.00  0.00     0.167 HD
ATOM     71  C   UNL A   1      46.794  30.422  30.619  1.00  0.00     0.074 A 
ATOM     72  C   UNL A   1      47.514  29.230  31.007  1.00  0.00     0.031 C 
ATOM     73  C   UNL A   1      47.351  31.478  29.974  1.00  0.00     0.037 A 
BRANCH  60  74
ATOM     74  C   UNL A   1      43.278  35.930  28.604  1.00  0.00     0.058 A 
ATOM     75  C   UNL A   1      43.355  37.145  29.310  1.00  0.00     0.135 A 
ATOM     76  C   UNL A   1      42.857  35.973  27.267  1.00  0.00     0.135 A 
ATOM     77  F   UNL A   1      43.733  37.159  30.599  1.00  0.00    -0.206 F 
ATOM     78  C   UNL A   1      42.955  38.344  28.738  1.00  0.00     0.059 A 
ATOM     79  C   UNL A   1      42.498  37.171  26.658  1.00  0.00     0.059 A 
ATOM     80  F   UNL A   1      42.765  34.844  26.547  1.00  0.00    -0.206 F 
ATOM     81  C   UNL A   1      42.525  38.345  27.411  1.00  0.00     0.060 A 
BRANCH  81  82
ATOM     82  S   UNL A   1      41.989  39.909  26.692  1.00  0.00     0.124 S 
ATOM     83  O   UNL A   1      41.670  40.685  27.887  1.00  0.00    -0.237 OA
ATOM     84  O   UNL A   1      43.177  40.334  25.960  1.00  0.00    -0.237 OA
ATOM     85  O   UNL A   1      40.847  39.530  25.866  1.00  0.00    -0.744 OA
ENDBRANCH  81  82
ENDBRANCH  60  74
BRANCH  61  86
ATOM     86  C   UNL A   1      44.481  27.109  33.040  1.00  0.00     0.058 A 
ATOM     87  C   UNL A   1      44.905  26.922  34.366  1.00  0.00     0.135 A 
ATOM     88  C   UNL A   1      44.263  25.957  32.266  1.00  0.00     0.135 A 
ATOM     89  F   UNL A   1      45.158  27.986  35.143  1.00  0.00    -0.206 F 
ATOM     90  C   UNL A   1      45.108  25.652  34.904  1.00  0.00     0.059 A 
ATOM     91  C   UNL A   1      44.444  24.674  32.787  1.00  0.00     0.059 A 
ATOM     92  F   UNL A   1      43.861  26.070  30.992  1.00  0.00    -0.206 F 
ATOM     93  C   UNL A   1      44.864  24.532  34.110  1.00  0.00     0.060 A 
BRANCH  93  94
ATOM     94  S   UNL A   1      45.047  22.893  34.853  1.00  0.00     0.124 S 
ATOM     95  O   UNL A   1      44.955  23.195  36.277  1.00  0.00    -0.237 OA
ATOM     96  O   UNL A   1      43.911  22.177  34.278  1.00  0.00    -0.237 OA
ATOM     97  O   UNL A   1      46.357  22.454  34.384  1.00  0.00    -0.744 OA
ENDBRANCH  93  94
ENDBRANCH  61  86
BRANCH  73  98
ATOM     98  C   UNL A   1      48.838  31.477  29.726  1.00  0.00     0.058 A 
ATOM     99  C   UNL A   1      49.404  31.048  28.519  1.00  0.00     0.135 A 
ATOM    100  C   UNL A   1      49.696  32.049  30.685  1.00  0.00     0.135 A 
ATOM    101  F   UNL A   1      48.636  30.490  27.570  1.00  0.00    -0.206 F 
ATOM    102  C   UNL A   1      50.768  31.186  28.268  1.00  0.00     0.059 A 
ATOM    103  C   UNL A   1      51.053  32.228  30.442  1.00  0.00     0.059 A 
ATOM    104  F   UNL A   1      49.205  32.485  31.857  1.00  0.00    -0.206 F 
ATOM    105  C   UNL A   1      51.581  31.791  29.230  1.00  0.00     0.060 A 
BRANCH 105 106
ATOM    106  S   UNL A   1      53.331  32.038  28.859  1.00  0.00     0.124 S 
ATOM    107  O   UNL A   1      53.451  31.388  27.558  1.00  0.00    -0.237 OA
ATOM    108  O   UNL A   1      53.444  33.494  28.855  1.00  0.00    -0.237 OA
ATOM    109  O   UNL A   1      54.012  31.365  29.961  1.00  0.00    -0.744 OA
ENDBRANCH 105 106
ENDBRANCH  73  98
ENDBRANCH  47  48
ENDBRANCH  40  42
ENDBRANCH  39  40
ENDBRANCH  38  39
ENDBRANCH  37  38
ENDBRANCH  36  37
ENDBRANCH  35  36
ENDBRANCH  34  35
ENDBRANCH   1  34
TORSDOF 27
ENDMDL
