MODEL 1
REMARK VINA RESULT:     -10.2      0.000      0.000
REMARK SMILES Nc1oc(-c2ccccc2)cc1C(=O)OCCOCCOCCOCCOC(=O)c1ccc(-c2c3nc(c(-c4c(F)cc(S(=O)(=O)[O-])cc4F)c4ccc([nH]4)c(-c4c(F)cc(S(=O)(=O)[O-])cc4F)c4nc(c(-c5c(F)cc(S(=O)(=O)[O-])cc5F)c5ccc2[nH]5)C=C4)C=C3)cc1
REMARK SMILES IDX 22 1 21 2 20 3 19 4 18 5 17 6 16 7 15 8 13 9 14 10 12 11
REMARK SMILES IDX 2 12 3 13 4 14 11 15 1 16 5 19 6 20 10 21 7 22 9 23 8 24
REMARK SMILES IDX 23 25 24 26 25 27 26 28 27 29 28 30 29 31 30 32 31 33 95 34
REMARK SMILES IDX 32 35 94 36 33 37 34 38 35 39 88 40 36 41 93 42 87 43 89 44
REMARK SMILES IDX 37 45 92 46 86 47 85 48 38 50 72 51 51 52 71 53 52 54 55 55
REMARK SMILES IDX 70 56 90 57 53 58 54 59 69 61 91 62 56 63 39 64 40 65 49 66
REMARK SMILES IDX 41 67 42 68 48 69 50 70 43 71 44 72 45 73 46 74 47 75 73 76
REMARK SMILES IDX 74 77 83 78 75 79 76 80 82 81 84 82 77 83 78 84 79 85 80 86
REMARK SMILES IDX 81 87 57 88 58 89 67 90 59 91 60 92 66 93 68 94 61 95 62 96
REMARK SMILES IDX 63 97 64 98 65 99
REMARK H PARENT 1 17 1 18 89 49 55 60
REMARK Flexibility Score: inf
ROOT
ATOM      1  C   UNL A   1      41.946  18.646  26.091  1.00  0.00     0.188 C 
ENDROOT
BRANCH   1   2
ATOM      2  O   UNL A   1      40.603  19.111  25.989  1.00  0.00    -0.377 OA
BRANCH   2   3
ATOM      3  C   UNL A   1      40.424  20.505  26.165  1.00  0.00     0.188 C 
BRANCH   3   4
ATOM      4  C   UNL A   1      39.190  21.059  25.422  1.00  0.00     0.188 C 
BRANCH   4   5
ATOM      5  O   UNL A   1      38.174  21.800  26.085  1.00  0.00    -0.376 OA
BRANCH   5   6
ATOM      6  C   UNL A   1      37.782  23.104  25.694  1.00  0.00     0.202 C 
BRANCH   6   7
ATOM      7  C   UNL A   1      36.925  23.410  24.454  1.00  0.00     0.261 C 
BRANCH   7   8
ATOM      8  O   UNL A   1      35.645  24.001  24.660  1.00  0.00    -0.459 OA
BRANCH   8   9
ATOM      9  C   UNL A   1      34.851  23.390  25.576  1.00  0.00     0.343 C 
ATOM     10  O   UNL A   1      34.518  23.880  26.653  1.00  0.00    -0.246 OA
BRANCH   9  11
ATOM     11  C   UNL A   1      34.335  22.143  25.062  1.00  0.00     0.123 A 
ATOM     12  C   UNL A   1      33.487  22.000  23.981  1.00  0.00     0.205 A 
ATOM     13  O   UNL A   1      33.233  20.689  23.740  1.00  0.00    -0.440 OA
ATOM     14  C   UNL A   1      33.913  19.973  24.678  1.00  0.00     0.137 A 
ATOM     15  C   UNL A   1      34.666  20.819  25.463  1.00  0.00     0.069 A 
BRANCH  12  16
ATOM     16  N   UNL A   1      32.933  22.863  23.125  1.00  0.00    -0.369 N 
ATOM     17  H   UNL A   1      33.394  23.704  22.904  1.00  0.00     0.159 HD
ATOM     18  H   UNL A   1      32.062  22.657  22.714  1.00  0.00     0.159 HD
ENDBRANCH  12  16
BRANCH  14  19
ATOM     19  C   UNL A   1      33.637  18.552  24.733  1.00  0.00     0.017 A 
ATOM     20  C   UNL A   1      32.742  18.001  25.656  1.00  0.00     0.012 A 
ATOM     21  C   UNL A   1      34.323  17.701  23.854  1.00  0.00     0.012 A 
ATOM     22  C   UNL A   1      32.543  16.619  25.699  1.00  0.00     0.001 A 
ATOM     23  C   UNL A   1      34.135  16.323  23.907  1.00  0.00     0.001 A 
ATOM     24  C   UNL A   1      33.245  15.781  24.831  1.00  0.00     0.000 A 
ENDBRANCH  14  19
ENDBRANCH   9  11
ENDBRANCH   8   9
ENDBRANCH   7   8
ENDBRANCH   6   7
ENDBRANCH   5   6
ENDBRANCH   4   5
ENDBRANCH   3   4
ENDBRANCH   2   3
ENDBRANCH   1   2
BRANCH   1  25
ATOM     25  C   UNL A   1      43.116  19.637  25.838  1.00  0.00     0.188 C 
BRANCH  25  26
ATOM     26  O   UNL A   1      44.260  19.066  25.210  1.00  0.00    -0.376 OA
BRANCH  26  27
ATOM     27  C   UNL A   1      44.948  19.720  24.156  1.00  0.00     0.202 C 
BRANCH  27  28
ATOM     28  C   UNL A   1      46.256  20.404  24.542  1.00  0.00     0.261 C 
BRANCH  28  29
ATOM     29  O   UNL A   1      46.048  21.522  25.380  1.00  0.00    -0.460 OA
BRANCH  29  30
ATOM     30  C   UNL A   1      45.376  22.534  24.798  1.00  0.00     0.338 C 
ATOM     31  O   UNL A   1      45.682  23.137  23.785  1.00  0.00    -0.246 OA
BRANCH  30  32
ATOM     32  C   UNL A   1      44.217  22.848  25.637  1.00  0.00     0.060 A 
ATOM     33  C   UNL A   1      43.267  23.664  25.028  1.00  0.00     0.016 A 
ATOM     34  C   UNL A   1      44.380  22.756  27.028  1.00  0.00     0.016 A 
ATOM     35  C   UNL A   1      42.782  24.695  25.782  1.00  0.00     0.010 A 
ATOM     36  C   UNL A   1      43.917  23.797  27.772  1.00  0.00     0.010 A 
ATOM     37  C   UNL A   1      43.248  24.809  27.094  1.00  0.00    -0.014 A 
BRANCH  37  38
ATOM     38  C   UNL A   1      43.080  26.076  27.746  1.00  0.00     0.031 A 
ATOM     39  C   UNL A   1      44.165  27.010  27.432  1.00  0.00     0.074 A 
ATOM     40  C   UNL A   1      41.989  26.331  28.487  1.00  0.00     0.049 A 
ATOM     41  N   UNL A   1      45.132  27.360  28.209  1.00  0.00    -0.248 NA
ATOM     42  C   UNL A   1      44.340  27.394  26.024  1.00  0.00     0.031 C 
ATOM     43  C   UNL A   1      40.765  25.537  28.629  1.00  0.00     0.029 A 
ATOM     44  N   UNL A   1      41.714  27.453  29.192  1.00  0.00    -0.354 N 
ATOM     45  C   UNL A   1      45.912  28.211  27.443  1.00  0.00     0.074 A 
ATOM     46  C   UNL A   1      45.531  27.989  26.073  1.00  0.00     0.031 C 
ATOM     47  C   UNL A   1      39.801  26.311  29.177  1.00  0.00     0.029 A 
ATOM     48  C   UNL A   1      40.372  27.603  29.514  1.00  0.00     0.049 A 
ATOM     49  H   UNL A   1      42.403  28.105  29.452  1.00  0.00     0.167 HD
ATOM     50  C   UNL A   1      46.613  29.225  28.013  1.00  0.00     0.037 A 
ATOM     51  C   UNL A   1      39.805  28.781  29.878  1.00  0.00     0.037 A 
ATOM     52  C   UNL A   1      46.697  29.063  29.443  1.00  0.00     0.049 A 
ATOM     53  C   UNL A   1      40.920  29.649  30.376  1.00  0.00     0.074 A 
ATOM     54  C   UNL A   1      47.230  28.090  30.266  1.00  0.00     0.029 A 
ATOM     55  N   UNL A   1      45.817  29.783  30.221  1.00  0.00    -0.354 N 
ATOM     56  N   UNL A   1      41.611  29.381  31.457  1.00  0.00    -0.248 NA
ATOM     57  C   UNL A   1      41.604  30.508  29.414  1.00  0.00     0.031 C 
ATOM     58  C   UNL A   1      46.316  27.980  31.353  1.00  0.00     0.029 A 
ATOM     59  C   UNL A   1      45.309  28.930  31.170  1.00  0.00     0.049 A 
ATOM     60  H   UNL A   1      45.593  30.736  30.114  1.00  0.00     0.167 HD
ATOM     61  C   UNL A   1      42.931  29.683  31.135  1.00  0.00     0.074 A 
ATOM     62  C   UNL A   1      42.853  30.443  29.890  1.00  0.00     0.031 C 
ATOM     63  C   UNL A   1      43.979  29.038  31.734  1.00  0.00     0.037 A 
BRANCH  50  64
ATOM     64  C   UNL A   1      46.900  30.527  27.321  1.00  0.00     0.058 A 
ATOM     65  C   UNL A   1      48.227  30.985  27.250  1.00  0.00     0.135 A 
ATOM     66  C   UNL A   1      45.905  31.463  26.956  1.00  0.00     0.135 A 
ATOM     67  F   UNL A   1      49.246  30.176  27.583  1.00  0.00    -0.206 F 
ATOM     68  C   UNL A   1      48.539  32.299  26.910  1.00  0.00     0.059 A 
ATOM     69  C   UNL A   1      46.198  32.755  26.551  1.00  0.00     0.059 A 
ATOM     70  F   UNL A   1      44.596  31.210  27.074  1.00  0.00    -0.206 F 
ATOM     71  C   UNL A   1      47.514  33.180  26.579  1.00  0.00     0.060 A 
BRANCH  71  72
ATOM     72  S   UNL A   1      47.896  34.909  26.271  1.00  0.00     0.124 S 
ATOM     73  O   UNL A   1      49.052  35.107  27.136  1.00  0.00    -0.237 OA
ATOM     74  O   UNL A   1      48.159  34.910  24.836  1.00  0.00    -0.237 OA
ATOM     75  O   UNL A   1      46.676  35.601  26.679  1.00  0.00    -0.744 OA
ENDBRANCH  71  72
ENDBRANCH  50  64
BRANCH  51  76
ATOM     76  C   UNL A   1      38.483  29.293  29.423  1.00  0.00     0.058 A 
ATOM     77  C   UNL A   1      37.432  29.523  30.327  1.00  0.00     0.135 A 
ATOM     78  C   UNL A   1      38.288  29.798  28.118  1.00  0.00     0.135 A 
ATOM     79  F   UNL A   1      37.535  29.107  31.599  1.00  0.00    -0.206 F 
ATOM     80  C   UNL A   1      36.278  30.235  29.969  1.00  0.00     0.059 A 
ATOM     81  C   UNL A   1      37.143  30.492  27.733  1.00  0.00     0.059 A 
ATOM     82  F   UNL A   1      39.246  29.716  27.184  1.00  0.00    -0.206 F 
ATOM     83  C   UNL A   1      36.151  30.730  28.671  1.00  0.00     0.060 A 
BRANCH  83  84
ATOM     84  S   UNL A   1      34.752  31.792  28.241  1.00  0.00     0.124 S 
ATOM     85  O   UNL A   1      35.392  32.822  27.430  1.00  0.00    -0.237 OA
ATOM     86  O   UNL A   1      33.875  30.871  27.527  1.00  0.00    -0.237 OA
ATOM     87  O   UNL A   1      34.254  32.240  29.539  1.00  0.00    -0.744 OA
ENDBRANCH  83  84
ENDBRANCH  51  76
BRANCH  63  88
ATOM     88  C   UNL A   1      43.696  28.160  32.929  1.00  0.00     0.058 A 
ATOM     89  C   UNL A   1      43.581  26.759  32.861  1.00  0.00     0.135 A 
ATOM     90  C   UNL A   1      43.747  28.734  34.208  1.00  0.00     0.135 A 
ATOM     91  F   UNL A   1      43.640  26.123  31.684  1.00  0.00    -0.206 F 
ATOM     92  C   UNL A   1      43.487  25.969  34.008  1.00  0.00     0.059 A 
ATOM     93  C   UNL A   1      43.688  27.964  35.367  1.00  0.00     0.059 A 
ATOM     94  F   UNL A   1      43.927  30.058  34.343  1.00  0.00    -0.206 F 
ATOM     95  C   UNL A   1      43.547  26.582  35.259  1.00  0.00     0.060 A 
BRANCH  95  96
ATOM     96  S   UNL A   1      43.528  25.551  36.742  1.00  0.00     0.124 S 
ATOM     97  O   UNL A   1      44.795  24.836  36.633  1.00  0.00    -0.237 OA
ATOM     98  O   UNL A   1      43.447  26.538  37.816  1.00  0.00    -0.237 OA
ATOM     99  O   UNL A   1      42.330  24.731  36.572  1.00  0.00    -0.744 OA
ENDBRANCH  95  96
ENDBRANCH  63  88
ENDBRANCH  37  38
ENDBRANCH  30  32
ENDBRANCH  29  30
ENDBRANCH  28  29
ENDBRANCH  27  28
ENDBRANCH  26  27
ENDBRANCH  25  26
ENDBRANCH   1  25
TORSDOF 25
ENDMDL
MODEL 2
REMARK VINA RESULT:     -10.1      2.918      4.430
REMARK SMILES Nc1oc(-c2ccccc2)cc1C(=O)OCCOCCOCCOCCOC(=O)c1ccc(-c2c3nc(c(-c4c(F)cc(S(=O)(=O)[O-])cc4F)c4ccc([nH]4)c(-c4c(F)cc(S(=O)(=O)[O-])cc4F)c4nc(c(-c5c(F)cc(S(=O)(=O)[O-])cc5F)c5ccc2[nH]5)C=C4)C=C3)cc1
REMARK SMILES IDX 22 1 21 2 20 3 19 4 18 5 17 6 16 7 15 8 13 9 14 10 12 11
REMARK SMILES IDX 2 12 3 13 4 14 11 15 1 16 5 19 6 20 10 21 7 22 9 23 8 24
REMARK SMILES IDX 23 25 24 26 25 27 26 28 27 29 28 30 29 31 30 32 31 33 95 34
REMARK SMILES IDX 32 35 94 36 33 37 34 38 35 39 88 40 36 41 93 42 87 43 89 44
REMARK SMILES IDX 37 45 92 46 86 47 85 48 38 50 72 51 51 52 71 53 52 54 55 55
REMARK SMILES IDX 70 56 90 57 53 58 54 59 69 61 91 62 56 63 39 64 40 65 49 66
REMARK SMILES IDX 41 67 42 68 48 69 50 70 43 71 44 72 45 73 46 74 47 75 73 76
REMARK SMILES IDX 74 77 83 78 75 79 76 80 82 81 84 82 77 83 78 84 79 85 80 86
REMARK SMILES IDX 81 87 57 88 58 89 67 90 59 91 60 92 66 93 68 94 61 95 62 96
REMARK SMILES IDX 63 97 64 98 65 99
REMARK H PARENT 1 17 1 18 89 49 55 60
REMARK Flexibility Score: inf
ROOT
ATOM      1  C   UNL A   1      38.487  21.272  25.343  1.00  0.00     0.188 C 
ENDROOT
BRANCH   1   2
ATOM      2  O   UNL A   1      38.132  22.524  25.924  1.00  0.00    -0.377 OA
BRANCH   2   3
ATOM      3  C   UNL A   1      37.081  23.221  25.278  1.00  0.00     0.188 C 
BRANCH   3   4
ATOM      4  C   UNL A   1      35.786  23.282  26.116  1.00  0.00     0.188 C 
BRANCH   4   5
ATOM      5  O   UNL A   1      35.128  22.111  26.581  1.00  0.00    -0.376 OA
BRANCH   5   6
ATOM      6  C   UNL A   1      33.880  22.136  27.254  1.00  0.00     0.202 C 
BRANCH   6   7
ATOM      7  C   UNL A   1      32.828  23.245  27.076  1.00  0.00     0.261 C 
BRANCH   7   8
ATOM      8  O   UNL A   1      31.849  23.074  26.056  1.00  0.00    -0.459 OA
BRANCH   8   9
ATOM      9  C   UNL A   1      30.679  23.737  26.241  1.00  0.00     0.343 C 
ATOM     10  O   UNL A   1      29.996  23.682  27.262  1.00  0.00    -0.246 OA
BRANCH   9  11
ATOM     11  C   UNL A   1      30.409  24.627  25.137  1.00  0.00     0.123 A 
ATOM     12  C   UNL A   1      30.647  24.360  23.803  1.00  0.00     0.205 A 
ATOM     13  O   UNL A   1      30.237  25.392  23.025  1.00  0.00    -0.440 OA
ATOM     14  C   UNL A   1      29.737  26.345  23.860  1.00  0.00     0.137 A 
ATOM     15  C   UNL A   1      29.750  25.887  25.160  1.00  0.00     0.069 A 
BRANCH  12  16
ATOM     16  N   UNL A   1      31.134  23.301  23.148  1.00  0.00    -0.369 N 
ATOM     17  H   UNL A   1      30.882  23.142  22.211  1.00  0.00     0.159 HD
ATOM     18  H   UNL A   1      31.746  22.679  23.605  1.00  0.00     0.159 HD
ENDBRANCH  12  16
BRANCH  14  19
ATOM     19  C   UNL A   1      29.413  27.624  23.262  1.00  0.00     0.017 A 
ATOM     20  C   UNL A   1      30.392  28.468  22.728  1.00  0.00     0.012 A 
ATOM     21  C   UNL A   1      28.073  28.042  23.257  1.00  0.00     0.012 A 
ATOM     22  C   UNL A   1      30.034  29.712  22.203  1.00  0.00     0.001 A 
ATOM     23  C   UNL A   1      27.719  29.288  22.746  1.00  0.00     0.001 A 
ATOM     24  C   UNL A   1      28.700  30.123  22.219  1.00  0.00     0.000 A 
ENDBRANCH  14  19
ENDBRANCH   9  11
ENDBRANCH   8   9
ENDBRANCH   7   8
ENDBRANCH   6   7
ENDBRANCH   5   6
ENDBRANCH   4   5
ENDBRANCH   3   4
ENDBRANCH   2   3
ENDBRANCH   1   2
BRANCH   1  25
ATOM     25  C   UNL A   1      39.490  20.345  26.084  1.00  0.00     0.188 C 
BRANCH  25  26
ATOM     26  O   UNL A   1      40.054  20.899  27.269  1.00  0.00    -0.376 OA
BRANCH  26  27
ATOM     27  C   UNL A   1      41.432  21.219  27.372  1.00  0.00     0.202 C 
BRANCH  27  28
ATOM     28  C   UNL A   1      42.192  21.310  26.052  1.00  0.00     0.261 C 
BRANCH  28  29
ATOM     29  O   UNL A   1      43.455  20.680  26.117  1.00  0.00    -0.460 OA
BRANCH  29  30
ATOM     30  C   UNL A   1      44.123  20.653  24.949  1.00  0.00     0.338 C 
ATOM     31  O   UNL A   1      44.178  19.733  24.151  1.00  0.00    -0.246 OA
BRANCH  30  32
ATOM     32  C   UNL A   1      44.848  21.918  24.812  1.00  0.00     0.060 A 
ATOM     33  C   UNL A   1      45.860  22.108  25.749  1.00  0.00     0.016 A 
ATOM     34  C   UNL A   1      44.192  22.972  24.157  1.00  0.00     0.016 A 
ATOM     35  C   UNL A   1      45.916  23.340  26.340  1.00  0.00     0.010 A 
ATOM     36  C   UNL A   1      44.230  24.192  24.762  1.00  0.00     0.010 A 
ATOM     37  C   UNL A   1      44.988  24.297  25.921  1.00  0.00    -0.014 A 
BRANCH  37  38
ATOM     38  C   UNL A   1      44.763  25.419  26.787  1.00  0.00     0.031 A 
ATOM     39  C   UNL A   1      45.794  26.451  26.639  1.00  0.00     0.074 A 
ATOM     40  C   UNL A   1      43.669  25.482  27.564  1.00  0.00     0.049 A 
ATOM     41  N   UNL A   1      46.750  26.711  27.462  1.00  0.00    -0.248 NA
ATOM     42  C   UNL A   1      45.931  27.085  25.320  1.00  0.00     0.031 C 
ATOM     43  C   UNL A   1      42.490  24.611  27.567  1.00  0.00     0.029 A 
ATOM     44  N   UNL A   1      43.344  26.447  28.456  1.00  0.00    -0.354 N 
ATOM     45  C   UNL A   1      47.476  27.723  26.856  1.00  0.00     0.074 A 
ATOM     46  C   UNL A   1      47.090  27.726  25.470  1.00  0.00     0.031 C 
ATOM     47  C   UNL A   1      41.494  25.224  28.246  1.00  0.00     0.029 A 
ATOM     48  C   UNL A   1      42.000  26.465  28.804  1.00  0.00     0.049 A 
ATOM     49  H   UNL A   1      44.001  27.079  28.825  1.00  0.00     0.167 HD
ATOM     50  C   UNL A   1      48.129  28.657  27.593  1.00  0.00     0.037 A 
ATOM     51  C   UNL A   1      41.377  27.529  29.371  1.00  0.00     0.037 A 
ATOM     52  C   UNL A   1      48.240  28.252  28.973  1.00  0.00     0.049 A 
ATOM     53  C   UNL A   1      42.452  28.354  30.011  1.00  0.00     0.074 A 
ATOM     54  C   UNL A   1      48.832  27.179  29.610  1.00  0.00     0.029 A 
ATOM     55  N   UNL A   1      47.333  28.775  29.867  1.00  0.00    -0.354 N 
ATOM     56  N   UNL A   1      43.168  27.939  31.026  1.00  0.00    -0.248 NA
ATOM     57  C   UNL A   1      43.078  29.404  29.213  1.00  0.00     0.031 C 
ATOM     58  C   UNL A   1      47.939  26.831  30.663  1.00  0.00     0.029 A 
ATOM     59  C   UNL A   1      46.882  27.744  30.653  1.00  0.00     0.049 A 
ATOM     60  H   UNL A   1      47.058  29.719  29.931  1.00  0.00     0.167 HD
ATOM     61  C   UNL A   1      44.467  28.363  30.758  1.00  0.00     0.074 A 
ATOM     62  C   UNL A   1      44.334  29.323  29.666  1.00  0.00     0.031 C 
ATOM     63  C   UNL A   1      45.555  27.680  31.232  1.00  0.00     0.037 A 
BRANCH  50  64
ATOM     64  C   UNL A   1      48.339  30.074  27.141  1.00  0.00     0.058 A 
ATOM     65  C   UNL A   1      49.640  30.607  27.145  1.00  0.00     0.135 A 
ATOM     66  C   UNL A   1      47.293  31.006  26.951  1.00  0.00     0.135 A 
ATOM     67  F   UNL A   1      50.704  29.808  27.325  1.00  0.00    -0.206 F 
ATOM     68  C   UNL A   1      49.880  31.975  27.040  1.00  0.00     0.059 A 
ATOM     69  C   UNL A   1      47.513  32.363  26.779  1.00  0.00     0.059 A 
ATOM     70  F   UNL A   1      46.000  30.667  27.029  1.00  0.00    -0.206 F 
ATOM     71  C   UNL A   1      48.806  32.845  26.875  1.00  0.00     0.060 A 
BRANCH  71  72
ATOM     72  S   UNL A   1      49.095  34.620  26.875  1.00  0.00     0.124 S 
ATOM     73  O   UNL A   1      50.548  34.675  26.973  1.00  0.00    -0.237 OA
ATOM     74  O   UNL A   1      48.521  35.019  25.595  1.00  0.00    -0.237 OA
ATOM     75  O   UNL A   1      48.364  35.078  28.053  1.00  0.00    -0.744 OA
ENDBRANCH  71  72
ENDBRANCH  50  64
BRANCH  51  76
ATOM     76  C   UNL A   1      40.025  28.042  29.018  1.00  0.00     0.058 A 
ATOM     77  C   UNL A   1      38.966  28.026  29.942  1.00  0.00     0.135 A 
ATOM     78  C   UNL A   1      39.794  28.781  27.836  1.00  0.00     0.135 A 
ATOM     79  F   UNL A   1      39.101  27.374  31.108  1.00  0.00    -0.206 F 
ATOM     80  C   UNL A   1      37.771  28.725  29.724  1.00  0.00     0.059 A 
ATOM     81  C   UNL A   1      38.607  29.468  27.588  1.00  0.00     0.059 A 
ATOM     82  F   UNL A   1      40.750  28.942  26.910  1.00  0.00    -0.206 F 
ATOM     83  C   UNL A   1      37.607  29.457  28.548  1.00  0.00     0.060 A 
BRANCH  83  84
ATOM     84  S   UNL A   1      36.146  30.499  28.326  1.00  0.00     0.124 S 
ATOM     85  O   UNL A   1      35.621  30.576  29.684  1.00  0.00    -0.237 OA
ATOM     86  O   UNL A   1      36.723  31.728  27.793  1.00  0.00    -0.237 OA
ATOM     87  O   UNL A   1      35.328  29.740  27.383  1.00  0.00    -0.744 OA
ENDBRANCH  83  84
ENDBRANCH  51  76
BRANCH  63  88
ATOM     88  C   UNL A   1      45.332  26.591  32.254  1.00  0.00     0.058 A 
ATOM     89  C   UNL A   1      45.214  26.828  33.636  1.00  0.00     0.135 A 
ATOM     90  C   UNL A   1      45.026  25.300  31.800  1.00  0.00     0.135 A 
ATOM     91  F   UNL A   1      45.376  28.060  34.137  1.00  0.00    -0.206 F 
ATOM     92  C   UNL A   1      44.842  25.822  34.529  1.00  0.00     0.059 A 
ATOM     93  C   UNL A   1      44.621  24.288  32.668  1.00  0.00     0.059 A 
ATOM     94  F   UNL A   1      45.051  25.027  30.485  1.00  0.00    -0.206 F 
ATOM     95  C   UNL A   1      44.542  24.554  34.033  1.00  0.00     0.060 A 
BRANCH  95  96
ATOM     96  S   UNL A   1      43.963  23.280  35.175  1.00  0.00     0.124 S 
ATOM     97  O   UNL A   1      44.791  23.525  36.351  1.00  0.00    -0.237 OA
ATOM     98  O   UNL A   1      42.545  23.602  35.320  1.00  0.00    -0.237 OA
ATOM     99  O   UNL A   1      44.239  22.034  34.464  1.00  0.00    -0.744 OA
ENDBRANCH  95  96
ENDBRANCH  63  88
ENDBRANCH  37  38
ENDBRANCH  30  32
ENDBRANCH  29  30
ENDBRANCH  28  29
ENDBRANCH  27  28
ENDBRANCH  26  27
ENDBRANCH  25  26
ENDBRANCH   1  25
TORSDOF 25
ENDMDL
MODEL 3
REMARK VINA RESULT:      -9.9      3.314      4.603
REMARK SMILES Nc1oc(-c2ccccc2)cc1C(=O)OCCOCCOCCOCCOC(=O)c1ccc(-c2c3nc(c(-c4c(F)cc(S(=O)(=O)[O-])cc4F)c4ccc([nH]4)c(-c4c(F)cc(S(=O)(=O)[O-])cc4F)c4nc(c(-c5c(F)cc(S(=O)(=O)[O-])cc5F)c5ccc2[nH]5)C=C4)C=C3)cc1
REMARK SMILES IDX 22 1 21 2 20 3 19 4 18 5 17 6 16 7 15 8 13 9 14 10 12 11
REMARK SMILES IDX 2 12 3 13 4 14 11 15 1 16 5 19 6 20 10 21 7 22 9 23 8 24
REMARK SMILES IDX 23 25 24 26 25 27 26 28 27 29 28 30 29 31 30 32 31 33 95 34
REMARK SMILES IDX 32 35 94 36 33 37 34 38 35 39 88 40 36 41 93 42 87 43 89 44
REMARK SMILES IDX 37 45 92 46 86 47 85 48 38 50 72 51 51 52 71 53 52 54 55 55
REMARK SMILES IDX 70 56 90 57 53 58 54 59 69 61 91 62 56 63 39 64 40 65 49 66
REMARK SMILES IDX 41 67 42 68 48 69 50 70 43 71 44 72 45 73 46 74 47 75 73 76
REMARK SMILES IDX 74 77 83 78 75 79 76 80 82 81 84 82 77 83 78 84 79 85 80 86
REMARK SMILES IDX 81 87 57 88 58 89 67 90 59 91 60 92 66 93 68 94 61 95 62 96
REMARK SMILES IDX 63 97 64 98 65 99
REMARK H PARENT 1 17 1 18 89 49 55 60
REMARK Flexibility Score: inf
ROOT
ATOM      1  C   UNL A   1      40.028  20.914  26.615  1.00  0.00     0.188 C 
ENDROOT
BRANCH   1   2
ATOM      2  O   UNL A   1      39.656  22.000  25.770  1.00  0.00    -0.377 OA
BRANCH   2   3
ATOM      3  C   UNL A   1      38.426  22.627  26.088  1.00  0.00     0.188 C 
BRANCH   3   4
ATOM      4  C   UNL A   1      37.280  22.244  25.128  1.00  0.00     0.188 C 
BRANCH   4   5
ATOM      5  O   UNL A   1      36.452  23.218  24.508  1.00  0.00    -0.376 OA
BRANCH   5   6
ATOM      6  C   UNL A   1      35.533  22.913  23.473  1.00  0.00     0.202 C 
BRANCH   6   7
ATOM      7  C   UNL A   1      34.205  23.659  23.253  1.00  0.00     0.261 C 
BRANCH   7   8
ATOM      8  O   UNL A   1      34.265  25.056  22.984  1.00  0.00    -0.459 OA
BRANCH   8   9
ATOM      9  C   UNL A   1      33.905  25.872  24.007  1.00  0.00     0.343 C 
ATOM     10  O   UNL A   1      34.343  25.794  25.153  1.00  0.00    -0.246 OA
BRANCH   9  11
ATOM     11  C   UNL A   1      33.043  26.933  23.542  1.00  0.00     0.123 A 
ATOM     12  C   UNL A   1      33.440  28.213  23.208  1.00  0.00     0.205 A 
ATOM     13  O   UNL A   1      32.386  28.944  22.768  1.00  0.00    -0.440 OA
ATOM     14  C   UNL A   1      31.291  28.136  22.826  1.00  0.00     0.137 A 
ATOM     15  C   UNL A   1      31.660  26.869  23.221  1.00  0.00     0.069 A 
BRANCH  12  16
ATOM     16  N   UNL A   1      34.624  28.833  23.182  1.00  0.00    -0.369 N 
ATOM     17  H   UNL A   1      34.667  29.808  23.057  1.00  0.00     0.159 HD
ATOM     18  H   UNL A   1      35.454  28.314  23.289  1.00  0.00     0.159 HD
ENDBRANCH  12  16
BRANCH  14  19
ATOM     19  C   UNL A   1      30.009  28.767  22.582  1.00  0.00     0.017 A 
ATOM     20  C   UNL A   1      29.888  29.950  21.846  1.00  0.00     0.012 A 
ATOM     21  C   UNL A   1      28.859  28.186  23.139  1.00  0.00     0.012 A 
ATOM     22  C   UNL A   1      28.635  30.544  21.677  1.00  0.00     0.001 A 
ATOM     23  C   UNL A   1      27.613  28.786  22.981  1.00  0.00     0.001 A 
ATOM     24  C   UNL A   1      27.501  29.966  22.251  1.00  0.00     0.000 A 
ENDBRANCH  14  19
ENDBRANCH   9  11
ENDBRANCH   8   9
ENDBRANCH   7   8
ENDBRANCH   6   7
ENDBRANCH   5   6
ENDBRANCH   4   5
ENDBRANCH   3   4
ENDBRANCH   2   3
ENDBRANCH   1   2
BRANCH   1  25
ATOM     25  C   UNL A   1      41.421  20.930  27.305  1.00  0.00     0.188 C 
BRANCH  25  26
ATOM     26  O   UNL A   1      42.491  20.436  26.506  1.00  0.00    -0.376 OA
BRANCH  26  27
ATOM     27  C   UNL A   1      43.198  21.263  25.595  1.00  0.00     0.202 C 
BRANCH  27  28
ATOM     28  C   UNL A   1      44.242  22.189  26.213  1.00  0.00     0.261 C 
BRANCH  28  29
ATOM     29  O   UNL A   1      43.676  23.392  26.688  1.00  0.00    -0.460 OA
BRANCH  29  30
ATOM     30  C   UNL A   1      43.236  24.219  25.720  1.00  0.00     0.338 C 
ATOM     31  O   UNL A   1      43.775  24.460  24.654  1.00  0.00    -0.246 OA
BRANCH  30  32
ATOM     32  C   UNL A   1      42.001  24.850  26.191  1.00  0.00     0.060 A 
ATOM     33  C   UNL A   1      41.630  25.991  25.485  1.00  0.00     0.016 A 
ATOM     34  C   UNL A   1      41.610  24.598  27.516  1.00  0.00     0.016 A 
ATOM     35  C   UNL A   1      41.235  27.065  26.233  1.00  0.00     0.010 A 
ATOM     36  C   UNL A   1      41.241  25.674  28.264  1.00  0.00     0.010 A 
ATOM     37  C   UNL A   1      41.200  26.905  27.621  1.00  0.00    -0.014 A 
BRANCH  37  38
ATOM     38  C   UNL A   1      41.192  28.096  28.421  1.00  0.00     0.031 A 
ATOM     39  C   UNL A   1      42.369  28.936  28.179  1.00  0.00     0.074 A 
ATOM     40  C   UNL A   1      40.155  28.379  29.226  1.00  0.00     0.049 A 
ATOM     41  N   UNL A   1      43.387  29.083  28.955  1.00  0.00    -0.248 NA
ATOM     42  C   UNL A   1      42.553  29.465  26.819  1.00  0.00     0.031 C 
ATOM     43  C   UNL A   1      38.852  27.713  29.320  1.00  0.00     0.029 A 
ATOM     44  N   UNL A   1      40.025  29.432  30.067  1.00  0.00    -0.354 N 
ATOM     45  C   UNL A   1      44.240  29.929  28.264  1.00  0.00     0.074 A 
ATOM     46  C   UNL A   1      43.804  29.916  26.893  1.00  0.00     0.031 C 
ATOM     47  C   UNL A   1      37.996  28.517  29.989  1.00  0.00     0.029 A 
ATOM     48  C   UNL A   1      38.717  29.688  30.454  1.00  0.00     0.049 A 
ATOM     49  H   UNL A   1      40.790  29.969  30.375  1.00  0.00     0.167 HD
ATOM     50  C   UNL A   1      45.064  30.784  28.922  1.00  0.00     0.037 A 
ATOM     51  C   UNL A   1      38.296  30.869  30.973  1.00  0.00     0.037 A 
ATOM     52  C   UNL A   1      45.164  30.444  30.320  1.00  0.00     0.049 A 
ATOM     53  C   UNL A   1      39.513  31.544  31.527  1.00  0.00     0.074 A 
ATOM     54  C   UNL A   1      45.601  29.327  31.004  1.00  0.00     0.029 A 
ATOM     55  N   UNL A   1      44.389  31.158  31.208  1.00  0.00    -0.354 N 
ATOM     56  N   UNL A   1      40.194  31.075  32.543  1.00  0.00    -0.248 NA
ATOM     57  C   UNL A   1      40.267  32.432  30.647  1.00  0.00     0.031 C 
ATOM     58  C   UNL A   1      44.707  29.188  32.104  1.00  0.00     0.029 A 
ATOM     59  C   UNL A   1      43.811  30.259  32.070  1.00  0.00     0.049 A 
ATOM     60  H   UNL A   1      44.272  32.136  31.221  1.00  0.00     0.167 HD
ATOM     61  C   UNL A   1      41.533  31.267  32.210  1.00  0.00     0.074 A 
ATOM     62  C   UNL A   1      41.512  32.173  31.065  1.00  0.00     0.031 C 
ATOM     63  C   UNL A   1      42.515  30.444  32.691  1.00  0.00     0.037 A 
BRANCH  50  64
ATOM     64  C   UNL A   1      45.480  32.120  28.377  1.00  0.00     0.058 A 
ATOM     65  C   UNL A   1      46.850  32.421  28.278  1.00  0.00     0.135 A 
ATOM     66  C   UNL A   1      44.596  33.208  28.191  1.00  0.00     0.135 A 
ATOM     67  F   UNL A   1      47.774  31.461  28.446  1.00  0.00    -0.206 F 
ATOM     68  C   UNL A   1      47.309  33.721  28.080  1.00  0.00     0.059 A 
ATOM     69  C   UNL A   1      45.030  34.497  27.928  1.00  0.00     0.059 A 
ATOM     70  F   UNL A   1      43.272  33.100  28.359  1.00  0.00    -0.206 F 
ATOM     71  C   UNL A   1      46.389  34.754  27.923  1.00  0.00     0.060 A 
BRANCH  71  72
ATOM     72  S   UNL A   1      46.972  36.450  27.804  1.00  0.00     0.124 S 
ATOM     73  O   UNL A   1      48.265  36.359  28.471  1.00  0.00    -0.237 OA
ATOM     74  O   UNL A   1      47.007  36.656  26.360  1.00  0.00    -0.237 OA
ATOM     75  O   UNL A   1      45.947  37.209  28.515  1.00  0.00    -0.744 OA
ENDBRANCH  71  72
ENDBRANCH  50  64
BRANCH  51  76
ATOM     76  C   UNL A   1      37.030  31.575  30.629  1.00  0.00     0.058 A 
ATOM     77  C   UNL A   1      36.144  32.023  31.624  1.00  0.00     0.135 A 
ATOM     78  C   UNL A   1      36.767  32.039  29.321  1.00  0.00     0.135 A 
ATOM     79  F   UNL A   1      36.328  31.659  32.903  1.00  0.00    -0.206 F 
ATOM     80  C   UNL A   1      35.087  32.900  31.345  1.00  0.00     0.059 A 
ATOM     81  C   UNL A   1      35.712  32.897  29.016  1.00  0.00     0.059 A 
ATOM     82  F   UNL A   1      37.582  31.751  28.297  1.00  0.00    -0.206 F 
ATOM     83  C   UNL A   1      34.889  33.345  30.037  1.00  0.00     0.060 A 
BRANCH  83  84
ATOM     84  S   UNL A   1      33.640  34.605  29.689  1.00  0.00     0.124 S 
ATOM     85  O   UNL A   1      32.717  33.884  28.820  1.00  0.00    -0.237 OA
ATOM     86  O   UNL A   1      33.144  34.924  31.023  1.00  0.00    -0.237 OA
ATOM     87  O   UNL A   1      34.403  35.670  29.042  1.00  0.00    -0.744 OA
ENDBRANCH  83  84
ENDBRANCH  51  76
BRANCH  63  88
ATOM     88  C   UNL A   1      42.162  29.465  33.785  1.00  0.00     0.058 A 
ATOM     89  C   UNL A   1      41.495  28.247  33.561  1.00  0.00     0.135 A 
ATOM     90  C   UNL A   1      42.697  29.672  35.066  1.00  0.00     0.135 A 
ATOM     91  F   UNL A   1      41.055  27.922  32.338  1.00  0.00    -0.206 F 
ATOM     92  C   UNL A   1      41.336  27.295  34.569  1.00  0.00     0.059 A 
ATOM     93  C   UNL A   1      42.581  28.723  36.078  1.00  0.00     0.059 A 
ATOM     94  F   UNL A   1      43.406  30.783  35.325  1.00  0.00    -0.206 F 
ATOM     95  C   UNL A   1      41.889  27.540  35.825  1.00  0.00     0.060 A 
BRANCH  95  96
ATOM     96  S   UNL A   1      41.772  26.265  37.099  1.00  0.00     0.124 S 
ATOM     97  O   UNL A   1      42.003  25.045  36.332  1.00  0.00    -0.237 OA
ATOM     98  O   UNL A   1      42.837  26.641  38.026  1.00  0.00    -0.237 OA
ATOM     99  O   UNL A   1      40.418  26.428  37.622  1.00  0.00    -0.744 OA
ENDBRANCH  95  96
ENDBRANCH  63  88
ENDBRANCH  37  38
ENDBRANCH  30  32
ENDBRANCH  29  30
ENDBRANCH  28  29
ENDBRANCH  27  28
ENDBRANCH  26  27
ENDBRANCH  25  26
ENDBRANCH   1  25
TORSDOF 25
ENDMDL
