MODEL 1
REMARK VINA RESULT:      -7.7      0.000      0.000
REMARK SMILES Cc1c(C(=O)Nc2ccc(C(=O)Nc3ccccc3C(=O)OCCOCCOCCOCCOC(=O)c3ccc(-c4c5nc(c(-c6c(F)cc(S(=O)(=O)[O-])cc6F)c6ccc([nH]6)c(-c6c(F)cc(S(=O)(=O)[O-])cc6F)c6nc(c(-c7c(F)cc(S(=O)(=O)[O-])cc7F)c7ccc4[nH]7)C=C6)C=C5)cc3)cc2)cccc1[N+](=O)[O-]
REMARK SMILES IDX 27 1 26 2 25 3 24 4 23 5 22 6 20 7 21 8 19 9 14 10 15 11
REMARK SMILES IDX 16 12 18 13 17 14 13 15 11 16 12 17 10 19 7 20 8 21 104 22
REMARK SMILES IDX 9 23 103 24 6 25 4 26 5 27 3 29 1 30 2 31 108 32 105 33
REMARK SMILES IDX 107 34 106 35 109 36 110 37 111 38 28 39 29 40 30 41 31 42
REMARK SMILES IDX 32 43 33 44 34 45 35 46 36 47 37 48 38 49 102 50 39 51
REMARK SMILES IDX 101 52 40 53 41 54 42 55 95 56 43 57 100 58 94 59 96 60
REMARK SMILES IDX 44 61 99 62 93 63 92 64 45 66 79 67 58 68 78 69 59 70 62 71
REMARK SMILES IDX 77 72 97 73 60 74 61 75 76 77 98 78 63 79 46 80 47 81 56 82
REMARK SMILES IDX 48 83 49 84 55 85 57 86 50 87 51 88 52 89 53 90 54 91 80 92
REMARK SMILES IDX 81 93 90 94 82 95 83 96 89 97 91 98 84 99 85 100 86 101
REMARK SMILES IDX 87 102 88 103 64 104 65 105 74 106 66 107 67 108 73 109
REMARK SMILES IDX 75 110 68 111 69 112 70 113 71 114 72 115
REMARK H PARENT 13 18 6 28 96 65 62 76
REMARK Flexibility Score: inf
ROOT
ATOM      1  C   UNL A   1      43.347  19.952  25.365  1.00  0.00     0.188 C 
ENDROOT
BRANCH   1   2
ATOM      2  C   UNL A   1      42.433  20.271  26.559  1.00  0.00     0.188 C 
BRANCH   2   3
ATOM      3  O   UNL A   1      41.457  21.259  26.605  1.00  0.00    -0.376 OA
BRANCH   3   4
ATOM      4  C   UNL A   1      41.901  22.503  27.063  1.00  0.00     0.202 C 
BRANCH   4   5
ATOM      5  C   UNL A   1      42.326  22.865  28.496  1.00  0.00     0.261 C 
BRANCH   5   6
ATOM      6  O   UNL A   1      42.382  24.219  28.888  1.00  0.00    -0.460 OA
BRANCH   6   7
ATOM      7  C   UNL A   1      43.664  24.619  28.893  1.00  0.00     0.340 C 
ATOM      8  O   UNL A   1      44.686  23.965  28.663  1.00  0.00    -0.246 OA
BRANCH   7   9
ATOM      9  C   UNL A   1      43.715  26.046  29.080  1.00  0.00     0.083 A 
ATOM     10  C   UNL A   1      43.650  26.830  27.928  1.00  0.00     0.056 A 
ATOM     11  C   UNL A   1      43.738  28.211  28.030  1.00  0.00     0.027 A 
ATOM     12  C   UNL A   1      43.742  28.802  29.294  1.00  0.00     0.002 A 
ATOM     13  C   UNL A   1      43.652  26.625  30.352  1.00  0.00     0.018 A 
ATOM     14  C   UNL A   1      43.643  28.015  30.450  1.00  0.00     0.001 A 
BRANCH  10  15
ATOM     15  N   UNL A   1      43.226  26.266  26.720  1.00  0.00    -0.321 N 
ATOM     16  C   UNL A   1      42.067  26.599  26.033  1.00  0.00     0.255 C 
ATOM     17  O   UNL A   1      41.926  26.153  24.892  1.00  0.00    -0.269 OA
ATOM     18  H   UNL A   1      43.799  25.570  26.323  1.00  0.00     0.170 HD
BRANCH  16  19
ATOM     19  C   UNL A   1      40.870  27.288  26.685  1.00  0.00     0.040 A 
ATOM     20  C   UNL A   1      38.884  28.516  28.346  1.00  0.00     0.041 A 
ATOM     21  C   UNL A   1      39.490  29.247  27.351  1.00  0.00     0.027 A 
ATOM     22  C   UNL A   1      39.281  27.193  28.532  1.00  0.00     0.027 A 
ATOM     23  C   UNL A   1      40.452  28.623  26.536  1.00  0.00     0.016 A 
ATOM     24  C   UNL A   1      40.244  26.575  27.709  1.00  0.00     0.016 A 
BRANCH  20  25
ATOM     25  N   UNL A   1      37.834  29.047  29.112  1.00  0.00    -0.322 N 
ATOM     26  C   UNL A   1      38.015  29.957  30.141  1.00  0.00     0.256 C 
ATOM     27  O   UNL A   1      37.142  30.733  30.512  1.00  0.00    -0.269 OA
ATOM     28  H   UNL A   1      36.916  28.757  28.906  1.00  0.00     0.170 HD
BRANCH  26  29
ATOM     29  C   UNL A   1      39.237  29.796  30.979  1.00  0.00     0.049 A 
ATOM     30  C   UNL A   1      38.527  27.842  32.412  1.00  0.00     0.053 C 
ATOM     31  C   UNL A   1      39.261  29.141  32.222  1.00  0.00     0.039 A 
ATOM     32  C   UNL A   1      40.137  29.663  33.182  1.00  0.00     0.273 A 
ATOM     33  C   UNL A   1      40.309  30.605  30.578  1.00  0.00     0.014 A 
ATOM     34  C   UNL A   1      41.200  30.496  32.797  1.00  0.00     0.086 A 
ATOM     35  C   UNL A   1      41.335  30.887  31.468  1.00  0.00     0.008 A 
BRANCH  32  36
ATOM     36  N   UNL A   1      39.871  29.538  34.625  1.00  0.00     0.063 N 
ATOM     37  O   UNL A   1      40.677  28.860  35.286  1.00  0.00    -0.258 OA
ATOM     38  O   UNL A   1      38.882  30.101  35.106  1.00  0.00    -0.258 OA
ENDBRANCH  32  36
ENDBRANCH  26  29
ENDBRANCH  20  25
ENDBRANCH  16  19
ENDBRANCH  10  15
ENDBRANCH   7   9
ENDBRANCH   6   7
ENDBRANCH   5   6
ENDBRANCH   4   5
ENDBRANCH   3   4
ENDBRANCH   2   3
ENDBRANCH   1   2
BRANCH   1  39
ATOM     39  O   UNL A   1      44.666  20.392  25.161  1.00  0.00    -0.377 OA
BRANCH  39  40
ATOM     40  C   UNL A   1      44.813  21.721  24.578  1.00  0.00     0.188 C 
BRANCH  40  41
ATOM     41  C   UNL A   1      46.228  22.316  24.533  1.00  0.00     0.188 C 
BRANCH  41  42
ATOM     42  O   UNL A   1      46.145  23.685  24.185  1.00  0.00    -0.376 OA
BRANCH  42  43
ATOM     43  C   UNL A   1      45.874  24.635  25.189  1.00  0.00     0.202 C 
BRANCH  43  44
ATOM     44  C   UNL A   1      46.818  25.829  25.159  1.00  0.00     0.261 C 
BRANCH  44  45
ATOM     45  O   UNL A   1      46.381  26.753  26.182  1.00  0.00    -0.460 OA
BRANCH  45  46
ATOM     46  C   UNL A   1      47.130  26.765  27.322  1.00  0.00     0.338 C 
ATOM     47  O   UNL A   1      47.362  25.766  27.981  1.00  0.00    -0.246 OA
BRANCH  46  48
ATOM     48  C   UNL A   1      47.548  28.164  27.689  1.00  0.00     0.060 A 
ATOM     49  C   UNL A   1      47.356  28.649  28.995  1.00  0.00     0.016 A 
ATOM     50  C   UNL A   1      47.900  29.073  26.701  1.00  0.00     0.016 A 
ATOM     51  C   UNL A   1      47.405  30.042  29.289  1.00  0.00     0.010 A 
ATOM     52  C   UNL A   1      47.912  30.441  26.995  1.00  0.00     0.010 A 
ATOM     53  C   UNL A   1      47.632  30.980  28.276  1.00  0.00    -0.014 A 
BRANCH  53  54
ATOM     54  C   UNL A   1      47.378  32.486  28.366  1.00  0.00     0.031 A 
ATOM     55  C   UNL A   1      45.891  32.979  28.344  1.00  0.00     0.074 A 
ATOM     56  C   UNL A   1      48.362  33.274  28.912  1.00  0.00     0.049 A 
ATOM     57  N   UNL A   1      45.407  34.190  28.492  1.00  0.00    -0.248 NA
ATOM     58  C   UNL A   1      44.791  32.035  28.073  1.00  0.00     0.031 C 
ATOM     59  C   UNL A   1      48.359  33.870  30.253  1.00  0.00     0.029 A 
ATOM     60  N   UNL A   1      49.719  33.421  28.625  1.00  0.00    -0.354 N 
ATOM     61  C   UNL A   1      44.002  34.089  28.716  1.00  0.00     0.074 A 
ATOM     62  C   UNL A   1      43.688  32.740  28.336  1.00  0.00     0.031 C 
ATOM     63  C   UNL A   1      49.438  34.586  30.547  1.00  0.00     0.029 A 
ATOM     64  C   UNL A   1      50.263  34.469  29.410  1.00  0.00     0.049 A 
ATOM     65  H   UNL A   1      50.223  32.879  27.975  1.00  0.00     0.167 HD
ATOM     66  C   UNL A   1      43.256  35.063  29.367  1.00  0.00     0.037 A 
ATOM     67  C   UNL A   1      50.913  35.544  28.923  1.00  0.00     0.037 A 
ATOM     68  C   UNL A   1      44.036  36.305  29.625  1.00  0.00     0.049 A 
ATOM     69  C   UNL A   1      50.007  36.776  28.782  1.00  0.00     0.074 A 
ATOM     70  C   UNL A   1      44.106  37.191  30.694  1.00  0.00     0.029 A 
ATOM     71  N   UNL A   1      45.057  36.700  28.762  1.00  0.00    -0.354 N 
ATOM     72  N   UNL A   1      48.721  36.836  29.102  1.00  0.00    -0.248 NA
ATOM     73  C   UNL A   1      50.484  38.054  28.252  1.00  0.00     0.031 C 
ATOM     74  C   UNL A   1      45.251  38.019  30.524  1.00  0.00     0.029 A 
ATOM     75  C   UNL A   1      45.857  37.671  29.330  1.00  0.00     0.049 A 
ATOM     76  H   UNL A   1      45.191  36.332  27.860  1.00  0.00     0.167 HD
ATOM     77  C   UNL A   1      48.183  38.026  28.632  1.00  0.00     0.074 A 
ATOM     78  C   UNL A   1      49.351  38.773  28.194  1.00  0.00     0.031 C 
ATOM     79  C   UNL A   1      46.849  38.358  28.531  1.00  0.00     0.037 A 
BRANCH  66  80
ATOM     80  C   UNL A   1      41.856  34.868  30.100  1.00  0.00     0.058 A 
ATOM     81  C   UNL A   1      41.810  34.455  31.465  1.00  0.00     0.135 A 
ATOM     82  C   UNL A   1      40.560  34.923  29.523  1.00  0.00     0.135 A 
ATOM     83  F   UNL A   1      42.913  34.445  32.223  1.00  0.00    -0.206 F 
ATOM     84  C   UNL A   1      40.644  34.069  32.153  1.00  0.00     0.059 A 
ATOM     85  C   UNL A   1      39.361  34.637  30.230  1.00  0.00     0.059 A 
ATOM     86  F   UNL A   1      40.370  35.244  28.239  1.00  0.00    -0.206 F 
ATOM     87  C   UNL A   1      39.411  34.188  31.541  1.00  0.00     0.060 A 
BRANCH  87  88
ATOM     88  S   UNL A   1      37.915  33.891  32.522  1.00  0.00     0.124 S 
ATOM     89  O   UNL A   1      37.959  34.966  33.508  1.00  0.00    -0.237 OA
ATOM     90  O   UNL A   1      36.856  34.001  31.522  1.00  0.00    -0.237 OA
ATOM     91  O   UNL A   1      38.114  32.545  33.055  1.00  0.00    -0.744 OA
ENDBRANCH  87  88
ENDBRANCH  66  80
BRANCH  67  92
ATOM     92  C   UNL A   1      52.246  35.036  28.416  1.00  0.00     0.058 A 
ATOM     93  C   UNL A   1      52.299  35.010  26.989  1.00  0.00     0.135 A 
ATOM     94  C   UNL A   1      53.384  35.584  29.047  1.00  0.00     0.135 A 
ATOM     95  F   UNL A   1      51.295  34.444  26.298  1.00  0.00    -0.206 F 
ATOM     96  C   UNL A   1      53.185  35.820  26.266  1.00  0.00     0.059 A 
ATOM     97  C   UNL A   1      54.271  36.420  28.343  1.00  0.00     0.059 A 
ATOM     98  F   UNL A   1      53.435  35.610  30.388  1.00  0.00    -0.206 F 
ATOM     99  C   UNL A   1      54.094  36.607  26.967  1.00  0.00     0.060 A 
BRANCH  99 100
ATOM    100  S   UNL A   1      54.742  38.098  26.139  1.00  0.00     0.124 S 
ATOM    101  O   UNL A   1      53.726  39.089  26.464  1.00  0.00    -0.237 OA
ATOM    102  O   UNL A   1      56.047  38.264  26.787  1.00  0.00    -0.237 OA
ATOM    103  O   UNL A   1      54.813  37.684  24.742  1.00  0.00    -0.744 OA
ENDBRANCH  99 100
ENDBRANCH  67  92
BRANCH  79 104
ATOM    104  C   UNL A   1      46.260  39.428  27.612  1.00  0.00     0.058 A 
ATOM    105  C   UNL A   1      46.174  39.268  26.222  1.00  0.00     0.135 A 
ATOM    106  C   UNL A   1      45.532  40.540  28.131  1.00  0.00     0.135 A 
ATOM    107  F   UNL A   1      46.695  38.195  25.610  1.00  0.00    -0.206 F 
ATOM    108  C   UNL A   1      45.502  40.179  25.405  1.00  0.00     0.059 A 
ATOM    109  C   UNL A   1      44.793  41.413  27.344  1.00  0.00     0.059 A 
ATOM    110  F   UNL A   1      45.491  40.832  29.437  1.00  0.00    -0.206 F 
ATOM    111  C   UNL A   1      44.820  41.249  25.975  1.00  0.00     0.060 A 
BRANCH 111 112
ATOM    112  S   UNL A   1      43.965  42.424  24.920  1.00  0.00     0.124 S 
ATOM    113  O   UNL A   1      42.577  42.013  25.107  1.00  0.00    -0.237 OA
ATOM    114  O   UNL A   1      44.331  43.707  25.511  1.00  0.00    -0.237 OA
ATOM    115  O   UNL A   1      44.524  42.169  23.596  1.00  0.00    -0.744 OA
ENDBRANCH 111 112
ENDBRANCH  79 104
ENDBRANCH  53  54
ENDBRANCH  46  48
ENDBRANCH  45  46
ENDBRANCH  44  45
ENDBRANCH  43  44
ENDBRANCH  42  43
ENDBRANCH  41  42
ENDBRANCH  40  41
ENDBRANCH  39  40
ENDBRANCH   1  39
TORSDOF 28
ENDMDL
MODEL 2
REMARK VINA RESULT:      -7.2      3.271      4.774
REMARK SMILES Cc1c(C(=O)Nc2ccc(C(=O)Nc3ccccc3C(=O)OCCOCCOCCOCCOC(=O)c3ccc(-c4c5nc(c(-c6c(F)cc(S(=O)(=O)[O-])cc6F)c6ccc([nH]6)c(-c6c(F)cc(S(=O)(=O)[O-])cc6F)c6nc(c(-c7c(F)cc(S(=O)(=O)[O-])cc7F)c7ccc4[nH]7)C=C6)C=C5)cc3)cc2)cccc1[N+](=O)[O-]
REMARK SMILES IDX 27 1 26 2 25 3 24 4 23 5 22 6 20 7 21 8 19 9 14 10 15 11
REMARK SMILES IDX 16 12 18 13 17 14 13 15 11 16 12 17 10 19 7 20 8 21 104 22
REMARK SMILES IDX 9 23 103 24 6 25 4 26 5 27 3 29 1 30 2 31 108 32 105 33
REMARK SMILES IDX 107 34 106 35 109 36 110 37 111 38 28 39 29 40 30 41 31 42
REMARK SMILES IDX 32 43 33 44 34 45 35 46 36 47 37 48 38 49 102 50 39 51
REMARK SMILES IDX 101 52 40 53 41 54 42 55 95 56 43 57 100 58 94 59 96 60
REMARK SMILES IDX 44 61 99 62 93 63 92 64 45 66 79 67 58 68 78 69 59 70 62 71
REMARK SMILES IDX 77 72 97 73 60 74 61 75 76 77 98 78 63 79 46 80 47 81 56 82
REMARK SMILES IDX 48 83 49 84 55 85 57 86 50 87 51 88 52 89 53 90 54 91 80 92
REMARK SMILES IDX 81 93 90 94 82 95 83 96 89 97 91 98 84 99 85 100 86 101
REMARK SMILES IDX 87 102 88 103 64 104 65 105 74 106 66 107 67 108 73 109
REMARK SMILES IDX 75 110 68 111 69 112 70 113 71 114 72 115
REMARK H PARENT 13 18 6 28 96 65 62 76
REMARK Flexibility Score: inf
ROOT
ATOM      1  C   UNL A   1      45.543  20.380  25.098  1.00  0.00     0.188 C 
ENDROOT
BRANCH   1   2
ATOM      2  C   UNL A   1      44.090  20.130  25.531  1.00  0.00     0.188 C 
BRANCH   2   3
ATOM      3  O   UNL A   1      42.995  20.930  25.230  1.00  0.00    -0.376 OA
BRANCH   3   4
ATOM      4  C   UNL A   1      42.889  22.094  25.997  1.00  0.00     0.202 C 
BRANCH   4   5
ATOM      5  C   UNL A   1      42.748  22.188  27.526  1.00  0.00     0.261 C 
BRANCH   5   6
ATOM      6  O   UNL A   1      42.844  23.443  28.162  1.00  0.00    -0.460 OA
BRANCH   6   7
ATOM      7  C   UNL A   1      44.129  23.677  28.473  1.00  0.00     0.340 C 
ATOM      8  O   UNL A   1      45.153  23.318  27.882  1.00  0.00    -0.246 OA
BRANCH   7   9
ATOM      9  C   UNL A   1      44.190  24.581  29.592  1.00  0.00     0.083 A 
ATOM     10  C   UNL A   1      44.031  25.938  29.309  1.00  0.00     0.056 A 
ATOM     11  C   UNL A   1      44.122  26.870  30.332  1.00  0.00     0.027 A 
ATOM     12  C   UNL A   1      44.224  26.425  31.651  1.00  0.00     0.002 A 
ATOM     13  C   UNL A   1      44.225  24.119  30.912  1.00  0.00     0.018 A 
ATOM     14  C   UNL A   1      44.218  25.055  31.944  1.00  0.00     0.001 A 
BRANCH  10  15
ATOM     15  N   UNL A   1      43.516  26.339  28.071  1.00  0.00    -0.321 N 
ATOM     16  C   UNL A   1      42.555  27.321  27.874  1.00  0.00     0.255 C 
ATOM     17  O   UNL A   1      42.341  27.693  26.718  1.00  0.00    -0.269 OA
ATOM     18  H   UNL A   1      43.864  25.884  27.270  1.00  0.00     0.170 HD
BRANCH  16  19
ATOM     19  C   UNL A   1      41.600  27.797  28.967  1.00  0.00     0.040 A 
ATOM     20  C   UNL A   1      39.631  29.010  30.657  1.00  0.00     0.041 A 
ATOM     21  C   UNL A   1      39.567  27.662  30.392  1.00  0.00     0.027 A 
ATOM     22  C   UNL A   1      40.649  29.755  30.065  1.00  0.00     0.027 A 
ATOM     23  C   UNL A   1      40.551  27.081  29.572  1.00  0.00     0.016 A 
ATOM     24  C   UNL A   1      41.633  29.164  29.247  1.00  0.00     0.016 A 
BRANCH  20  25
ATOM     25  N   UNL A   1      38.750  29.623  31.563  1.00  0.00    -0.322 N 
ATOM     26  C   UNL A   1      37.442  29.962  31.255  1.00  0.00     0.256 C 
ATOM     27  O   UNL A   1      36.563  30.081  32.101  1.00  0.00    -0.269 OA
ATOM     28  H   UNL A   1      39.080  29.825  32.468  1.00  0.00     0.170 HD
BRANCH  26  29
ATOM     29  C   UNL A   1      37.175  30.438  29.868  1.00  0.00     0.049 A 
ATOM     30  C   UNL A   1      38.227  32.730  29.987  1.00  0.00     0.053 C 
ATOM     31  C   UNL A   1      37.164  31.791  29.488  1.00  0.00     0.039 A 
ATOM     32  C   UNL A   1      36.242  32.150  28.497  1.00  0.00     0.273 A 
ATOM     33  C   UNL A   1      36.640  29.455  29.025  1.00  0.00     0.014 A 
ATOM     34  C   UNL A   1      35.678  31.171  27.662  1.00  0.00     0.086 A 
ATOM     35  C   UNL A   1      35.960  29.825  27.874  1.00  0.00     0.008 A 
BRANCH  32  36
ATOM     36  N   UNL A   1      35.673  33.506  28.421  1.00  0.00     0.063 N 
ATOM     37  O   UNL A   1      35.439  33.952  27.284  1.00  0.00    -0.258 OA
ATOM     38  O   UNL A   1      35.457  34.128  29.467  1.00  0.00    -0.258 OA
ENDBRANCH  32  36
ENDBRANCH  26  29
ENDBRANCH  20  25
ENDBRANCH  16  19
ENDBRANCH  10  15
ENDBRANCH   7   9
ENDBRANCH   6   7
ENDBRANCH   5   6
ENDBRANCH   4   5
ENDBRANCH   3   4
ENDBRANCH   2   3
ENDBRANCH   1   2
BRANCH   1  39
ATOM     39  O   UNL A   1      46.300  21.549  25.289  1.00  0.00    -0.377 OA
BRANCH  39  40
ATOM     40  C   UNL A   1      46.231  22.536  24.217  1.00  0.00     0.188 C 
BRANCH  40  41
ATOM     41  C   UNL A   1      46.658  23.971  24.555  1.00  0.00     0.188 C 
BRANCH  41  42
ATOM     42  O   UNL A   1      45.532  24.823  24.465  1.00  0.00    -0.376 OA
BRANCH  42  43
ATOM     43  C   UNL A   1      45.316  25.787  25.470  1.00  0.00     0.202 C 
BRANCH  43  44
ATOM     44  C   UNL A   1      45.595  27.211  25.010  1.00  0.00     0.261 C 
BRANCH  44  45
ATOM     45  O   UNL A   1      45.597  28.054  26.184  1.00  0.00    -0.460 OA
BRANCH  45  46
ATOM     46  C   UNL A   1      45.842  29.377  25.956  1.00  0.00     0.338 C 
ATOM     47  O   UNL A   1      46.528  29.782  25.033  1.00  0.00    -0.246 OA
BRANCH  46  48
ATOM     48  C   UNL A   1      45.232  30.240  27.029  1.00  0.00     0.060 A 
ATOM     49  C   UNL A   1      44.440  31.352  26.689  1.00  0.00     0.016 A 
ATOM     50  C   UNL A   1      45.631  30.104  28.351  1.00  0.00     0.016 A 
ATOM     51  C   UNL A   1      44.146  32.376  27.633  1.00  0.00     0.010 A 
ATOM     52  C   UNL A   1      45.364  31.132  29.261  1.00  0.00     0.010 A 
ATOM     53  C   UNL A   1      44.651  32.315  28.937  1.00  0.00    -0.014 A 
BRANCH  53  54
ATOM     54  C   UNL A   1      44.711  33.470  29.938  1.00  0.00     0.031 A 
ATOM     55  C   UNL A   1      43.453  33.727  30.835  1.00  0.00     0.074 A 
ATOM     56  C   UNL A   1      45.950  33.911  30.338  1.00  0.00     0.049 A 
ATOM     57  N   UNL A   1      43.282  34.582  31.815  1.00  0.00    -0.248 NA
ATOM     58  C   UNL A   1      42.199  32.990  30.596  1.00  0.00     0.031 C 
ATOM     59  C   UNL A   1      46.599  33.642  31.627  1.00  0.00     0.029 A 
ATOM     60  N   UNL A   1      47.072  34.338  29.628  1.00  0.00    -0.354 N 
ATOM     61  C   UNL A   1      42.099  34.223  32.526  1.00  0.00     0.074 A 
ATOM     62  C   UNL A   1      41.436  33.301  31.648  1.00  0.00     0.031 C 
ATOM     63  C   UNL A   1      47.806  34.177  31.765  1.00  0.00     0.029 A 
ATOM     64  C   UNL A   1      48.057  34.812  30.532  1.00  0.00     0.049 A 
ATOM     65  H   UNL A   1      47.165  34.315  28.648  1.00  0.00     0.167 HD
ATOM     66  C   UNL A   1      41.862  34.574  33.848  1.00  0.00     0.037 A 
ATOM     67  C   UNL A   1      48.619  36.035  30.493  1.00  0.00     0.037 A 
ATOM     68  C   UNL A   1      42.874  35.528  34.379  1.00  0.00     0.049 A 
ATOM     69  C   UNL A   1      47.956  37.027  31.461  1.00  0.00     0.074 A 
ATOM     70  C   UNL A   1      43.525  35.657  35.601  1.00  0.00     0.029 A 
ATOM     71  N   UNL A   1      43.500  36.448  33.539  1.00  0.00    -0.354 N 
ATOM     72  N   UNL A   1      46.945  36.757  32.277  1.00  0.00    -0.248 NA
ATOM     73  C   UNL A   1      48.378  38.422  31.578  1.00  0.00     0.031 C 
ATOM     74  C   UNL A   1      44.619  36.553  35.441  1.00  0.00     0.029 A 
ATOM     75  C   UNL A   1      44.612  37.007  34.134  1.00  0.00     0.049 A 
ATOM     76  H   UNL A   1      43.187  36.670  32.633  1.00  0.00     0.167 HD
ATOM     77  C   UNL A   1      46.468  37.940  32.827  1.00  0.00     0.074 A 
ATOM     78  C   UNL A   1      47.459  38.923  32.420  1.00  0.00     0.031 C 
ATOM     79  C   UNL A   1      45.287  38.126  33.512  1.00  0.00     0.037 A 
BRANCH  66  80
ATOM     80  C   UNL A   1      40.876  33.851  34.870  1.00  0.00     0.058 A 
ATOM     81  C   UNL A   1      39.580  34.390  35.123  1.00  0.00     0.135 A 
ATOM     82  C   UNL A   1      41.163  32.748  35.717  1.00  0.00     0.135 A 
ATOM     83  F   UNL A   1      39.073  35.364  34.357  1.00  0.00    -0.206 F 
ATOM     84  C   UNL A   1      38.707  33.951  36.137  1.00  0.00     0.059 A 
ATOM     85  C   UNL A   1      40.255  32.224  36.676  1.00  0.00     0.059 A 
ATOM     86  F   UNL A   1      42.341  32.117  35.683  1.00  0.00    -0.206 F 
ATOM     87  C   UNL A   1      39.034  32.845  36.897  1.00  0.00     0.060 A 
BRANCH  87  88
ATOM     88  S   UNL A   1      37.798  32.173  38.041  1.00  0.00     0.124 S 
ATOM     89  O   UNL A   1      38.514  32.153  39.313  1.00  0.00    -0.237 OA
ATOM     90  O   UNL A   1      36.717  33.151  37.946  1.00  0.00    -0.237 OA
ATOM     91  O   UNL A   1      37.486  30.861  37.479  1.00  0.00    -0.744 OA
ENDBRANCH  87  88
ENDBRANCH  66  80
BRANCH  67  92
ATOM     92  C   UNL A   1      49.519  36.049  29.277  1.00  0.00     0.058 A 
ATOM     93  C   UNL A   1      49.330  37.221  28.484  1.00  0.00     0.135 A 
ATOM     94  C   UNL A   1      50.866  35.699  29.515  1.00  0.00     0.135 A 
ATOM     95  F   UNL A   1      48.086  37.597  28.143  1.00  0.00    -0.206 F 
ATOM     96  C   UNL A   1      50.346  38.171  28.313  1.00  0.00     0.059 A 
ATOM     97  C   UNL A   1      51.898  36.647  29.371  1.00  0.00     0.059 A 
ATOM     98  F   UNL A   1      51.136  34.587  30.217  1.00  0.00    -0.206 F 
ATOM     99  C   UNL A   1      51.599  37.916  28.863  1.00  0.00     0.060 A 
BRANCH  99 100
ATOM    100  S   UNL A   1      52.669  39.345  29.236  1.00  0.00     0.124 S 
ATOM    101  O   UNL A   1      53.816  38.706  29.866  1.00  0.00    -0.237 OA
ATOM    102  O   UNL A   1      52.890  39.916  27.904  1.00  0.00    -0.237 OA
ATOM    103  O   UNL A   1      51.827  40.158  30.106  1.00  0.00    -0.744 OA
ENDBRANCH  99 100
ENDBRANCH  67  92
BRANCH  79 104
ATOM    104  C   UNL A   1      44.560  39.458  33.696  1.00  0.00     0.058 A 
ATOM    105  C   UNL A   1      44.827  40.324  34.766  1.00  0.00     0.135 A 
ATOM    106  C   UNL A   1      43.754  40.019  32.660  1.00  0.00     0.135 A 
ATOM    107  F   UNL A   1      45.676  39.983  35.745  1.00  0.00    -0.206 F 
ATOM    108  C   UNL A   1      44.271  41.602  34.848  1.00  0.00     0.059 A 
ATOM    109  C   UNL A   1      43.256  41.315  32.686  1.00  0.00     0.059 A 
ATOM    110  F   UNL A   1      43.416  39.338  31.558  1.00  0.00    -0.206 F 
ATOM    111  C   UNL A   1      43.485  42.085  33.807  1.00  0.00     0.060 A 
BRANCH 111 112
ATOM    112  S   UNL A   1      42.764  43.726  33.922  1.00  0.00     0.124 S 
ATOM    113  O   UNL A   1      41.967  43.598  35.138  1.00  0.00    -0.237 OA
ATOM    114  O   UNL A   1      43.940  44.583  34.024  1.00  0.00    -0.237 OA
ATOM    115  O   UNL A   1      42.005  43.858  32.682  1.00  0.00    -0.744 OA
ENDBRANCH 111 112
ENDBRANCH  79 104
ENDBRANCH  53  54
ENDBRANCH  46  48
ENDBRANCH  45  46
ENDBRANCH  44  45
ENDBRANCH  43  44
ENDBRANCH  42  43
ENDBRANCH  41  42
ENDBRANCH  40  41
ENDBRANCH  39  40
ENDBRANCH   1  39
TORSDOF 28
ENDMDL
MODEL 3
REMARK VINA RESULT:      -6.9      3.746     10.405
REMARK SMILES Cc1c(C(=O)Nc2ccc(C(=O)Nc3ccccc3C(=O)OCCOCCOCCOCCOC(=O)c3ccc(-c4c5nc(c(-c6c(F)cc(S(=O)(=O)[O-])cc6F)c6ccc([nH]6)c(-c6c(F)cc(S(=O)(=O)[O-])cc6F)c6nc(c(-c7c(F)cc(S(=O)(=O)[O-])cc7F)c7ccc4[nH]7)C=C6)C=C5)cc3)cc2)cccc1[N+](=O)[O-]
REMARK SMILES IDX 27 1 26 2 25 3 24 4 23 5 22 6 20 7 21 8 19 9 14 10 15 11
REMARK SMILES IDX 16 12 18 13 17 14 13 15 11 16 12 17 10 19 7 20 8 21 104 22
REMARK SMILES IDX 9 23 103 24 6 25 4 26 5 27 3 29 1 30 2 31 108 32 105 33
REMARK SMILES IDX 107 34 106 35 109 36 110 37 111 38 28 39 29 40 30 41 31 42
REMARK SMILES IDX 32 43 33 44 34 45 35 46 36 47 37 48 38 49 102 50 39 51
REMARK SMILES IDX 101 52 40 53 41 54 42 55 95 56 43 57 100 58 94 59 96 60
REMARK SMILES IDX 44 61 99 62 93 63 92 64 45 66 79 67 58 68 78 69 59 70 62 71
REMARK SMILES IDX 77 72 97 73 60 74 61 75 76 77 98 78 63 79 46 80 47 81 56 82
REMARK SMILES IDX 48 83 49 84 55 85 57 86 50 87 51 88 52 89 53 90 54 91 80 92
REMARK SMILES IDX 81 93 90 94 82 95 83 96 89 97 91 98 84 99 85 100 86 101
REMARK SMILES IDX 87 102 88 103 64 104 65 105 74 106 66 107 67 108 73 109
REMARK SMILES IDX 75 110 68 111 69 112 70 113 71 114 72 115
REMARK H PARENT 13 18 6 28 96 65 62 76
REMARK Flexibility Score: inf
ROOT
ATOM      1  C   UNL A   1      44.538  22.658  35.325  1.00  0.00     0.188 C 
ENDROOT
BRANCH   1   2
ATOM      2  C   UNL A   1      45.276  22.781  33.982  1.00  0.00     0.188 C 
BRANCH   2   3
ATOM      3  O   UNL A   1      46.057  23.853  33.570  1.00  0.00    -0.376 OA
BRANCH   3   4
ATOM      4  C   UNL A   1      45.395  24.790  32.769  1.00  0.00     0.202 C 
BRANCH   4   5
ATOM      5  C   UNL A   1      44.349  24.502  31.679  1.00  0.00     0.261 C 
BRANCH   5   6
ATOM      6  O   UNL A   1      44.307  25.306  30.521  1.00  0.00    -0.460 OA
BRANCH   6   7
ATOM      7  C   UNL A   1      43.744  26.485  30.827  1.00  0.00     0.340 C 
ATOM      8  O   UNL A   1      43.751  27.097  31.900  1.00  0.00    -0.246 OA
BRANCH   7   9
ATOM      9  C   UNL A   1      43.197  27.075  29.634  1.00  0.00     0.083 A 
ATOM     10  C   UNL A   1      44.034  27.936  28.921  1.00  0.00     0.056 A 
ATOM     11  C   UNL A   1      43.558  28.574  27.786  1.00  0.00     0.027 A 
ATOM     12  C   UNL A   1      42.299  28.232  27.289  1.00  0.00     0.002 A 
ATOM     13  C   UNL A   1      41.963  26.674  29.112  1.00  0.00     0.018 A 
ATOM     14  C   UNL A   1      41.528  27.245  27.918  1.00  0.00     0.001 A 
BRANCH  10  15
ATOM     15  N   UNL A   1      45.409  27.947  29.179  1.00  0.00    -0.321 N 
ATOM     16  C   UNL A   1      46.384  27.343  28.398  1.00  0.00     0.255 C 
ATOM     17  O   UNL A   1      47.564  27.600  28.650  1.00  0.00    -0.269 OA
ATOM     18  H   UNL A   1      45.711  28.424  29.987  1.00  0.00     0.170 HD
BRANCH  16  19
ATOM     19  C   UNL A   1      46.092  26.219  27.407  1.00  0.00     0.040 A 
ATOM     20  C   UNL A   1      45.910  24.329  25.260  1.00  0.00     0.041 A 
ATOM     21  C   UNL A   1      46.262  23.902  26.519  1.00  0.00     0.027 A 
ATOM     22  C   UNL A   1      45.677  25.689  25.063  1.00  0.00     0.027 A 
ATOM     23  C   UNL A   1      46.332  24.842  27.564  1.00  0.00     0.016 A 
ATOM     24  C   UNL A   1      45.747  26.623  26.116  1.00  0.00     0.016 A 
BRANCH  20  25
ATOM     25  N   UNL A   1      45.707  23.423  24.207  1.00  0.00    -0.322 N 
ATOM     26  C   UNL A   1      44.509  22.768  23.975  1.00  0.00     0.256 C 
ATOM     27  O   UNL A   1      44.180  22.341  22.874  1.00  0.00    -0.269 OA
ATOM     28  H   UNL A   1      46.460  23.242  23.599  1.00  0.00     0.170 HD
BRANCH  26  29
ATOM     29  C   UNL A   1      43.719  22.358  25.170  1.00  0.00     0.049 A 
ATOM     30  C   UNL A   1      44.946  20.241  25.794  1.00  0.00     0.053 C 
ATOM     31  C   UNL A   1      43.683  21.048  25.680  1.00  0.00     0.039 A 
ATOM     32  C   UNL A   1      42.464  20.630  26.230  1.00  0.00     0.273 A 
ATOM     33  C   UNL A   1      42.776  23.310  25.580  1.00  0.00     0.014 A 
ATOM     34  C   UNL A   1      41.499  21.573  26.621  1.00  0.00     0.086 A 
ATOM     35  C   UNL A   1      41.708  22.928  26.378  1.00  0.00     0.008 A 
BRANCH  32  36
ATOM     36  N   UNL A   1      42.059  19.215  26.232  1.00  0.00     0.063 N 
ATOM     37  O   UNL A   1      41.048  18.921  25.571  1.00  0.00    -0.258 OA
ATOM     38  O   UNL A   1      42.728  18.398  26.874  1.00  0.00    -0.258 OA
ENDBRANCH  32  36
ENDBRANCH  26  29
ENDBRANCH  20  25
ENDBRANCH  16  19
ENDBRANCH  10  15
ENDBRANCH   7   9
ENDBRANCH   6   7
ENDBRANCH   5   6
ENDBRANCH   4   5
ENDBRANCH   3   4
ENDBRANCH   2   3
ENDBRANCH   1   2
BRANCH   1  39
ATOM     39  O   UNL A   1      44.932  23.190  36.565  1.00  0.00    -0.377 OA
BRANCH  39  40
ATOM     40  C   UNL A   1      46.130  22.605  37.158  1.00  0.00     0.188 C 
BRANCH  40  41
ATOM     41  C   UNL A   1      47.021  23.530  37.998  1.00  0.00     0.188 C 
BRANCH  41  42
ATOM     42  O   UNL A   1      47.253  24.727  37.279  1.00  0.00    -0.376 OA
BRANCH  42  43
ATOM     43  C   UNL A   1      47.174  25.962  37.954  1.00  0.00     0.202 C 
BRANCH  43  44
ATOM     44  C   UNL A   1      45.991  26.053  38.907  1.00  0.00     0.261 C 
BRANCH  44  45
ATOM     45  O   UNL A   1      45.401  27.362  38.742  1.00  0.00    -0.460 OA
BRANCH  45  46
ATOM     46  C   UNL A   1      44.419  27.450  37.799  1.00  0.00     0.338 C 
ATOM     47  O   UNL A   1      43.433  26.733  37.790  1.00  0.00    -0.246 OA
BRANCH  46  48
ATOM     48  C   UNL A   1      44.758  28.474  36.748  1.00  0.00     0.060 A 
ATOM     49  C   UNL A   1      44.631  29.848  37.021  1.00  0.00     0.016 A 
ATOM     50  C   UNL A   1      44.965  28.087  35.432  1.00  0.00     0.016 A 
ATOM     51  C   UNL A   1      44.597  30.816  35.977  1.00  0.00     0.010 A 
ATOM     52  C   UNL A   1      44.897  29.043  34.413  1.00  0.00     0.010 A 
ATOM     53  C   UNL A   1      44.676  30.426  34.635  1.00  0.00    -0.014 A 
BRANCH  53  54
ATOM     54  C   UNL A   1      44.317  31.286  33.422  1.00  0.00     0.031 A 
ATOM     55  C   UNL A   1      45.492  31.918  32.600  1.00  0.00     0.074 A 
ATOM     56  C   UNL A   1      43.087  31.097  32.840  1.00  0.00     0.049 A 
ATOM     57  N   UNL A   1      45.458  32.610  31.486  1.00  0.00    -0.248 NA
ATOM     58  C   UNL A   1      46.881  31.826  33.086  1.00  0.00     0.031 C 
ATOM     59  C   UNL A   1      42.815  30.391  31.581  1.00  0.00     0.029 A 
ATOM     60  N   UNL A   1      41.790  31.106  33.353  1.00  0.00    -0.354 N 
ATOM     61  C   UNL A   1      46.783  32.687  30.963  1.00  0.00     0.074 A 
ATOM     62  C   UNL A   1      47.612  32.273  32.061  1.00  0.00     0.031 C 
ATOM     63  C   UNL A   1      41.534  30.337  31.239  1.00  0.00     0.029 A 
ATOM     64  C   UNL A   1      40.855  30.979  32.294  1.00  0.00     0.049 A 
ATOM     65  H   UNL A   1      41.559  31.190  34.307  1.00  0.00     0.167 HD
ATOM     66  C   UNL A   1      47.067  32.907  29.622  1.00  0.00     0.037 A 
ATOM     67  C   UNL A   1      39.851  31.839  32.040  1.00  0.00     0.037 A 
ATOM     68  C   UNL A   1      45.856  33.252  28.828  1.00  0.00     0.049 A 
ATOM     69  C   UNL A   1      40.206  32.865  30.953  1.00  0.00     0.074 A 
ATOM     70  C   UNL A   1      45.412  32.911  27.555  1.00  0.00     0.029 A 
ATOM     71  N   UNL A   1      44.788  33.932  29.412  1.00  0.00    -0.354 N 
ATOM     72  N   UNL A   1      41.356  32.933  30.294  1.00  0.00    -0.248 NA
ATOM     73  C   UNL A   1      39.283  33.915  30.523  1.00  0.00     0.031 C 
ATOM     74  C   UNL A   1      44.039  33.272  27.441  1.00  0.00     0.029 A 
ATOM     75  C   UNL A   1      43.655  33.872  28.626  1.00  0.00     0.049 A 
ATOM     76  H   UNL A   1      44.836  34.396  30.278  1.00  0.00     0.167 HD
ATOM     77  C   UNL A   1      41.398  34.111  29.560  1.00  0.00     0.074 A 
ATOM     78  C   UNL A   1      40.045  34.629  29.678  1.00  0.00     0.031 C 
ATOM     79  C   UNL A   1      42.497  34.677  28.953  1.00  0.00     0.037 A 
BRANCH  66  80
ATOM     80  C   UNL A   1      48.409  32.528  28.852  1.00  0.00     0.058 A 
ATOM     81  C   UNL A   1      49.002  33.452  27.942  1.00  0.00     0.135 A 
ATOM     82  C   UNL A   1      49.077  31.275  28.839  1.00  0.00     0.135 A 
ATOM     83  F   UNL A   1      48.591  34.726  27.882  1.00  0.00    -0.206 F 
ATOM     84  C   UNL A   1      50.068  33.157  27.071  1.00  0.00     0.059 A 
ATOM     85  C   UNL A   1      50.219  30.990  28.043  1.00  0.00     0.059 A 
ATOM     86  F   UNL A   1      48.663  30.244  29.584  1.00  0.00    -0.206 F 
ATOM     87  C   UNL A   1      50.697  31.930  27.143  1.00  0.00     0.060 A 
BRANCH  87  88
ATOM     88  S   UNL A   1      52.201  31.658  26.165  1.00  0.00     0.124 S 
ATOM     89  O   UNL A   1      51.716  30.856  25.046  1.00  0.00    -0.237 OA
ATOM     90  O   UNL A   1      52.608  33.021  25.829  1.00  0.00    -0.237 OA
ATOM     91  O   UNL A   1      53.093  30.965  27.091  1.00  0.00    -0.744 OA
ENDBRANCH  87  88
ENDBRANCH  66  80
BRANCH  67  92
ATOM     92  C   UNL A   1      38.840  31.648  33.150  1.00  0.00     0.058 A 
ATOM     93  C   UNL A   1      38.425  32.892  33.714  1.00  0.00     0.135 A 
ATOM     94  C   UNL A   1      37.796  30.740  32.869  1.00  0.00     0.135 A 
ATOM     95  F   UNL A   1      39.349  33.796  34.082  1.00  0.00    -0.206 F 
ATOM     96  C   UNL A   1      37.103  33.347  33.612  1.00  0.00     0.059 A 
ATOM     97  C   UNL A   1      36.466  31.184  32.738  1.00  0.00     0.059 A 
ATOM     98  F   UNL A   1      38.100  29.530  32.375  1.00  0.00    -0.206 F 
ATOM     99  C   UNL A   1      36.156  32.519  33.017  1.00  0.00     0.060 A 
BRANCH  99 100
ATOM    100  S   UNL A   1      34.682  33.306  32.285  1.00  0.00     0.124 S 
ATOM    101  O   UNL A   1      35.144  34.670  32.070  1.00  0.00    -0.237 OA
ATOM    102  O   UNL A   1      34.467  32.493  31.083  1.00  0.00    -0.237 OA
ATOM    103  O   UNL A   1      33.672  33.125  33.321  1.00  0.00    -0.744 OA
ENDBRANCH  99 100
ENDBRANCH  67  92
BRANCH  79 104
ATOM    104  C   UNL A   1      42.648  36.149  28.567  1.00  0.00     0.058 A 
ATOM    105  C   UNL A   1      43.161  37.113  29.445  1.00  0.00     0.135 A 
ATOM    106  C   UNL A   1      42.517  36.583  27.213  1.00  0.00     0.135 A 
ATOM    107  F   UNL A   1      43.462  36.809  30.715  1.00  0.00    -0.206 F 
ATOM    108  C   UNL A   1      43.435  38.421  29.041  1.00  0.00     0.059 A 
ATOM    109  C   UNL A   1      42.859  37.856  26.776  1.00  0.00     0.059 A 
ATOM    110  F   UNL A   1      42.060  35.787  26.239  1.00  0.00    -0.206 F 
ATOM    111  C   UNL A   1      43.277  38.782  27.707  1.00  0.00     0.060 A 
BRANCH 111 112
ATOM    112  S   UNL A   1      43.622  40.468  27.195  1.00  0.00     0.124 S 
ATOM    113  O   UNL A   1      42.285  40.936  26.845  1.00  0.00    -0.237 OA
ATOM    114  O   UNL A   1      44.202  41.054  28.399  1.00  0.00    -0.237 OA
ATOM    115  O   UNL A   1      44.546  40.307  26.076  1.00  0.00    -0.744 OA
ENDBRANCH 111 112
ENDBRANCH  79 104
ENDBRANCH  53  54
ENDBRANCH  46  48
ENDBRANCH  45  46
ENDBRANCH  44  45
ENDBRANCH  43  44
ENDBRANCH  42  43
ENDBRANCH  41  42
ENDBRANCH  40  41
ENDBRANCH  39  40
ENDBRANCH   1  39
TORSDOF 28
ENDMDL
