MODEL 1
REMARK VINA RESULT:      -9.4      0.000      0.000
REMARK SMILES C[C@@H]([NH2+]C[C@H]1CCC[C@@H]1C(=O)OCCOCCOCCOCCOC(=O)c1ccc(-c2c3nc(c(-c4c(F)cc(S(=O)(=O)[O-])cc4F)c4ccc([nH]4)c(-c4c(F)cc(S(=O)(=O)[O-])cc4F)c4nc(c(-c5c(F)cc(S(=O)(=O)[O-])cc5F)c5ccc2[nH]5)C=C4)C=C3)cc1)c1cc(F)ccc1O
REMARK SMILES IDX 17 1 16 2 15 3 14 4 13 5 12 6 10 7 11 8 9 9 5 10 6 11 7 12
REMARK SMILES IDX 8 13 4 14 3 15 2 18 1 19 93 20 94 21 99 22 95 23 98 24 96 25
REMARK SMILES IDX 97 26 100 27 18 29 19 30 20 31 21 32 22 33 23 34 24 35 25 36
REMARK SMILES IDX 26 37 27 38 28 39 92 40 29 41 91 42 30 43 31 44 32 45 85 46
REMARK SMILES IDX 33 47 90 48 84 49 86 50 34 51 89 52 83 53 82 54 35 56 69 57
REMARK SMILES IDX 48 58 68 59 49 60 52 61 67 62 87 63 50 64 51 65 66 67 88 68
REMARK SMILES IDX 53 69 36 70 37 71 46 72 38 73 39 74 45 75 47 76 40 77 41 78
REMARK SMILES IDX 42 79 43 80 44 81 70 82 71 83 80 84 72 85 73 86 79 87 81 88
REMARK SMILES IDX 74 89 75 90 76 91 77 92 78 93 54 94 55 95 64 96 56 97 57 98
REMARK SMILES IDX 63 99 65 100 58 101 59 102 60 103 61 104 62 105
REMARK H PARENT 3 16 3 17 100 28 86 55 52 66
REMARK Flexibility Score: inf
ROOT
ATOM      1  C   UNL A   1      39.512  21.526  26.074  1.00  0.00     0.188 C 
ENDROOT
BRANCH   1   2
ATOM      2  C   UNL A   1      38.054  21.525  25.582  1.00  0.00     0.188 C 
BRANCH   2   3
ATOM      3  O   UNL A   1      37.240  22.669  25.776  1.00  0.00    -0.376 OA
BRANCH   3   4
ATOM      4  C   UNL A   1      35.859  22.486  26.046  1.00  0.00     0.202 C 
BRANCH   4   5
ATOM      5  C   UNL A   1      34.821  23.610  25.798  1.00  0.00     0.261 C 
BRANCH   5   6
ATOM      6  O   UNL A   1      35.006  24.512  24.680  1.00  0.00    -0.463 OA
BRANCH   6   7
ATOM      7  C   UNL A   1      34.806  23.986  23.445  1.00  0.00     0.309 C 
ATOM      8  O   UNL A   1      35.649  23.311  22.863  1.00  0.00    -0.252 OA
BRANCH   7   9
ATOM      9  C   UNL A   1      33.456  24.384  22.797  1.00  0.00     0.108 C 
ATOM     10  C   UNL A   1      32.173  24.474  23.671  1.00  0.00     0.058 C 
ATOM     11  C   UNL A   1      31.737  23.012  23.838  1.00  0.00     0.010 C 
ATOM     12  C   UNL A   1      32.283  22.259  22.635  1.00  0.00     0.001 C 
ATOM     13  C   UNL A   1      33.061  23.276  21.806  1.00  0.00     0.016 C 
BRANCH  10  14
ATOM     14  C   UNL A   1      31.054  25.363  23.064  1.00  0.00     0.265 C 
BRANCH  14  15
ATOM     15  N   UNL A   1      30.517  26.456  23.906  1.00  0.00    -0.340 N 
ATOM     16  H   UNL A   1      29.502  26.451  23.811  1.00  0.00     0.346 HD
ATOM     17  H   UNL A   1      30.853  26.264  24.850  1.00  0.00     0.346 HD
BRANCH  15  18
ATOM     18  C   UNL A   1      30.995  27.825  23.587  1.00  0.00     0.214 C 
ATOM     19  C   UNL A   1      32.128  27.704  22.551  1.00  0.00     0.081 C 
BRANCH  18  20
ATOM     20  C   UNL A   1      31.518  28.588  24.789  1.00  0.00     0.054 A 
ATOM     21  C   UNL A   1      31.096  29.915  24.988  1.00  0.00     0.053 A 
ATOM     22  C   UNL A   1      32.480  28.071  25.672  1.00  0.00     0.124 A 
ATOM     23  C   UNL A   1      31.610  30.670  26.042  1.00  0.00     0.123 A 
ATOM     24  C   UNL A   1      32.985  28.826  26.730  1.00  0.00     0.050 A 
ATOM     25  F   UNL A   1      31.206  31.939  26.197  1.00  0.00    -0.207 F 
ATOM     26  C   UNL A   1      32.544  30.135  26.917  1.00  0.00     0.043 A 
BRANCH  22  27
ATOM     27  O   UNL A   1      32.972  26.803  25.532  1.00  0.00    -0.507 OA
ATOM     28  H   UNL A   1      33.576  26.608  24.842  1.00  0.00     0.293 HD
ENDBRANCH  22  27
ENDBRANCH  18  20
ENDBRANCH  15  18
ENDBRANCH  14  15
ENDBRANCH  10  14
ENDBRANCH   7   9
ENDBRANCH   6   7
ENDBRANCH   5   6
ENDBRANCH   4   5
ENDBRANCH   3   4
ENDBRANCH   2   3
ENDBRANCH   1   2
BRANCH   1  29
ATOM     29  O   UNL A   1      40.070  20.246  26.267  1.00  0.00    -0.377 OA
BRANCH  29  30
ATOM     30  C   UNL A   1      41.099  20.174  27.233  1.00  0.00     0.188 C 
BRANCH  30  31
ATOM     31  C   UNL A   1      41.645  21.520  27.742  1.00  0.00     0.188 C 
BRANCH  31  32
ATOM     32  O   UNL A   1      42.996  21.777  27.361  1.00  0.00    -0.376 OA
BRANCH  32  33
ATOM     33  C   UNL A   1      43.359  21.707  25.991  1.00  0.00     0.202 C 
BRANCH  33  34
ATOM     34  C   UNL A   1      43.074  22.928  25.098  1.00  0.00     0.261 C 
BRANCH  34  35
ATOM     35  O   UNL A   1      42.480  24.067  25.732  1.00  0.00    -0.460 OA
BRANCH  35  36
ATOM     36  C   UNL A   1      43.237  25.181  25.839  1.00  0.00     0.338 C 
ATOM     37  O   UNL A   1      44.141  25.516  25.092  1.00  0.00    -0.246 OA
BRANCH  36  38
ATOM     38  C   UNL A   1      42.631  26.048  26.873  1.00  0.00     0.060 A 
ATOM     39  C   UNL A   1      42.924  27.420  26.847  1.00  0.00     0.016 A 
ATOM     40  C   UNL A   1      41.749  25.533  27.827  1.00  0.00     0.016 A 
ATOM     41  C   UNL A   1      42.361  28.275  27.792  1.00  0.00     0.010 A 
ATOM     42  C   UNL A   1      41.216  26.386  28.799  1.00  0.00     0.010 A 
ATOM     43  C   UNL A   1      41.548  27.752  28.805  1.00  0.00    -0.014 A 
BRANCH  43  44
ATOM     44  C   UNL A   1      41.260  28.586  29.997  1.00  0.00     0.031 A 
ATOM     45  C   UNL A   1      42.150  28.418  31.198  1.00  0.00     0.074 A 
ATOM     46  C   UNL A   1      40.272  29.498  30.003  1.00  0.00     0.049 A 
ATOM     47  N   UNL A   1      42.105  29.016  32.359  1.00  0.00    -0.248 NA
ATOM     48  C   UNL A   1      43.242  27.439  31.067  1.00  0.00     0.031 C 
ATOM     49  C   UNL A   1      39.390  29.799  28.878  1.00  0.00     0.029 A 
ATOM     50  N   UNL A   1      39.853  30.344  30.999  1.00  0.00    -0.354 N 
ATOM     51  C   UNL A   1      43.154  28.481  33.098  1.00  0.00     0.074 A 
ATOM     52  C   UNL A   1      43.797  27.488  32.266  1.00  0.00     0.031 C 
ATOM     53  C   UNL A   1      38.528  30.763  29.248  1.00  0.00     0.029 A 
ATOM     54  C   UNL A   1      38.777  31.122  30.644  1.00  0.00     0.049 A 
ATOM     55  H   UNL A   1      40.281  30.388  31.883  1.00  0.00     0.167 HD
ATOM     56  C   UNL A   1      43.550  28.790  34.356  1.00  0.00     0.037 A 
ATOM     57  C   UNL A   1      38.069  32.009  31.373  1.00  0.00     0.037 A 
ATOM     58  C   UNL A   1      42.892  29.768  35.183  1.00  0.00     0.049 A 
ATOM     59  C   UNL A   1      38.462  32.265  32.807  1.00  0.00     0.074 A 
ATOM     60  C   UNL A   1      43.215  30.166  36.467  1.00  0.00     0.029 A 
ATOM     61  N   UNL A   1      41.764  30.487  34.812  1.00  0.00    -0.354 N 
ATOM     62  N   UNL A   1      39.468  31.769  33.491  1.00  0.00    -0.248 NA
ATOM     63  C   UNL A   1      37.622  33.200  33.570  1.00  0.00     0.031 C 
ATOM     64  C   UNL A   1      42.245  31.078  36.897  1.00  0.00     0.029 A 
ATOM     65  C   UNL A   1      41.357  31.300  35.856  1.00  0.00     0.049 A 
ATOM     66  H   UNL A   1      41.319  30.427  33.936  1.00  0.00     0.167 HD
ATOM     67  C   UNL A   1      39.403  32.360  34.750  1.00  0.00     0.074 A 
ATOM     68  C   UNL A   1      38.260  33.251  34.731  1.00  0.00     0.031 C 
ATOM     69  C   UNL A   1      40.218  32.187  35.821  1.00  0.00     0.037 A 
BRANCH  56  70
ATOM     70  C   UNL A   1      44.712  28.020  34.920  1.00  0.00     0.058 A 
ATOM     71  C   UNL A   1      44.543  26.799  35.594  1.00  0.00     0.135 A 
ATOM     72  C   UNL A   1      46.018  28.524  34.803  1.00  0.00     0.135 A 
ATOM     73  F   UNL A   1      43.315  26.278  35.753  1.00  0.00    -0.206 F 
ATOM     74  C   UNL A   1      45.618  26.131  36.172  1.00  0.00     0.059 A 
ATOM     75  C   UNL A   1      47.112  27.857  35.344  1.00  0.00     0.059 A 
ATOM     76  F   UNL A   1      46.240  29.688  34.171  1.00  0.00    -0.206 F 
ATOM     77  C   UNL A   1      46.898  26.673  36.047  1.00  0.00     0.060 A 
BRANCH  77  78
ATOM     78  S   UNL A   1      48.278  25.815  36.834  1.00  0.00     0.124 S 
ATOM     79  O   UNL A   1      49.414  26.609  36.376  1.00  0.00    -0.237 OA
ATOM     80  O   UNL A   1      47.953  25.935  38.252  1.00  0.00    -0.237 OA
ATOM     81  O   UNL A   1      48.196  24.465  36.286  1.00  0.00    -0.744 OA
ENDBRANCH  77  78
ENDBRANCH  56  70
BRANCH  57  82
ATOM     82  C   UNL A   1      36.924  32.733  30.758  1.00  0.00     0.058 A 
ATOM     83  C   UNL A   1      37.133  33.869  29.963  1.00  0.00     0.135 A 
ATOM     84  C   UNL A   1      35.600  32.304  30.945  1.00  0.00     0.135 A 
ATOM     85  F   UNL A   1      38.378  34.330  29.767  1.00  0.00    -0.206 F 
ATOM     86  C   UNL A   1      36.074  34.555  29.377  1.00  0.00     0.059 A 
ATOM     87  C   UNL A   1      34.526  32.957  30.348  1.00  0.00     0.059 A 
ATOM     88  F   UNL A   1      35.343  31.220  31.695  1.00  0.00    -0.206 F 
ATOM     89  C   UNL A   1      34.774  34.086  29.568  1.00  0.00     0.060 A 
BRANCH  89  90
ATOM     90  S   UNL A   1      33.416  34.946  28.744  1.00  0.00     0.124 S 
ATOM     91  O   UNL A   1      32.637  35.425  29.880  1.00  0.00    -0.237 OA
ATOM     92  O   UNL A   1      34.124  35.967  27.979  1.00  0.00    -0.237 OA
ATOM     93  O   UNL A   1      32.789  33.896  27.946  1.00  0.00    -0.744 OA
ENDBRANCH  89  90
ENDBRANCH  57  82
BRANCH  69  94
ATOM     94  C   UNL A   1      39.937  33.008  37.053  1.00  0.00     0.058 A 
ATOM     95  C   UNL A   1      40.674  34.162  37.364  1.00  0.00     0.135 A 
ATOM     96  C   UNL A   1      38.873  32.664  37.903  1.00  0.00     0.135 A 
ATOM     97  F   UNL A   1      41.706  34.533  36.590  1.00  0.00    -0.206 F 
ATOM     98  C   UNL A   1      40.382  34.930  38.486  1.00  0.00     0.059 A 
ATOM     99  C   UNL A   1      38.542  33.437  39.012  1.00  0.00     0.059 A 
ATOM    100  F   UNL A   1      38.126  31.578  37.648  1.00  0.00    -0.206 F 
ATOM    101  C   UNL A   1      39.310  34.562  39.303  1.00  0.00     0.060 A 
BRANCH 101 102
ATOM    102  S   UNL A   1      38.919  35.590  40.734  1.00  0.00     0.124 S 
ATOM    103  O   UNL A   1      40.181  35.565  41.468  1.00  0.00    -0.237 OA
ATOM    104  O   UNL A   1      38.570  36.865  40.117  1.00  0.00    -0.237 OA
ATOM    105  O   UNL A   1      37.811  34.883  41.369  1.00  0.00    -0.744 OA
ENDBRANCH 101 102
ENDBRANCH  69  94
ENDBRANCH  43  44
ENDBRANCH  36  38
ENDBRANCH  35  36
ENDBRANCH  34  35
ENDBRANCH  33  34
ENDBRANCH  32  33
ENDBRANCH  31  32
ENDBRANCH  30  31
ENDBRANCH  29  30
ENDBRANCH   1  29
TORSDOF 28
ENDMDL
MODEL 2
REMARK VINA RESULT:      -9.4      1.562      2.568
REMARK SMILES C[C@@H]([NH2+]C[C@H]1CCC[C@@H]1C(=O)OCCOCCOCCOCCOC(=O)c1ccc(-c2c3nc(c(-c4c(F)cc(S(=O)(=O)[O-])cc4F)c4ccc([nH]4)c(-c4c(F)cc(S(=O)(=O)[O-])cc4F)c4nc(c(-c5c(F)cc(S(=O)(=O)[O-])cc5F)c5ccc2[nH]5)C=C4)C=C3)cc1)c1cc(F)ccc1O
REMARK SMILES IDX 17 1 16 2 15 3 14 4 13 5 12 6 10 7 11 8 9 9 5 10 6 11 7 12
REMARK SMILES IDX 8 13 4 14 3 15 2 18 1 19 93 20 94 21 99 22 95 23 98 24 96 25
REMARK SMILES IDX 97 26 100 27 18 29 19 30 20 31 21 32 22 33 23 34 24 35 25 36
REMARK SMILES IDX 26 37 27 38 28 39 92 40 29 41 91 42 30 43 31 44 32 45 85 46
REMARK SMILES IDX 33 47 90 48 84 49 86 50 34 51 89 52 83 53 82 54 35 56 69 57
REMARK SMILES IDX 48 58 68 59 49 60 52 61 67 62 87 63 50 64 51 65 66 67 88 68
REMARK SMILES IDX 53 69 36 70 37 71 46 72 38 73 39 74 45 75 47 76 40 77 41 78
REMARK SMILES IDX 42 79 43 80 44 81 70 82 71 83 80 84 72 85 73 86 79 87 81 88
REMARK SMILES IDX 74 89 75 90 76 91 77 92 78 93 54 94 55 95 64 96 56 97 57 98
REMARK SMILES IDX 63 99 65 100 58 101 59 102 60 103 61 104 62 105
REMARK H PARENT 3 16 3 17 100 28 86 55 52 66
REMARK Flexibility Score: inf
ROOT
ATOM      1  C   UNL A   1      37.676  21.559  25.007  1.00  0.00     0.188 C 
ENDROOT
BRANCH   1   2
ATOM      2  C   UNL A   1      36.324  21.041  25.531  1.00  0.00     0.188 C 
BRANCH   2   3
ATOM      3  O   UNL A   1      35.207  20.971  24.663  1.00  0.00    -0.376 OA
BRANCH   3   4
ATOM      4  C   UNL A   1      34.414  19.795  24.664  1.00  0.00     0.202 C 
BRANCH   4   5
ATOM      5  C   UNL A   1      32.874  19.847  24.834  1.00  0.00     0.261 C 
BRANCH   5   6
ATOM      6  O   UNL A   1      32.226  21.126  25.041  1.00  0.00    -0.463 OA
BRANCH   6   7
ATOM      7  C   UNL A   1      32.117  21.927  23.951  1.00  0.00     0.309 C 
ATOM      8  O   UNL A   1      32.161  21.500  22.801  1.00  0.00    -0.252 OA
BRANCH   7   9
ATOM      9  C   UNL A   1      32.017  23.438  24.281  1.00  0.00     0.108 C 
ATOM     10  C   UNL A   1      32.423  24.494  23.215  1.00  0.00     0.058 C 
ATOM     11  C   UNL A   1      33.957  24.514  23.282  1.00  0.00     0.010 C 
ATOM     12  C   UNL A   1      34.334  24.061  24.684  1.00  0.00     0.001 C 
ATOM     13  C   UNL A   1      33.025  23.745  25.401  1.00  0.00     0.016 C 
BRANCH  10  14
ATOM     14  C   UNL A   1      31.800  25.897  23.444  1.00  0.00     0.265 C 
BRANCH  14  15
ATOM     15  N   UNL A   1      31.889  26.874  22.335  1.00  0.00    -0.340 N 
ATOM     16  H   UNL A   1      32.847  26.860  21.985  1.00  0.00     0.346 HD
ATOM     17  H   UNL A   1      31.188  26.579  21.655  1.00  0.00     0.346 HD
BRANCH  15  18
ATOM     18  C   UNL A   1      31.550  28.279  22.670  1.00  0.00     0.214 C 
ATOM     19  C   UNL A   1      32.165  28.604  24.043  1.00  0.00     0.081 C 
BRANCH  18  20
ATOM     20  C   UNL A   1      30.058  28.553  22.731  1.00  0.00     0.054 A 
ATOM     21  C   UNL A   1      29.238  27.688  23.478  1.00  0.00     0.053 A 
ATOM     22  C   UNL A   1      29.432  29.578  22.004  1.00  0.00     0.124 A 
ATOM     23  C   UNL A   1      27.856  27.868  23.500  1.00  0.00     0.123 A 
ATOM     24  C   UNL A   1      28.050  29.760  22.036  1.00  0.00     0.050 A 
ATOM     25  F   UNL A   1      27.096  27.017  24.203  1.00  0.00    -0.207 F 
ATOM     26  C   UNL A   1      27.256  28.900  22.792  1.00  0.00     0.043 A 
BRANCH  22  27
ATOM     27  O   UNL A   1      30.148  30.443  21.223  1.00  0.00    -0.507 OA
ATOM     28  H   UNL A   1      31.082  30.478  21.297  1.00  0.00     0.293 HD
ENDBRANCH  22  27
ENDBRANCH  18  20
ENDBRANCH  15  18
ENDBRANCH  14  15
ENDBRANCH  10  14
ENDBRANCH   7   9
ENDBRANCH   6   7
ENDBRANCH   5   6
ENDBRANCH   4   5
ENDBRANCH   3   4
ENDBRANCH   2   3
ENDBRANCH   1   2
BRANCH   1  29
ATOM     29  O   UNL A   1      38.806  20.999  25.636  1.00  0.00    -0.377 OA
BRANCH  29  30
ATOM     30  C   UNL A   1      39.580  21.900  26.402  1.00  0.00     0.188 C 
BRANCH  30  31
ATOM     31  C   UNL A   1      40.527  21.269  27.438  1.00  0.00     0.188 C 
BRANCH  31  32
ATOM     32  O   UNL A   1      41.847  21.810  27.420  1.00  0.00    -0.376 OA
BRANCH  32  33
ATOM     33  C   UNL A   1      42.705  21.518  26.328  1.00  0.00     0.202 C 
BRANCH  33  34
ATOM     34  C   UNL A   1      43.120  22.671  25.397  1.00  0.00     0.261 C 
BRANCH  34  35
ATOM     35  O   UNL A   1      42.366  23.885  25.497  1.00  0.00    -0.460 OA
BRANCH  35  36
ATOM     36  C   UNL A   1      43.059  25.045  25.507  1.00  0.00     0.338 C 
ATOM     37  O   UNL A   1      43.884  25.402  24.682  1.00  0.00    -0.246 OA
BRANCH  36  38
ATOM     38  C   UNL A   1      42.478  25.916  26.552  1.00  0.00     0.060 A 
ATOM     39  C   UNL A   1      42.810  27.279  26.543  1.00  0.00     0.016 A 
ATOM     40  C   UNL A   1      41.583  25.414  27.500  1.00  0.00     0.016 A 
ATOM     41  C   UNL A   1      42.272  28.138  27.499  1.00  0.00     0.010 A 
ATOM     42  C   UNL A   1      41.074  26.270  28.483  1.00  0.00     0.010 A 
ATOM     43  C   UNL A   1      41.445  27.626  28.506  1.00  0.00    -0.014 A 
BRANCH  43  44
ATOM     44  C   UNL A   1      41.181  28.452  29.708  1.00  0.00     0.031 A 
ATOM     45  C   UNL A   1      42.085  28.266  30.896  1.00  0.00     0.074 A 
ATOM     46  C   UNL A   1      40.202  29.374  29.735  1.00  0.00     0.049 A 
ATOM     47  N   UNL A   1      42.062  28.855  32.062  1.00  0.00    -0.248 NA
ATOM     48  C   UNL A   1      43.166  27.278  30.741  1.00  0.00     0.031 C 
ATOM     49  C   UNL A   1      39.306  29.691  28.625  1.00  0.00     0.029 A 
ATOM     50  N   UNL A   1      39.803  30.215  30.744  1.00  0.00    -0.354 N 
ATOM     51  C   UNL A   1      43.116  28.304  32.782  1.00  0.00     0.074 A 
ATOM     52  C   UNL A   1      43.738  27.313  31.933  1.00  0.00     0.031 C 
ATOM     53  C   UNL A   1      38.459  30.660  29.015  1.00  0.00     0.029 A 
ATOM     54  C   UNL A   1      38.731  31.006  30.411  1.00  0.00     0.049 A 
ATOM     55  H   UNL A   1      40.244  30.247  31.622  1.00  0.00     0.167 HD
ATOM     56  C   UNL A   1      43.532  28.600  34.037  1.00  0.00     0.037 A 
ATOM     57  C   UNL A   1      38.041  31.893  31.156  1.00  0.00     0.037 A 
ATOM     58  C   UNL A   1      42.895  29.576  34.881  1.00  0.00     0.049 A 
ATOM     59  C   UNL A   1      38.456  32.134  32.586  1.00  0.00     0.074 A 
ATOM     60  C   UNL A   1      43.239  29.961  36.163  1.00  0.00     0.029 A 
ATOM     61  N   UNL A   1      41.768  30.309  34.531  1.00  0.00    -0.354 N 
ATOM     62  N   UNL A   1      39.466  31.623  33.252  1.00  0.00    -0.248 NA
ATOM     63  C   UNL A   1      37.635  33.070  33.368  1.00  0.00     0.031 C 
ATOM     64  C   UNL A   1      42.283  30.878  36.614  1.00  0.00     0.029 A 
ATOM     65  C   UNL A   1      41.383  31.117  35.588  1.00  0.00     0.049 A 
ATOM     66  H   UNL A   1      41.311  30.261  33.661  1.00  0.00     0.167 HD
ATOM     67  C   UNL A   1      39.424  32.204  34.517  1.00  0.00     0.074 A 
ATOM     68  C   UNL A   1      38.289  33.106  34.521  1.00  0.00     0.031 C 
ATOM     69  C   UNL A   1      40.252  32.015  35.575  1.00  0.00     0.037 A 
BRANCH  56  70
ATOM     70  C   UNL A   1      44.694  27.815  34.579  1.00  0.00     0.058 A 
ATOM     71  C   UNL A   1      46.026  28.212  34.371  1.00  0.00     0.135 A 
ATOM     72  C   UNL A   1      44.473  26.631  35.303  1.00  0.00     0.135 A 
ATOM     73  F   UNL A   1      46.299  29.324  33.670  1.00  0.00    -0.206 F 
ATOM     74  C   UNL A   1      47.094  27.440  34.817  1.00  0.00     0.059 A 
ATOM     75  C   UNL A   1      45.525  25.861  35.788  1.00  0.00     0.059 A 
ATOM     76  F   UNL A   1      43.221  26.202  35.530  1.00  0.00    -0.206 F 
ATOM     77  C   UNL A   1      46.833  26.262  35.519  1.00  0.00     0.060 A 
BRANCH  77  78
ATOM     78  S   UNL A   1      48.228  25.252  36.060  1.00  0.00     0.124 S 
ATOM     79  O   UNL A   1      49.345  26.170  35.860  1.00  0.00    -0.237 OA
ATOM     80  O   UNL A   1      47.885  24.964  37.448  1.00  0.00    -0.237 OA
ATOM     81  O   UNL A   1      48.189  24.107  35.156  1.00  0.00    -0.744 OA
ENDBRANCH  77  78
ENDBRANCH  56  70
BRANCH  57  82
ATOM     82  C   UNL A   1      36.894  32.632  30.563  1.00  0.00     0.058 A 
ATOM     83  C   UNL A   1      35.572  32.263  30.852  1.00  0.00     0.135 A 
ATOM     84  C   UNL A   1      37.091  33.724  29.702  1.00  0.00     0.135 A 
ATOM     85  F   UNL A   1      35.330  31.216  31.655  1.00  0.00    -0.206 F 
ATOM     86  C   UNL A   1      34.487  32.945  30.310  1.00  0.00     0.059 A 
ATOM     87  C   UNL A   1      36.024  34.439  29.168  1.00  0.00     0.059 A 
ATOM     88  F   UNL A   1      38.336  34.121  29.394  1.00  0.00    -0.206 F 
ATOM     89  C   UNL A   1      34.724  34.039  29.475  1.00  0.00     0.060 A 
BRANCH  89  90
ATOM     90  S   UNL A   1      33.307  34.957  28.834  1.00  0.00     0.124 S 
ATOM     91  O   UNL A   1      33.954  36.121  28.239  1.00  0.00    -0.237 OA
ATOM     92  O   UNL A   1      32.725  34.001  27.898  1.00  0.00    -0.237 OA
ATOM     93  O   UNL A   1      32.509  35.220  30.028  1.00  0.00    -0.744 OA
ENDBRANCH  89  90
ENDBRANCH  57  82
BRANCH  69  94
ATOM     94  C   UNL A   1      39.996  32.828  36.817  1.00  0.00     0.058 A 
ATOM     95  C   UNL A   1      39.111  32.398  37.820  1.00  0.00     0.135 A 
ATOM     96  C   UNL A   1      40.693  34.028  37.034  1.00  0.00     0.135 A 
ATOM     97  F   UNL A   1      38.414  31.262  37.664  1.00  0.00    -0.206 F 
ATOM     98  C   UNL A   1      38.910  33.141  38.979  1.00  0.00     0.059 A 
ATOM     99  C   UNL A   1      40.532  34.770  38.200  1.00  0.00     0.059 A 
ATOM    100  F   UNL A   1      41.561  34.481  36.115  1.00  0.00    -0.206 F 
ATOM    101  C   UNL A   1      39.629  34.324  39.162  1.00  0.00     0.060 A 
BRANCH 101 102
ATOM    102  S   UNL A   1      39.384  35.258  40.688  1.00  0.00     0.124 S 
ATOM    103  O   UNL A   1      37.936  35.179  40.853  1.00  0.00    -0.237 OA
ATOM    104  O   UNL A   1      40.175  34.497  41.649  1.00  0.00    -0.237 OA
ATOM    105  O   UNL A   1      39.907  36.583  40.363  1.00  0.00    -0.744 OA
ENDBRANCH 101 102
ENDBRANCH  69  94
ENDBRANCH  43  44
ENDBRANCH  36  38
ENDBRANCH  35  36
ENDBRANCH  34  35
ENDBRANCH  33  34
ENDBRANCH  32  33
ENDBRANCH  31  32
ENDBRANCH  30  31
ENDBRANCH  29  30
ENDBRANCH   1  29
TORSDOF 28
ENDMDL
MODEL 3
REMARK VINA RESULT:      -9.3      1.502      2.365
REMARK SMILES C[C@@H]([NH2+]C[C@H]1CCC[C@@H]1C(=O)OCCOCCOCCOCCOC(=O)c1ccc(-c2c3nc(c(-c4c(F)cc(S(=O)(=O)[O-])cc4F)c4ccc([nH]4)c(-c4c(F)cc(S(=O)(=O)[O-])cc4F)c4nc(c(-c5c(F)cc(S(=O)(=O)[O-])cc5F)c5ccc2[nH]5)C=C4)C=C3)cc1)c1cc(F)ccc1O
REMARK SMILES IDX 17 1 16 2 15 3 14 4 13 5 12 6 10 7 11 8 9 9 5 10 6 11 7 12
REMARK SMILES IDX 8 13 4 14 3 15 2 18 1 19 93 20 94 21 99 22 95 23 98 24 96 25
REMARK SMILES IDX 97 26 100 27 18 29 19 30 20 31 21 32 22 33 23 34 24 35 25 36
REMARK SMILES IDX 26 37 27 38 28 39 92 40 29 41 91 42 30 43 31 44 32 45 85 46
REMARK SMILES IDX 33 47 90 48 84 49 86 50 34 51 89 52 83 53 82 54 35 56 69 57
REMARK SMILES IDX 48 58 68 59 49 60 52 61 67 62 87 63 50 64 51 65 66 67 88 68
REMARK SMILES IDX 53 69 36 70 37 71 46 72 38 73 39 74 45 75 47 76 40 77 41 78
REMARK SMILES IDX 42 79 43 80 44 81 70 82 71 83 80 84 72 85 73 86 79 87 81 88
REMARK SMILES IDX 74 89 75 90 76 91 77 92 78 93 54 94 55 95 64 96 56 97 57 98
REMARK SMILES IDX 63 99 65 100 58 101 59 102 60 103 61 104 62 105
REMARK H PARENT 3 16 3 17 100 28 86 55 52 66
REMARK Flexibility Score: inf
ROOT
ATOM      1  C   UNL A   1      38.123  22.427  25.775  1.00  0.00     0.188 C 
ENDROOT
BRANCH   1   2
ATOM      2  C   UNL A   1      36.738  21.759  25.722  1.00  0.00     0.188 C 
BRANCH   2   3
ATOM      3  O   UNL A   1      36.457  20.788  24.728  1.00  0.00    -0.376 OA
BRANCH   3   4
ATOM      4  C   UNL A   1      35.483  19.794  25.001  1.00  0.00     0.202 C 
BRANCH   4   5
ATOM      5  C   UNL A   1      33.991  19.986  24.626  1.00  0.00     0.261 C 
BRANCH   5   6
ATOM      6  O   UNL A   1      33.034  20.304  25.666  1.00  0.00    -0.463 OA
BRANCH   6   7
ATOM      7  C   UNL A   1      33.308  21.397  26.422  1.00  0.00     0.309 C 
ATOM      8  O   UNL A   1      33.810  21.327  27.540  1.00  0.00    -0.252 OA
BRANCH   7   9
ATOM      9  C   UNL A   1      32.855  22.736  25.788  1.00  0.00     0.108 C 
ATOM     10  C   UNL A   1      32.274  23.863  26.688  1.00  0.00     0.058 C 
ATOM     11  C   UNL A   1      30.827  23.419  26.945  1.00  0.00     0.010 C 
ATOM     12  C   UNL A   1      30.431  22.537  25.771  1.00  0.00     0.001 C 
ATOM     13  C   UNL A   1      31.658  22.444  24.869  1.00  0.00     0.016 C 
BRANCH  10  14
ATOM     14  C   UNL A   1      32.358  25.281  26.061  1.00  0.00     0.265 C 
BRANCH  14  15
ATOM     15  N   UNL A   1      31.778  26.404  26.832  1.00  0.00    -0.340 N 
ATOM     16  H   UNL A   1      30.767  26.381  26.700  1.00  0.00     0.346 HD
ATOM     17  H   UNL A   1      32.080  26.260  27.796  1.00  0.00     0.346 HD
BRANCH  15  18
ATOM     18  C   UNL A   1      32.252  27.763  26.468  1.00  0.00     0.214 C 
ATOM     19  C   UNL A   1      31.611  28.768  27.443  1.00  0.00     0.081 C 
BRANCH  18  20
ATOM     20  C   UNL A   1      31.903  28.176  25.050  1.00  0.00     0.054 A 
ATOM     21  C   UNL A   1      30.586  27.996  24.594  1.00  0.00     0.053 A 
ATOM     22  C   UNL A   1      32.853  28.648  24.129  1.00  0.00     0.124 A 
ATOM     23  C   UNL A   1      30.246  28.298  23.276  1.00  0.00     0.123 A 
ATOM     24  C   UNL A   1      32.507  28.958  22.815  1.00  0.00     0.050 A 
ATOM     25  F   UNL A   1      28.987  28.098  22.861  1.00  0.00    -0.207 F 
ATOM     26  C   UNL A   1      31.193  28.784  22.386  1.00  0.00     0.043 A 
BRANCH  22  27
ATOM     27  O   UNL A   1      34.164  28.820  24.477  1.00  0.00    -0.507 OA
ATOM     28  H   UNL A   1      34.634  28.123  24.893  1.00  0.00     0.293 HD
ENDBRANCH  22  27
ENDBRANCH  18  20
ENDBRANCH  15  18
ENDBRANCH  14  15
ENDBRANCH  10  14
ENDBRANCH   7   9
ENDBRANCH   6   7
ENDBRANCH   5   6
ENDBRANCH   4   5
ENDBRANCH   3   4
ENDBRANCH   2   3
ENDBRANCH   1   2
BRANCH   1  29
ATOM     29  O   UNL A   1      39.201  21.536  25.947  1.00  0.00    -0.377 OA
BRANCH  29  30
ATOM     30  C   UNL A   1      40.192  21.955  26.863  1.00  0.00     0.188 C 
BRANCH  30  31
ATOM     31  C   UNL A   1      41.278  20.919  27.208  1.00  0.00     0.188 C 
BRANCH  31  32
ATOM     32  O   UNL A   1      42.609  21.377  26.973  1.00  0.00    -0.376 OA
BRANCH  32  33
ATOM     33  C   UNL A   1      42.987  21.779  25.666  1.00  0.00     0.202 C 
BRANCH  33  34
ATOM     34  C   UNL A   1      42.961  23.281  25.330  1.00  0.00     0.261 C 
BRANCH  34  35
ATOM     35  O   UNL A   1      42.753  24.184  26.422  1.00  0.00    -0.460 OA
BRANCH  35  36
ATOM     36  C   UNL A   1      42.142  25.358  26.148  1.00  0.00     0.338 C 
ATOM     37  O   UNL A   1      41.563  25.647  25.113  1.00  0.00    -0.246 OA
BRANCH  36  38
ATOM     38  C   UNL A   1      42.083  26.146  27.398  1.00  0.00     0.060 A 
ATOM     39  C   UNL A   1      41.136  25.786  28.368  1.00  0.00     0.016 A 
ATOM     40  C   UNL A   1      42.975  27.194  27.638  1.00  0.00     0.016 A 
ATOM     41  C   UNL A   1      41.058  26.490  29.567  1.00  0.00     0.010 A 
ATOM     42  C   UNL A   1      42.869  27.926  28.825  1.00  0.00     0.010 A 
ATOM     43  C   UNL A   1      41.887  27.599  29.777  1.00  0.00    -0.014 A 
BRANCH  43  44
ATOM     44  C   UNL A   1      41.555  28.549  30.865  1.00  0.00     0.031 A 
ATOM     45  C   UNL A   1      42.411  28.522  32.102  1.00  0.00     0.074 A 
ATOM     46  C   UNL A   1      40.557  29.442  30.747  1.00  0.00     0.049 A 
ATOM     47  N   UNL A   1      42.324  29.237  33.192  1.00  0.00    -0.248 NA
ATOM     48  C   UNL A   1      43.517  27.550  32.106  1.00  0.00     0.031 C 
ATOM     49  C   UNL A   1      39.704  29.610  29.572  1.00  0.00     0.029 A 
ATOM     50  N   UNL A   1      40.098  30.382  31.636  1.00  0.00    -0.354 N 
ATOM     51  C   UNL A   1      43.358  28.798  34.013  1.00  0.00     0.074 A 
ATOM     52  C   UNL A   1      44.036  27.734  33.308  1.00  0.00     0.031 C 
ATOM     53  C   UNL A   1      38.821  30.595  29.814  1.00  0.00     0.029 A 
ATOM     54  C   UNL A   1      39.025  31.103  31.171  1.00  0.00     0.049 A 
ATOM     55  H   UNL A   1      40.500  30.525  32.522  1.00  0.00     0.167 HD
ATOM     56  C   UNL A   1      43.712  29.245  35.241  1.00  0.00     0.037 A 
ATOM     57  C   UNL A   1      38.285  32.051  31.782  1.00  0.00     0.037 A 
ATOM     58  C   UNL A   1      43.019  30.294  35.941  1.00  0.00     0.049 A 
ATOM     59  C   UNL A   1      38.633  32.462  33.191  1.00  0.00     0.074 A 
ATOM     60  C   UNL A   1      43.299  30.830  37.184  1.00  0.00     0.029 A 
ATOM     61  N   UNL A   1      41.894  30.954  35.465  1.00  0.00    -0.354 N 
ATOM     62  N   UNL A   1      39.623  32.056  33.952  1.00  0.00    -0.248 NA
ATOM     63  C   UNL A   1      37.760  33.460  33.826  1.00  0.00     0.031 C 
ATOM     64  C   UNL A   1      42.306  31.768  37.488  1.00  0.00     0.029 A 
ATOM     65  C   UNL A   1      41.447  31.866  36.405  1.00  0.00     0.049 A 
ATOM     66  H   UNL A   1      41.476  30.796  34.588  1.00  0.00     0.167 HD
ATOM     67  C   UNL A   1      39.514  32.775  35.139  1.00  0.00     0.074 A 
ATOM     68  C   UNL A   1      38.362  33.643  34.993  1.00  0.00     0.031 C 
ATOM     69  C   UNL A   1      40.300  32.728  36.244  1.00  0.00     0.037 A 
BRANCH  56  70
ATOM     70  C   UNL A   1      44.866  28.556  35.916  1.00  0.00     0.058 A 
ATOM     71  C   UNL A   1      46.198  28.956  35.713  1.00  0.00     0.135 A 
ATOM     72  C   UNL A   1      44.637  27.461  36.766  1.00  0.00     0.135 A 
ATOM     73  F   UNL A   1      46.478  29.983  34.896  1.00  0.00    -0.206 F 
ATOM     74  C   UNL A   1      47.261  28.266  36.288  1.00  0.00     0.059 A 
ATOM     75  C   UNL A   1      45.683  26.778  37.379  1.00  0.00     0.059 A 
ATOM     76  F   UNL A   1      43.385  27.033  36.995  1.00  0.00    -0.206 F 
ATOM     77  C   UNL A   1      46.992  27.173  37.114  1.00  0.00     0.060 A 
BRANCH  77  78
ATOM     78  S   UNL A   1      48.383  26.266  37.823  1.00  0.00     0.124 S 
ATOM     79  O   UNL A   1      49.516  26.909  37.164  1.00  0.00    -0.237 OA
ATOM     80  O   UNL A   1      48.240  26.542  39.249  1.00  0.00    -0.237 OA
ATOM     81  O   UNL A   1      48.127  24.886  37.425  1.00  0.00    -0.744 OA
ENDBRANCH  77  78
ENDBRANCH  56  70
BRANCH  57  82
ATOM     82  C   UNL A   1      37.150  32.689  31.062  1.00  0.00     0.058 A 
ATOM     83  C   UNL A   1      35.849  32.177  31.171  1.00  0.00     0.135 A 
ATOM     84  C   UNL A   1      37.338  33.824  30.256  1.00  0.00     0.135 A 
ATOM     85  F   UNL A   1      35.620  31.084  31.914  1.00  0.00    -0.206 F 
ATOM     86  C   UNL A   1      34.775  32.763  30.508  1.00  0.00     0.059 A 
ATOM     87  C   UNL A   1      36.276  34.444  29.605  1.00  0.00     0.059 A 
ATOM     88  F   UNL A   1      38.562  34.357  30.119  1.00  0.00    -0.206 F 
ATOM     89  C   UNL A   1      34.998  33.903  29.733  1.00  0.00     0.060 A 
BRANCH  89  90
ATOM     90  S   UNL A   1      33.583  34.693  28.935  1.00  0.00     0.124 S 
ATOM     91  O   UNL A   1      32.719  34.973  30.076  1.00  0.00    -0.237 OA
ATOM     92  O   UNL A   1      34.202  35.853  28.303  1.00  0.00    -0.237 OA
ATOM     93  O   UNL A   1      33.101  33.668  28.014  1.00  0.00    -0.744 OA
ENDBRANCH  89  90
ENDBRANCH  57  82
BRANCH  69  94
ATOM     94  C   UNL A   1      39.973  33.669  37.374  1.00  0.00     0.058 A 
ATOM     95  C   UNL A   1      40.549  34.946  37.471  1.00  0.00     0.135 A 
ATOM     96  C   UNL A   1      39.021  33.308  38.343  1.00  0.00     0.135 A 
ATOM     97  F   UNL A   1      41.469  35.341  36.578  1.00  0.00    -0.206 F 
ATOM     98  C   UNL A   1      40.213  35.819  38.501  1.00  0.00     0.059 A 
ATOM     99  C   UNL A   1      38.645  34.178  39.361  1.00  0.00     0.059 A 
ATOM    100  F   UNL A   1      38.428  32.104  38.293  1.00  0.00    -0.206 F 
ATOM    101  C   UNL A   1      39.255  35.428  39.439  1.00  0.00     0.060 A 
BRANCH 101 102
ATOM    102  S   UNL A   1      38.801  36.586  40.748  1.00  0.00     0.124 S 
ATOM    103  O   UNL A   1      38.320  37.728  39.976  1.00  0.00    -0.237 OA
ATOM    104  O   UNL A   1      37.783  35.843  41.483  1.00  0.00    -0.237 OA
ATOM    105  O   UNL A   1      40.056  36.798  41.465  1.00  0.00    -0.744 OA
ENDBRANCH 101 102
ENDBRANCH  69  94
ENDBRANCH  43  44
ENDBRANCH  36  38
ENDBRANCH  35  36
ENDBRANCH  34  35
ENDBRANCH  33  34
ENDBRANCH  32  33
ENDBRANCH  31  32
ENDBRANCH  30  31
ENDBRANCH  29  30
ENDBRANCH   1  29
TORSDOF 28
ENDMDL
