MODEL 1
REMARK VINA RESULT:      -9.9      0.000      0.000
REMARK SMILES O=C(OCCOCCOCCOCCOC(=O)c1cc(NC(=S)NC(=O)c2ccccc2F)ccc1Cl)c1ccc(-c2c3nc(c(-c4c(F)cc(S(=O)(=O)[O-])cc4F)c4ccc([nH]4)c(-c4c(F)cc(S(=O)(=O)[O-])cc4F)c4nc(c(-c5c(F)cc(S(=O)(=O)[O-])cc5F)c5ccc2[nH]5)C=C4)C=C3)cc1
REMARK SMILES IDX 10 1 9 2 8 3 7 4 6 5 5 6 4 7 3 8 2 9 1 10 38 11 39 12 103 13
REMARK SMILES IDX 40 14 102 15 41 16 42 17 43 18 96 19 44 20 101 21 95 22
REMARK SMILES IDX 97 23 45 24 100 25 94 26 93 27 46 29 80 30 59 31 79 32 60 33
REMARK SMILES IDX 63 34 78 35 98 36 61 37 62 38 77 40 99 41 64 42 47 43 48 44
REMARK SMILES IDX 57 45 49 46 50 47 56 48 58 49 51 50 52 51 53 52 54 53 55 54
REMARK SMILES IDX 81 55 82 56 91 57 83 58 84 59 90 60 92 61 85 62 86 63 87 64
REMARK SMILES IDX 88 65 89 66 65 67 66 68 75 69 67 70 68 71 74 72 76 73 69 74
REMARK SMILES IDX 70 75 71 76 72 77 73 78 11 79 12 80 13 81 14 82 15 83 16 84
REMARK SMILES IDX 17 85 18 86 19 87 36 88 20 89 35 90 37 91 34 92 21 93 22 95
REMARK SMILES IDX 23 96 24 97 25 98 26 100 27 101 28 102 32 103 29 104 31 105
REMARK SMILES IDX 33 106 30 107
REMARK H PARENT 97 28 63 39 21 94 24 99
REMARK Flexibility Score: inf
ROOT
ATOM      1  C   UNL A   1      34.063  27.227  26.307  1.00  0.00     0.188 C 
ENDROOT
BRANCH   1   2
ATOM      2  O   UNL A   1      34.457  28.594  26.228  1.00  0.00    -0.377 OA
BRANCH   2   3
ATOM      3  C   UNL A   1      34.127  29.387  27.363  1.00  0.00     0.188 C 
BRANCH   3   4
ATOM      4  C   UNL A   1      33.144  30.507  27.044  1.00  0.00     0.188 C 
BRANCH   4   5
ATOM      5  O   UNL A   1      33.560  31.726  27.666  1.00  0.00    -0.376 OA
BRANCH   5   6
ATOM      6  C   UNL A   1      34.907  31.746  28.138  1.00  0.00     0.202 C 
BRANCH   6   7
ATOM      7  C   UNL A   1      35.044  32.327  29.542  1.00  0.00     0.261 C 
BRANCH   7   8
ATOM      8  O   UNL A   1      35.767  31.456  30.420  1.00  0.00    -0.460 OA
BRANCH   8   9
ATOM      9  C   UNL A   1      37.019  31.627  30.920  1.00  0.00     0.338 C 
ATOM     10  O   UNL A   1      37.158  32.450  31.827  1.00  0.00    -0.246 OA
BRANCH   9  11
ATOM     11  C   UNL A   1      38.245  30.891  30.454  1.00  0.00     0.060 A 
ATOM     12  C   UNL A   1      39.279  30.405  31.259  1.00  0.00     0.016 A 
ATOM     13  C   UNL A   1      38.329  30.635  29.073  1.00  0.00     0.016 A 
ATOM     14  C   UNL A   1      40.371  29.733  30.730  1.00  0.00     0.010 A 
ATOM     15  C   UNL A   1      39.428  29.966  28.523  1.00  0.00     0.010 A 
ATOM     16  C   UNL A   1      40.465  29.542  29.358  1.00  0.00    -0.014 A 
BRANCH  16  17
ATOM     17  C   UNL A   1      41.768  29.109  28.832  1.00  0.00     0.031 A 
ATOM     18  C   UNL A   1      42.879  30.114  28.860  1.00  0.00     0.074 A 
ATOM     19  C   UNL A   1      41.976  27.818  28.522  1.00  0.00     0.049 A 
ATOM     20  N   UNL A   1      44.098  30.013  28.412  1.00  0.00    -0.248 NA
ATOM     21  C   UNL A   1      42.583  31.410  29.505  1.00  0.00     0.031 C 
ATOM     22  C   UNL A   1      40.979  26.750  28.645  1.00  0.00     0.029 A 
ATOM     23  N   UNL A   1      43.098  27.176  28.073  1.00  0.00    -0.354 N 
ATOM     24  C   UNL A   1      44.701  31.232  28.693  1.00  0.00     0.074 A 
ATOM     25  C   UNL A   1      43.725  32.062  29.355  1.00  0.00     0.031 C 
ATOM     26  C   UNL A   1      41.541  25.583  28.286  1.00  0.00     0.029 A 
ATOM     27  C   UNL A   1      42.908  25.834  27.841  1.00  0.00     0.049 A 
ATOM     28  H   UNL A   1      43.959  27.632  27.930  1.00  0.00     0.167 HD
ATOM     29  C   UNL A   1      45.964  31.614  28.408  1.00  0.00     0.037 A 
ATOM     30  C   UNL A   1      43.742  24.933  27.287  1.00  0.00     0.037 A 
ATOM     31  C   UNL A   1      46.904  30.748  27.755  1.00  0.00     0.049 A 
ATOM     32  C   UNL A   1      45.103  25.420  26.860  1.00  0.00     0.074 A 
ATOM     33  C   UNL A   1      48.188  31.029  27.330  1.00  0.00     0.029 A 
ATOM     34  N   UNL A   1      46.651  29.418  27.439  1.00  0.00    -0.354 N 
ATOM     35  N   UNL A   1      45.642  26.607  27.031  1.00  0.00    -0.248 NA
ATOM     36  C   UNL A   1      45.961  24.467  26.146  1.00  0.00     0.031 C 
ATOM     37  C   UNL A   1      48.694  29.879  26.716  1.00  0.00     0.029 A 
ATOM     38  C   UNL A   1      47.748  28.868  26.807  1.00  0.00     0.049 A 
ATOM     39  H   UNL A   1      45.814  28.939  27.639  1.00  0.00     0.167 HD
ATOM     40  C   UNL A   1      46.903  26.542  26.453  1.00  0.00     0.074 A 
ATOM     41  C   UNL A   1      47.056  25.191  25.948  1.00  0.00     0.031 C 
ATOM     42  C   UNL A   1      47.849  27.507  26.336  1.00  0.00     0.037 A 
BRANCH  29  43
ATOM     43  C   UNL A   1      46.365  33.023  28.734  1.00  0.00     0.058 A 
ATOM     44  C   UNL A   1      46.932  33.321  29.982  1.00  0.00     0.135 A 
ATOM     45  C   UNL A   1      46.172  34.081  27.833  1.00  0.00     0.135 A 
ATOM     46  F   UNL A   1      47.168  32.341  30.870  1.00  0.00    -0.206 F 
ATOM     47  C   UNL A   1      47.264  34.623  30.340  1.00  0.00     0.059 A 
ATOM     48  C   UNL A   1      46.515  35.391  28.162  1.00  0.00     0.059 A 
ATOM     49  F   UNL A   1      45.676  33.844  26.607  1.00  0.00    -0.206 F 
ATOM     50  C   UNL A   1      47.044  35.654  29.426  1.00  0.00     0.060 A 
BRANCH  50  51
ATOM     51  S   UNL A   1      47.477  37.337  29.911  1.00  0.00     0.124 S 
ATOM     52  O   UNL A   1      48.114  37.845  28.701  1.00  0.00    -0.237 OA
ATOM     53  O   UNL A   1      46.172  37.909  30.232  1.00  0.00    -0.237 OA
ATOM     54  O   UNL A   1      48.364  37.144  31.055  1.00  0.00    -0.744 OA
ENDBRANCH  50  51
ENDBRANCH  29  43
BRANCH  30  55
ATOM     55  C   UNL A   1      43.292  23.534  27.035  1.00  0.00     0.058 A 
ATOM     56  C   UNL A   1      42.901  23.120  25.750  1.00  0.00     0.135 A 
ATOM     57  C   UNL A   1      43.249  22.577  28.060  1.00  0.00     0.135 A 
ATOM     58  F   UNL A   1      42.924  23.987  24.726  1.00  0.00    -0.206 F 
ATOM     59  C   UNL A   1      42.468  21.823  25.495  1.00  0.00     0.059 A 
ATOM     60  C   UNL A   1      42.846  21.263  27.824  1.00  0.00     0.059 A 
ATOM     61  F   UNL A   1      43.624  22.912  29.305  1.00  0.00    -0.206 F 
ATOM     62  C   UNL A   1      42.447  20.899  26.538  1.00  0.00     0.060 A 
BRANCH  62  63
ATOM     63  S   UNL A   1      41.919  19.211  26.172  1.00  0.00     0.124 S 
ATOM     64  O   UNL A   1      42.733  18.895  25.003  1.00  0.00    -0.237 OA
ATOM     65  O   UNL A   1      42.273  18.507  27.401  1.00  0.00    -0.237 OA
ATOM     66  O   UNL A   1      40.489  19.350  25.922  1.00  0.00    -0.744 OA
ENDBRANCH  62  63
ENDBRANCH  30  55
BRANCH  42  67
ATOM     67  C   UNL A   1      49.131  27.133  25.656  1.00  0.00     0.058 A 
ATOM     68  C   UNL A   1      50.231  26.704  26.413  1.00  0.00     0.135 A 
ATOM     69  C   UNL A   1      49.301  27.313  24.276  1.00  0.00     0.135 A 
ATOM     70  F   UNL A   1      50.115  26.527  27.739  1.00  0.00    -0.206 F 
ATOM     71  C   UNL A   1      51.471  26.494  25.827  1.00  0.00     0.059 A 
ATOM     72  C   UNL A   1      50.527  27.081  23.664  1.00  0.00     0.059 A 
ATOM     73  F   UNL A   1      48.272  27.714  23.514  1.00  0.00    -0.206 F 
ATOM     74  C   UNL A   1      51.611  26.693  24.452  1.00  0.00     0.060 A 
BRANCH  74  75
ATOM     75  S   UNL A   1      53.234  26.429  23.710  1.00  0.00     0.124 S 
ATOM     76  O   UNL A   1      53.896  27.700  23.984  1.00  0.00    -0.237 OA
ATOM     77  O   UNL A   1      53.730  25.279  24.459  1.00  0.00    -0.237 OA
ATOM     78  O   UNL A   1      52.926  26.170  22.307  1.00  0.00    -0.744 OA
ENDBRANCH  74  75
ENDBRANCH  42  67
ENDBRANCH  16  17
ENDBRANCH   9  11
ENDBRANCH   8   9
ENDBRANCH   7   8
ENDBRANCH   6   7
ENDBRANCH   5   6
ENDBRANCH   4   5
ENDBRANCH   3   4
ENDBRANCH   2   3
ENDBRANCH   1   2
BRANCH   1  79
ATOM     79  C   UNL A   1      34.499  26.264  25.180  1.00  0.00     0.188 C 
BRANCH  79  80
ATOM     80  O   UNL A   1      34.595  24.924  25.634  1.00  0.00    -0.376 OA
BRANCH  80  81
ATOM     81  C   UNL A   1      35.257  24.018  24.765  1.00  0.00     0.202 C 
BRANCH  81  82
ATOM     82  C   UNL A   1      35.832  22.724  25.370  1.00  0.00     0.261 C 
BRANCH  82  83
ATOM     83  O   UNL A   1      35.598  21.554  24.555  1.00  0.00    -0.460 OA
BRANCH  83  84
ATOM     84  C   UNL A   1      34.734  20.569  24.922  1.00  0.00     0.339 C 
ATOM     85  O   UNL A   1      35.069  19.407  25.085  1.00  0.00    -0.246 OA
BRANCH  84  86
ATOM     86  C   UNL A   1      33.049  21.230  24.879  1.00  0.00     0.080 A 
ATOM     87  C   UNL A   1      32.226  22.720  26.047  1.00  0.00     0.043 A 
ATOM     88  C   UNL A   1      32.805  20.466  23.874  1.00  0.00     0.055 A 
ATOM     89  C   UNL A   1      31.354  23.566  26.531  1.00  0.00     0.041 A 
ATOM     90  C   UNL A   1      31.897  21.095  24.505  1.00  0.00     0.023 A 
ATOM     91  Cl  UNL A   1      32.889  18.827  23.484  1.00  0.00    -0.083 Cl
ATOM     92  C   UNL A   1      31.216  22.583  25.725  1.00  0.00     0.028 A 
BRANCH  89  93
ATOM     93  N   UNL A   1      31.392  24.940  26.258  1.00  0.00    -0.332 N 
ATOM     94  H   UNL A   1      32.314  25.262  26.143  1.00  0.00     0.169 HD
BRANCH  93  95
ATOM     95  C   UNL A   1      30.489  25.939  26.111  1.00  0.00     0.177 C 
ATOM     96  S   UNL A   1      30.894  27.422  26.789  1.00  0.00    -0.040 S 
BRANCH  95  97
ATOM     97  N   UNL A   1      29.333  25.881  25.375  1.00  0.00    -0.299 N 
ATOM     98  C   UNL A   1      28.803  26.444  24.212  1.00  0.00     0.260 C 
ATOM     99  H   UNL A   1      28.688  25.261  25.787  1.00  0.00     0.172 HD
ATOM    100  O   UNL A   1      27.602  26.624  24.069  1.00  0.00    -0.269 OA
BRANCH  98 101
ATOM    101  C   UNL A   1      29.761  26.872  23.180  1.00  0.00     0.075 A 
ATOM    102  C   UNL A   1      30.478  28.744  23.240  1.00  0.00     0.017 A 
ATOM    103  C   UNL A   1      30.972  25.424  22.622  1.00  0.00     0.135 A 
ATOM    104  C   UNL A   1      32.372  28.860  22.691  1.00  0.00     0.001 A 
ATOM    105  C   UNL A   1      32.872  25.539  22.115  1.00  0.00     0.040 A 
ATOM    106  F   UNL A   1      30.498  24.169  22.770  1.00  0.00    -0.206 F 
ATOM    107  C   UNL A   1      33.591  27.410  22.163  1.00  0.00     0.003 A 
ENDBRANCH  98 101
ENDBRANCH  95  97
ENDBRANCH  93  95
ENDBRANCH  89  93
ENDBRANCH  84  86
ENDBRANCH  83  84
ENDBRANCH  82  83
ENDBRANCH  81  82
ENDBRANCH  80  81
ENDBRANCH  79  80
ENDBRANCH   1  79
TORSDOF 27
ENDMDL
MODEL 2
REMARK VINA RESULT:      -9.5      4.015      6.672
REMARK SMILES O=C(OCCOCCOCCOCCOC(=O)c1cc(NC(=S)NC(=O)c2ccccc2F)ccc1Cl)c1ccc(-c2c3nc(c(-c4c(F)cc(S(=O)(=O)[O-])cc4F)c4ccc([nH]4)c(-c4c(F)cc(S(=O)(=O)[O-])cc4F)c4nc(c(-c5c(F)cc(S(=O)(=O)[O-])cc5F)c5ccc2[nH]5)C=C4)C=C3)cc1
REMARK SMILES IDX 10 1 9 2 8 3 7 4 6 5 5 6 4 7 3 8 2 9 1 10 38 11 39 12 103 13
REMARK SMILES IDX 40 14 102 15 41 16 42 17 43 18 96 19 44 20 101 21 95 22
REMARK SMILES IDX 97 23 45 24 100 25 94 26 93 27 46 29 80 30 59 31 79 32 60 33
REMARK SMILES IDX 63 34 78 35 98 36 61 37 62 38 77 40 99 41 64 42 47 43 48 44
REMARK SMILES IDX 57 45 49 46 50 47 56 48 58 49 51 50 52 51 53 52 54 53 55 54
REMARK SMILES IDX 81 55 82 56 91 57 83 58 84 59 90 60 92 61 85 62 86 63 87 64
REMARK SMILES IDX 88 65 89 66 65 67 66 68 75 69 67 70 68 71 74 72 76 73 69 74
REMARK SMILES IDX 70 75 71 76 72 77 73 78 11 79 12 80 13 81 14 82 15 83 16 84
REMARK SMILES IDX 17 85 18 86 19 87 36 88 20 89 35 90 37 91 34 92 21 93 22 95
REMARK SMILES IDX 23 96 24 97 25 98 26 100 27 101 28 102 32 103 29 104 31 105
REMARK SMILES IDX 33 106 30 107
REMARK H PARENT 97 28 63 39 21 94 24 99
REMARK Flexibility Score: inf
ROOT
ATOM      1  C   UNL A   1      31.601  29.119  25.485  1.00  0.00     0.188 C 
ENDROOT
BRANCH   1   2
ATOM      2  O   UNL A   1      32.719  29.996  25.596  1.00  0.00    -0.377 OA
BRANCH   2   3
ATOM      3  C   UNL A   1      33.055  30.386  26.923  1.00  0.00     0.188 C 
BRANCH   3   4
ATOM      4  C   UNL A   1      34.543  30.255  27.226  1.00  0.00     0.188 C 
BRANCH   4   5
ATOM      5  O   UNL A   1      34.996  31.375  27.991  1.00  0.00    -0.376 OA
BRANCH   5   6
ATOM      6  C   UNL A   1      34.085  32.471  28.073  1.00  0.00     0.202 C 
BRANCH   6   7
ATOM      7  C   UNL A   1      34.215  33.266  29.369  1.00  0.00     0.261 C 
BRANCH   7   8
ATOM      8  O   UNL A   1      34.179  32.422  30.526  1.00  0.00    -0.460 OA
BRANCH   8   9
ATOM      9  C   UNL A   1      34.979  32.477  31.624  1.00  0.00     0.338 C 
ATOM     10  O   UNL A   1      34.447  32.773  32.695  1.00  0.00    -0.246 OA
BRANCH   9  11
ATOM     11  C   UNL A   1      36.458  32.205  31.632  1.00  0.00     0.060 A 
ATOM     12  C   UNL A   1      37.381  32.653  32.582  1.00  0.00     0.016 A 
ATOM     13  C   UNL A   1      36.945  31.382  30.599  1.00  0.00     0.016 A 
ATOM     14  C   UNL A   1      38.730  32.343  32.501  1.00  0.00     0.010 A 
ATOM     15  C   UNL A   1      38.304  31.067  30.500  1.00  0.00     0.010 A 
ATOM     16  C   UNL A   1      39.201  31.578  31.442  1.00  0.00    -0.014 A 
BRANCH  16  17
ATOM     17  C   UNL A   1      40.656  31.543  31.239  1.00  0.00     0.031 A 
ATOM     18  C   UNL A   1      41.279  32.740  30.586  1.00  0.00     0.074 A 
ATOM     19  C   UNL A   1      41.391  30.561  31.789  1.00  0.00     0.049 A 
ATOM     20  N   UNL A   1      42.519  32.942  30.242  1.00  0.00    -0.248 NA
ATOM     21  C   UNL A   1      40.384  33.880  30.301  1.00  0.00     0.031 C 
ATOM     22  C   UNL A   1      40.858  29.458  32.594  1.00  0.00     0.029 A 
ATOM     23  N   UNL A   1      42.743  30.347  31.784  1.00  0.00    -0.354 N 
ATOM     24  C   UNL A   1      42.546  34.211  29.677  1.00  0.00     0.074 A 
ATOM     25  C   UNL A   1      41.207  34.742  29.725  1.00  0.00     0.031 C 
ATOM     26  C   UNL A   1      41.877  28.688  33.011  1.00  0.00     0.029 A 
ATOM     27  C   UNL A   1      43.120  29.202  32.444  1.00  0.00     0.049 A 
ATOM     28  H   UNL A   1      43.384  30.955  31.349  1.00  0.00     0.167 HD
ATOM     29  C   UNL A   1      43.610  34.862  29.159  1.00  0.00     0.037 A 
ATOM     30  C   UNL A   1      44.333  28.622  32.531  1.00  0.00     0.037 A 
ATOM     31  C   UNL A   1      44.929  34.296  29.142  1.00  0.00     0.049 A 
ATOM     32  C   UNL A   1      45.479  29.306  31.832  1.00  0.00     0.074 A 
ATOM     33  C   UNL A   1      46.081  34.805  28.577  1.00  0.00     0.029 A 
ATOM     34  N   UNL A   1      45.265  33.083  29.732  1.00  0.00    -0.354 N 
ATOM     35  N   UNL A   1      45.487  30.461  31.204  1.00  0.00    -0.248 NA
ATOM     36  C   UNL A   1      46.771  28.609  31.825  1.00  0.00     0.031 C 
ATOM     37  C   UNL A   1      47.105  33.876  28.786  1.00  0.00     0.029 A 
ATOM     38  C   UNL A   1      46.603  32.816  29.528  1.00  0.00     0.049 A 
ATOM     39  H   UNL A   1      44.641  32.502  30.224  1.00  0.00     0.167 HD
ATOM     40  C   UNL A   1      46.783  30.633  30.734  1.00  0.00     0.074 A 
ATOM     41  C   UNL A   1      47.537  29.474  31.170  1.00  0.00     0.031 C 
ATOM     42  C   UNL A   1      47.306  31.646  30.000  1.00  0.00     0.037 A 
BRANCH  29  43
ATOM     43  C   UNL A   1      43.375  36.200  28.521  1.00  0.00     0.058 A 
ATOM     44  C   UNL A   1      43.542  37.374  29.270  1.00  0.00     0.135 A 
ATOM     45  C   UNL A   1      42.965  36.328  27.185  1.00  0.00     0.135 A 
ATOM     46  F   UNL A   1      43.963  37.310  30.544  1.00  0.00    -0.206 F 
ATOM     47  C   UNL A   1      43.279  38.628  28.730  1.00  0.00     0.059 A 
ATOM     48  C   UNL A   1      42.716  37.575  26.616  1.00  0.00     0.059 A 
ATOM     49  F   UNL A   1      42.836  35.239  26.410  1.00  0.00    -0.206 F 
ATOM     50  C   UNL A   1      42.858  38.718  27.403  1.00  0.00     0.060 A 
BRANCH  50  51
ATOM     51  S   UNL A   1      42.518  40.354  26.720  1.00  0.00     0.124 S 
ATOM     52  O   UNL A   1      42.827  41.222  27.852  1.00  0.00    -0.237 OA
ATOM     53  O   UNL A   1      43.449  40.417  25.597  1.00  0.00    -0.237 OA
ATOM     54  O   UNL A   1      41.108  40.282  26.349  1.00  0.00    -0.744 OA
ENDBRANCH  50  51
ENDBRANCH  29  43
BRANCH  30  55
ATOM     55  C   UNL A   1      44.502  27.312  33.223  1.00  0.00     0.058 A 
ATOM     56  C   UNL A   1      44.344  26.100  32.528  1.00  0.00     0.135 A 
ATOM     57  C   UNL A   1      44.833  27.234  34.584  1.00  0.00     0.135 A 
ATOM     58  F   UNL A   1      44.031  26.108  31.223  1.00  0.00    -0.206 F 
ATOM     59  C   UNL A   1      44.486  24.868  33.156  1.00  0.00     0.059 A 
ATOM     60  C   UNL A   1      45.010  26.011  35.229  1.00  0.00     0.059 A 
ATOM     61  F   UNL A   1      45.011  28.358  35.295  1.00  0.00    -0.206 F 
ATOM     62  C   UNL A   1      44.824  24.832  34.508  1.00  0.00     0.060 A 
BRANCH  62  63
ATOM     63  S   UNL A   1      45.043  23.219  35.290  1.00  0.00     0.124 S 
ATOM     64  O   UNL A   1      45.586  23.595  36.592  1.00  0.00    -0.237 OA
ATOM     65  O   UNL A   1      43.682  22.694  35.296  1.00  0.00    -0.237 OA
ATOM     66  O   UNL A   1      45.973  22.534  34.398  1.00  0.00    -0.744 OA
ENDBRANCH  62  63
ENDBRANCH  30  55
BRANCH  42  67
ATOM     67  C   UNL A   1      48.758  31.554  29.641  1.00  0.00     0.058 A 
ATOM     68  C   UNL A   1      49.153  30.908  28.460  1.00  0.00     0.135 A 
ATOM     69  C   UNL A   1      49.755  32.001  30.521  1.00  0.00     0.135 A 
ATOM     70  F   UNL A   1      48.233  30.457  27.593  1.00  0.00    -0.206 F 
ATOM     71  C   UNL A   1      50.492  30.679  28.177  1.00  0.00     0.059 A 
ATOM     72  C   UNL A   1      51.103  31.808  30.243  1.00  0.00     0.059 A 
ATOM     73  F   UNL A   1      49.420  32.632  31.657  1.00  0.00    -0.206 F 
ATOM     74  C   UNL A   1      51.460  31.126  29.079  1.00  0.00     0.060 A 
BRANCH  74  75
ATOM     75  S   UNL A   1      53.194  30.807  28.701  1.00  0.00     0.124 S 
ATOM     76  O   UNL A   1      53.872  31.636  29.692  1.00  0.00    -0.237 OA
ATOM     77  O   UNL A   1      53.292  29.365  28.906  1.00  0.00    -0.237 OA
ATOM     78  O   UNL A   1      53.325  31.247  27.316  1.00  0.00    -0.744 OA
ENDBRANCH  74  75
ENDBRANCH  42  67
ENDBRANCH  16  17
ENDBRANCH   9  11
ENDBRANCH   8   9
ENDBRANCH   7   8
ENDBRANCH   6   7
ENDBRANCH   5   6
ENDBRANCH   4   5
ENDBRANCH   3   4
ENDBRANCH   2   3
ENDBRANCH   1   2
BRANCH   1  79
ATOM     79  C   UNL A   1      31.561  28.113  24.313  1.00  0.00     0.188 C 
BRANCH  79  80
ATOM     80  O   UNL A   1      32.177  26.881  24.648  1.00  0.00    -0.376 OA
BRANCH  80  81
ATOM     81  C   UNL A   1      33.589  26.835  24.515  1.00  0.00     0.202 C 
BRANCH  81  82
ATOM     82  C   UNL A   1      34.320  25.566  24.990  1.00  0.00     0.261 C 
BRANCH  82  83
ATOM     83  O   UNL A   1      33.732  24.343  24.491  1.00  0.00    -0.460 OA
BRANCH  83  84
ATOM     84  C   UNL A   1      34.370  23.536  23.600  1.00  0.00     0.339 C 
ATOM     85  O   UNL A   1      34.241  23.634  22.391  1.00  0.00    -0.246 OA
BRANCH  84  86
ATOM     86  C   UNL A   1      35.202  22.211  24.512  1.00  0.00     0.080 A 
ATOM     87  C   UNL A   1      37.225  21.938  24.818  1.00  0.00     0.043 A 
ATOM     88  C   UNL A   1      34.047  21.748  24.836  1.00  0.00     0.055 A 
ATOM     89  C   UNL A   1      38.349  21.415  25.234  1.00  0.00     0.041 A 
ATOM     90  C   UNL A   1      35.129  21.106  25.020  1.00  0.00     0.023 A 
ATOM     91  Cl  UNL A   1      32.628  21.246  24.074  1.00  0.00    -0.083 Cl
ATOM     92  C   UNL A   1      37.153  20.962  25.247  1.00  0.00     0.028 A 
BRANCH  89  93
ATOM     93  N   UNL A   1      39.103  21.962  26.281  1.00  0.00    -0.332 N 
ATOM     94  H   UNL A   1      38.530  22.394  26.955  1.00  0.00     0.169 HD
BRANCH  93  95
ATOM     95  C   UNL A   1      40.415  22.051  26.607  1.00  0.00     0.177 C 
ATOM     96  S   UNL A   1      40.994  20.917  27.702  1.00  0.00    -0.040 S 
BRANCH  95  97
ATOM     97  N   UNL A   1      41.329  22.907  26.048  1.00  0.00    -0.299 N 
ATOM     98  C   UNL A   1      41.681  24.257  26.121  1.00  0.00     0.260 C 
ATOM     99  H   UNL A   1      41.908  22.431  25.409  1.00  0.00     0.172 HD
ATOM    100  O   UNL A   1      42.163  24.853  25.169  1.00  0.00    -0.269 OA
BRANCH  98 101
ATOM    101  C   UNL A   1      41.389  24.956  27.383  1.00  0.00     0.075 A 
ATOM    102  C   UNL A   1      42.842  26.027  28.256  1.00  0.00     0.017 A 
ATOM    103  C   UNL A   1      39.545  25.640  27.462  1.00  0.00     0.135 A 
ATOM    104  C   UNL A   1      42.172  27.676  29.116  1.00  0.00     0.001 A 
ATOM    105  C   UNL A   1      38.888  27.306  28.285  1.00  0.00     0.040 A 
ATOM    106  F   UNL A   1      38.638  24.981  26.712  1.00  0.00    -0.206 F 
ATOM    107  C   UNL A   1      40.335  28.376  29.167  1.00  0.00     0.003 A 
ENDBRANCH  98 101
ENDBRANCH  95  97
ENDBRANCH  93  95
ENDBRANCH  89  93
ENDBRANCH  84  86
ENDBRANCH  83  84
ENDBRANCH  82  83
ENDBRANCH  81  82
ENDBRANCH  80  81
ENDBRANCH  79  80
ENDBRANCH   1  79
TORSDOF 27
ENDMDL
MODEL 3
REMARK VINA RESULT:      -9.2      5.620     10.423
REMARK SMILES O=C(OCCOCCOCCOCCOC(=O)c1cc(NC(=S)NC(=O)c2ccccc2F)ccc1Cl)c1ccc(-c2c3nc(c(-c4c(F)cc(S(=O)(=O)[O-])cc4F)c4ccc([nH]4)c(-c4c(F)cc(S(=O)(=O)[O-])cc4F)c4nc(c(-c5c(F)cc(S(=O)(=O)[O-])cc5F)c5ccc2[nH]5)C=C4)C=C3)cc1
REMARK SMILES IDX 10 1 9 2 8 3 7 4 6 5 5 6 4 7 3 8 2 9 1 10 38 11 39 12 103 13
REMARK SMILES IDX 40 14 102 15 41 16 42 17 43 18 96 19 44 20 101 21 95 22
REMARK SMILES IDX 97 23 45 24 100 25 94 26 93 27 46 29 80 30 59 31 79 32 60 33
REMARK SMILES IDX 63 34 78 35 98 36 61 37 62 38 77 40 99 41 64 42 47 43 48 44
REMARK SMILES IDX 57 45 49 46 50 47 56 48 58 49 51 50 52 51 53 52 54 53 55 54
REMARK SMILES IDX 81 55 82 56 91 57 83 58 84 59 90 60 92 61 85 62 86 63 87 64
REMARK SMILES IDX 88 65 89 66 65 67 66 68 75 69 67 70 68 71 74 72 76 73 69 74
REMARK SMILES IDX 70 75 71 76 72 77 73 78 11 79 12 80 13 81 14 82 15 83 16 84
REMARK SMILES IDX 17 85 18 86 19 87 36 88 20 89 35 90 37 91 34 92 21 93 22 95
REMARK SMILES IDX 23 96 24 97 25 98 26 100 27 101 28 102 32 103 29 104 31 105
REMARK SMILES IDX 33 106 30 107
REMARK H PARENT 97 28 63 39 21 94 24 99
REMARK Flexibility Score: inf
ROOT
ATOM      1  C   UNL A   1      33.754  27.333  26.448  1.00  0.00     0.188 C 
ENDROOT
BRANCH   1   2
ATOM      2  O   UNL A   1      33.637  28.732  26.206  1.00  0.00    -0.377 OA
BRANCH   2   3
ATOM      3  C   UNL A   1      33.131  29.498  27.294  1.00  0.00     0.188 C 
BRANCH   3   4
ATOM      4  C   UNL A   1      31.733  30.049  27.039  1.00  0.00     0.188 C 
BRANCH   4   5
ATOM      5  O   UNL A   1      31.792  31.455  26.783  1.00  0.00    -0.376 OA
BRANCH   5   6
ATOM      6  C   UNL A   1      32.819  32.163  27.477  1.00  0.00     0.202 C 
BRANCH   6   7
ATOM      7  C   UNL A   1      32.725  33.677  27.308  1.00  0.00     0.261 C 
BRANCH   7   8
ATOM      8  O   UNL A   1      32.462  34.344  28.548  1.00  0.00    -0.460 OA
BRANCH   8   9
ATOM      9  C   UNL A   1      33.362  34.871  29.419  1.00  0.00     0.338 C 
ATOM     10  O   UNL A   1      33.214  36.051  29.739  1.00  0.00    -0.246 OA
BRANCH   9  11
ATOM     11  C   UNL A   1      34.521  34.125  30.022  1.00  0.00     0.060 A 
ATOM     12  C   UNL A   1      34.446  33.076  30.943  1.00  0.00     0.016 A 
ATOM     13  C   UNL A   1      35.802  34.500  29.576  1.00  0.00     0.016 A 
ATOM     14  C   UNL A   1      35.579  32.449  31.439  1.00  0.00     0.010 A 
ATOM     15  C   UNL A   1      36.955  33.883  30.073  1.00  0.00     0.010 A 
ATOM     16  C   UNL A   1      36.837  32.872  31.031  1.00  0.00    -0.014 A 
BRANCH  16  17
ATOM     17  C   UNL A   1      37.988  32.392  31.809  1.00  0.00     0.031 A 
ATOM     18  C   UNL A   1      38.825  31.314  31.188  1.00  0.00     0.074 A 
ATOM     19  C   UNL A   1      38.359  33.032  32.932  1.00  0.00     0.049 A 
ATOM     20  N   UNL A   1      39.851  30.679  31.678  1.00  0.00    -0.248 NA
ATOM     21  C   UNL A   1      38.469  30.910  29.812  1.00  0.00     0.031 C 
ATOM     22  C   UNL A   1      37.687  34.207  33.494  1.00  0.00     0.029 A 
ATOM     23  N   UNL A   1      39.408  32.809  33.782  1.00  0.00    -0.354 N 
ATOM     24  C   UNL A   1      40.243  29.787  30.688  1.00  0.00     0.074 A 
ATOM     25  C   UNL A   1      39.355  29.958  29.565  1.00  0.00     0.031 C 
ATOM     26  C   UNL A   1      38.348  34.605  34.594  1.00  0.00     0.029 A 
ATOM     27  C   UNL A   1      39.441  33.673  34.851  1.00  0.00     0.049 A 
ATOM     28  H   UNL A   1      40.074  32.098  33.642  1.00  0.00     0.167 HD
ATOM     29  C   UNL A   1      41.259  28.898  30.732  1.00  0.00     0.037 A 
ATOM     30  C   UNL A   1      40.243  33.668  35.934  1.00  0.00     0.037 A 
ATOM     31  C   UNL A   1      42.124  28.770  31.870  1.00  0.00     0.049 A 
ATOM     32  C   UNL A   1      41.287  32.583  36.016  1.00  0.00     0.074 A 
ATOM     33  C   UNL A   1      43.139  27.859  32.086  1.00  0.00     0.029 A 
ATOM     34  N   UNL A   1      42.072  29.595  32.987  1.00  0.00    -0.354 N 
ATOM     35  N   UNL A   1      41.593  31.668  35.124  1.00  0.00    -0.248 NA
ATOM     36  C   UNL A   1      42.076  32.507  37.252  1.00  0.00     0.031 C 
ATOM     37  C   UNL A   1      43.670  28.106  33.356  1.00  0.00     0.029 A 
ATOM     38  C   UNL A   1      43.023  29.204  33.907  1.00  0.00     0.049 A 
ATOM     39  H   UNL A   1      41.449  30.349  33.104  1.00  0.00     0.167 HD
ATOM     40  C   UNL A   1      42.614  30.912  35.686  1.00  0.00     0.074 A 
ATOM     41  C   UNL A   1      42.889  31.492  36.986  1.00  0.00     0.031 C 
ATOM     42  C   UNL A   1      43.262  29.831  35.185  1.00  0.00     0.037 A 
BRANCH  29  43
ATOM     43  C   UNL A   1      41.436  27.972  29.565  1.00  0.00     0.058 A 
ATOM     44  C   UNL A   1      40.546  26.905  29.374  1.00  0.00     0.135 A 
ATOM     45  C   UNL A   1      42.490  28.117  28.650  1.00  0.00     0.135 A 
ATOM     46  F   UNL A   1      39.502  26.738  30.202  1.00  0.00    -0.206 F 
ATOM     47  C   UNL A   1      40.711  25.993  28.337  1.00  0.00     0.059 A 
ATOM     48  C   UNL A   1      42.664  27.228  27.591  1.00  0.00     0.059 A 
ATOM     49  F   UNL A   1      43.344  29.148  28.759  1.00  0.00    -0.206 F 
ATOM     50  C   UNL A   1      41.779  26.159  27.454  1.00  0.00     0.060 A 
BRANCH  50  51
ATOM     51  S   UNL A   1      41.979  24.963  26.117  1.00  0.00     0.124 S 
ATOM     52  O   UNL A   1      43.215  24.288  26.500  1.00  0.00    -0.237 OA
ATOM     53  O   UNL A   1      40.759  24.169  26.231  1.00  0.00    -0.237 OA
ATOM     54  O   UNL A   1      42.063  25.798  24.923  1.00  0.00    -0.744 OA
ENDBRANCH  50  51
ENDBRANCH  29  43
BRANCH  30  55
ATOM     55  C   UNL A   1      40.040  34.650  37.036  1.00  0.00     0.058 A 
ATOM     56  C   UNL A   1      40.791  35.838  37.095  1.00  0.00     0.135 A 
ATOM     57  C   UNL A   1      39.093  34.437  38.049  1.00  0.00     0.135 A 
ATOM     58  F   UNL A   1      41.710  36.101  36.154  1.00  0.00    -0.206 F 
ATOM     59  C   UNL A   1      40.625  36.762  38.121  1.00  0.00     0.059 A 
ATOM     60  C   UNL A   1      38.888  35.363  39.071  1.00  0.00     0.059 A 
ATOM     61  F   UNL A   1      38.338  33.328  38.037  1.00  0.00    -0.206 F 
ATOM     62  C   UNL A   1      39.668  36.518  39.104  1.00  0.00     0.060 A 
BRANCH  62  63
ATOM     63  S   UNL A   1      39.444  37.754  40.402  1.00  0.00     0.124 S 
ATOM     64  O   UNL A   1      39.413  36.921  41.600  1.00  0.00    -0.237 OA
ATOM     65  O   UNL A   1      40.631  38.588  40.239  1.00  0.00    -0.237 OA
ATOM     66  O   UNL A   1      38.180  38.392  40.048  1.00  0.00    -0.744 OA
ENDBRANCH  62  63
ENDBRANCH  30  55
BRANCH  42  67
ATOM     67  C   UNL A   1      44.336  29.221  36.033  1.00  0.00     0.058 A 
ATOM     68  C   UNL A   1      44.036  28.152  36.892  1.00  0.00     0.135 A 
ATOM     69  C   UNL A   1      45.625  29.770  36.081  1.00  0.00     0.135 A 
ATOM     70  F   UNL A   1      42.811  27.601  36.886  1.00  0.00    -0.206 F 
ATOM     71  C   UNL A   1      44.972  27.666  37.793  1.00  0.00     0.059 A 
ATOM     72  C   UNL A   1      46.588  29.280  36.955  1.00  0.00     0.059 A 
ATOM     73  F   UNL A   1      45.957  30.787  35.270  1.00  0.00    -0.206 F 
ATOM     74  C   UNL A   1      46.243  28.243  37.823  1.00  0.00     0.060 A 
BRANCH  74  75
ATOM     75  S   UNL A   1      47.443  27.608  39.011  1.00  0.00     0.124 S 
ATOM     76  O   UNL A   1      47.651  26.248  38.526  1.00  0.00    -0.237 OA
ATOM     77  O   UNL A   1      48.565  28.525  38.834  1.00  0.00    -0.237 OA
ATOM     78  O   UNL A   1      46.745  27.721  40.289  1.00  0.00    -0.744 OA
ENDBRANCH  74  75
ENDBRANCH  42  67
ENDBRANCH  16  17
ENDBRANCH   9  11
ENDBRANCH   8   9
ENDBRANCH   7   8
ENDBRANCH   6   7
ENDBRANCH   5   6
ENDBRANCH   4   5
ENDBRANCH   3   4
ENDBRANCH   2   3
ENDBRANCH   1   2
BRANCH   1  79
ATOM     79  C   UNL A   1      34.245  26.421  25.303  1.00  0.00     0.188 C 
BRANCH  79  80
ATOM     80  O   UNL A   1      34.588  25.125  25.765  1.00  0.00    -0.376 OA
BRANCH  80  81
ATOM     81  C   UNL A   1      35.633  24.470  25.064  1.00  0.00     0.202 C 
BRANCH  81  82
ATOM     82  C   UNL A   1      36.967  24.246  25.799  1.00  0.00     0.261 C 
BRANCH  82  83
ATOM     83  O   UNL A   1      37.767  23.185  25.231  1.00  0.00    -0.460 OA
BRANCH  83  84
ATOM     84  C   UNL A   1      37.805  21.934  25.765  1.00  0.00     0.339 C 
ATOM     85  O   UNL A   1      38.840  21.368  26.080  1.00  0.00    -0.246 OA
BRANCH  84  86
ATOM     86  C   UNL A   1      36.143  21.219  25.687  1.00  0.00     0.080 A 
ATOM     87  C   UNL A   1      34.427  21.859  26.638  1.00  0.00     0.043 A 
ATOM     88  C   UNL A   1      36.579  20.370  24.826  1.00  0.00     0.055 A 
ATOM     89  C   UNL A   1      33.177  21.915  27.018  1.00  0.00     0.041 A 
ATOM     90  C   UNL A   1      35.442  20.269  25.386  1.00  0.00     0.023 A 
ATOM     91  Cl  UNL A   1      37.807  19.220  24.695  1.00  0.00    -0.083 Cl
ATOM     92  C   UNL A   1      33.824  21.014  26.384  1.00  0.00     0.028 A 
BRANCH  89  93
ATOM     93  N   UNL A   1      32.274  22.870  26.531  1.00  0.00    -0.332 N 
ATOM     94  H   UNL A   1      32.649  23.779  26.571  1.00  0.00     0.169 HD
BRANCH  93  95
ATOM     95  C   UNL A   1      31.020  22.867  26.019  1.00  0.00     0.177 C 
ATOM     96  S   UNL A   1      29.757  22.923  27.125  1.00  0.00    -0.040 S 
BRANCH  95  97
ATOM     97  N   UNL A   1      30.691  22.929  24.688  1.00  0.00    -0.299 N 
ATOM     98  C   UNL A   1      30.628  23.881  23.668  1.00  0.00     0.260 C 
ATOM     99  H   UNL A   1      30.419  22.043  24.355  1.00  0.00     0.172 HD
ATOM    100  O   UNL A   1      29.830  23.791  22.747  1.00  0.00    -0.269 OA
BRANCH  98 101
ATOM    101  C   UNL A   1      31.529  25.039  23.779  1.00  0.00     0.075 A 
ATOM    102  C   UNL A   1      32.972  25.279  22.408  1.00  0.00     0.017 A 
ATOM    103  C   UNL A   1      30.621  26.642  24.474  1.00  0.00     0.135 A 
ATOM    104  C   UNL A   1      33.291  27.175  21.950  1.00  0.00     0.001 A 
ATOM    105  C   UNL A   1      30.915  28.528  23.984  1.00  0.00     0.040 A 
ATOM    106  F   UNL A   1      29.544  26.419  25.255  1.00  0.00    -0.206 F 
ATOM    107  C   UNL A   1      32.363  28.775  22.621  1.00  0.00     0.003 A 
ENDBRANCH  98 101
ENDBRANCH  95  97
ENDBRANCH  93  95
ENDBRANCH  89  93
ENDBRANCH  84  86
ENDBRANCH  83  84
ENDBRANCH  82  83
ENDBRANCH  81  82
ENDBRANCH  80  81
ENDBRANCH  79  80
ENDBRANCH   1  79
TORSDOF 27
ENDMDL
