MODEL 1
REMARK VINA RESULT:      -9.3      0.000      0.000
REMARK SMILES Cc1ccc(/C=C2/SC(=O)N(CC(=O)OCCOCCOCCOCCOC(=O)c3ccc(-c4c5nc(c(-c6c(F)cc(S(=O)(=O)[O-])cc6F)c6ccc([nH]6)c(-c6c(F)cc(S(=O)(=O)[O-])cc6F)c6nc(c(-c7c(F)cc(S(=O)(=O)[O-])cc7F)c7ccc4[nH]7)C=C6)C=C5)cc3)C2=O)cc1
REMARK SMILES IDX 22 1 21 2 20 3 19 4 18 5 17 6 16 7 15 8 13 9 14 10 12 11
REMARK SMILES IDX 11 12 6 13 7 14 8 15 96 16 9 17 97 18 10 19 5 20 1 21 2 22
REMARK SMILES IDX 3 23 99 24 4 25 98 26 23 27 24 28 25 29 26 30 27 31 28 32
REMARK SMILES IDX 29 33 30 34 31 35 95 36 32 37 94 38 33 39 34 40 35 41 88 42
REMARK SMILES IDX 36 43 93 44 87 45 89 46 37 47 92 48 86 49 85 50 38 52 72 53
REMARK SMILES IDX 51 54 71 55 52 56 55 57 70 58 90 59 53 60 54 61 69 63 91 64
REMARK SMILES IDX 56 65 39 66 40 67 49 68 41 69 42 70 48 71 50 72 43 73 44 74
REMARK SMILES IDX 45 75 46 76 47 77 73 78 74 79 83 80 75 81 76 82 82 83 84 84
REMARK SMILES IDX 77 85 78 86 79 87 80 88 81 89 57 90 58 91 67 92 59 93 60 94
REMARK SMILES IDX 66 95 68 96 61 97 62 98 63 99 64 100 65 101
REMARK H PARENT 89 51 55 62
REMARK Flexibility Score: inf
ROOT
ATOM      1  C   UNL A   1      42.216  27.200  26.505  1.00  0.00     0.188 C 
ENDROOT
BRANCH   1   2
ATOM      2  O   UNL A   1      40.842  27.185  26.876  1.00  0.00    -0.377 OA
BRANCH   2   3
ATOM      3  C   UNL A   1      40.633  26.697  28.194  1.00  0.00     0.188 C 
BRANCH   3   4
ATOM      4  C   UNL A   1      39.628  25.533  28.298  1.00  0.00     0.188 C 
BRANCH   4   5
ATOM      5  O   UNL A   1      39.934  24.260  27.755  1.00  0.00    -0.376 OA
BRANCH   5   6
ATOM      6  C   UNL A   1      39.355  23.966  26.507  1.00  0.00     0.202 C 
BRANCH   6   7
ATOM      7  C   UNL A   1      37.831  24.006  26.423  1.00  0.00     0.261 C 
BRANCH   7   8
ATOM      8  O   UNL A   1      37.301  23.749  25.103  1.00  0.00    -0.462 OA
BRANCH   8   9
ATOM      9  C   UNL A   1      36.930  22.470  24.842  1.00  0.00     0.326 C 
ATOM     10  O   UNL A   1      37.317  21.815  23.883  1.00  0.00    -0.250 OA
BRANCH   9  11
ATOM     11  C   UNL A   1      35.974  21.915  25.898  1.00  0.00     0.252 C 
BRANCH  11  12
ATOM     12  N   UNL A   1      34.570  21.756  25.516  1.00  0.00    -0.257 N 
ATOM     13  C   UNL A   1      31.218  23.033  24.758  1.00  0.00     0.029 C 
ATOM     14  C   UNL A   1      32.288  22.307  25.148  1.00  0.00     0.083 C 
ATOM     15  S   UNL A   1      32.373  20.596  24.843  1.00  0.00    -0.022 SA
ATOM     16  C   UNL A   1      33.615  22.738  25.706  1.00  0.00     0.268 C 
ATOM     17  C   UNL A   1      34.127  20.552  25.012  1.00  0.00     0.294 C 
ATOM     18  O   UNL A   1      33.800  23.810  26.263  1.00  0.00    -0.268 OA
ATOM     19  O   UNL A   1      34.789  19.577  24.755  1.00  0.00    -0.261 OA
BRANCH  13  20
ATOM     20  C   UNL A   1      31.167  24.483  24.473  1.00  0.00    -0.024 A 
ATOM     21  C   UNL A   1      30.822  28.823  24.252  1.00  0.00     0.044 C 
ATOM     22  C   UNL A   1      31.011  27.336  24.299  1.00  0.00    -0.051 A 
ATOM     23  C   UNL A   1      31.517  26.565  23.245  1.00  0.00     0.004 A 
ATOM     24  C   UNL A   1      30.652  26.670  25.450  1.00  0.00     0.004 A 
ATOM     25  C   UNL A   1      31.588  25.149  23.328  1.00  0.00     0.008 A 
ATOM     26  C   UNL A   1      30.783  25.283  25.537  1.00  0.00     0.008 A 
ENDBRANCH  13  20
ENDBRANCH  11  12
ENDBRANCH   9  11
ENDBRANCH   8   9
ENDBRANCH   7   8
ENDBRANCH   6   7
ENDBRANCH   5   6
ENDBRANCH   4   5
ENDBRANCH   3   4
ENDBRANCH   2   3
ENDBRANCH   1   2
BRANCH   1  27
ATOM     27  C   UNL A   1      42.318  26.966  25.020  1.00  0.00     0.188 C 
BRANCH  27  28
ATOM     28  O   UNL A   1      43.263  25.916  24.883  1.00  0.00    -0.376 OA
BRANCH  28  29
ATOM     29  C   UNL A   1      42.979  24.724  25.569  1.00  0.00     0.202 C 
BRANCH  29  30
ATOM     30  C   UNL A   1      44.269  24.028  25.957  1.00  0.00     0.261 C 
BRANCH  30  31
ATOM     31  O   UNL A   1      45.418  24.903  25.820  1.00  0.00    -0.460 OA
BRANCH  31  32
ATOM     32  C   UNL A   1      45.588  25.862  26.784  1.00  0.00     0.338 C 
ATOM     33  O   UNL A   1      45.726  27.046  26.523  1.00  0.00    -0.246 OA
BRANCH  32  34
ATOM     34  C   UNL A   1      45.434  25.328  28.175  1.00  0.00     0.060 A 
ATOM     35  C   UNL A   1      44.213  24.770  28.595  1.00  0.00     0.016 A 
ATOM     36  C   UNL A   1      46.405  25.631  29.123  1.00  0.00     0.016 A 
ATOM     37  C   UNL A   1      43.893  24.681  29.972  1.00  0.00     0.010 A 
ATOM     38  C   UNL A   1      46.030  25.664  30.461  1.00  0.00     0.010 A 
ATOM     39  C   UNL A   1      44.775  25.198  30.922  1.00  0.00    -0.014 A 
BRANCH  39  40
ATOM     40  C   UNL A   1      44.526  25.394  32.381  1.00  0.00     0.031 A 
ATOM     41  C   UNL A   1      43.912  26.719  32.799  1.00  0.00     0.074 A 
ATOM     42  C   UNL A   1      44.492  24.345  33.250  1.00  0.00     0.049 A 
ATOM     43  N   UNL A   1      43.371  26.977  33.942  1.00  0.00    -0.248 NA
ATOM     44  C   UNL A   1      43.805  27.870  31.902  1.00  0.00     0.031 C 
ATOM     45  C   UNL A   1      43.633  24.253  34.443  1.00  0.00     0.029 A 
ATOM     46  N   UNL A   1      45.073  23.086  33.252  1.00  0.00    -0.354 N 
ATOM     47  C   UNL A   1      42.661  28.165  33.876  1.00  0.00     0.074 A 
ATOM     48  C   UNL A   1      42.985  28.686  32.574  1.00  0.00     0.031 C 
ATOM     49  C   UNL A   1      43.753  23.063  35.047  1.00  0.00     0.029 A 
ATOM     50  C   UNL A   1      44.959  22.492  34.518  1.00  0.00     0.049 A 
ATOM     51  H   UNL A   1      45.505  22.666  32.472  1.00  0.00     0.167 HD
ATOM     52  C   UNL A   1      41.828  28.499  34.914  1.00  0.00     0.037 A 
ATOM     53  C   UNL A   1      46.033  22.273  35.336  1.00  0.00     0.037 A 
ATOM     54  C   UNL A   1      42.085  27.621  36.077  1.00  0.00     0.049 A 
ATOM     55  C   UNL A   1      46.041  23.244  36.531  1.00  0.00     0.074 A 
ATOM     56  C   UNL A   1      41.318  26.812  36.902  1.00  0.00     0.029 A 
ATOM     57  N   UNL A   1      43.409  27.390  36.466  1.00  0.00    -0.354 N 
ATOM     58  N   UNL A   1      45.394  24.391  36.531  1.00  0.00    -0.248 NA
ATOM     59  C   UNL A   1      46.629  22.976  37.842  1.00  0.00     0.031 C 
ATOM     60  C   UNL A   1      42.197  25.995  37.671  1.00  0.00     0.029 A 
ATOM     61  C   UNL A   1      43.501  26.383  37.401  1.00  0.00     0.049 A 
ATOM     62  H   UNL A   1      44.182  27.887  36.112  1.00  0.00     0.167 HD
ATOM     63  C   UNL A   1      45.421  24.968  37.772  1.00  0.00     0.074 A 
ATOM     64  C   UNL A   1      46.232  24.052  38.552  1.00  0.00     0.031 C 
ATOM     65  C   UNL A   1      44.760  26.127  38.089  1.00  0.00     0.037 A 
BRANCH  52  66
ATOM     66  C   UNL A   1      40.687  29.545  34.905  1.00  0.00     0.058 A 
ATOM     67  C   UNL A   1      39.653  29.477  33.935  1.00  0.00     0.135 A 
ATOM     68  C   UNL A   1      40.576  30.678  35.746  1.00  0.00     0.135 A 
ATOM     69  F   UNL A   1      39.560  28.453  33.078  1.00  0.00    -0.206 F 
ATOM     70  C   UNL A   1      38.650  30.446  33.783  1.00  0.00     0.059 A 
ATOM     71  C   UNL A   1      39.550  31.639  35.643  1.00  0.00     0.059 A 
ATOM     72  F   UNL A   1      41.464  30.939  36.707  1.00  0.00    -0.206 F 
ATOM     73  C   UNL A   1      38.598  31.526  34.645  1.00  0.00     0.060 A 
BRANCH  73  74
ATOM     74  S   UNL A   1      37.263  32.729  34.465  1.00  0.00     0.124 S 
ATOM     75  O   UNL A   1      36.257  31.963  33.735  1.00  0.00    -0.237 OA
ATOM     76  O   UNL A   1      36.938  33.042  35.852  1.00  0.00    -0.237 OA
ATOM     77  O   UNL A   1      37.882  33.817  33.713  1.00  0.00    -0.744 OA
ENDBRANCH  73  74
ENDBRANCH  52  66
BRANCH  53  78
ATOM     78  C   UNL A   1      47.119  21.544  34.605  1.00  0.00     0.058 A 
ATOM     79  C   UNL A   1      48.295  22.313  34.433  1.00  0.00     0.135 A 
ATOM     80  C   UNL A   1      47.294  20.170  34.848  1.00  0.00     0.135 A 
ATOM     81  F   UNL A   1      48.198  23.621  34.144  1.00  0.00    -0.206 F 
ATOM     82  C   UNL A   1      49.551  21.825  34.795  1.00  0.00     0.059 A 
ATOM     83  C   UNL A   1      48.548  19.659  35.215  1.00  0.00     0.059 A 
ATOM     84  F   UNL A   1      46.223  19.378  35.005  1.00  0.00    -0.206 F 
ATOM     85  C   UNL A   1      49.654  20.515  35.255  1.00  0.00     0.060 A 
BRANCH  85  86
ATOM     86  S   UNL A   1      51.157  20.038  36.157  1.00  0.00     0.124 S 
ATOM     87  O   UNL A   1      51.233  18.608  35.891  1.00  0.00    -0.237 OA
ATOM     88  O   UNL A   1      52.178  20.861  35.512  1.00  0.00    -0.237 OA
ATOM     89  O   UNL A   1      50.840  20.421  37.528  1.00  0.00    -0.744 OA
ENDBRANCH  85  86
ENDBRANCH  53  78
BRANCH  65  90
ATOM     90  C   UNL A   1      45.183  27.140  39.145  1.00  0.00     0.058 A 
ATOM     91  C   UNL A   1      45.699  28.408  38.846  1.00  0.00     0.135 A 
ATOM     92  C   UNL A   1      44.876  26.934  40.524  1.00  0.00     0.135 A 
ATOM     93  F   UNL A   1      45.935  28.795  37.587  1.00  0.00    -0.206 F 
ATOM     94  C   UNL A   1      45.948  29.369  39.827  1.00  0.00     0.059 A 
ATOM     95  C   UNL A   1      45.055  27.901  41.508  1.00  0.00     0.059 A 
ATOM     96  F   UNL A   1      44.350  25.789  40.981  1.00  0.00    -0.206 F 
ATOM     97  C   UNL A   1      45.619  29.110  41.153  1.00  0.00     0.060 A 
BRANCH  97  98
ATOM     98  S   UNL A   1      45.899  30.382  42.389  1.00  0.00     0.124 S 
ATOM     99  O   UNL A   1      44.530  30.729  42.757  1.00  0.00    -0.237 OA
ATOM    100  O   UNL A   1      46.665  29.665  43.405  1.00  0.00    -0.237 OA
ATOM    101  O   UNL A   1      46.639  31.411  41.666  1.00  0.00    -0.744 OA
ENDBRANCH  97  98
ENDBRANCH  65  90
ENDBRANCH  39  40
ENDBRANCH  32  34
ENDBRANCH  31  32
ENDBRANCH  30  31
ENDBRANCH  29  30
ENDBRANCH  28  29
ENDBRANCH  27  28
ENDBRANCH   1  27
TORSDOF 25
ENDMDL
MODEL 2
REMARK VINA RESULT:      -9.3      7.530     13.482
REMARK SMILES Cc1ccc(/C=C2/SC(=O)N(CC(=O)OCCOCCOCCOCCOC(=O)c3ccc(-c4c5nc(c(-c6c(F)cc(S(=O)(=O)[O-])cc6F)c6ccc([nH]6)c(-c6c(F)cc(S(=O)(=O)[O-])cc6F)c6nc(c(-c7c(F)cc(S(=O)(=O)[O-])cc7F)c7ccc4[nH]7)C=C6)C=C5)cc3)C2=O)cc1
REMARK SMILES IDX 22 1 21 2 20 3 19 4 18 5 17 6 16 7 15 8 13 9 14 10 12 11
REMARK SMILES IDX 11 12 6 13 7 14 8 15 96 16 9 17 97 18 10 19 5 20 1 21 2 22
REMARK SMILES IDX 3 23 99 24 4 25 98 26 23 27 24 28 25 29 26 30 27 31 28 32
REMARK SMILES IDX 29 33 30 34 31 35 95 36 32 37 94 38 33 39 34 40 35 41 88 42
REMARK SMILES IDX 36 43 93 44 87 45 89 46 37 47 92 48 86 49 85 50 38 52 72 53
REMARK SMILES IDX 51 54 71 55 52 56 55 57 70 58 90 59 53 60 54 61 69 63 91 64
REMARK SMILES IDX 56 65 39 66 40 67 49 68 41 69 42 70 48 71 50 72 43 73 44 74
REMARK SMILES IDX 45 75 46 76 47 77 73 78 74 79 83 80 75 81 76 82 82 83 84 84
REMARK SMILES IDX 77 85 78 86 79 87 80 88 81 89 57 90 58 91 67 92 59 93 60 94
REMARK SMILES IDX 66 95 68 96 61 97 62 98 63 99 64 100 65 101
REMARK H PARENT 89 51 55 62
REMARK Flexibility Score: inf
ROOT
ATOM      1  C   UNL A   1      37.289  34.210  29.231  1.00  0.00     0.188 C 
ENDROOT
BRANCH   1   2
ATOM      2  O   UNL A   1      38.578  33.811  28.775  1.00  0.00    -0.377 OA
BRANCH   2   3
ATOM      3  C   UNL A   1      39.558  33.839  29.803  1.00  0.00     0.188 C 
BRANCH   3   4
ATOM      4  C   UNL A   1      40.510  35.050  29.754  1.00  0.00     0.188 C 
BRANCH   4   5
ATOM      5  O   UNL A   1      41.841  34.909  29.286  1.00  0.00    -0.376 OA
BRANCH   5   6
ATOM      6  C   UNL A   1      42.175  35.657  28.143  1.00  0.00     0.202 C 
BRANCH   6   7
ATOM      7  C   UNL A   1      42.383  37.158  28.334  1.00  0.00     0.261 C 
BRANCH   7   8
ATOM      8  O   UNL A   1      42.505  37.903  27.102  1.00  0.00    -0.462 OA
BRANCH   8   9
ATOM      9  C   UNL A   1      42.587  39.253  27.220  1.00  0.00     0.326 C 
ATOM     10  O   UNL A   1      41.645  40.022  27.084  1.00  0.00    -0.250 OA
BRANCH   9  11
ATOM     11  C   UNL A   1      44.001  39.720  27.565  1.00  0.00     0.252 C 
BRANCH  11  12
ATOM     12  N   UNL A   1      44.343  41.110  27.259  1.00  0.00    -0.257 N 
ATOM     13  C   UNL A   1      44.849  43.930  24.970  1.00  0.00     0.029 C 
ATOM     14  C   UNL A   1      44.898  43.035  25.982  1.00  0.00     0.083 C 
ATOM     15  S   UNL A   1      45.055  43.555  27.634  1.00  0.00    -0.022 SA
ATOM     16  C   UNL A   1      44.669  41.550  25.989  1.00  0.00     0.268 C 
ATOM     17  C   UNL A   1      44.430  42.036  28.275  1.00  0.00     0.294 C 
ATOM     18  O   UNL A   1      44.777  40.843  24.998  1.00  0.00    -0.268 OA
ATOM     19  O   UNL A   1      44.175  41.870  29.443  1.00  0.00    -0.261 OA
BRANCH  13  20
ATOM     20  C   UNL A   1      44.242  43.748  23.635  1.00  0.00    -0.024 A 
ATOM     21  C   UNL A   1      41.878  43.263  20.004  1.00  0.00     0.044 C 
ATOM     22  C   UNL A   1      42.731  43.485  21.218  1.00  0.00    -0.051 A 
ATOM     23  C   UNL A   1      44.129  43.574  21.200  1.00  0.00     0.004 A 
ATOM     24  C   UNL A   1      42.107  43.594  22.441  1.00  0.00     0.004 A 
ATOM     25  C   UNL A   1      44.879  43.699  22.400  1.00  0.00     0.008 A 
ATOM     26  C   UNL A   1      42.857  43.775  23.604  1.00  0.00     0.008 A 
ENDBRANCH  13  20
ENDBRANCH  11  12
ENDBRANCH   9  11
ENDBRANCH   8   9
ENDBRANCH   7   8
ENDBRANCH   6   7
ENDBRANCH   5   6
ENDBRANCH   4   5
ENDBRANCH   3   4
ENDBRANCH   2   3
ENDBRANCH   1   2
BRANCH   1  27
ATOM     27  C   UNL A   1      37.072  33.655  30.614  1.00  0.00     0.188 C 
BRANCH  27  28
ATOM     28  O   UNL A   1      35.661  33.571  30.752  1.00  0.00    -0.376 OA
BRANCH  28  29
ATOM     29  C   UNL A   1      35.127  32.291  30.965  1.00  0.00     0.202 C 
BRANCH  29  30
ATOM     30  C   UNL A   1      34.796  31.639  29.636  1.00  0.00     0.261 C 
BRANCH  30  31
ATOM     31  O   UNL A   1      35.626  30.476  29.384  1.00  0.00    -0.460 OA
BRANCH  31  32
ATOM     32  C   UNL A   1      36.331  30.457  28.209  1.00  0.00     0.338 C 
ATOM     33  O   UNL A   1      35.826  30.711  27.129  1.00  0.00    -0.246 OA
BRANCH  32  34
ATOM     34  C   UNL A   1      37.801  30.244  28.413  1.00  0.00     0.060 A 
ATOM     35  C   UNL A   1      38.563  29.553  27.453  1.00  0.00     0.016 A 
ATOM     36  C   UNL A   1      38.348  30.488  29.668  1.00  0.00     0.016 A 
ATOM     37  C   UNL A   1      39.797  28.953  27.803  1.00  0.00     0.010 A 
ATOM     38  C   UNL A   1      39.490  29.786  30.035  1.00  0.00     0.010 A 
ATOM     39  C   UNL A   1      40.240  29.003  29.126  1.00  0.00    -0.014 A 
BRANCH  39  40
ATOM     40  C   UNL A   1      41.384  28.258  29.729  1.00  0.00     0.031 A 
ATOM     41  C   UNL A   1      41.583  26.822  29.276  1.00  0.00     0.074 A 
ATOM     42  C   UNL A   1      42.410  28.903  30.354  1.00  0.00     0.049 A 
ATOM     43  N   UNL A   1      42.644  26.110  29.454  1.00  0.00    -0.248 NA
ATOM     44  C   UNL A   1      40.582  26.081  28.506  1.00  0.00     0.031 C 
ATOM     45  C   UNL A   1      43.817  28.466  30.355  1.00  0.00     0.029 A 
ATOM     46  N   UNL A   1      42.516  30.119  31.011  1.00  0.00    -0.354 N 
ATOM     47  C   UNL A   1      42.592  24.971  28.666  1.00  0.00     0.074 A 
ATOM     48  C   UNL A   1      41.266  25.001  28.107  1.00  0.00     0.031 C 
ATOM     49  C   UNL A   1      44.607  29.353  30.974  1.00  0.00     0.029 A 
ATOM     50  C   UNL A   1      43.718  30.189  31.731  1.00  0.00     0.049 A 
ATOM     51  H   UNL A   1      41.841  30.835  30.976  1.00  0.00     0.167 HD
ATOM     52  C   UNL A   1      43.720  24.201  28.537  1.00  0.00     0.037 A 
ATOM     53  C   UNL A   1      43.768  30.186  33.097  1.00  0.00     0.037 A 
ATOM     54  C   UNL A   1      44.731  24.605  29.539  1.00  0.00     0.049 A 
ATOM     55  C   UNL A   1      44.297  28.847  33.642  1.00  0.00     0.074 A 
ATOM     56  C   UNL A   1      46.067  24.976  29.512  1.00  0.00     0.029 A 
ATOM     57  N   UNL A   1      44.325  24.797  30.865  1.00  0.00    -0.354 N 
ATOM     58  N   UNL A   1      44.271  27.728  32.949  1.00  0.00    -0.248 NA
ATOM     59  C   UNL A   1      45.009  28.663  34.906  1.00  0.00     0.031 C 
ATOM     60  C   UNL A   1      46.405  25.527  30.781  1.00  0.00     0.029 A 
ATOM     61  C   UNL A   1      45.311  25.389  31.622  1.00  0.00     0.049 A 
ATOM     62  H   UNL A   1      43.440  24.539  31.213  1.00  0.00     0.167 HD
ATOM     63  C   UNL A   1      44.961  26.737  33.594  1.00  0.00     0.074 A 
ATOM     64  C   UNL A   1      45.382  27.369  34.830  1.00  0.00     0.031 C 
ATOM     65  C   UNL A   1      45.171  25.487  33.070  1.00  0.00     0.037 A 
BRANCH  52  66
ATOM     66  C   UNL A   1      44.010  23.133  27.456  1.00  0.00     0.058 A 
ATOM     67  C   UNL A   1      43.131  22.034  27.271  1.00  0.00     0.135 A 
ATOM     68  C   UNL A   1      45.155  23.063  26.626  1.00  0.00     0.135 A 
ATOM     69  F   UNL A   1      41.970  21.945  27.933  1.00  0.00    -0.206 F 
ATOM     70  C   UNL A   1      43.379  20.963  26.399  1.00  0.00     0.059 A 
ATOM     71  C   UNL A   1      45.401  22.023  25.707  1.00  0.00     0.059 A 
ATOM     72  F   UNL A   1      46.118  23.987  26.664  1.00  0.00    -0.206 F 
ATOM     73  C   UNL A   1      44.516  20.964  25.612  1.00  0.00     0.060 A 
BRANCH  73  74
ATOM     74  S   UNL A   1      44.782  19.603  24.454  1.00  0.00     0.124 S 
ATOM     75  O   UNL A   1      43.783  18.631  24.889  1.00  0.00    -0.237 OA
ATOM     76  O   UNL A   1      44.530  20.238  23.166  1.00  0.00    -0.237 OA
ATOM     77  O   UNL A   1      46.170  19.217  24.694  1.00  0.00    -0.744 OA
ENDBRANCH  73  74
ENDBRANCH  52  66
BRANCH  53  78
ATOM     78  C   UNL A   1      42.857  31.231  33.664  1.00  0.00     0.058 A 
ATOM     79  C   UNL A   1      41.741  30.692  34.349  1.00  0.00     0.135 A 
ATOM     80  C   UNL A   1      43.421  32.402  34.202  1.00  0.00     0.135 A 
ATOM     81  F   UNL A   1      41.121  29.606  33.858  1.00  0.00    -0.206 F 
ATOM     82  C   UNL A   1      41.410  31.093  35.644  1.00  0.00     0.059 A 
ATOM     83  C   UNL A   1      43.103  32.821  35.502  1.00  0.00     0.059 A 
ATOM     84  F   UNL A   1      44.470  32.976  33.596  1.00  0.00    -0.206 F 
ATOM     85  C   UNL A   1      42.148  32.112  36.239  1.00  0.00     0.060 A 
BRANCH  85  86
ATOM     86  S   UNL A   1      42.044  32.306  38.043  1.00  0.00     0.124 S 
ATOM     87  O   UNL A   1      40.606  32.283  38.270  1.00  0.00    -0.237 OA
ATOM     88  O   UNL A   1      42.784  31.141  38.521  1.00  0.00    -0.237 OA
ATOM     89  O   UNL A   1      42.709  33.585  38.263  1.00  0.00    -0.744 OA
ENDBRANCH  85  86
ENDBRANCH  53  78
BRANCH  65  90
ATOM     90  C   UNL A   1      45.341  24.198  33.864  1.00  0.00     0.058 A 
ATOM     91  C   UNL A   1      44.281  23.346  34.204  1.00  0.00     0.135 A 
ATOM     92  C   UNL A   1      46.639  23.667  34.130  1.00  0.00     0.135 A 
ATOM     93  F   UNL A   1      43.010  23.652  33.917  1.00  0.00    -0.206 F 
ATOM     94  C   UNL A   1      44.480  22.105  34.809  1.00  0.00     0.059 A 
ATOM     95  C   UNL A   1      46.861  22.406  34.673  1.00  0.00     0.059 A 
ATOM     96  F   UNL A   1      47.764  24.337  33.842  1.00  0.00    -0.206 F 
ATOM     97  C   UNL A   1      45.771  21.640  35.035  1.00  0.00     0.060 A 
BRANCH  97  98
ATOM     98  S   UNL A   1      46.001  20.016  35.766  1.00  0.00     0.124 S 
ATOM     99  O   UNL A   1      47.417  19.781  35.501  1.00  0.00    -0.237 OA
ATOM    100  O   UNL A   1      45.650  20.252  37.164  1.00  0.00    -0.237 OA
ATOM    101  O   UNL A   1      45.071  19.169  35.028  1.00  0.00    -0.744 OA
ENDBRANCH  97  98
ENDBRANCH  65  90
ENDBRANCH  39  40
ENDBRANCH  32  34
ENDBRANCH  31  32
ENDBRANCH  30  31
ENDBRANCH  29  30
ENDBRANCH  28  29
ENDBRANCH  27  28
ENDBRANCH   1  27
TORSDOF 25
ENDMDL
MODEL 3
REMARK VINA RESULT:      -8.8      5.672      9.436
REMARK SMILES Cc1ccc(/C=C2/SC(=O)N(CC(=O)OCCOCCOCCOCCOC(=O)c3ccc(-c4c5nc(c(-c6c(F)cc(S(=O)(=O)[O-])cc6F)c6ccc([nH]6)c(-c6c(F)cc(S(=O)(=O)[O-])cc6F)c6nc(c(-c7c(F)cc(S(=O)(=O)[O-])cc7F)c7ccc4[nH]7)C=C6)C=C5)cc3)C2=O)cc1
REMARK SMILES IDX 22 1 21 2 20 3 19 4 18 5 17 6 16 7 15 8 13 9 14 10 12 11
REMARK SMILES IDX 11 12 6 13 7 14 8 15 96 16 9 17 97 18 10 19 5 20 1 21 2 22
REMARK SMILES IDX 3 23 99 24 4 25 98 26 23 27 24 28 25 29 26 30 27 31 28 32
REMARK SMILES IDX 29 33 30 34 31 35 95 36 32 37 94 38 33 39 34 40 35 41 88 42
REMARK SMILES IDX 36 43 93 44 87 45 89 46 37 47 92 48 86 49 85 50 38 52 72 53
REMARK SMILES IDX 51 54 71 55 52 56 55 57 70 58 90 59 53 60 54 61 69 63 91 64
REMARK SMILES IDX 56 65 39 66 40 67 49 68 41 69 42 70 48 71 50 72 43 73 44 74
REMARK SMILES IDX 45 75 46 76 47 77 73 78 74 79 83 80 75 81 76 82 82 83 84 84
REMARK SMILES IDX 77 85 78 86 79 87 80 88 81 89 57 90 58 91 67 92 59 93 60 94
REMARK SMILES IDX 66 95 68 96 61 97 62 98 63 99 64 100 65 101
REMARK H PARENT 89 51 55 62
REMARK Flexibility Score: inf
ROOT
ATOM      1  C   UNL A   1      46.424  26.562  27.499  1.00  0.00     0.188 C 
ENDROOT
BRANCH   1   2
ATOM      2  O   UNL A   1      47.406  27.276  26.754  1.00  0.00    -0.377 OA
BRANCH   2   3
ATOM      3  C   UNL A   1      48.172  28.161  27.559  1.00  0.00     0.188 C 
BRANCH   3   4
ATOM      4  C   UNL A   1      48.040  29.651  27.183  1.00  0.00     0.188 C 
BRANCH   4   5
ATOM      5  O   UNL A   1      48.582  30.660  28.018  1.00  0.00    -0.376 OA
BRANCH   5   6
ATOM      6  C   UNL A   1      47.805  31.823  28.164  1.00  0.00     0.202 C 
BRANCH   6   7
ATOM      7  C   UNL A   1      46.942  32.234  26.972  1.00  0.00     0.261 C 
BRANCH   7   8
ATOM      8  O   UNL A   1      46.621  33.642  26.927  1.00  0.00    -0.462 OA
BRANCH   8   9
ATOM      9  C   UNL A   1      45.795  34.040  25.927  1.00  0.00     0.326 C 
ATOM     10  O   UNL A   1      46.144  34.696  24.955  1.00  0.00    -0.250 OA
BRANCH   9  11
ATOM     11  C   UNL A   1      44.359  33.561  26.136  1.00  0.00     0.252 C 
BRANCH  11  12
ATOM     12  N   UNL A   1      43.614  34.140  27.255  1.00  0.00    -0.257 N 
ATOM     13  C   UNL A   1      42.718  34.412  30.801  1.00  0.00     0.029 C 
ATOM     14  C   UNL A   1      42.739  34.398  29.450  1.00  0.00     0.083 C 
ATOM     15  S   UNL A   1      41.957  35.647  28.525  1.00  0.00    -0.022 SA
ATOM     16  C   UNL A   1      43.501  33.527  28.491  1.00  0.00     0.268 C 
ATOM     17  C   UNL A   1      42.912  35.313  27.081  1.00  0.00     0.294 C 
ATOM     18  O   UNL A   1      43.939  32.424  28.779  1.00  0.00    -0.268 OA
ATOM     19  O   UNL A   1      42.885  36.012  26.098  1.00  0.00    -0.261 OA
BRANCH  13  20
ATOM     20  C   UNL A   1      43.684  33.782  31.725  1.00  0.00    -0.024 A 
ATOM     21  C   UNL A   1      46.101  31.439  34.495  1.00  0.00     0.044 C 
ATOM     22  C   UNL A   1      45.331  32.250  33.496  1.00  0.00    -0.051 A 
ATOM     23  C   UNL A   1      45.792  33.436  32.911  1.00  0.00     0.004 A 
ATOM     24  C   UNL A   1      44.075  31.816  33.134  1.00  0.00     0.004 A 
ATOM     25  C   UNL A   1      44.973  34.200  32.036  1.00  0.00     0.008 A 
ATOM     26  C   UNL A   1      43.306  32.548  32.228  1.00  0.00     0.008 A 
ENDBRANCH  13  20
ENDBRANCH  11  12
ENDBRANCH   9  11
ENDBRANCH   8   9
ENDBRANCH   7   8
ENDBRANCH   6   7
ENDBRANCH   5   6
ENDBRANCH   4   5
ENDBRANCH   3   4
ENDBRANCH   2   3
ENDBRANCH   1   2
BRANCH   1  27
ATOM     27  C   UNL A   1      46.063  25.308  26.746  1.00  0.00     0.188 C 
BRANCH  27  28
ATOM     28  O   UNL A   1      45.174  25.741  25.728  1.00  0.00    -0.376 OA
BRANCH  28  29
ATOM     29  C   UNL A   1      44.459  24.740  25.052  1.00  0.00     0.202 C 
BRANCH  29  30
ATOM     30  C   UNL A   1      43.142  24.476  25.756  1.00  0.00     0.261 C 
BRANCH  30  31
ATOM     31  O   UNL A   1      42.767  25.574  26.627  1.00  0.00    -0.460 OA
BRANCH  31  32
ATOM     32  C   UNL A   1      42.000  26.569  26.079  1.00  0.00     0.338 C 
ATOM     33  O   UNL A   1      41.486  26.478  24.976  1.00  0.00    -0.246 OA
BRANCH  32  34
ATOM     34  C   UNL A   1      41.741  27.698  27.029  1.00  0.00     0.060 A 
ATOM     35  C   UNL A   1      42.806  28.459  27.544  1.00  0.00     0.016 A 
ATOM     36  C   UNL A   1      40.482  27.814  27.608  1.00  0.00     0.016 A 
ATOM     37  C   UNL A   1      42.657  29.197  28.743  1.00  0.00     0.010 A 
ATOM     38  C   UNL A   1      40.383  28.431  28.850  1.00  0.00     0.010 A 
ATOM     39  C   UNL A   1      41.456  29.130  29.451  1.00  0.00    -0.014 A 
BRANCH  39  40
ATOM     40  C   UNL A   1      41.181  29.651  30.822  1.00  0.00     0.031 A 
ATOM     41  C   UNL A   1      40.348  30.917  30.920  1.00  0.00     0.074 A 
ATOM     42  C   UNL A   1      41.331  28.871  31.930  1.00  0.00     0.049 A 
ATOM     43  N   UNL A   1      39.774  31.368  31.985  1.00  0.00    -0.248 NA
ATOM     44  C   UNL A   1      40.042  31.765  29.767  1.00  0.00     0.031 C 
ATOM     45  C   UNL A   1      40.504  28.947  33.146  1.00  0.00     0.029 A 
ATOM     46  N   UNL A   1      42.121  27.769  32.223  1.00  0.00    -0.354 N 
ATOM     47  C   UNL A   1      38.869  32.364  31.654  1.00  0.00     0.074 A 
ATOM     48  C   UNL A   1      39.095  32.579  30.249  1.00  0.00     0.031 C 
ATOM     49  C   UNL A   1      40.830  27.991  34.025  1.00  0.00     0.029 A 
ATOM     50  C   UNL A   1      42.115  27.511  33.602  1.00  0.00     0.049 A 
ATOM     51  H   UNL A   1      42.616  27.241  31.555  1.00  0.00     0.167 HD
ATOM     52  C   UNL A   1      37.994  32.810  32.611  1.00  0.00     0.037 A 
ATOM     53  C   UNL A   1      43.213  27.692  34.397  1.00  0.00     0.037 A 
ATOM     54  C   UNL A   1      38.402  32.316  33.946  1.00  0.00     0.049 A 
ATOM     55  C   UNL A   1      43.056  28.925  35.306  1.00  0.00     0.074 A 
ATOM     56  C   UNL A   1      37.789  31.631  34.984  1.00  0.00     0.029 A 
ATOM     57  N   UNL A   1      39.747  32.417  34.317  1.00  0.00    -0.354 N 
ATOM     58  N   UNL A   1      42.220  29.909  35.046  1.00  0.00    -0.248 NA
ATOM     59  C   UNL A   1      43.685  29.105  36.613  1.00  0.00     0.031 C 
ATOM     60  C   UNL A   1      38.797  31.198  35.892  1.00  0.00     0.029 A 
ATOM     61  C   UNL A   1      40.014  31.715  35.471  1.00  0.00     0.049 A 
ATOM     62  H   UNL A   1      40.422  32.928  33.813  1.00  0.00     0.167 HD
ATOM     63  C   UNL A   1      42.151  30.783  36.097  1.00  0.00     0.074 A 
ATOM     64  C   UNL A   1      43.110  30.246  37.045  1.00  0.00     0.031 C 
ATOM     65  C   UNL A   1      41.300  31.858  36.142  1.00  0.00     0.037 A 
BRANCH  52  66
ATOM     66  C   UNL A   1      36.690  33.614  32.392  1.00  0.00     0.058 A 
ATOM     67  C   UNL A   1      36.290  34.609  33.322  1.00  0.00     0.135 A 
ATOM     68  C   UNL A   1      35.742  33.417  31.359  1.00  0.00     0.135 A 
ATOM     69  F   UNL A   1      37.075  34.970  34.344  1.00  0.00    -0.206 F 
ATOM     70  C   UNL A   1      35.069  35.299  33.262  1.00  0.00     0.059 A 
ATOM     71  C   UNL A   1      34.533  34.133  31.251  1.00  0.00     0.059 A 
ATOM     72  F   UNL A   1      35.918  32.508  30.398  1.00  0.00    -0.206 F 
ATOM     73  C   UNL A   1      34.194  35.062  32.219  1.00  0.00     0.060 A 
BRANCH  73  74
ATOM     74  S   UNL A   1      32.655  36.005  32.133  1.00  0.00     0.124 S 
ATOM     75  O   UNL A   1      32.584  36.347  30.715  1.00  0.00    -0.237 OA
ATOM     76  O   UNL A   1      31.671  35.036  32.601  1.00  0.00    -0.237 OA
ATOM     77  O   UNL A   1      32.893  37.131  33.033  1.00  0.00    -0.744 OA
ENDBRANCH  73  74
ENDBRANCH  52  66
BRANCH  53  78
ATOM     78  C   UNL A   1      44.406  26.990  33.824  1.00  0.00     0.058 A 
ATOM     79  C   UNL A   1      45.405  27.875  33.351  1.00  0.00     0.135 A 
ATOM     80  C   UNL A   1      44.852  25.804  34.435  1.00  0.00     0.135 A 
ATOM     81  F   UNL A   1      45.047  28.999  32.709  1.00  0.00    -0.206 F 
ATOM     82  C   UNL A   1      46.739  27.752  33.741  1.00  0.00     0.059 A 
ATOM     83  C   UNL A   1      46.188  25.662  34.836  1.00  0.00     0.059 A 
ATOM     84  F   UNL A   1      43.960  24.913  34.892  1.00  0.00    -0.206 F 
ATOM     85  C   UNL A   1      47.106  26.678  34.546  1.00  0.00     0.060 A 
BRANCH  85  86
ATOM     86  S   UNL A   1      48.691  26.769  35.430  1.00  0.00     0.124 S 
ATOM     87  O   UNL A   1      48.995  25.364  35.658  1.00  0.00    -0.237 OA
ATOM     88  O   UNL A   1      49.543  27.457  34.463  1.00  0.00    -0.237 OA
ATOM     89  O   UNL A   1      48.350  27.554  36.612  1.00  0.00    -0.744 OA
ENDBRANCH  85  86
ENDBRANCH  53  78
BRANCH  65  90
ATOM     90  C   UNL A   1      41.545  33.164  36.886  1.00  0.00     0.058 A 
ATOM     91  C   UNL A   1      40.830  33.557  38.026  1.00  0.00     0.135 A 
ATOM     92  C   UNL A   1      42.677  33.980  36.585  1.00  0.00     0.135 A 
ATOM     93  F   UNL A   1      39.809  32.834  38.503  1.00  0.00    -0.206 F 
ATOM     94  C   UNL A   1      41.165  34.689  38.770  1.00  0.00     0.059 A 
ATOM     95  C   UNL A   1      43.067  35.074  37.350  1.00  0.00     0.059 A 
ATOM     96  F   UNL A   1      43.486  33.731  35.546  1.00  0.00    -0.206 F 
ATOM     97  C   UNL A   1      42.286  35.437  38.429  1.00  0.00     0.060 A 
BRANCH  97  98
ATOM     98  S   UNL A   1      42.728  36.859  39.435  1.00  0.00     0.124 S 
ATOM     99  O   UNL A   1      41.986  36.584  40.661  1.00  0.00    -0.237 OA
ATOM    100  O   UNL A   1      44.179  36.731  39.530  1.00  0.00    -0.237 OA
ATOM    101  O   UNL A   1      42.256  37.996  38.652  1.00  0.00    -0.744 OA
ENDBRANCH  97  98
ENDBRANCH  65  90
ENDBRANCH  39  40
ENDBRANCH  32  34
ENDBRANCH  31  32
ENDBRANCH  30  31
ENDBRANCH  29  30
ENDBRANCH  28  29
ENDBRANCH  27  28
ENDBRANCH   1  27
TORSDOF 25
ENDMDL
