MODEL 1
REMARK VINA RESULT:      -7.0      0.000      0.000
REMARK SMILES COC(=O)CCN(C)C(=O)NCc1ccc(C(=O)OCCOCCOCCOCCOC(=O)c2ccc(-c3c4nc(c(-c5c(F)cc(S(=O)(=O)[O-])cc5F)c5ccc([nH]5)c(-c5c(F)cc(S(=O)(=O)[O-])cc5F)c5nc(c(-c6c(F)cc(S(=O)(=O)[O-])cc6F)c6ccc3[nH]6)C=C5)C=C4)cc2)o1
REMARK SMILES IDX 23 1 22 2 21 3 20 4 19 5 17 6 18 7 16 8 13 9 14 10 100 11
REMARK SMILES IDX 15 12 12 13 11 14 9 15 10 16 7 18 8 19 6 20 5 21 3 22 4 23
REMARK SMILES IDX 2 24 1 25 24 26 25 27 26 28 27 29 28 30 29 31 30 32 31 33
REMARK SMILES IDX 32 34 33 35 34 36 35 37 99 38 36 39 98 40 37 41 38 42 39 43
REMARK SMILES IDX 92 44 40 45 97 46 91 47 93 48 41 49 96 50 90 51 89 52 42 54
REMARK SMILES IDX 76 55 55 56 75 57 56 58 59 59 74 60 94 61 57 62 58 63 73 65
REMARK SMILES IDX 95 66 60 67 43 68 44 69 53 70 45 71 46 72 52 73 54 74 47 75
REMARK SMILES IDX 48 76 49 77 50 78 51 79 77 80 78 81 87 82 79 83 80 84 86 85
REMARK SMILES IDX 88 86 81 87 82 88 83 89 84 90 85 91 61 92 62 93 71 94 63 95
REMARK SMILES IDX 64 96 70 97 72 98 65 99 66 100 67 101 68 102 69 103
REMARK H PARENT 11 17 93 53 59 64
REMARK Flexibility Score: inf
ROOT
ATOM      1  C   UNL A   1      40.262  34.582  31.924  1.00  0.00     0.188 C 
ENDROOT
BRANCH   1   2
ATOM      2  O   UNL A   1      40.337  34.027  30.616  1.00  0.00    -0.376 OA
BRANCH   2   3
ATOM      3  C   UNL A   1      41.302  34.559  29.715  1.00  0.00     0.202 C 
BRANCH   3   4
ATOM      4  C   UNL A   1      42.771  34.096  29.774  1.00  0.00     0.261 C 
BRANCH   4   5
ATOM      5  O   UNL A   1      43.082  32.835  29.162  1.00  0.00    -0.457 OA
BRANCH   5   6
ATOM      6  C   UNL A   1      44.114  32.757  28.286  1.00  0.00     0.374 C 
ATOM      7  O   UNL A   1      44.939  33.645  28.096  1.00  0.00    -0.242 OA
BRANCH   6   8
ATOM      8  C   UNL A   1      44.151  31.409  27.759  1.00  0.00     0.211 A 
ATOM      9  C   UNL A   1      45.164  29.573  27.065  1.00  0.00     0.124 A 
ATOM     10  C   UNL A   1      43.848  29.228  27.286  1.00  0.00     0.048 A 
ATOM     11  O   UNL A   1      45.346  30.904  27.313  1.00  0.00    -0.452 OA
ATOM     12  C   UNL A   1      43.198  30.404  27.730  1.00  0.00     0.058 A 
BRANCH   9  13
ATOM     13  C   UNL A   1      46.374  28.792  26.706  1.00  0.00     0.193 C 
BRANCH  13  14
ATOM     14  N   UNL A   1      46.531  28.864  25.266  1.00  0.00    -0.331 N 
ATOM     15  C   UNL A   1      47.008  28.051  24.309  1.00  0.00     0.317 C 
ATOM     16  O   UNL A   1      46.655  28.318  23.156  1.00  0.00    -0.249 OA
ATOM     17  H   UNL A   1      46.209  29.719  24.899  1.00  0.00     0.165 HD
BRANCH  15  18
ATOM     18  N   UNL A   1      47.810  26.976  24.582  1.00  0.00    -0.327 N 
ATOM     19  C   UNL A   1      47.388  25.589  24.666  1.00  0.00     0.148 C 
BRANCH  18  20
ATOM     20  C   UNL A   1      49.229  27.239  24.875  1.00  0.00     0.132 C 
BRANCH  20  21
ATOM     21  C   UNL A   1      49.961  26.012  25.402  1.00  0.00     0.144 C 
BRANCH  21  22
ATOM     22  C   UNL A   1      50.397  26.220  26.826  1.00  0.00     0.307 C 
ATOM     23  O   UNL A   1      50.437  27.315  27.372  1.00  0.00    -0.252 OA
BRANCH  22  24
ATOM     24  O   UNL A   1      50.735  25.035  27.402  1.00  0.00    -0.469 OA
ATOM     25  C   UNL A   1      50.183  24.842  28.704  1.00  0.00     0.282 C 
ENDBRANCH  22  24
ENDBRANCH  21  22
ENDBRANCH  20  21
ENDBRANCH  18  20
ENDBRANCH  15  18
ENDBRANCH  13  14
ENDBRANCH   9  13
ENDBRANCH   6   8
ENDBRANCH   5   6
ENDBRANCH   4   5
ENDBRANCH   3   4
ENDBRANCH   2   3
ENDBRANCH   1   2
BRANCH   1  26
ATOM     26  C   UNL A   1      38.824  34.607  32.469  1.00  0.00     0.188 C 
BRANCH  26  27
ATOM     27  O   UNL A   1      37.874  34.291  31.459  1.00  0.00    -0.377 OA
BRANCH  27  28
ATOM     28  C   UNL A   1      36.666  33.685  31.916  1.00  0.00     0.188 C 
BRANCH  28  29
ATOM     29  C   UNL A   1      35.357  33.988  31.159  1.00  0.00     0.188 C 
BRANCH  29  30
ATOM     30  O   UNL A   1      35.553  34.170  29.754  1.00  0.00    -0.376 OA
BRANCH  30  31
ATOM     31  C   UNL A   1      34.403  34.564  29.009  1.00  0.00     0.202 C 
BRANCH  31  32
ATOM     32  C   UNL A   1      33.976  33.541  27.948  1.00  0.00     0.261 C 
BRANCH  32  33
ATOM     33  O   UNL A   1      34.985  32.581  27.593  1.00  0.00    -0.460 OA
BRANCH  33  34
ATOM     34  C   UNL A   1      34.672  31.275  27.744  1.00  0.00     0.338 C 
ATOM     35  O   UNL A   1      33.628  30.729  27.438  1.00  0.00    -0.246 OA
BRANCH  34  36
ATOM     36  C   UNL A   1      35.889  30.564  28.183  1.00  0.00     0.060 A 
ATOM     37  C   UNL A   1      35.789  29.643  29.233  1.00  0.00     0.016 A 
ATOM     38  C   UNL A   1      37.121  30.822  27.576  1.00  0.00     0.016 A 
ATOM     39  C   UNL A   1      36.936  29.009  29.712  1.00  0.00     0.010 A 
ATOM     40  C   UNL A   1      38.268  30.199  28.065  1.00  0.00     0.010 A 
ATOM     41  C   UNL A   1      38.185  29.319  29.159  1.00  0.00    -0.014 A 
BRANCH  41  42
ATOM     42  C   UNL A   1      39.430  28.889  29.837  1.00  0.00     0.031 A 
ATOM     43  C   UNL A   1      39.870  29.647  31.059  1.00  0.00     0.074 A 
ATOM     44  C   UNL A   1      40.165  27.867  29.368  1.00  0.00     0.049 A 
ATOM     45  N   UNL A   1      40.960  29.517  31.769  1.00  0.00    -0.248 NA
ATOM     46  C   UNL A   1      38.958  30.699  31.540  1.00  0.00     0.031 C 
ATOM     47  C   UNL A   1      39.826  27.041  28.210  1.00  0.00     0.029 A 
ATOM     48  N   UNL A   1      41.364  27.362  29.804  1.00  0.00    -0.354 N 
ATOM     49  C   UNL A   1      40.868  30.473  32.775  1.00  0.00     0.074 A 
ATOM     50  C   UNL A   1      39.629  31.190  32.571  1.00  0.00     0.031 C 
ATOM     51  C   UNL A   1      40.809  26.143  28.014  1.00  0.00     0.029 A 
ATOM     52  C   UNL A   1      41.855  26.350  29.014  1.00  0.00     0.049 A 
ATOM     53  H   UNL A   1      41.829  27.693  30.606  1.00  0.00     0.167 HD
ATOM     54  C   UNL A   1      41.737  30.724  33.782  1.00  0.00     0.037 A 
ATOM     55  C   UNL A   1      43.027  25.686  29.082  1.00  0.00     0.037 A 
ATOM     56  C   UNL A   1      42.973  30.016  33.975  1.00  0.00     0.049 A 
ATOM     57  C   UNL A   1      44.007  26.023  30.177  1.00  0.00     0.074 A 
ATOM     58  C   UNL A   1      43.920  30.193  34.968  1.00  0.00     0.029 A 
ATOM     59  N   UNL A   1      43.437  29.000  33.154  1.00  0.00    -0.354 N 
ATOM     60  N   UNL A   1      43.900  26.913  31.134  1.00  0.00    -0.248 NA
ATOM     61  C   UNL A   1      45.266  25.265  30.202  1.00  0.00     0.031 C 
ATOM     62  C   UNL A   1      44.976  29.308  34.725  1.00  0.00     0.029 A 
ATOM     63  C   UNL A   1      44.665  28.551  33.606  1.00  0.00     0.049 A 
ATOM     64  H   UNL A   1      42.964  28.651  32.365  1.00  0.00     0.167 HD
ATOM     65  C   UNL A   1      45.062  26.801  31.892  1.00  0.00     0.074 A 
ATOM     66  C   UNL A   1      45.858  25.756  31.282  1.00  0.00     0.031 C 
ATOM     67  C   UNL A   1      45.436  27.497  32.994  1.00  0.00     0.037 A 
BRANCH  54  68
ATOM     68  C   UNL A   1      41.385  31.832  34.733  1.00  0.00     0.058 A 
ATOM     69  C   UNL A   1      41.933  33.117  34.600  1.00  0.00     0.135 A 
ATOM     70  C   UNL A   1      40.481  31.608  35.783  1.00  0.00     0.135 A 
ATOM     71  F   UNL A   1      42.820  33.377  33.626  1.00  0.00    -0.206 F 
ATOM     72  C   UNL A   1      41.616  34.137  35.491  1.00  0.00     0.059 A 
ATOM     73  C   UNL A   1      40.131  32.620  36.671  1.00  0.00     0.059 A 
ATOM     74  F   UNL A   1      39.935  30.395  35.958  1.00  0.00    -0.206 F 
ATOM     75  C   UNL A   1      40.716  33.878  36.526  1.00  0.00     0.060 A 
BRANCH  75  76
ATOM     76  S   UNL A   1      40.315  35.208  37.678  1.00  0.00     0.124 S 
ATOM     77  O   UNL A   1      39.185  34.633  38.402  1.00  0.00    -0.237 OA
ATOM     78  O   UNL A   1      41.552  35.345  38.441  1.00  0.00    -0.237 OA
ATOM     79  O   UNL A   1      39.995  36.331  36.802  1.00  0.00    -0.744 OA
ENDBRANCH  75  76
ENDBRANCH  54  68
BRANCH  55  80
ATOM     80  C   UNL A   1      43.347  24.641  28.074  1.00  0.00     0.058 A 
ATOM     81  C   UNL A   1      44.062  24.955  26.909  1.00  0.00     0.135 A 
ATOM     82  C   UNL A   1      42.941  23.310  28.254  1.00  0.00     0.135 A 
ATOM     83  F   UNL A   1      44.461  26.217  26.687  1.00  0.00    -0.206 F 
ATOM     84  C   UNL A   1      44.356  23.989  25.952  1.00  0.00     0.059 A 
ATOM     85  C   UNL A   1      43.242  22.322  27.321  1.00  0.00     0.059 A 
ATOM     86  F   UNL A   1      42.261  22.957  29.356  1.00  0.00    -0.206 F 
ATOM     87  C   UNL A   1      43.943  22.673  26.169  1.00  0.00     0.060 A 
BRANCH  87  88
ATOM     88  S   UNL A   1      44.372  21.414  24.947  1.00  0.00     0.124 S 
ATOM     89  O   UNL A   1      43.368  20.391  25.213  1.00  0.00    -0.237 OA
ATOM     90  O   UNL A   1      44.225  22.142  23.690  1.00  0.00    -0.237 OA
ATOM     91  O   UNL A   1      45.744  21.061  25.300  1.00  0.00    -0.744 OA
ENDBRANCH  87  88
ENDBRANCH  55  80
BRANCH  67  92
ATOM     92  C   UNL A   1      46.739  27.128  33.644  1.00  0.00     0.058 A 
ATOM     93  C   UNL A   1      46.833  26.071  34.562  1.00  0.00     0.135 A 
ATOM     94  C   UNL A   1      47.922  27.797  33.288  1.00  0.00     0.135 A 
ATOM     95  F   UNL A   1      45.731  25.404  34.938  1.00  0.00    -0.206 F 
ATOM     96  C   UNL A   1      48.054  25.699  35.116  1.00  0.00     0.059 A 
ATOM     97  C   UNL A   1      49.156  27.427  33.812  1.00  0.00     0.059 A 
ATOM     98  F   UNL A   1      47.887  28.809  32.406  1.00  0.00    -0.206 F 
ATOM     99  C   UNL A   1      49.210  26.381  34.733  1.00  0.00     0.060 A 
BRANCH  99 100
ATOM    100  S   UNL A   1      50.797  25.860  35.422  1.00  0.00     0.124 S 
ATOM    101  O   UNL A   1      51.520  27.126  35.483  1.00  0.00    -0.237 OA
ATOM    102  O   UNL A   1      50.407  25.290  36.709  1.00  0.00    -0.237 OA
ATOM    103  O   UNL A   1      51.292  24.899  34.442  1.00  0.00    -0.744 OA
ENDBRANCH  99 100
ENDBRANCH  67  92
ENDBRANCH  41  42
ENDBRANCH  34  36
ENDBRANCH  33  34
ENDBRANCH  32  33
ENDBRANCH  31  32
ENDBRANCH  30  31
ENDBRANCH  29  30
ENDBRANCH  28  29
ENDBRANCH  27  28
ENDBRANCH  26  27
ENDBRANCH   1  26
TORSDOF 30
ENDMDL
MODEL 2
REMARK VINA RESULT:      -6.1      5.125     11.934
REMARK SMILES COC(=O)CCN(C)C(=O)NCc1ccc(C(=O)OCCOCCOCCOCCOC(=O)c2ccc(-c3c4nc(c(-c5c(F)cc(S(=O)(=O)[O-])cc5F)c5ccc([nH]5)c(-c5c(F)cc(S(=O)(=O)[O-])cc5F)c5nc(c(-c6c(F)cc(S(=O)(=O)[O-])cc6F)c6ccc3[nH]6)C=C5)C=C4)cc2)o1
REMARK SMILES IDX 23 1 22 2 21 3 20 4 19 5 17 6 18 7 16 8 13 9 14 10 100 11
REMARK SMILES IDX 15 12 12 13 11 14 9 15 10 16 7 18 8 19 6 20 5 21 3 22 4 23
REMARK SMILES IDX 2 24 1 25 24 26 25 27 26 28 27 29 28 30 29 31 30 32 31 33
REMARK SMILES IDX 32 34 33 35 34 36 35 37 99 38 36 39 98 40 37 41 38 42 39 43
REMARK SMILES IDX 92 44 40 45 97 46 91 47 93 48 41 49 96 50 90 51 89 52 42 54
REMARK SMILES IDX 76 55 55 56 75 57 56 58 59 59 74 60 94 61 57 62 58 63 73 65
REMARK SMILES IDX 95 66 60 67 43 68 44 69 53 70 45 71 46 72 52 73 54 74 47 75
REMARK SMILES IDX 48 76 49 77 50 78 51 79 77 80 78 81 87 82 79 83 80 84 86 85
REMARK SMILES IDX 88 86 81 87 82 88 83 89 84 90 85 91 61 92 62 93 71 94 63 95
REMARK SMILES IDX 64 96 70 97 72 98 65 99 66 100 67 101 68 102 69 103
REMARK H PARENT 11 17 93 53 59 64
REMARK Flexibility Score: inf
ROOT
ATOM      1  C   UNL A   1      36.084  21.838  24.499  1.00  0.00     0.188 C 
ENDROOT
BRANCH   1   2
ATOM      2  O   UNL A   1      35.305  21.304  25.563  1.00  0.00    -0.376 OA
BRANCH   2   3
ATOM      3  C   UNL A   1      34.915  22.180  26.615  1.00  0.00     0.202 C 
BRANCH   3   4
ATOM      4  C   UNL A   1      33.424  22.409  26.934  1.00  0.00     0.261 C 
BRANCH   4   5
ATOM      5  O   UNL A   1      32.469  21.683  26.147  1.00  0.00    -0.457 OA
BRANCH   5   6
ATOM      6  C   UNL A   1      31.473  22.357  25.520  1.00  0.00     0.374 C 
ATOM      7  O   UNL A   1      30.446  22.749  26.062  1.00  0.00    -0.242 OA
BRANCH   6   8
ATOM      8  C   UNL A   1      31.918  22.661  24.176  1.00  0.00     0.211 A 
ATOM      9  C   UNL A   1      32.431  24.019  22.511  1.00  0.00     0.124 A 
ATOM     10  C   UNL A   1      32.968  22.791  22.188  1.00  0.00     0.048 A 
ATOM     11  O   UNL A   1      31.759  23.937  23.698  1.00  0.00    -0.452 OA
ATOM     12  C   UNL A   1      32.639  21.920  23.254  1.00  0.00     0.058 A 
BRANCH   9  13
ATOM     13  C   UNL A   1      32.511  25.361  21.884  1.00  0.00     0.193 C 
BRANCH  13  14
ATOM     14  N   UNL A   1      33.285  26.213  22.766  1.00  0.00    -0.331 N 
ATOM     15  C   UNL A   1      33.009  27.049  23.780  1.00  0.00     0.317 C 
ATOM     16  O   UNL A   1      33.961  27.328  24.517  1.00  0.00    -0.249 OA
ATOM     17  H   UNL A   1      34.250  26.168  22.575  1.00  0.00     0.165 HD
BRANCH  15  18
ATOM     18  N   UNL A   1      31.755  27.543  24.013  1.00  0.00    -0.327 N 
ATOM     19  C   UNL A   1      30.796  27.036  24.980  1.00  0.00     0.148 C 
BRANCH  18  20
ATOM     20  C   UNL A   1      31.295  28.663  23.174  1.00  0.00     0.132 C 
BRANCH  20  21
ATOM     21  C   UNL A   1      29.942  28.399  22.526  1.00  0.00     0.144 C 
BRANCH  21  22
ATOM     22  C   UNL A   1      29.190  29.685  22.315  1.00  0.00     0.307 C 
ATOM     23  O   UNL A   1      28.768  30.056  21.228  1.00  0.00    -0.252 OA
BRANCH  22  24
ATOM     24  O   UNL A   1      29.056  30.359  23.489  1.00  0.00    -0.469 OA
ATOM     25  C   UNL A   1      28.154  31.464  23.426  1.00  0.00     0.282 C 
ENDBRANCH  22  24
ENDBRANCH  21  22
ENDBRANCH  20  21
ENDBRANCH  18  20
ENDBRANCH  15  18
ENDBRANCH  13  14
ENDBRANCH   9  13
ENDBRANCH   6   8
ENDBRANCH   5   6
ENDBRANCH   4   5
ENDBRANCH   3   4
ENDBRANCH   2   3
ENDBRANCH   1   2
BRANCH   1  26
ATOM     26  C   UNL A   1      37.406  22.451  24.989  1.00  0.00     0.188 C 
BRANCH  26  27
ATOM     27  O   UNL A   1      38.315  21.451  25.432  1.00  0.00    -0.377 OA
BRANCH  27  28
ATOM     28  C   UNL A   1      39.381  21.910  26.263  1.00  0.00     0.188 C 
BRANCH  28  29
ATOM     29  C   UNL A   1      40.697  21.107  26.285  1.00  0.00     0.188 C 
BRANCH  29  30
ATOM     30  O   UNL A   1      41.831  21.902  26.645  1.00  0.00    -0.376 OA
BRANCH  30  31
ATOM     31  C   UNL A   1      43.103  21.383  26.262  1.00  0.00     0.202 C 
BRANCH  31  32
ATOM     32  C   UNL A   1      43.868  22.290  25.288  1.00  0.00     0.261 C 
BRANCH  32  33
ATOM     33  O   UNL A   1      44.995  22.976  25.857  1.00  0.00    -0.460 OA
BRANCH  33  34
ATOM     34  C   UNL A   1      45.008  24.323  25.763  1.00  0.00     0.338 C 
ATOM     35  O   UNL A   1      44.910  24.990  24.748  1.00  0.00    -0.246 OA
BRANCH  34  36
ATOM     36  C   UNL A   1      44.977  24.876  27.131  1.00  0.00     0.060 A 
ATOM     37  C   UNL A   1      43.741  25.001  27.778  1.00  0.00     0.016 A 
ATOM     38  C   UNL A   1      46.155  25.287  27.759  1.00  0.00     0.016 A 
ATOM     39  C   UNL A   1      43.677  25.585  29.045  1.00  0.00     0.010 A 
ATOM     40  C   UNL A   1      46.088  25.884  29.017  1.00  0.00     0.010 A 
ATOM     41  C   UNL A   1      44.845  26.068  29.649  1.00  0.00    -0.014 A 
BRANCH  41  42
ATOM     42  C   UNL A   1      44.763  26.943  30.841  1.00  0.00     0.031 A 
ATOM     43  C   UNL A   1      44.557  28.417  30.625  1.00  0.00     0.074 A 
ATOM     44  C   UNL A   1      44.890  26.447  32.083  1.00  0.00     0.049 A 
ATOM     45  N   UNL A   1      44.539  29.389  31.499  1.00  0.00    -0.248 NA
ATOM     46  C   UNL A   1      44.350  28.853  29.234  1.00  0.00     0.031 C 
ATOM     47  C   UNL A   1      45.066  25.034  32.417  1.00  0.00     0.029 A 
ATOM     48  N   UNL A   1      44.909  27.086  33.297  1.00  0.00    -0.354 N 
ATOM     49  C   UNL A   1      44.326  30.551  30.765  1.00  0.00     0.074 A 
ATOM     50  C   UNL A   1      44.244  30.166  29.373  1.00  0.00     0.031 C 
ATOM     51  C   UNL A   1      45.196  24.916  33.751  1.00  0.00     0.029 A 
ATOM     52  C   UNL A   1      45.141  26.246  34.358  1.00  0.00     0.049 A 
ATOM     53  H   UNL A   1      44.771  28.056  33.397  1.00  0.00     0.167 HD
ATOM     54  C   UNL A   1      44.204  31.822  31.212  1.00  0.00     0.037 A 
ATOM     55  C   UNL A   1      45.312  26.524  35.667  1.00  0.00     0.037 A 
ATOM     56  C   UNL A   1      44.297  32.202  32.595  1.00  0.00     0.049 A 
ATOM     57  C   UNL A   1      45.230  27.955  36.136  1.00  0.00     0.074 A 
ATOM     58  C   UNL A   1      44.182  33.464  33.151  1.00  0.00     0.029 A 
ATOM     59  N   UNL A   1      44.535  31.323  33.641  1.00  0.00    -0.354 N 
ATOM     60  N   UNL A   1      45.007  29.041  35.435  1.00  0.00    -0.248 NA
ATOM     61  C   UNL A   1      45.422  28.197  37.573  1.00  0.00     0.031 C 
ATOM     62  C   UNL A   1      44.387  33.352  34.531  1.00  0.00     0.029 A 
ATOM     63  C   UNL A   1      44.587  32.015  34.838  1.00  0.00     0.049 A 
ATOM     64  H   UNL A   1      44.650  30.350  33.545  1.00  0.00     0.167 HD
ATOM     65  C   UNL A   1      45.002  30.091  36.349  1.00  0.00     0.074 A 
ATOM     66  C   UNL A   1      45.243  29.509  37.653  1.00  0.00     0.031 C 
ATOM     67  C   UNL A   1      44.812  31.416  36.129  1.00  0.00     0.037 A 
BRANCH  54  68
ATOM     68  C   UNL A   1      43.983  32.894  30.184  1.00  0.00     0.058 A 
ATOM     69  C   UNL A   1      42.693  33.331  29.844  1.00  0.00     0.135 A 
ATOM     70  C   UNL A   1      45.073  33.499  29.539  1.00  0.00     0.135 A 
ATOM     71  F   UNL A   1      41.616  32.769  30.415  1.00  0.00    -0.206 F 
ATOM     72  C   UNL A   1      42.491  34.314  28.881  1.00  0.00     0.059 A 
ATOM     73  C   UNL A   1      44.895  34.501  28.591  1.00  0.00     0.059 A 
ATOM     74  F   UNL A   1      46.326  33.112  29.824  1.00  0.00    -0.206 F 
ATOM     75  C   UNL A   1      43.598  34.891  28.258  1.00  0.00     0.060 A 
BRANCH  75  76
ATOM     76  S   UNL A   1      43.322  36.163  27.007  1.00  0.00     0.124 S 
ATOM     77  O   UNL A   1      44.678  36.665  26.801  1.00  0.00    -0.237 OA
ATOM     78  O   UNL A   1      42.756  35.397  25.901  1.00  0.00    -0.237 OA
ATOM     79  O   UNL A   1      42.402  37.088  27.661  1.00  0.00    -0.744 OA
ENDBRANCH  75  76
ENDBRANCH  54  68
BRANCH  55  80
ATOM     80  C   UNL A   1      45.590  25.426  36.630  1.00  0.00     0.058 A 
ATOM     81  C   UNL A   1      44.547  24.668  37.182  1.00  0.00     0.135 A 
ATOM     82  C   UNL A   1      46.902  25.117  37.019  1.00  0.00     0.135 A 
ATOM     83  F   UNL A   1      43.275  24.935  36.850  1.00  0.00    -0.206 F 
ATOM     84  C   UNL A   1      44.794  23.647  38.094  1.00  0.00     0.059 A 
ATOM     85  C   UNL A   1      47.175  24.086  37.913  1.00  0.00     0.059 A 
ATOM     86  F   UNL A   1      47.934  25.808  36.513  1.00  0.00    -0.206 F 
ATOM     87  C   UNL A   1      46.113  23.362  38.452  1.00  0.00     0.060 A 
BRANCH  87  88
ATOM     88  S   UNL A   1      46.429  22.002  39.598  1.00  0.00     0.124 S 
ATOM     89  O   UNL A   1      45.991  20.851  38.816  1.00  0.00    -0.237 OA
ATOM     90  O   UNL A   1      47.868  22.113  39.819  1.00  0.00    -0.237 OA
ATOM     91  O   UNL A   1      45.598  22.337  40.751  1.00  0.00    -0.744 OA
ENDBRANCH  87  88
ENDBRANCH  55  80
BRANCH  67  92
ATOM     92  C   UNL A   1      44.811  32.327  37.323  1.00  0.00     0.058 A 
ATOM     93  C   UNL A   1      45.986  32.939  37.787  1.00  0.00     0.135 A 
ATOM     94  C   UNL A   1      43.605  32.648  37.968  1.00  0.00     0.135 A 
ATOM     95  F   UNL A   1      47.165  32.661  37.208  1.00  0.00    -0.206 F 
ATOM     96  C   UNL A   1      45.968  33.826  38.858  1.00  0.00     0.059 A 
ATOM     97  C   UNL A   1      43.560  33.549  39.026  1.00  0.00     0.059 A 
ATOM     98  F   UNL A   1      42.452  32.097  37.556  1.00  0.00    -0.206 F 
ATOM     99  C   UNL A   1      44.749  34.127  39.470  1.00  0.00     0.060 A 
BRANCH  99 100
ATOM    100  S   UNL A   1      44.728  35.316  40.830  1.00  0.00     0.124 S 
ATOM    101  O   UNL A   1      44.207  34.501  41.923  1.00  0.00    -0.237 OA
ATOM    102  O   UNL A   1      46.134  35.695  40.936  1.00  0.00    -0.237 OA
ATOM    103  O   UNL A   1      43.838  36.366  40.348  1.00  0.00    -0.744 OA
ENDBRANCH  99 100
ENDBRANCH  67  92
ENDBRANCH  41  42
ENDBRANCH  34  36
ENDBRANCH  33  34
ENDBRANCH  32  33
ENDBRANCH  31  32
ENDBRANCH  30  31
ENDBRANCH  29  30
ENDBRANCH  28  29
ENDBRANCH  27  28
ENDBRANCH  26  27
ENDBRANCH   1  26
TORSDOF 30
ENDMDL
MODEL 3
REMARK VINA RESULT:      -5.7      3.522      8.494
REMARK SMILES COC(=O)CCN(C)C(=O)NCc1ccc(C(=O)OCCOCCOCCOCCOC(=O)c2ccc(-c3c4nc(c(-c5c(F)cc(S(=O)(=O)[O-])cc5F)c5ccc([nH]5)c(-c5c(F)cc(S(=O)(=O)[O-])cc5F)c5nc(c(-c6c(F)cc(S(=O)(=O)[O-])cc6F)c6ccc3[nH]6)C=C5)C=C4)cc2)o1
REMARK SMILES IDX 23 1 22 2 21 3 20 4 19 5 17 6 18 7 16 8 13 9 14 10 100 11
REMARK SMILES IDX 15 12 12 13 11 14 9 15 10 16 7 18 8 19 6 20 5 21 3 22 4 23
REMARK SMILES IDX 2 24 1 25 24 26 25 27 26 28 27 29 28 30 29 31 30 32 31 33
REMARK SMILES IDX 32 34 33 35 34 36 35 37 99 38 36 39 98 40 37 41 38 42 39 43
REMARK SMILES IDX 92 44 40 45 97 46 91 47 93 48 41 49 96 50 90 51 89 52 42 54
REMARK SMILES IDX 76 55 55 56 75 57 56 58 59 59 74 60 94 61 57 62 58 63 73 65
REMARK SMILES IDX 95 66 60 67 43 68 44 69 53 70 45 71 46 72 52 73 54 74 47 75
REMARK SMILES IDX 48 76 49 77 50 78 51 79 77 80 78 81 87 82 79 83 80 84 86 85
REMARK SMILES IDX 88 86 81 87 82 88 83 89 84 90 85 91 61 92 62 93 71 94 63 95
REMARK SMILES IDX 64 96 70 97 72 98 65 99 66 100 67 101 68 102 69 103
REMARK H PARENT 11 17 93 53 59 64
REMARK Flexibility Score: inf
ROOT
ATOM      1  C   UNL A   1      44.027  38.767  34.431  1.00  0.00     0.188 C 
ENDROOT
BRANCH   1   2
ATOM      2  O   UNL A   1      43.331  37.625  33.944  1.00  0.00    -0.376 OA
BRANCH   2   3
ATOM      3  C   UNL A   1      42.250  37.116  34.717  1.00  0.00     0.202 C 
BRANCH   3   4
ATOM      4  C   UNL A   1      42.492  36.035  35.789  1.00  0.00     0.261 C 
BRANCH   4   5
ATOM      5  O   UNL A   1      41.377  35.204  36.141  1.00  0.00    -0.457 OA
BRANCH   5   6
ATOM      6  C   UNL A   1      40.439  35.678  36.998  1.00  0.00     0.374 C 
ATOM      7  O   UNL A   1      40.517  36.742  37.602  1.00  0.00    -0.242 OA
BRANCH   6   8
ATOM      8  C   UNL A   1      39.292  34.796  36.936  1.00  0.00     0.211 A 
ATOM      9  C   UNL A   1      37.941  33.358  35.942  1.00  0.00     0.124 A 
ATOM     10  C   UNL A   1      37.675  33.269  37.292  1.00  0.00     0.048 A 
ATOM     11  O   UNL A   1      38.893  34.312  35.716  1.00  0.00    -0.452 OA
ATOM     12  C   UNL A   1      38.540  34.190  37.929  1.00  0.00     0.058 A 
BRANCH   9  13
ATOM     13  C   UNL A   1      37.469  32.597  34.760  1.00  0.00     0.193 C 
BRANCH  13  14
ATOM     14  N   UNL A   1      36.131  33.060  34.444  1.00  0.00    -0.331 N 
ATOM     15  C   UNL A   1      35.303  32.961  33.392  1.00  0.00     0.317 C 
ATOM     16  O   UNL A   1      34.111  33.186  33.626  1.00  0.00    -0.249 OA
ATOM     17  H   UNL A   1      35.731  33.572  35.183  1.00  0.00     0.165 HD
BRANCH  15  18
ATOM     18  N   UNL A   1      35.733  32.608  32.141  1.00  0.00    -0.327 N 
ATOM     19  C   UNL A   1      36.085  31.270  31.699  1.00  0.00     0.148 C 
BRANCH  18  20
ATOM     20  C   UNL A   1      35.914  33.683  31.152  1.00  0.00     0.132 C 
BRANCH  20  21
ATOM     21  C   UNL A   1      34.784  33.745  30.131  1.00  0.00     0.144 C 
BRANCH  21  22
ATOM     22  C   UNL A   1      33.815  34.843  30.473  1.00  0.00     0.307 C 
ATOM     23  O   UNL A   1      33.941  35.586  31.437  1.00  0.00    -0.252 OA
BRANCH  22  24
ATOM     24  O   UNL A   1      32.798  34.882  29.570  1.00  0.00    -0.469 OA
ATOM     25  C   UNL A   1      32.715  36.105  28.839  1.00  0.00     0.282 C 
ENDBRANCH  22  24
ENDBRANCH  21  22
ENDBRANCH  20  21
ENDBRANCH  18  20
ENDBRANCH  15  18
ENDBRANCH  13  14
ENDBRANCH   9  13
ENDBRANCH   6   8
ENDBRANCH   5   6
ENDBRANCH   4   5
ENDBRANCH   3   4
ENDBRANCH   2   3
ENDBRANCH   1   2
BRANCH   1  26
ATOM     26  C   UNL A   1      44.096  39.899  33.393  1.00  0.00     0.188 C 
BRANCH  26  27
ATOM     27  O   UNL A   1      42.820  40.174  32.829  1.00  0.00    -0.377 OA
BRANCH  27  28
ATOM     28  C   UNL A   1      42.832  40.880  31.589  1.00  0.00     0.188 C 
BRANCH  28  29
ATOM     29  C   UNL A   1      41.544  41.598  31.138  1.00  0.00     0.188 C 
BRANCH  29  30
ATOM     30  O   UNL A   1      41.092  41.176  29.847  1.00  0.00    -0.376 OA
BRANCH  30  31
ATOM     31  C   UNL A   1      42.111  40.894  28.890  1.00  0.00     0.202 C 
BRANCH  31  32
ATOM     32  C   UNL A   1      41.875  39.596  28.106  1.00  0.00     0.261 C 
BRANCH  32  33
ATOM     33  O   UNL A   1      42.686  38.484  28.518  1.00  0.00    -0.460 OA
BRANCH  33  34
ATOM     34  C   UNL A   1      42.712  37.405  27.705  1.00  0.00     0.338 C 
ATOM     35  O   UNL A   1      42.673  37.402  26.488  1.00  0.00    -0.246 OA
BRANCH  34  36
ATOM     36  C   UNL A   1      42.981  36.215  28.535  1.00  0.00     0.060 A 
ATOM     37  C   UNL A   1      44.269  36.035  29.055  1.00  0.00     0.016 A 
ATOM     38  C   UNL A   1      41.977  35.275  28.778  1.00  0.00     0.016 A 
ATOM     39  C   UNL A   1      44.568  34.883  29.784  1.00  0.00     0.010 A 
ATOM     40  C   UNL A   1      42.281  34.118  29.494  1.00  0.00     0.010 A 
ATOM     41  C   UNL A   1      43.587  33.901  29.968  1.00  0.00    -0.014 A 
BRANCH  41  42
ATOM     42  C   UNL A   1      43.958  32.559  30.475  1.00  0.00     0.031 A 
ATOM     43  C   UNL A   1      43.747  32.271  31.936  1.00  0.00     0.074 A 
ATOM     44  C   UNL A   1      44.491  31.629  29.666  1.00  0.00     0.049 A 
ATOM     45  N   UNL A   1      44.073  31.210  32.628  1.00  0.00    -0.248 NA
ATOM     46  C   UNL A   1      43.086  33.325  32.724  1.00  0.00     0.031 C 
ATOM     47  C   UNL A   1      44.717  31.783  28.230  1.00  0.00     0.029 A 
ATOM     48  N   UNL A   1      44.956  30.369  29.948  1.00  0.00    -0.354 N 
ATOM     49  C   UNL A   1      43.662  31.472  33.931  1.00  0.00     0.074 A 
ATOM     50  C   UNL A   1      43.085  32.798  33.938  1.00  0.00     0.031 C 
ATOM     51  C   UNL A   1      45.299  30.666  27.759  1.00  0.00     0.029 A 
ATOM     52  C   UNL A   1      45.511  29.731  28.865  1.00  0.00     0.049 A 
ATOM     53  H   UNL A   1      44.899  29.961  30.842  1.00  0.00     0.167 HD
ATOM     54  C   UNL A   1      43.753  30.674  35.020  1.00  0.00     0.037 A 
ATOM     55  C   UNL A   1      46.137  28.540  28.784  1.00  0.00     0.037 A 
ATOM     56  C   UNL A   1      44.336  29.361  35.011  1.00  0.00     0.049 A 
ATOM     57  C   UNL A   1      46.279  27.692  30.022  1.00  0.00     0.074 A 
ATOM     58  C   UNL A   1      44.470  28.471  36.062  1.00  0.00     0.029 A 
ATOM     59  N   UNL A   1      44.889  28.750  33.896  1.00  0.00    -0.354 N 
ATOM     60  N   UNL A   1      45.868  27.942  31.243  1.00  0.00    -0.248 NA
ATOM     61  C   UNL A   1      46.968  26.403  29.873  1.00  0.00     0.031 C 
ATOM     62  C   UNL A   1      45.139  27.336  35.590  1.00  0.00     0.029 A 
ATOM     63  C   UNL A   1      45.381  27.503  34.234  1.00  0.00     0.049 A 
ATOM     64  H   UNL A   1      44.926  29.147  32.995  1.00  0.00     0.167 HD
ATOM     65  C   UNL A   1      46.222  26.828  32.000  1.00  0.00     0.074 A 
ATOM     66  C   UNL A   1      46.880  25.904  31.099  1.00  0.00     0.031 C 
ATOM     67  C   UNL A   1      46.019  26.590  33.319  1.00  0.00     0.037 A 
BRANCH  54  68
ATOM     68  C   UNL A   1      43.229  31.221  36.317  1.00  0.00     0.058 A 
ATOM     69  C   UNL A   1      41.852  31.287  36.585  1.00  0.00     0.135 A 
ATOM     70  C   UNL A   1      44.113  31.674  37.309  1.00  0.00     0.135 A 
ATOM     71  F   UNL A   1      40.965  30.887  35.660  1.00  0.00    -0.206 F 
ATOM     72  C   UNL A   1      41.370  31.806  37.781  1.00  0.00     0.059 A 
ATOM     73  C   UNL A   1      43.653  32.175  38.522  1.00  0.00     0.059 A 
ATOM     74  F   UNL A   1      45.438  31.639  37.100  1.00  0.00    -0.206 F 
ATOM     75  C   UNL A   1      42.278  32.251  38.743  1.00  0.00     0.060 A 
BRANCH  75  76
ATOM     76  S   UNL A   1      41.639  32.927  40.290  1.00  0.00     0.124 S 
ATOM     77  O   UNL A   1      41.591  34.354  39.984  1.00  0.00    -0.237 OA
ATOM     78  O   UNL A   1      40.345  32.262  40.412  1.00  0.00    -0.237 OA
ATOM     79  O   UNL A   1      42.640  32.529  41.274  1.00  0.00    -0.744 OA
ENDBRANCH  75  76
ENDBRANCH  54  68
BRANCH  55  80
ATOM     80  C   UNL A   1      46.690  28.079  27.483  1.00  0.00     0.058 A 
ATOM     81  C   UNL A   1      45.926  27.290  26.611  1.00  0.00     0.135 A 
ATOM     82  C   UNL A   1      47.995  28.414  27.089  1.00  0.00     0.135 A 
ATOM     83  F   UNL A   1      44.678  26.932  26.950  1.00  0.00    -0.206 F 
ATOM     84  C   UNL A   1      46.437  26.841  25.398  1.00  0.00     0.059 A 
ATOM     85  C   UNL A   1      48.520  27.996  25.870  1.00  0.00     0.059 A 
ATOM     86  F   UNL A   1      48.763  29.174  27.885  1.00  0.00    -0.206 F 
ATOM     87  C   UNL A   1      47.737  27.201  25.036  1.00  0.00     0.060 A 
BRANCH  87  88
ATOM     88  S   UNL A   1      48.376  26.658  23.436  1.00  0.00     0.124 S 
ATOM     89  O   UNL A   1      47.698  27.570  22.523  1.00  0.00    -0.237 OA
ATOM     90  O   UNL A   1      49.813  26.862  23.593  1.00  0.00    -0.237 OA
ATOM     91  O   UNL A   1      47.954  25.262  23.365  1.00  0.00    -0.744 OA
ENDBRANCH  87  88
ENDBRANCH  55  80
BRANCH  67  92
ATOM     92  C   UNL A   1      46.469  25.265  33.866  1.00  0.00     0.058 A 
ATOM     93  C   UNL A   1      47.752  25.086  34.406  1.00  0.00     0.135 A 
ATOM     94  C   UNL A   1      45.578  24.180  33.915  1.00  0.00     0.135 A 
ATOM     95  F   UNL A   1      48.641  26.090  34.379  1.00  0.00    -0.206 F 
ATOM     96  C   UNL A   1      48.141  23.872  34.962  1.00  0.00     0.059 A 
ATOM     97  C   UNL A   1      45.939  22.965  34.487  1.00  0.00     0.059 A 
ATOM     98  F   UNL A   1      44.335  24.303  33.422  1.00  0.00    -0.206 F 
ATOM     99  C   UNL A   1      47.226  22.817  35.000  1.00  0.00     0.060 A 
BRANCH  99 100
ATOM    100  S   UNL A   1      47.726  21.260  35.766  1.00  0.00     0.124 S 
ATOM    101  O   UNL A   1      46.444  20.577  35.905  1.00  0.00    -0.237 OA
ATOM    102  O   UNL A   1      48.638  20.700  34.773  1.00  0.00    -0.237 OA
ATOM    103  O   UNL A   1      48.353  21.682  37.015  1.00  0.00    -0.744 OA
ENDBRANCH  99 100
ENDBRANCH  67  92
ENDBRANCH  41  42
ENDBRANCH  34  36
ENDBRANCH  33  34
ENDBRANCH  32  33
ENDBRANCH  31  32
ENDBRANCH  30  31
ENDBRANCH  29  30
ENDBRANCH  28  29
ENDBRANCH  27  28
ENDBRANCH  26  27
ENDBRANCH   1  26
TORSDOF 30
ENDMDL
