MODEL 1
REMARK VINA RESULT:      -9.0      0.000      0.000
REMARK SMILES CSc1nc(C2CC2)nc(C)c1C(=O)OCCOCCOCCOCCOC(=O)c1ccc(-c2c3nc(c(-c4c(F)cc(S(=O)(=O)[O-])cc4F)c4ccc([nH]4)c(-c4c(F)cc(S(=O)(=O)[O-])cc4F)c4nc(c(-c5c(F)cc(S(=O)(=O)[O-])cc5F)c5ccc2[nH]5)C=C4)C=C3)cc1
REMARK SMILES IDX 22 1 21 2 20 3 19 4 18 5 17 6 16 7 15 8 13 9 14 10 12 11
REMARK SMILES IDX 3 12 4 13 5 14 10 15 9 16 11 17 2 18 1 19 6 20 7 21 8 22
REMARK SMILES IDX 23 23 24 24 25 25 26 26 27 27 28 28 29 29 30 30 31 31 95 32
REMARK SMILES IDX 32 33 94 34 33 35 34 36 35 37 88 38 36 39 93 40 87 41 89 42
REMARK SMILES IDX 37 43 92 44 86 45 85 46 38 48 72 49 51 50 71 51 52 52 55 53
REMARK SMILES IDX 70 54 90 55 53 56 54 57 69 59 91 60 56 61 39 62 40 63 49 64
REMARK SMILES IDX 41 65 42 66 48 67 50 68 43 69 44 70 45 71 46 72 47 73 73 74
REMARK SMILES IDX 74 75 83 76 75 77 76 78 82 79 84 80 77 81 78 82 79 83 80 84
REMARK SMILES IDX 81 85 57 86 58 87 67 88 59 89 60 90 66 91 68 92 61 93 62 94
REMARK SMILES IDX 63 95 64 96 65 97
REMARK H PARENT 89 47 55 58
REMARK Flexibility Score: inf
ROOT
ATOM      1  C   UNL A   1      39.716  21.625  25.904  1.00  0.00     0.188 C 
ENDROOT
BRANCH   1   2
ATOM      2  O   UNL A   1      38.332  21.613  25.562  1.00  0.00    -0.377 OA
BRANCH   2   3
ATOM      3  C   UNL A   1      37.662  22.839  25.340  1.00  0.00     0.188 C 
BRANCH   3   4
ATOM      4  C   UNL A   1      36.358  23.059  26.129  1.00  0.00     0.188 C 
BRANCH   4   5
ATOM      5  O   UNL A   1      35.208  22.441  25.554  1.00  0.00    -0.376 OA
BRANCH   5   6
ATOM      6  C   UNL A   1      35.033  22.648  24.154  1.00  0.00     0.202 C 
BRANCH   6   7
ATOM      7  C   UNL A   1      33.637  22.299  23.636  1.00  0.00     0.261 C 
BRANCH   7   8
ATOM      8  O   UNL A   1      32.608  22.722  24.545  1.00  0.00    -0.460 OA
BRANCH   8   9
ATOM      9  C   UNL A   1      31.599  23.475  24.072  1.00  0.00     0.342 C 
ATOM     10  O   UNL A   1      30.806  23.162  23.202  1.00  0.00    -0.246 OA
BRANCH   9  11
ATOM     11  C   UNL A   1      31.555  24.720  24.859  1.00  0.00     0.113 A 
ATOM     12  C   UNL A   1      32.050  25.914  24.357  1.00  0.00     0.114 A 
ATOM     13  N   UNL A   1      32.085  27.054  25.087  1.00  0.00    -0.225 NA
ATOM     14  C   UNL A   1      31.603  27.026  26.339  1.00  0.00     0.133 A 
ATOM     15  C   UNL A   1      30.989  24.791  26.125  1.00  0.00     0.057 A 
ATOM     16  N   UNL A   1      31.024  25.932  26.860  1.00  0.00    -0.237 NA
ATOM     17  C   UNL A   1      30.324  23.631  26.809  1.00  0.00     0.068 C 
BRANCH  12  18
ATOM     18  S   UNL A   1      32.639  26.110  22.672  1.00  0.00    -0.109 SA
ATOM     19  C   UNL A   1      33.305  27.796  22.754  1.00  0.00     0.092 C 
ENDBRANCH  12  18
BRANCH  14  20
ATOM     20  C   UNL A   1      31.766  28.234  27.230  1.00  0.00     0.058 C 
ATOM     21  C   UNL A   1      33.060  29.018  27.260  1.00  0.00     0.012 C 
ATOM     22  C   UNL A   1      31.831  29.628  26.653  1.00  0.00     0.012 C 
ENDBRANCH  14  20
ENDBRANCH   9  11
ENDBRANCH   8   9
ENDBRANCH   7   8
ENDBRANCH   6   7
ENDBRANCH   5   6
ENDBRANCH   4   5
ENDBRANCH   3   4
ENDBRANCH   2   3
ENDBRANCH   1   2
BRANCH   1  23
ATOM     23  C   UNL A   1      40.238  22.251  27.216  1.00  0.00     0.188 C 
BRANCH  23  24
ATOM     24  O   UNL A   1      41.597  22.673  27.185  1.00  0.00    -0.376 OA
BRANCH  24  25
ATOM     25  C   UNL A   1      42.314  22.402  25.988  1.00  0.00     0.202 C 
BRANCH  25  26
ATOM     26  C   UNL A   1      42.885  23.656  25.317  1.00  0.00     0.261 C 
BRANCH  26  27
ATOM     27  O   UNL A   1      43.113  24.759  26.206  1.00  0.00    -0.460 OA
BRANCH  27  28
ATOM     28  C   UNL A   1      42.301  25.831  26.072  1.00  0.00     0.338 C 
ATOM     29  O   UNL A   1      41.637  26.137  25.099  1.00  0.00    -0.246 OA
BRANCH  28  30
ATOM     30  C   UNL A   1      42.211  26.491  27.387  1.00  0.00     0.060 A 
ATOM     31  C   UNL A   1      41.278  26.019  28.317  1.00  0.00     0.016 A 
ATOM     32  C   UNL A   1      43.045  27.568  27.692  1.00  0.00     0.016 A 
ATOM     33  C   UNL A   1      41.150  26.656  29.552  1.00  0.00     0.010 A 
ATOM     34  C   UNL A   1      42.906  28.213  28.920  1.00  0.00     0.010 A 
ATOM     35  C   UNL A   1      41.937  27.780  29.840  1.00  0.00    -0.014 A 
BRANCH  35  36
ATOM     36  C   UNL A   1      41.619  28.621  31.017  1.00  0.00     0.031 A 
ATOM     37  C   UNL A   1      40.470  29.585  30.913  1.00  0.00     0.074 A 
ATOM     38  C   UNL A   1      42.339  28.533  32.150  1.00  0.00     0.049 A 
ATOM     39  N   UNL A   1      40.028  30.445  31.791  1.00  0.00    -0.248 NA
ATOM     40  C   UNL A   1      39.722  29.578  29.644  1.00  0.00     0.031 C 
ATOM     41  C   UNL A   1      43.462  27.625  32.372  1.00  0.00     0.029 A 
ATOM     42  N   UNL A   1      42.233  29.235  33.324  1.00  0.00    -0.354 N 
ATOM     43  C   UNL A   1      38.952  31.082  31.185  1.00  0.00     0.074 A 
ATOM     44  C   UNL A   1      38.825  30.531  29.853  1.00  0.00     0.031 C 
ATOM     45  C   UNL A   1      43.953  27.836  33.606  1.00  0.00     0.029 A 
ATOM     46  C   UNL A   1      43.194  28.908  34.250  1.00  0.00     0.049 A 
ATOM     47  H   UNL A   1      41.534  29.910  33.488  1.00  0.00     0.167 HD
ATOM     48  C   UNL A   1      38.135  32.033  31.695  1.00  0.00     0.037 A 
ATOM     49  C   UNL A   1      43.441  29.429  35.468  1.00  0.00     0.037 A 
ATOM     50  C   UNL A   1      38.270  32.585  33.016  1.00  0.00     0.049 A 
ATOM     51  C   UNL A   1      42.554  30.529  35.994  1.00  0.00     0.074 A 
ATOM     52  C   UNL A   1      37.483  33.540  33.634  1.00  0.00     0.029 A 
ATOM     53  N   UNL A   1      39.263  32.237  33.920  1.00  0.00    -0.354 N 
ATOM     54  N   UNL A   1      41.515  31.095  35.426  1.00  0.00    -0.248 NA
ATOM     55  C   UNL A   1      42.870  31.060  37.329  1.00  0.00     0.031 C 
ATOM     56  C   UNL A   1      38.026  33.801  34.897  1.00  0.00     0.029 A 
ATOM     57  C   UNL A   1      39.123  32.975  35.082  1.00  0.00     0.049 A 
ATOM     58  H   UNL A   1      39.964  31.566  33.758  1.00  0.00     0.167 HD
ATOM     59  C   UNL A   1      41.038  32.027  36.344  1.00  0.00     0.074 A 
ATOM     60  C   UNL A   1      41.896  31.943  37.507  1.00  0.00     0.031 C 
ATOM     61  C   UNL A   1      39.983  32.871  36.235  1.00  0.00     0.037 A 
BRANCH  48  62
ATOM     62  C   UNL A   1      37.038  32.549  30.810  1.00  0.00     0.058 A 
ATOM     63  C   UNL A   1      37.227  33.667  29.981  1.00  0.00     0.135 A 
ATOM     64  C   UNL A   1      35.791  31.906  30.771  1.00  0.00     0.135 A 
ATOM     65  F   UNL A   1      38.393  34.331  29.997  1.00  0.00    -0.206 F 
ATOM     66  C   UNL A   1      36.209  34.144  29.163  1.00  0.00     0.059 A 
ATOM     67  C   UNL A   1      34.767  32.351  29.941  1.00  0.00     0.059 A 
ATOM     68  F   UNL A   1      35.558  30.837  31.549  1.00  0.00    -0.206 F 
ATOM     69  C   UNL A   1      34.981  33.478  29.151  1.00  0.00     0.060 A 
BRANCH  69  70
ATOM     70  S   UNL A   1      33.671  34.104  28.078  1.00  0.00     0.124 S 
ATOM     71  O   UNL A   1      33.130  32.865  27.528  1.00  0.00    -0.237 OA
ATOM     72  O   UNL A   1      32.807  34.810  29.018  1.00  0.00    -0.237 OA
ATOM     73  O   UNL A   1      34.385  34.953  27.129  1.00  0.00    -0.744 OA
ENDBRANCH  69  70
ENDBRANCH  48  62
BRANCH  49  74
ATOM     74  C   UNL A   1      44.582  28.925  36.276  1.00  0.00     0.058 A 
ATOM     75  C   UNL A   1      45.847  29.526  36.197  1.00  0.00     0.135 A 
ATOM     76  C   UNL A   1      44.433  27.827  37.138  1.00  0.00     0.135 A 
ATOM     77  F   UNL A   1      46.043  30.571  35.379  1.00  0.00    -0.206 F 
ATOM     78  C   UNL A   1      46.927  29.049  36.933  1.00  0.00     0.059 A 
ATOM     79  C   UNL A   1      45.491  27.346  37.901  1.00  0.00     0.059 A 
ATOM     80  F   UNL A   1      43.240  27.222  37.256  1.00  0.00    -0.206 F 
ATOM     81  C   UNL A   1      46.739  27.959  37.784  1.00  0.00     0.060 A 
BRANCH  81  82
ATOM     82  S   UNL A   1      48.135  27.376  38.771  1.00  0.00     0.124 S 
ATOM     83  O   UNL A   1      48.791  28.629  39.122  1.00  0.00    -0.237 OA
ATOM     84  O   UNL A   1      47.467  26.675  39.864  1.00  0.00    -0.237 OA
ATOM     85  O   UNL A   1      48.865  26.518  37.843  1.00  0.00    -0.744 OA
ENDBRANCH  81  82
ENDBRANCH  49  74
BRANCH  61  86
ATOM     86  C   UNL A   1      39.671  33.751  37.414  1.00  0.00     0.058 A 
ATOM     87  C   UNL A   1      38.829  33.322  38.452  1.00  0.00     0.135 A 
ATOM     88  C   UNL A   1      40.273  35.014  37.536  1.00  0.00     0.135 A 
ATOM     89  F   UNL A   1      38.225  32.125  38.381  1.00  0.00    -0.206 F 
ATOM     90  C   UNL A   1      38.581  34.123  39.562  1.00  0.00     0.059 A 
ATOM     91  C   UNL A   1      40.059  35.820  38.650  1.00  0.00     0.059 A 
ATOM     92  F   UNL A   1      41.096  35.466  36.577  1.00  0.00    -0.206 F 
ATOM     93  C   UNL A   1      39.202  35.371  39.653  1.00  0.00     0.060 A 
BRANCH  93  94
ATOM     94  S   UNL A   1      38.904  36.385  41.117  1.00  0.00     0.124 S 
ATOM     95  O   UNL A   1      40.207  36.343  41.772  1.00  0.00    -0.237 OA
ATOM     96  O   UNL A   1      38.527  37.670  40.537  1.00  0.00    -0.237 OA
ATOM     97  O   UNL A   1      37.831  35.677  41.807  1.00  0.00    -0.744 OA
ENDBRANCH  93  94
ENDBRANCH  61  86
ENDBRANCH  35  36
ENDBRANCH  28  30
ENDBRANCH  27  28
ENDBRANCH  26  27
ENDBRANCH  25  26
ENDBRANCH  24  25
ENDBRANCH  23  24
ENDBRANCH   1  23
TORSDOF 25
ENDMDL
MODEL 2
REMARK VINA RESULT:      -8.8      1.920      8.621
REMARK SMILES CSc1nc(C2CC2)nc(C)c1C(=O)OCCOCCOCCOCCOC(=O)c1ccc(-c2c3nc(c(-c4c(F)cc(S(=O)(=O)[O-])cc4F)c4ccc([nH]4)c(-c4c(F)cc(S(=O)(=O)[O-])cc4F)c4nc(c(-c5c(F)cc(S(=O)(=O)[O-])cc5F)c5ccc2[nH]5)C=C4)C=C3)cc1
REMARK SMILES IDX 22 1 21 2 20 3 19 4 18 5 17 6 16 7 15 8 13 9 14 10 12 11
REMARK SMILES IDX 3 12 4 13 5 14 10 15 9 16 11 17 2 18 1 19 6 20 7 21 8 22
REMARK SMILES IDX 23 23 24 24 25 25 26 26 27 27 28 28 29 29 30 30 31 31 95 32
REMARK SMILES IDX 32 33 94 34 33 35 34 36 35 37 88 38 36 39 93 40 87 41 89 42
REMARK SMILES IDX 37 43 92 44 86 45 85 46 38 48 72 49 51 50 71 51 52 52 55 53
REMARK SMILES IDX 70 54 90 55 53 56 54 57 69 59 91 60 56 61 39 62 40 63 49 64
REMARK SMILES IDX 41 65 42 66 48 67 50 68 43 69 44 70 45 71 46 72 47 73 73 74
REMARK SMILES IDX 74 75 83 76 75 77 76 78 82 79 84 80 77 81 78 82 79 83 80 84
REMARK SMILES IDX 81 85 57 86 58 87 67 88 59 89 60 90 66 91 68 92 61 93 62 94
REMARK SMILES IDX 63 95 64 96 65 97
REMARK H PARENT 89 47 55 58
REMARK Flexibility Score: inf
ROOT
ATOM      1  C   UNL A   1      39.449  21.537  26.070  1.00  0.00     0.188 C 
ENDROOT
BRANCH   1   2
ATOM      2  O   UNL A   1      38.386  22.147  25.342  1.00  0.00    -0.377 OA
BRANCH   2   3
ATOM      3  C   UNL A   1      37.380  21.332  24.771  1.00  0.00     0.188 C 
BRANCH   3   4
ATOM      4  C   UNL A   1      36.141  22.061  24.220  1.00  0.00     0.188 C 
BRANCH   4   5
ATOM      5  O   UNL A   1      36.193  23.482  24.329  1.00  0.00    -0.376 OA
BRANCH   5   6
ATOM      6  C   UNL A   1      35.121  24.084  25.051  1.00  0.00     0.202 C 
BRANCH   6   7
ATOM      7  C   UNL A   1      34.067  24.754  24.169  1.00  0.00     0.261 C 
BRANCH   7   8
ATOM      8  O   UNL A   1      33.265  23.791  23.467  1.00  0.00    -0.460 OA
BRANCH   8   9
ATOM      9  C   UNL A   1      32.194  23.267  24.088  1.00  0.00     0.342 C 
ATOM     10  O   UNL A   1      31.158  23.845  24.360  1.00  0.00    -0.246 OA
BRANCH   9  11
ATOM     11  C   UNL A   1      32.453  21.831  24.304  1.00  0.00     0.113 A 
ATOM     12  C   UNL A   1      32.771  21.331  25.558  1.00  0.00     0.114 A 
ATOM     13  N   UNL A   1      33.081  20.030  25.767  1.00  0.00    -0.225 NA
ATOM     14  C   UNL A   1      33.061  19.192  24.719  1.00  0.00     0.133 A 
ATOM     15  C   UNL A   1      32.361  20.889  23.289  1.00  0.00     0.057 A 
ATOM     16  N   UNL A   1      32.673  19.584  23.494  1.00  0.00    -0.237 NA
ATOM     17  C   UNL A   1      31.948  21.215  21.882  1.00  0.00     0.068 C 
BRANCH  12  18
ATOM     18  S   UNL A   1      32.744  22.323  27.054  1.00  0.00    -0.109 SA
ATOM     19  C   UNL A   1      34.366  21.903  27.751  1.00  0.00     0.092 C 
ENDBRANCH  12  18
BRANCH  14  20
ATOM     20  C   UNL A   1      33.548  17.772  24.887  1.00  0.00     0.058 C 
ATOM     21  C   UNL A   1      32.805  16.787  25.762  1.00  0.00     0.012 C 
ATOM     22  C   UNL A   1      32.803  16.612  24.271  1.00  0.00     0.012 C 
ENDBRANCH  14  20
ENDBRANCH   9  11
ENDBRANCH   8   9
ENDBRANCH   7   8
ENDBRANCH   6   7
ENDBRANCH   5   6
ENDBRANCH   4   5
ENDBRANCH   3   4
ENDBRANCH   2   3
ENDBRANCH   1   2
BRANCH   1  23
ATOM     23  C   UNL A   1      40.045  22.170  27.347  1.00  0.00     0.188 C 
BRANCH  23  24
ATOM     24  O   UNL A   1      41.423  22.516  27.260  1.00  0.00    -0.376 OA
BRANCH  24  25
ATOM     25  C   UNL A   1      42.083  22.185  26.047  1.00  0.00     0.202 C 
BRANCH  25  26
ATOM     26  C   UNL A   1      42.767  23.379  25.373  1.00  0.00     0.261 C 
BRANCH  26  27
ATOM     27  O   UNL A   1      43.078  24.467  26.256  1.00  0.00    -0.460 OA
BRANCH  27  28
ATOM     28  C   UNL A   1      42.645  25.694  25.891  1.00  0.00     0.338 C 
ATOM     29  O   UNL A   1      42.236  26.038  24.798  1.00  0.00    -0.246 OA
BRANCH  28  30
ATOM     30  C   UNL A   1      42.582  26.525  27.107  1.00  0.00     0.060 A 
ATOM     31  C   UNL A   1      41.801  26.089  28.183  1.00  0.00     0.016 A 
ATOM     32  C   UNL A   1      43.291  27.726  27.175  1.00  0.00     0.016 A 
ATOM     33  C   UNL A   1      41.697  26.882  29.326  1.00  0.00     0.010 A 
ATOM     34  C   UNL A   1      43.174  28.524  28.312  1.00  0.00     0.010 A 
ATOM     35  C   UNL A   1      42.352  28.121  29.377  1.00  0.00    -0.014 A 
BRANCH  35  36
ATOM     36  C   UNL A   1      42.028  29.083  30.456  1.00  0.00     0.031 A 
ATOM     37  C   UNL A   1      42.907  29.107  31.675  1.00  0.00     0.074 A 
ATOM     38  C   UNL A   1      40.972  29.910  30.356  1.00  0.00     0.049 A 
ATOM     39  N   UNL A   1      42.802  29.831  32.758  1.00  0.00    -0.248 NA
ATOM     40  C   UNL A   1      44.058  28.189  31.671  1.00  0.00     0.031 C 
ATOM     41  C   UNL A   1      40.061  29.988  29.216  1.00  0.00     0.029 A 
ATOM     42  N   UNL A   1      40.486  30.837  31.242  1.00  0.00    -0.354 N 
ATOM     43  C   UNL A   1      43.870  29.457  33.564  1.00  0.00     0.074 A 
ATOM     44  C   UNL A   1      44.594  28.422  32.860  1.00  0.00     0.031 C 
ATOM     45  C   UNL A   1      39.113  30.905  29.479  1.00  0.00     0.029 A 
ATOM     46  C   UNL A   1      39.338  31.460  30.814  1.00  0.00     0.049 A 
ATOM     47  H   UNL A   1      40.917  31.038  32.105  1.00  0.00     0.167 HD
ATOM     48  C   UNL A   1      44.223  29.940  34.778  1.00  0.00     0.037 A 
ATOM     49  C   UNL A   1      38.554  32.362  31.437  1.00  0.00     0.037 A 
ATOM     50  C   UNL A   1      43.494  30.963  35.479  1.00  0.00     0.049 A 
ATOM     51  C   UNL A   1      38.933  32.844  32.814  1.00  0.00     0.074 A 
ATOM     52  C   UNL A   1      43.779  31.535  36.706  1.00  0.00     0.029 A 
ATOM     53  N   UNL A   1      42.331  31.562  35.018  1.00  0.00    -0.354 N 
ATOM     54  N   UNL A   1      39.968  32.512  33.550  1.00  0.00    -0.248 NA
ATOM     55  C   UNL A   1      38.041  33.828  33.446  1.00  0.00     0.031 C 
ATOM     56  C   UNL A   1      42.764  32.449  37.008  1.00  0.00     0.029 A 
ATOM     57  C   UNL A   1      41.873  32.480  35.947  1.00  0.00     0.049 A 
ATOM     58  H   UNL A   1      41.896  31.362  34.159  1.00  0.00     0.167 HD
ATOM     59  C   UNL A   1      39.866  33.264  34.716  1.00  0.00     0.074 A 
ATOM     60  C   UNL A   1      38.673  34.075  34.586  1.00  0.00     0.031 C 
ATOM     61  C   UNL A   1      40.686  33.285  35.795  1.00  0.00     0.037 A 
BRANCH  48  62
ATOM     62  C   UNL A   1      45.439  29.350  35.430  1.00  0.00     0.058 A 
ATOM     63  C   UNL A   1      46.717  29.898  35.235  1.00  0.00     0.135 A 
ATOM     64  C   UNL A   1      45.324  28.238  36.279  1.00  0.00     0.135 A 
ATOM     65  F   UNL A   1      46.885  30.948  34.416  1.00  0.00    -0.206 F 
ATOM     66  C   UNL A   1      47.842  29.350  35.841  1.00  0.00     0.059 A 
ATOM     67  C   UNL A   1      46.432  27.688  36.915  1.00  0.00     0.059 A 
ATOM     68  F   UNL A   1      44.126  27.673  36.493  1.00  0.00    -0.206 F 
ATOM     69  C   UNL A   1      47.689  28.243  36.679  1.00  0.00     0.060 A 
BRANCH  69  70
ATOM     70  S   UNL A   1      49.158  27.546  37.465  1.00  0.00     0.124 S 
ATOM     71  O   UNL A   1      50.223  28.113  36.643  1.00  0.00    -0.237 OA
ATOM     72  O   UNL A   1      49.062  28.066  38.825  1.00  0.00    -0.237 OA
ATOM     73  O   UNL A   1      48.962  26.106  37.332  1.00  0.00    -0.744 OA
ENDBRANCH  69  70
ENDBRANCH  48  62
BRANCH  49  74
ATOM     74  C   UNL A   1      37.324  32.865  30.771  1.00  0.00     0.058 A 
ATOM     75  C   UNL A   1      37.383  33.898  29.824  1.00  0.00     0.135 A 
ATOM     76  C   UNL A   1      36.062  32.329  31.074  1.00  0.00     0.135 A 
ATOM     77  F   UNL A   1      38.564  34.451  29.508  1.00  0.00    -0.206 F 
ATOM     78  C   UNL A   1      36.236  34.391  29.210  1.00  0.00     0.059 A 
ATOM     79  C   UNL A   1      34.904  32.789  30.458  1.00  0.00     0.059 A 
ATOM     80  F   UNL A   1      35.953  31.333  31.968  1.00  0.00    -0.206 F 
ATOM     81  C   UNL A   1      35.000  33.828  29.533  1.00  0.00     0.060 A 
BRANCH  81  82
ATOM     82  S   UNL A   1      33.521  34.443  28.698  1.00  0.00     0.124 S 
ATOM     83  O   UNL A   1      33.177  33.314  27.841  1.00  0.00    -0.237 OA
ATOM     84  O   UNL A   1      32.618  34.695  29.817  1.00  0.00    -0.237 OA
ATOM     85  O   UNL A   1      33.999  35.637  28.008  1.00  0.00    -0.744 OA
ENDBRANCH  81  82
ENDBRANCH  49  74
BRANCH  61  86
ATOM     86  C   UNL A   1      40.348  34.238  36.909  1.00  0.00     0.058 A 
ATOM     87  C   UNL A   1      40.826  35.557  36.923  1.00  0.00     0.135 A 
ATOM     88  C   UNL A   1      39.482  33.842  37.942  1.00  0.00     0.135 A 
ATOM     89  F   UNL A   1      41.660  35.983  35.960  1.00  0.00    -0.206 F 
ATOM     90  C   UNL A   1      40.472  36.446  37.931  1.00  0.00     0.059 A 
ATOM     91  C   UNL A   1      39.095  34.723  38.947  1.00  0.00     0.059 A 
ATOM     92  F   UNL A   1      38.987  32.594  37.968  1.00  0.00    -0.206 F 
ATOM     93  C   UNL A   1      39.604  36.020  38.940  1.00  0.00     0.060 A 
BRANCH  93  94
ATOM     94  S   UNL A   1      39.120  37.195  40.223  1.00  0.00     0.124 S 
ATOM     95  O   UNL A   1      40.418  37.620  40.735  1.00  0.00    -0.237 OA
ATOM     96  O   UNL A   1      38.378  38.198  39.465  1.00  0.00    -0.237 OA
ATOM     97  O   UNL A   1      38.317  36.388  41.135  1.00  0.00    -0.744 OA
ENDBRANCH  93  94
ENDBRANCH  61  86
ENDBRANCH  35  36
ENDBRANCH  28  30
ENDBRANCH  27  28
ENDBRANCH  26  27
ENDBRANCH  25  26
ENDBRANCH  24  25
ENDBRANCH  23  24
ENDBRANCH   1  23
TORSDOF 25
ENDMDL
MODEL 3
REMARK VINA RESULT:      -8.3      4.525     10.819
REMARK SMILES CSc1nc(C2CC2)nc(C)c1C(=O)OCCOCCOCCOCCOC(=O)c1ccc(-c2c3nc(c(-c4c(F)cc(S(=O)(=O)[O-])cc4F)c4ccc([nH]4)c(-c4c(F)cc(S(=O)(=O)[O-])cc4F)c4nc(c(-c5c(F)cc(S(=O)(=O)[O-])cc5F)c5ccc2[nH]5)C=C4)C=C3)cc1
REMARK SMILES IDX 22 1 21 2 20 3 19 4 18 5 17 6 16 7 15 8 13 9 14 10 12 11
REMARK SMILES IDX 3 12 4 13 5 14 10 15 9 16 11 17 2 18 1 19 6 20 7 21 8 22
REMARK SMILES IDX 23 23 24 24 25 25 26 26 27 27 28 28 29 29 30 30 31 31 95 32
REMARK SMILES IDX 32 33 94 34 33 35 34 36 35 37 88 38 36 39 93 40 87 41 89 42
REMARK SMILES IDX 37 43 92 44 86 45 85 46 38 48 72 49 51 50 71 51 52 52 55 53
REMARK SMILES IDX 70 54 90 55 53 56 54 57 69 59 91 60 56 61 39 62 40 63 49 64
REMARK SMILES IDX 41 65 42 66 48 67 50 68 43 69 44 70 45 71 46 72 47 73 73 74
REMARK SMILES IDX 74 75 83 76 75 77 76 78 82 79 84 80 77 81 78 82 79 83 80 84
REMARK SMILES IDX 81 85 57 86 58 87 67 88 59 89 60 90 66 91 68 92 61 93 62 94
REMARK SMILES IDX 63 95 64 96 65 97
REMARK H PARENT 89 47 55 58
REMARK Flexibility Score: inf
ROOT
ATOM      1  C   UNL A   1      44.649  20.310  24.825  1.00  0.00     0.188 C 
ENDROOT
BRANCH   1   2
ATOM      2  O   UNL A   1      45.604  21.334  24.552  1.00  0.00    -0.377 OA
BRANCH   2   3
ATOM      3  C   UNL A   1      46.139  22.087  25.624  1.00  0.00     0.188 C 
BRANCH   3   4
ATOM      4  C   UNL A   1      46.376  23.584  25.357  1.00  0.00     0.188 C 
BRANCH   4   5
ATOM      5  O   UNL A   1      45.375  24.446  25.894  1.00  0.00    -0.376 OA
BRANCH   5   6
ATOM      6  C   UNL A   1      45.638  24.959  27.198  1.00  0.00     0.202 C 
BRANCH   6   7
ATOM      7  C   UNL A   1      47.072  25.449  27.403  1.00  0.00     0.261 C 
BRANCH   7   8
ATOM      8  O   UNL A   1      47.152  26.883  27.414  1.00  0.00    -0.460 OA
BRANCH   8   9
ATOM      9  C   UNL A   1      47.111  27.541  26.242  1.00  0.00     0.342 C 
ATOM     10  O   UNL A   1      47.333  27.074  25.140  1.00  0.00    -0.246 OA
BRANCH   9  11
ATOM     11  C   UNL A   1      46.654  28.917  26.511  1.00  0.00     0.113 A 
ATOM     12  C   UNL A   1      45.322  29.279  26.373  1.00  0.00     0.114 A 
ATOM     13  N   UNL A   1      44.891  30.551  26.547  1.00  0.00    -0.225 NA
ATOM     14  C   UNL A   1      45.789  31.490  26.883  1.00  0.00     0.133 A 
ATOM     15  C   UNL A   1      47.506  29.920  26.952  1.00  0.00     0.057 A 
ATOM     16  N   UNL A   1      47.077  31.196  27.125  1.00  0.00    -0.237 NA
ATOM     17  C   UNL A   1      48.964  29.709  27.244  1.00  0.00     0.068 C 
BRANCH  12  18
ATOM     18  S   UNL A   1      44.010  28.107  26.017  1.00  0.00    -0.109 SA
ATOM     19  C   UNL A   1      42.560  29.086  26.500  1.00  0.00     0.092 C 
ENDBRANCH  12  18
BRANCH  14  20
ATOM     20  C   UNL A   1      45.370  32.940  26.934  1.00  0.00     0.058 C 
ATOM     21  C   UNL A   1      45.664  33.881  25.787  1.00  0.00     0.012 C 
ATOM     22  C   UNL A   1      44.251  33.461  26.065  1.00  0.00     0.012 C 
ENDBRANCH  14  20
ENDBRANCH   9  11
ENDBRANCH   8   9
ENDBRANCH   7   8
ENDBRANCH   6   7
ENDBRANCH   5   6
ENDBRANCH   4   5
ENDBRANCH   3   4
ENDBRANCH   2   3
ENDBRANCH   1   2
BRANCH   1  23
ATOM     23  C   UNL A   1      43.454  20.529  25.778  1.00  0.00     0.188 C 
BRANCH  23  24
ATOM     24  O   UNL A   1      43.238  21.879  26.174  1.00  0.00    -0.376 OA
BRANCH  24  25
ATOM     25  C   UNL A   1      42.649  22.076  27.452  1.00  0.00     0.202 C 
BRANCH  25  26
ATOM     26  C   UNL A   1      41.125  21.916  27.457  1.00  0.00     0.261 C 
BRANCH  26  27
ATOM     27  O   UNL A   1      40.484  22.257  26.220  1.00  0.00    -0.460 OA
BRANCH  27  28
ATOM     28  C   UNL A   1      39.259  22.823  26.301  1.00  0.00     0.338 C 
ATOM     29  O   UNL A   1      38.189  22.310  26.030  1.00  0.00    -0.246 OA
BRANCH  28  30
ATOM     30  C   UNL A   1      39.416  24.135  26.955  1.00  0.00     0.060 A 
ATOM     31  C   UNL A   1      40.157  25.128  26.306  1.00  0.00     0.016 A 
ATOM     32  C   UNL A   1      38.835  24.373  28.202  1.00  0.00     0.016 A 
ATOM     33  C   UNL A   1      40.351  26.362  26.927  1.00  0.00     0.010 A 
ATOM     34  C   UNL A   1      39.043  25.600  28.829  1.00  0.00     0.010 A 
ATOM     35  C   UNL A   1      39.828  26.587  28.209  1.00  0.00    -0.014 A 
BRANCH  35  36
ATOM     36  C   UNL A   1      40.257  27.774  28.984  1.00  0.00     0.031 A 
ATOM     37  C   UNL A   1      41.599  27.734  29.661  1.00  0.00     0.074 A 
ATOM     38  C   UNL A   1      39.469  28.859  29.088  1.00  0.00     0.049 A 
ATOM     39  N   UNL A   1      42.172  28.630  30.419  1.00  0.00    -0.248 NA
ATOM     40  C   UNL A   1      42.401  26.516  29.454  1.00  0.00     0.031 C 
ATOM     41  C   UNL A   1      38.158  29.017  28.463  1.00  0.00     0.029 A 
ATOM     42  N   UNL A   1      39.661  30.030  29.776  1.00  0.00    -0.354 N 
ATOM     43  C   UNL A   1      43.398  28.088  30.781  1.00  0.00     0.074 A 
ATOM     44  C   UNL A   1      43.476  26.773  30.184  1.00  0.00     0.031 C 
ATOM     45  C   UNL A   1      37.654  30.216  28.809  1.00  0.00     0.029 A 
ATOM     46  C   UNL A   1      38.597  30.896  29.697  1.00  0.00     0.049 A 
ATOM     47  H   UNL A   1      40.483  30.232  30.279  1.00  0.00     0.167 HD
ATOM     48  C   UNL A   1      44.377  28.639  31.534  1.00  0.00     0.037 A 
ATOM     49  C   UNL A   1      38.402  32.091  30.289  1.00  0.00     0.037 A 
ATOM     50  C   UNL A   1      44.292  29.944  32.135  1.00  0.00     0.049 A 
ATOM     51  C   UNL A   1      39.482  32.662  31.173  1.00  0.00     0.074 A 
ATOM     52  C   UNL A   1      45.237  30.602  32.901  1.00  0.00     0.029 A 
ATOM     53  N   UNL A   1      43.194  30.786  32.042  1.00  0.00    -0.354 N 
ATOM     54  N   UNL A   1      40.655  32.156  31.475  1.00  0.00    -0.248 NA
ATOM     55  C   UNL A   1      39.216  33.968  31.792  1.00  0.00     0.031 C 
ATOM     56  C   UNL A   1      44.694  31.825  33.309  1.00  0.00     0.029 A 
ATOM     57  C   UNL A   1      43.428  31.948  32.757  1.00  0.00     0.049 A 
ATOM     58  H   UNL A   1      42.370  30.586  31.543  1.00  0.00     0.167 HD
ATOM     59  C   UNL A   1      41.275  33.093  32.296  1.00  0.00     0.074 A 
ATOM     60  C   UNL A   1      40.352  34.200  32.437  1.00  0.00     0.031 C 
ATOM     61  C   UNL A   1      42.499  33.044  32.878  1.00  0.00     0.037 A 
BRANCH  48  62
ATOM     62  C   UNL A   1      45.614  27.822  31.768  1.00  0.00     0.058 A 
ATOM     63  C   UNL A   1      46.732  27.922  30.923  1.00  0.00     0.135 A 
ATOM     64  C   UNL A   1      45.694  26.945  32.861  1.00  0.00     0.135 A 
ATOM     65  F   UNL A   1      46.699  28.729  29.851  1.00  0.00    -0.206 F 
ATOM     66  C   UNL A   1      47.877  27.164  31.141  1.00  0.00     0.059 A 
ATOM     67  C   UNL A   1      46.839  26.195  33.112  1.00  0.00     0.059 A 
ATOM     68  F   UNL A   1      44.651  26.808  33.694  1.00  0.00    -0.206 F 
ATOM     69  C   UNL A   1      47.920  26.302  32.239  1.00  0.00     0.060 A 
BRANCH  69  70
ATOM     70  S   UNL A   1      49.416  25.329  32.514  1.00  0.00     0.124 S 
ATOM     71  O   UNL A   1      48.887  24.189  33.257  1.00  0.00    -0.237 OA
ATOM     72  O   UNL A   1      49.860  25.046  31.153  1.00  0.00    -0.237 OA
ATOM     73  O   UNL A   1      50.273  26.231  33.275  1.00  0.00    -0.744 OA
ENDBRANCH  69  70
ENDBRANCH  48  62
BRANCH  49  74
ATOM     74  C   UNL A   1      37.130  32.829  30.076  1.00  0.00     0.058 A 
ATOM     75  C   UNL A   1      35.999  32.566  30.862  1.00  0.00     0.135 A 
ATOM     76  C   UNL A   1      37.017  33.807  29.076  1.00  0.00     0.135 A 
ATOM     77  F   UNL A   1      36.053  31.631  31.824  1.00  0.00    -0.206 F 
ATOM     78  C   UNL A   1      34.797  33.236  30.657  1.00  0.00     0.059 A 
ATOM     79  C   UNL A   1      35.833  34.507  28.866  1.00  0.00     0.059 A 
ATOM     80  F   UNL A   1      38.073  34.102  28.302  1.00  0.00    -0.206 F 
ATOM     81  C   UNL A   1      34.724  34.207  29.657  1.00  0.00     0.060 A 
BRANCH  81  82
ATOM     82  S   UNL A   1      33.174  35.105  29.429  1.00  0.00     0.124 S 
ATOM     83  O   UNL A   1      32.586  35.020  30.760  1.00  0.00    -0.237 OA
ATOM     84  O   UNL A   1      33.642  36.425  29.018  1.00  0.00    -0.237 OA
ATOM     85  O   UNL A   1      32.495  34.339  28.388  1.00  0.00    -0.744 OA
ENDBRANCH  81  82
ENDBRANCH  49  74
BRANCH  61  86
ATOM     86  C   UNL A   1      42.932  34.232  33.692  1.00  0.00     0.058 A 
ATOM     87  C   UNL A   1      42.652  34.328  35.064  1.00  0.00     0.135 A 
ATOM     88  C   UNL A   1      43.691  35.257  33.104  1.00  0.00     0.135 A 
ATOM     89  F   UNL A   1      41.925  33.377  35.673  1.00  0.00    -0.206 F 
ATOM     90  C   UNL A   1      43.095  35.407  35.821  1.00  0.00     0.059 A 
ATOM     91  C   UNL A   1      44.166  36.333  33.848  1.00  0.00     0.059 A 
ATOM     92  F   UNL A   1      43.997  35.207  31.798  1.00  0.00    -0.206 F 
ATOM     93  C   UNL A   1      43.852  36.405  35.205  1.00  0.00     0.060 A 
BRANCH  93  94
ATOM     94  S   UNL A   1      44.456  37.781  36.205  1.00  0.00     0.124 S 
ATOM     95  O   UNL A   1      43.678  37.616  37.429  1.00  0.00    -0.237 OA
ATOM     96  O   UNL A   1      45.881  37.487  36.317  1.00  0.00    -0.237 OA
ATOM     97  O   UNL A   1      44.125  38.954  35.403  1.00  0.00    -0.744 OA
ENDBRANCH  93  94
ENDBRANCH  61  86
ENDBRANCH  35  36
ENDBRANCH  28  30
ENDBRANCH  27  28
ENDBRANCH  26  27
ENDBRANCH  25  26
ENDBRANCH  24  25
ENDBRANCH  23  24
ENDBRANCH   1  23
TORSDOF 25
ENDMDL
