MODEL 1
REMARK VINA RESULT:      -8.8      0.000      0.000
REMARK SMILES O=C(OCCOCCOCCOCCOC(=O)c1cc2c(Cl)c(C(F)(F)F)cnc2n1S(=O)(=O)c1ccccc1)c1ccc(-c2c3nc(c(-c4c(F)cc(S(=O)(=O)[O-])cc4F)c4ccc([nH]4)c(-c4c(F)cc(S(=O)(=O)[O-])cc4F)c4nc(c(-c5c(F)cc(S(=O)(=O)[O-])cc5F)c5ccc2[nH]5)C=C4)C=C3)cc1
REMARK SMILES IDX 8 1 7 2 6 3 5 4 4 5 3 6 2 7 1 8 41 9 42 10 106 11 43 12
REMARK SMILES IDX 105 13 44 14 45 15 46 16 99 17 47 18 104 19 98 20 100 21
REMARK SMILES IDX 48 22 103 23 97 24 96 25 49 27 83 28 62 29 82 30 63 31 66 32
REMARK SMILES IDX 81 33 101 34 64 35 65 36 80 38 102 39 67 40 50 41 51 42
REMARK SMILES IDX 60 43 52 44 53 45 59 46 61 47 54 48 55 49 56 50 57 51 58 52
REMARK SMILES IDX 84 53 85 54 94 55 86 56 87 57 93 58 95 59 88 60 89 61 90 62
REMARK SMILES IDX 91 63 92 64 68 65 69 66 78 67 70 68 71 69 77 70 79 71 72 72
REMARK SMILES IDX 73 73 74 74 75 75 76 76 9 77 10 78 11 79 12 80 13 81 14 82
REMARK SMILES IDX 15 83 16 84 17 85 18 86 19 87 31 88 20 89 30 90 21 91 29 92
REMARK SMILES IDX 22 93 23 94 28 95 32 96 33 97 34 98 35 99 36 100 40 101
REMARK SMILES IDX 37 102 39 103 38 104 24 105 25 106 26 107 27 108
REMARK H PARENT 100 26 66 37
REMARK Flexibility Score: inf
ROOT
ATOM      1  C   UNL A   1      33.017  25.030  25.251  1.00  0.00     0.188 C 
ENDROOT
BRANCH   1   2
ATOM      2  C   UNL A   1      32.327  26.316  25.714  1.00  0.00     0.188 C 
BRANCH   2   3
ATOM      3  O   UNL A   1      32.994  27.194  26.638  1.00  0.00    -0.376 OA
BRANCH   3   4
ATOM      4  C   UNL A   1      33.935  28.165  26.189  1.00  0.00     0.202 C 
BRANCH   4   5
ATOM      5  C   UNL A   1      34.027  29.432  27.033  1.00  0.00     0.261 C 
BRANCH   5   6
ATOM      6  O   UNL A   1      34.968  29.331  28.120  1.00  0.00    -0.460 OA
BRANCH   6   7
ATOM      7  C   UNL A   1      36.264  29.683  27.944  1.00  0.00     0.338 C 
ATOM      8  O   UNL A   1      36.749  29.881  26.837  1.00  0.00    -0.246 OA
BRANCH   7   9
ATOM      9  C   UNL A   1      36.954  30.119  29.174  1.00  0.00     0.060 A 
ATOM     10  C   UNL A   1      37.696  31.300  29.248  1.00  0.00     0.016 A 
ATOM     11  C   UNL A   1      36.926  29.224  30.251  1.00  0.00     0.016 A 
ATOM     12  C   UNL A   1      38.630  31.447  30.230  1.00  0.00     0.010 A 
ATOM     13  C   UNL A   1      37.847  29.376  31.262  1.00  0.00     0.010 A 
ATOM     14  C   UNL A   1      38.759  30.419  31.152  1.00  0.00    -0.014 A 
BRANCH  14  15
ATOM     15  C   UNL A   1      39.987  30.441  31.899  1.00  0.00     0.031 A 
ATOM     16  C   UNL A   1      40.032  31.476  32.948  1.00  0.00     0.074 A 
ATOM     17  C   UNL A   1      40.972  29.606  31.527  1.00  0.00     0.049 A 
ATOM     18  N   UNL A   1      40.773  32.532  32.996  1.00  0.00    -0.248 NA
ATOM     19  C   UNL A   1      38.976  31.426  33.971  1.00  0.00     0.031 C 
ATOM     20  C   UNL A   1      40.896  28.462  30.611  1.00  0.00     0.029 A 
ATOM     21  N   UNL A   1      42.246  29.550  31.980  1.00  0.00    -0.354 N 
ATOM     22  C   UNL A   1      40.428  33.166  34.182  1.00  0.00     0.074 A 
ATOM     23  C   UNL A   1      39.205  32.555  34.639  1.00  0.00     0.031 C 
ATOM     24  C   UNL A   1      41.989  27.687  30.782  1.00  0.00     0.029 A 
ATOM     25  C   UNL A   1      42.881  28.344  31.718  1.00  0.00     0.049 A 
ATOM     26  H   UNL A   1      42.682  30.296  32.451  1.00  0.00     0.167 HD
ATOM     27  C   UNL A   1      41.296  33.976  34.842  1.00  0.00     0.037 A 
ATOM     28  C   UNL A   1      43.970  27.896  32.388  1.00  0.00     0.037 A 
ATOM     29  C   UNL A   1      42.363  34.431  33.996  1.00  0.00     0.049 A 
ATOM     30  C   UNL A   1      44.619  29.098  32.993  1.00  0.00     0.074 A 
ATOM     31  C   UNL A   1      42.422  35.230  32.872  1.00  0.00     0.029 A 
ATOM     32  N   UNL A   1      43.555  33.747  34.041  1.00  0.00    -0.354 N 
ATOM     33  N   UNL A   1      45.166  30.057  32.291  1.00  0.00    -0.248 NA
ATOM     34  C   UNL A   1      44.229  29.476  34.347  1.00  0.00     0.031 C 
ATOM     35  C   UNL A   1      43.443  34.660  32.059  1.00  0.00     0.029 A 
ATOM     36  C   UNL A   1      43.984  33.573  32.747  1.00  0.00     0.049 A 
ATOM     37  H   UNL A   1      44.018  33.439  34.853  1.00  0.00     0.167 HD
ATOM     38  C   UNL A   1      44.833  31.234  32.952  1.00  0.00     0.074 A 
ATOM     39  C   UNL A   1      44.317  30.805  34.249  1.00  0.00     0.031 C 
ATOM     40  C   UNL A   1      44.738  32.424  32.286  1.00  0.00     0.037 A 
BRANCH  27  41
ATOM     41  C   UNL A   1      41.334  34.057  36.339  1.00  0.00     0.058 A 
ATOM     42  C   UNL A   1      41.740  32.949  37.102  1.00  0.00     0.135 A 
ATOM     43  C   UNL A   1      40.745  35.123  37.059  1.00  0.00     0.135 A 
ATOM     44  F   UNL A   1      42.275  31.870  36.507  1.00  0.00    -0.206 F 
ATOM     45  C   UNL A   1      41.549  32.895  38.483  1.00  0.00     0.059 A 
ATOM     46  C   UNL A   1      40.604  35.117  38.437  1.00  0.00     0.059 A 
ATOM     47  F   UNL A   1      40.196  36.177  36.441  1.00  0.00    -0.206 F 
ATOM     48  C   UNL A   1      40.973  33.983  39.138  1.00  0.00     0.060 A 
BRANCH  48  49
ATOM     49  S   UNL A   1      40.638  33.881  40.905  1.00  0.00     0.124 S 
ATOM     50  O   UNL A   1      41.783  34.594  41.458  1.00  0.00    -0.237 OA
ATOM     51  O   UNL A   1      39.350  34.558  41.008  1.00  0.00    -0.237 OA
ATOM     52  O   UNL A   1      40.606  32.444  41.158  1.00  0.00    -0.744 OA
ENDBRANCH  48  49
ENDBRANCH  27  41
BRANCH  28  53
ATOM     53  C   UNL A   1      44.155  26.511  32.905  1.00  0.00     0.058 A 
ATOM     54  C   UNL A   1      45.262  25.742  32.516  1.00  0.00     0.135 A 
ATOM     55  C   UNL A   1      43.396  26.005  33.984  1.00  0.00     0.135 A 
ATOM     56  F   UNL A   1      46.053  26.158  31.516  1.00  0.00    -0.206 F 
ATOM     57  C   UNL A   1      45.623  24.566  33.184  1.00  0.00     0.059 A 
ATOM     58  C   UNL A   1      43.725  24.829  34.653  1.00  0.00     0.059 A 
ATOM     59  F   UNL A   1      42.356  26.682  34.491  1.00  0.00    -0.206 F 
ATOM     60  C   UNL A   1      44.858  24.128  34.266  1.00  0.00     0.060 A 
BRANCH  60  61
ATOM     61  S   UNL A   1      45.416  22.713  35.239  1.00  0.00     0.124 S 
ATOM     62  O   UNL A   1      46.848  22.697  34.957  1.00  0.00    -0.237 OA
ATOM     63  O   UNL A   1      45.037  23.106  36.593  1.00  0.00    -0.237 OA
ATOM     64  O   UNL A   1      44.659  21.595  34.682  1.00  0.00    -0.744 OA
ENDBRANCH  60  61
ENDBRANCH  28  53
BRANCH  40  65
ATOM     65  C   UNL A   1      45.242  32.484  30.866  1.00  0.00     0.058 A 
ATOM     66  C   UNL A   1      46.592  32.677  30.521  1.00  0.00     0.135 A 
ATOM     67  C   UNL A   1      44.359  32.153  29.827  1.00  0.00     0.135 A 
ATOM     68  F   UNL A   1      47.518  32.890  31.468  1.00  0.00    -0.206 F 
ATOM     69  C   UNL A   1      47.038  32.579  29.202  1.00  0.00     0.059 A 
ATOM     70  C   UNL A   1      44.787  32.019  28.508  1.00  0.00     0.059 A 
ATOM     71  F   UNL A   1      43.071  31.888  30.101  1.00  0.00    -0.206 F 
ATOM     72  C   UNL A   1      46.127  32.242  28.201  1.00  0.00     0.060 A 
BRANCH  72  73
ATOM     73  S   UNL A   1      46.723  32.022  26.509  1.00  0.00     0.124 S 
ATOM     74  O   UNL A   1      45.728  31.116  25.947  1.00  0.00    -0.237 OA
ATOM     75  O   UNL A   1      46.703  33.386  25.988  1.00  0.00    -0.237 OA
ATOM     76  O   UNL A   1      48.056  31.452  26.687  1.00  0.00    -0.744 OA
ENDBRANCH  72  73
ENDBRANCH  40  65
ENDBRANCH  14  15
ENDBRANCH   7   9
ENDBRANCH   6   7
ENDBRANCH   5   6
ENDBRANCH   4   5
ENDBRANCH   3   4
ENDBRANCH   2   3
ENDBRANCH   1   2
BRANCH   1  77
ATOM     77  O   UNL A   1      34.394  24.898  25.564  1.00  0.00    -0.377 OA
BRANCH  77  78
ATOM     78  C   UNL A   1      35.128  23.813  25.037  1.00  0.00     0.188 C 
BRANCH  78  79
ATOM     79  C   UNL A   1      34.909  22.449  25.716  1.00  0.00     0.188 C 
BRANCH  79  80
ATOM     80  O   UNL A   1      35.964  21.490  25.787  1.00  0.00    -0.376 OA
BRANCH  80  81
ATOM     81  C   UNL A   1      37.294  21.895  25.500  1.00  0.00     0.202 C 
BRANCH  81  82
ATOM     82  C   UNL A   1      38.297  20.754  25.712  1.00  0.00     0.261 C 
BRANCH  82  83
ATOM     83  O   UNL A   1      39.668  21.182  25.670  1.00  0.00    -0.459 OA
BRANCH  83  84
ATOM     84  C   UNL A   1      40.225  21.573  26.846  1.00  0.00     0.356 C 
ATOM     85  O   UNL A   1      40.494  20.844  27.791  1.00  0.00    -0.244 OA
BRANCH  84  86
ATOM     86  C   UNL A   1      40.615  22.965  26.776  1.00  0.00     0.145 A 
ATOM     87  C   UNL A   1      39.902  24.053  27.269  1.00  0.00     0.048 A 
ATOM     88  N   UNL A   1      41.777  23.481  26.239  1.00  0.00    -0.209 N 
ATOM     89  C   UNL A   1      40.615  25.244  26.972  1.00  0.00     0.040 A 
ATOM     90  C   UNL A   1      41.757  24.858  26.275  1.00  0.00     0.156 A 
ATOM     91  C   UNL A   1      40.434  26.627  27.169  1.00  0.00     0.065 A 
ATOM     92  N   UNL A   1      42.645  25.703  25.719  1.00  0.00    -0.237 NA
ATOM     93  Cl  UNL A   1      39.112  27.059  28.164  1.00  0.00    -0.083 Cl
ATOM     94  C   UNL A   1      41.281  27.542  26.559  1.00  0.00     0.093 A 
ATOM     95  C   UNL A   1      42.353  27.017  25.856  1.00  0.00     0.128 A 
BRANCH  88  96
ATOM     96  S   UNL A   1      43.145  22.545  25.880  1.00  0.00     0.270 S 
ATOM     97  O   UNL A   1      42.906  21.272  26.531  1.00  0.00    -0.201 OA
ATOM     98  O   UNL A   1      43.315  22.659  24.442  1.00  0.00    -0.201 OA
BRANCH  96  99
ATOM     99  C   UNL A   1      44.559  23.300  26.620  1.00  0.00     0.088 A 
ATOM    100  C   UNL A   1      44.534  23.600  27.986  1.00  0.00     0.022 A 
ATOM    101  C   UNL A   1      45.661  23.643  25.832  1.00  0.00     0.022 A 
ATOM    102  C   UNL A   1      45.646  24.197  28.574  1.00  0.00     0.001 A 
ATOM    103  C   UNL A   1      46.778  24.220  26.432  1.00  0.00     0.001 A 
ATOM    104  C   UNL A   1      46.771  24.492  27.802  1.00  0.00     0.000 A 
ENDBRANCH  96  99
ENDBRANCH  88  96
BRANCH  94 105
ATOM    105  C   UNL A   1      41.063  29.017  26.608  1.00  0.00     0.419 C 
ATOM    106  F   UNL A   1      41.949  29.715  25.844  1.00  0.00    -0.166 F 
ATOM    107  F   UNL A   1      39.822  29.390  26.201  1.00  0.00    -0.166 F 
ATOM    108  F   UNL A   1      41.205  29.529  27.866  1.00  0.00    -0.166 F 
ENDBRANCH  94 105
ENDBRANCH  84  86
ENDBRANCH  83  84
ENDBRANCH  82  83
ENDBRANCH  81  82
ENDBRANCH  80  81
ENDBRANCH  79  80
ENDBRANCH  78  79
ENDBRANCH  77  78
ENDBRANCH   1  77
TORSDOF 26
ENDMDL
MODEL 2
REMARK VINA RESULT:      -8.5      4.370      7.591
REMARK SMILES O=C(OCCOCCOCCOCCOC(=O)c1cc2c(Cl)c(C(F)(F)F)cnc2n1S(=O)(=O)c1ccccc1)c1ccc(-c2c3nc(c(-c4c(F)cc(S(=O)(=O)[O-])cc4F)c4ccc([nH]4)c(-c4c(F)cc(S(=O)(=O)[O-])cc4F)c4nc(c(-c5c(F)cc(S(=O)(=O)[O-])cc5F)c5ccc2[nH]5)C=C4)C=C3)cc1
REMARK SMILES IDX 8 1 7 2 6 3 5 4 4 5 3 6 2 7 1 8 41 9 42 10 106 11 43 12
REMARK SMILES IDX 105 13 44 14 45 15 46 16 99 17 47 18 104 19 98 20 100 21
REMARK SMILES IDX 48 22 103 23 97 24 96 25 49 27 83 28 62 29 82 30 63 31 66 32
REMARK SMILES IDX 81 33 101 34 64 35 65 36 80 38 102 39 67 40 50 41 51 42
REMARK SMILES IDX 60 43 52 44 53 45 59 46 61 47 54 48 55 49 56 50 57 51 58 52
REMARK SMILES IDX 84 53 85 54 94 55 86 56 87 57 93 58 95 59 88 60 89 61 90 62
REMARK SMILES IDX 91 63 92 64 68 65 69 66 78 67 70 68 71 69 77 70 79 71 72 72
REMARK SMILES IDX 73 73 74 74 75 75 76 76 9 77 10 78 11 79 12 80 13 81 14 82
REMARK SMILES IDX 15 83 16 84 17 85 18 86 19 87 31 88 20 89 30 90 21 91 29 92
REMARK SMILES IDX 22 93 23 94 28 95 32 96 33 97 34 98 35 99 36 100 40 101
REMARK SMILES IDX 37 102 39 103 38 104 24 105 25 106 26 107 27 108
REMARK H PARENT 100 26 66 37
REMARK Flexibility Score: inf
ROOT
ATOM      1  C   UNL A   1      37.412  31.953  29.285  1.00  0.00     0.188 C 
ENDROOT
BRANCH   1   2
ATOM      2  C   UNL A   1      36.956  33.105  28.386  1.00  0.00     0.188 C 
BRANCH   2   3
ATOM      3  O   UNL A   1      35.553  33.309  28.140  1.00  0.00    -0.376 OA
BRANCH   3   4
ATOM      4  C   UNL A   1      34.865  34.439  28.668  1.00  0.00     0.202 C 
BRANCH   4   5
ATOM      5  C   UNL A   1      33.949  34.157  29.854  1.00  0.00     0.261 C 
BRANCH   5   6
ATOM      6  O   UNL A   1      34.529  33.265  30.828  1.00  0.00    -0.460 OA
BRANCH   6   7
ATOM      7  C   UNL A   1      34.545  33.597  32.141  1.00  0.00     0.338 C 
ATOM      8  O   UNL A   1      33.626  33.326  32.902  1.00  0.00    -0.246 OA
BRANCH   7   9
ATOM      9  C   UNL A   1      35.866  34.013  32.651  1.00  0.00     0.060 A 
ATOM     10  C   UNL A   1      36.848  34.583  31.836  1.00  0.00     0.016 A 
ATOM     11  C   UNL A   1      36.142  33.702  33.988  1.00  0.00     0.016 A 
ATOM     12  C   UNL A   1      38.151  34.561  32.235  1.00  0.00     0.010 A 
ATOM     13  C   UNL A   1      37.452  33.700  34.412  1.00  0.00     0.010 A 
ATOM     14  C   UNL A   1      38.432  34.010  33.477  1.00  0.00    -0.014 A 
BRANCH  14  15
ATOM     15  C   UNL A   1      39.812  33.657  33.673  1.00  0.00     0.031 A 
ATOM     16  C   UNL A   1      40.590  34.669  34.410  1.00  0.00     0.074 A 
ATOM     17  C   UNL A   1      40.263  32.523  33.110  1.00  0.00     0.049 A 
ATOM     18  N   UNL A   1      41.546  35.417  33.970  1.00  0.00    -0.248 NA
ATOM     19  C   UNL A   1      40.105  35.027  35.752  1.00  0.00     0.031 C 
ATOM     20  C   UNL A   1      39.483  31.426  32.525  1.00  0.00     0.029 A 
ATOM     21  N   UNL A   1      41.535  32.066  33.037  1.00  0.00    -0.354 N 
ATOM     22  C   UNL A   1      41.935  36.189  35.057  1.00  0.00     0.074 A 
ATOM     23  C   UNL A   1      40.906  36.046  36.057  1.00  0.00     0.031 C 
ATOM     24  C   UNL A   1      40.276  30.339  32.401  1.00  0.00     0.029 A 
ATOM     25  C   UNL A   1      41.627  30.706  32.779  1.00  0.00     0.049 A 
ATOM     26  H   UNL A   1      42.321  32.646  33.156  1.00  0.00     0.167 HD
ATOM     27  C   UNL A   1      43.191  36.693  35.166  1.00  0.00     0.037 A 
ATOM     28  C   UNL A   1      42.722  29.953  33.046  1.00  0.00     0.037 A 
ATOM     29  C   UNL A   1      43.876  36.721  33.905  1.00  0.00     0.049 A 
ATOM     30  C   UNL A   1      43.877  30.898  33.118  1.00  0.00     0.074 A 
ATOM     31  C   UNL A   1      43.673  37.397  32.718  1.00  0.00     0.029 A 
ATOM     32  N   UNL A   1      44.726  35.681  33.611  1.00  0.00    -0.354 N 
ATOM     33  N   UNL A   1      44.319  31.582  32.094  1.00  0.00    -0.248 NA
ATOM     34  C   UNL A   1      44.226  31.452  34.421  1.00  0.00     0.031 C 
ATOM     35  C   UNL A   1      44.043  36.478  31.695  1.00  0.00     0.029 A 
ATOM     36  C   UNL A   1      44.493  35.308  32.310  1.00  0.00     0.049 A 
ATOM     37  H   UNL A   1      45.383  35.277  34.223  1.00  0.00     0.167 HD
ATOM     38  C   UNL A   1      44.648  32.833  32.601  1.00  0.00     0.074 A 
ATOM     39  C   UNL A   1      44.637  32.668  34.052  1.00  0.00     0.031 C 
ATOM     40  C   UNL A   1      44.620  33.952  31.815  1.00  0.00     0.037 A 
BRANCH  27  41
ATOM     41  C   UNL A   1      43.885  36.832  36.489  1.00  0.00     0.058 A 
ATOM     42  C   UNL A   1      44.372  38.080  36.911  1.00  0.00     0.135 A 
ATOM     43  C   UNL A   1      44.301  35.714  37.250  1.00  0.00     0.135 A 
ATOM     44  F   UNL A   1      44.063  39.197  36.232  1.00  0.00    -0.206 F 
ATOM     45  C   UNL A   1      45.236  38.205  38.000  1.00  0.00     0.059 A 
ATOM     46  C   UNL A   1      45.108  35.822  38.372  1.00  0.00     0.059 A 
ATOM     47  F   UNL A   1      44.019  34.458  36.878  1.00  0.00    -0.206 F 
ATOM     48  C   UNL A   1      45.602  37.067  38.718  1.00  0.00     0.060 A 
BRANCH  48  49
ATOM     49  S   UNL A   1      46.789  37.209  40.064  1.00  0.00     0.124 S 
ATOM     50  O   UNL A   1      46.000  36.745  41.198  1.00  0.00    -0.237 OA
ATOM     51  O   UNL A   1      47.858  36.321  39.620  1.00  0.00    -0.237 OA
ATOM     52  O   UNL A   1      47.125  38.630  40.067  1.00  0.00    -0.744 OA
ENDBRANCH  48  49
ENDBRANCH  27  41
BRANCH  28  53
ATOM     53  C   UNL A   1      42.709  28.615  33.699  1.00  0.00     0.058 A 
ATOM     54  C   UNL A   1      43.346  27.518  33.100  1.00  0.00     0.135 A 
ATOM     55  C   UNL A   1      42.297  28.436  35.039  1.00  0.00     0.135 A 
ATOM     56  F   UNL A   1      43.791  27.605  31.837  1.00  0.00    -0.206 F 
ATOM     57  C   UNL A   1      43.601  26.332  33.798  1.00  0.00     0.059 A 
ATOM     58  C   UNL A   1      42.525  27.261  35.749  1.00  0.00     0.059 A 
ATOM     59  F   UNL A   1      41.739  29.433  35.742  1.00  0.00    -0.206 F 
ATOM     60  C   UNL A   1      43.204  26.221  35.131  1.00  0.00     0.060 A 
BRANCH  60  61
ATOM     61  S   UNL A   1      43.685  24.766  36.088  1.00  0.00     0.124 S 
ATOM     62  O   UNL A   1      43.129  25.072  37.402  1.00  0.00    -0.237 OA
ATOM     63  O   UNL A   1      43.030  23.689  35.353  1.00  0.00    -0.237 OA
ATOM     64  O   UNL A   1      45.143  24.773  36.010  1.00  0.00    -0.744 OA
ENDBRANCH  60  61
ENDBRANCH  28  53
BRANCH  40  65
ATOM     65  C   UNL A   1      44.464  33.767  30.326  1.00  0.00     0.058 A 
ATOM     66  C   UNL A   1      43.227  33.814  29.657  1.00  0.00     0.135 A 
ATOM     67  C   UNL A   1      45.618  33.724  29.531  1.00  0.00     0.135 A 
ATOM     68  F   UNL A   1      42.083  33.965  30.340  1.00  0.00    -0.206 F 
ATOM     69  C   UNL A   1      43.141  33.785  28.263  1.00  0.00     0.059 A 
ATOM     70  C   UNL A   1      45.558  33.725  28.140  1.00  0.00     0.059 A 
ATOM     71  F   UNL A   1      46.831  33.747  30.108  1.00  0.00    -0.206 F 
ATOM     72  C   UNL A   1      44.315  33.748  27.512  1.00  0.00     0.060 A 
BRANCH  72  73
ATOM     73  S   UNL A   1      44.205  33.806  25.708  1.00  0.00     0.124 S 
ATOM     74  O   UNL A   1      45.548  34.235  25.332  1.00  0.00    -0.237 OA
ATOM     75  O   UNL A   1      43.862  32.428  25.369  1.00  0.00    -0.237 OA
ATOM     76  O   UNL A   1      43.146  34.781  25.461  1.00  0.00    -0.744 OA
ENDBRANCH  72  73
ENDBRANCH  40  65
ENDBRANCH  14  15
ENDBRANCH   7   9
ENDBRANCH   6   7
ENDBRANCH   5   6
ENDBRANCH   4   5
ENDBRANCH   3   4
ENDBRANCH   2   3
ENDBRANCH   1   2
BRANCH   1  77
ATOM     77  O   UNL A   1      38.375  31.064  28.742  1.00  0.00    -0.377 OA
BRANCH  77  78
ATOM     78  C   UNL A   1      37.946  29.896  28.073  1.00  0.00     0.188 C 
BRANCH  78  79
ATOM     79  C   UNL A   1      36.501  29.909  27.541  1.00  0.00     0.188 C 
BRANCH  79  80
ATOM     80  O   UNL A   1      35.424  29.420  28.339  1.00  0.00    -0.376 OA
BRANCH  80  81
ATOM     81  C   UNL A   1      34.207  29.042  27.711  1.00  0.00     0.202 C 
BRANCH  81  82
ATOM     82  C   UNL A   1      33.974  29.814  26.407  1.00  0.00     0.261 C 
BRANCH  82  83
ATOM     83  O   UNL A   1      33.552  28.979  25.316  1.00  0.00    -0.459 OA
BRANCH  83  84
ATOM     84  C   UNL A   1      32.325  28.405  25.421  1.00  0.00     0.356 C 
ATOM     85  O   UNL A   1      31.270  28.995  25.608  1.00  0.00    -0.244 OA
BRANCH  84  86
ATOM     86  C   UNL A   1      32.407  26.992  25.118  1.00  0.00     0.145 A 
ATOM     87  C   UNL A   1      32.502  25.950  26.035  1.00  0.00     0.048 A 
ATOM     88  N   UNL A   1      32.375  26.402  23.870  1.00  0.00    -0.209 N 
ATOM     89  C   UNL A   1      32.589  24.722  25.328  1.00  0.00     0.040 A 
ATOM     90  C   UNL A   1      32.565  25.042  23.972  1.00  0.00     0.156 A 
ATOM     91  C   UNL A   1      32.721  23.357  25.651  1.00  0.00     0.065 A 
ATOM     92  N   UNL A   1      32.734  24.162  22.969  1.00  0.00    -0.237 NA
ATOM     93  Cl  UNL A   1      32.586  22.981  27.313  1.00  0.00    -0.083 Cl
ATOM     94  C   UNL A   1      32.968  22.418  24.658  1.00  0.00     0.093 A 
ATOM     95  C   UNL A   1      32.962  22.885  23.354  1.00  0.00     0.128 A 
BRANCH  88  96
ATOM     96  S   UNL A   1      31.865  27.202  22.464  1.00  0.00     0.270 S 
ATOM     97  O   UNL A   1      32.766  28.330  22.329  1.00  0.00    -0.201 OA
ATOM     98  O   UNL A   1      31.768  26.163  21.453  1.00  0.00    -0.201 OA
BRANCH  96  99
ATOM     99  C   UNL A   1      30.229  27.814  22.721  1.00  0.00     0.088 A 
ATOM    100  C   UNL A   1      29.904  29.098  22.272  1.00  0.00     0.022 A 
ATOM    101  C   UNL A   1      29.295  27.041  23.417  1.00  0.00     0.022 A 
ATOM    102  C   UNL A   1      28.616  29.586  22.474  1.00  0.00     0.001 A 
ATOM    103  C   UNL A   1      28.001  27.528  23.594  1.00  0.00     0.001 A 
ATOM    104  C   UNL A   1      27.662  28.797  23.120  1.00  0.00     0.000 A 
ENDBRANCH  96  99
ENDBRANCH  88  96
BRANCH  94 105
ATOM    105  C   UNL A   1      33.259  20.983  24.943  1.00  0.00     0.419 C 
ATOM    106  F   UNL A   1      32.290  20.377  25.683  1.00  0.00    -0.166 F 
ATOM    107  F   UNL A   1      33.414  20.234  23.820  1.00  0.00    -0.166 F 
ATOM    108  F   UNL A   1      34.408  20.811  25.660  1.00  0.00    -0.166 F 
ENDBRANCH  94 105
ENDBRANCH  84  86
ENDBRANCH  83  84
ENDBRANCH  82  83
ENDBRANCH  81  82
ENDBRANCH  80  81
ENDBRANCH  79  80
ENDBRANCH  78  79
ENDBRANCH  77  78
ENDBRANCH   1  77
TORSDOF 26
ENDMDL
MODEL 3
REMARK VINA RESULT:      -8.3      2.874      8.216
REMARK SMILES O=C(OCCOCCOCCOCCOC(=O)c1cc2c(Cl)c(C(F)(F)F)cnc2n1S(=O)(=O)c1ccccc1)c1ccc(-c2c3nc(c(-c4c(F)cc(S(=O)(=O)[O-])cc4F)c4ccc([nH]4)c(-c4c(F)cc(S(=O)(=O)[O-])cc4F)c4nc(c(-c5c(F)cc(S(=O)(=O)[O-])cc5F)c5ccc2[nH]5)C=C4)C=C3)cc1
REMARK SMILES IDX 8 1 7 2 6 3 5 4 4 5 3 6 2 7 1 8 41 9 42 10 106 11 43 12
REMARK SMILES IDX 105 13 44 14 45 15 46 16 99 17 47 18 104 19 98 20 100 21
REMARK SMILES IDX 48 22 103 23 97 24 96 25 49 27 83 28 62 29 82 30 63 31 66 32
REMARK SMILES IDX 81 33 101 34 64 35 65 36 80 38 102 39 67 40 50 41 51 42
REMARK SMILES IDX 60 43 52 44 53 45 59 46 61 47 54 48 55 49 56 50 57 51 58 52
REMARK SMILES IDX 84 53 85 54 94 55 86 56 87 57 93 58 95 59 88 60 89 61 90 62
REMARK SMILES IDX 91 63 92 64 68 65 69 66 78 67 70 68 71 69 77 70 79 71 72 72
REMARK SMILES IDX 73 73 74 74 75 75 76 76 9 77 10 78 11 79 12 80 13 81 14 82
REMARK SMILES IDX 15 83 16 84 17 85 18 86 19 87 31 88 20 89 30 90 21 91 29 92
REMARK SMILES IDX 22 93 23 94 28 95 32 96 33 97 34 98 35 99 36 100 40 101
REMARK SMILES IDX 37 102 39 103 38 104 24 105 25 106 26 107 27 108
REMARK H PARENT 100 26 66 37
REMARK Flexibility Score: inf
ROOT
ATOM      1  C   UNL A   1      33.174  24.910  24.881  1.00  0.00     0.188 C 
ENDROOT
BRANCH   1   2
ATOM      2  C   UNL A   1      32.481  26.274  24.823  1.00  0.00     0.188 C 
BRANCH   2   3
ATOM      3  O   UNL A   1      32.647  27.209  25.904  1.00  0.00    -0.376 OA
BRANCH   3   4
ATOM      4  C   UNL A   1      32.614  28.615  25.679  1.00  0.00     0.202 C 
BRANCH   4   5
ATOM      5  C   UNL A   1      32.713  29.484  26.928  1.00  0.00     0.261 C 
BRANCH   5   6
ATOM      6  O   UNL A   1      33.899  29.235  27.709  1.00  0.00    -0.460 OA
BRANCH   6   7
ATOM      7  C   UNL A   1      34.712  30.257  28.071  1.00  0.00     0.338 C 
ATOM      8  O   UNL A   1      34.297  31.389  28.278  1.00  0.00    -0.246 OA
BRANCH   7   9
ATOM      9  C   UNL A   1      36.061  29.842  28.504  1.00  0.00     0.060 A 
ATOM     10  C   UNL A   1      36.400  29.646  29.845  1.00  0.00     0.016 A 
ATOM     11  C   UNL A   1      37.037  29.763  27.503  1.00  0.00     0.016 A 
ATOM     12  C   UNL A   1      37.709  29.679  30.220  1.00  0.00     0.010 A 
ATOM     13  C   UNL A   1      38.364  29.769  27.868  1.00  0.00     0.010 A 
ATOM     14  C   UNL A   1      38.658  29.856  29.224  1.00  0.00    -0.014 A 
BRANCH  14  15
ATOM     15  C   UNL A   1      39.950  30.272  29.699  1.00  0.00     0.031 A 
ATOM     16  C   UNL A   1      40.950  29.190  29.737  1.00  0.00     0.074 A 
ATOM     17  C   UNL A   1      40.091  31.536  30.129  1.00  0.00     0.049 A 
ATOM     18  N   UNL A   1      41.496  28.643  30.772  1.00  0.00    -0.248 NA
ATOM     19  C   UNL A   1      41.227  28.500  28.468  1.00  0.00     0.031 C 
ATOM     20  C   UNL A   1      39.173  32.667  29.945  1.00  0.00     0.029 A 
ATOM     21  N   UNL A   1      41.155  32.104  30.745  1.00  0.00    -0.354 N 
ATOM     22  C   UNL A   1      42.361  27.682  30.264  1.00  0.00     0.074 A 
ATOM     23  C   UNL A   1      42.019  27.510  28.874  1.00  0.00     0.031 C 
ATOM     24  C   UNL A   1      39.833  33.817  30.205  1.00  0.00     0.029 A 
ATOM     25  C   UNL A   1      41.162  33.490  30.685  1.00  0.00     0.049 A 
ATOM     26  H   UNL A   1      41.858  31.581  31.193  1.00  0.00     0.167 HD
ATOM     27  C   UNL A   1      43.461  27.274  30.948  1.00  0.00     0.037 A 
ATOM     28  C   UNL A   1      42.268  34.254  30.859  1.00  0.00     0.037 A 
ATOM     29  C   UNL A   1      43.379  27.588  32.346  1.00  0.00     0.049 A 
ATOM     30  C   UNL A   1      43.243  33.418  31.624  1.00  0.00     0.074 A 
ATOM     31  C   UNL A   1      42.550  27.181  33.373  1.00  0.00     0.029 A 
ATOM     32  N   UNL A   1      43.995  28.735  32.786  1.00  0.00    -0.354 N 
ATOM     33  N   UNL A   1      43.047  33.021  32.855  1.00  0.00    -0.248 NA
ATOM     34  C   UNL A   1      44.198  32.617  30.866  1.00  0.00     0.031 C 
ATOM     35  C   UNL A   1      42.370  28.334  34.189  1.00  0.00     0.029 A 
ATOM     36  C   UNL A   1      43.131  29.370  33.644  1.00  0.00     0.049 A 
ATOM     37  H   UNL A   1      44.894  29.046  32.530  1.00  0.00     0.167 HD
ATOM     38  C   UNL A   1      43.534  31.720  32.905  1.00  0.00     0.074 A 
ATOM     39  C   UNL A   1      44.294  31.554  31.669  1.00  0.00     0.031 C 
ATOM     40  C   UNL A   1      43.043  30.808  33.798  1.00  0.00     0.037 A 
BRANCH  27  41
ATOM     41  C   UNL A   1      44.739  26.902  30.256  1.00  0.00     0.058 A 
ATOM     42  C   UNL A   1      45.283  25.616  30.410  1.00  0.00     0.135 A 
ATOM     43  C   UNL A   1      45.576  27.860  29.636  1.00  0.00     0.135 A 
ATOM     44  F   UNL A   1      44.582  24.646  31.019  1.00  0.00    -0.206 F 
ATOM     45  C   UNL A   1      46.582  25.311  29.999  1.00  0.00     0.059 A 
ATOM     46  C   UNL A   1      46.844  27.562  29.165  1.00  0.00     0.059 A 
ATOM     47  F   UNL A   1      45.231  29.152  29.550  1.00  0.00    -0.206 F 
ATOM     48  C   UNL A   1      47.355  26.295  29.383  1.00  0.00     0.060 A 
BRANCH  48  49
ATOM     49  S   UNL A   1      49.062  25.935  28.938  1.00  0.00     0.124 S 
ATOM     50  O   UNL A   1      49.581  25.399  30.190  1.00  0.00    -0.237 OA
ATOM     51  O   UNL A   1      48.895  24.978  27.850  1.00  0.00    -0.237 OA
ATOM     52  O   UNL A   1      49.588  27.239  28.542  1.00  0.00    -0.744 OA
ENDBRANCH  48  49
ENDBRANCH  27  41
BRANCH  28  53
ATOM     53  C   UNL A   1      42.664  35.406  30.002  1.00  0.00     0.058 A 
ATOM     54  C   UNL A   1      43.319  36.518  30.552  1.00  0.00     0.135 A 
ATOM     55  C   UNL A   1      42.642  35.335  28.591  1.00  0.00     0.135 A 
ATOM     56  F   UNL A   1      43.410  36.655  31.884  1.00  0.00    -0.206 F 
ATOM     57  C   UNL A   1      43.954  37.478  29.755  1.00  0.00     0.059 A 
ATOM     58  C   UNL A   1      43.252  36.286  27.777  1.00  0.00     0.059 A 
ATOM     59  F   UNL A   1      42.106  34.287  27.948  1.00  0.00    -0.206 F 
ATOM     60  C   UNL A   1      43.931  37.342  28.367  1.00  0.00     0.060 A 
BRANCH  60  61
ATOM     61  S   UNL A   1      44.894  38.476  27.343  1.00  0.00     0.124 S 
ATOM     62  O   UNL A   1      45.531  39.323  28.346  1.00  0.00    -0.237 OA
ATOM     63  O   UNL A   1      45.777  37.563  26.624  1.00  0.00    -0.237 OA
ATOM     64  O   UNL A   1      43.882  39.136  26.522  1.00  0.00    -0.744 OA
ENDBRANCH  60  61
ENDBRANCH  28  53
BRANCH  40  65
ATOM     65  C   UNL A   1      42.137  31.308  34.895  1.00  0.00     0.058 A 
ATOM     66  C   UNL A   1      42.600  31.867  36.099  1.00  0.00     0.135 A 
ATOM     67  C   UNL A   1      40.760  31.390  34.641  1.00  0.00     0.135 A 
ATOM     68  F   UNL A   1      43.913  31.926  36.368  1.00  0.00    -0.206 F 
ATOM     69  C   UNL A   1      41.732  32.451  37.024  1.00  0.00     0.059 A 
ATOM     70  C   UNL A   1      39.879  31.995  35.534  1.00  0.00     0.059 A 
ATOM     71  F   UNL A   1      40.264  30.936  33.479  1.00  0.00    -0.206 F 
ATOM     72  C   UNL A   1      40.370  32.517  36.729  1.00  0.00     0.060 A 
BRANCH  72  73
ATOM     73  S   UNL A   1      39.261  33.357  37.882  1.00  0.00     0.124 S 
ATOM     74  O   UNL A   1      40.086  34.464  38.352  1.00  0.00    -0.237 OA
ATOM     75  O   UNL A   1      38.136  33.725  37.026  1.00  0.00    -0.237 OA
ATOM     76  O   UNL A   1      38.963  32.332  38.879  1.00  0.00    -0.744 OA
ENDBRANCH  72  73
ENDBRANCH  40  65
ENDBRANCH  14  15
ENDBRANCH   7   9
ENDBRANCH   6   7
ENDBRANCH   5   6
ENDBRANCH   4   5
ENDBRANCH   3   4
ENDBRANCH   2   3
ENDBRANCH   1   2
BRANCH   1  77
ATOM     77  O   UNL A   1      34.403  24.850  25.588  1.00  0.00    -0.377 OA
BRANCH  77  78
ATOM     78  C   UNL A   1      35.453  24.048  25.092  1.00  0.00     0.188 C 
BRANCH  78  79
ATOM     79  C   UNL A   1      35.090  22.593  24.741  1.00  0.00     0.188 C 
BRANCH  79  80
ATOM     80  O   UNL A   1      36.047  21.544  24.892  1.00  0.00    -0.376 OA
BRANCH  80  81
ATOM     81  C   UNL A   1      37.409  21.793  24.577  1.00  0.00     0.202 C 
BRANCH  81  82
ATOM     82  C   UNL A   1      38.310  21.684  25.813  1.00  0.00     0.261 C 
BRANCH  82  83
ATOM     83  O   UNL A   1      39.487  22.505  25.738  1.00  0.00    -0.459 OA
BRANCH  83  84
ATOM     84  C   UNL A   1      39.505  23.624  26.507  1.00  0.00     0.356 C 
ATOM     85  O   UNL A   1      38.604  24.006  27.241  1.00  0.00    -0.244 OA
BRANCH  84  86
ATOM     86  C   UNL A   1      40.816  24.236  26.469  1.00  0.00     0.145 A 
ATOM     87  C   UNL A   1      41.128  25.504  25.987  1.00  0.00     0.048 A 
ATOM     88  N   UNL A   1      42.002  23.699  26.929  1.00  0.00    -0.209 N 
ATOM     89  C   UNL A   1      42.528  25.708  26.103  1.00  0.00     0.040 A 
ATOM     90  C   UNL A   1      43.056  24.538  26.643  1.00  0.00     0.156 A 
ATOM     91  C   UNL A   1      43.447  26.729  25.790  1.00  0.00     0.065 A 
ATOM     92  N   UNL A   1      44.368  24.289  26.811  1.00  0.00    -0.237 NA
ATOM     93  Cl  UNL A   1      42.755  28.207  25.282  1.00  0.00    -0.083 Cl
ATOM     94  C   UNL A   1      44.814  26.498  25.879  1.00  0.00     0.093 A 
ATOM     95  C   UNL A   1      45.199  25.270  26.390  1.00  0.00     0.128 A 
BRANCH  88  96
ATOM     96  S   UNL A   1      42.089  22.358  27.963  1.00  0.00     0.270 S 
ATOM     97  O   UNL A   1      43.157  22.672  28.891  1.00  0.00    -0.201 OA
ATOM     98  O   UNL A   1      40.723  22.131  28.404  1.00  0.00    -0.201 OA
BRANCH  96  99
ATOM     99  C   UNL A   1      42.560  20.942  27.018  1.00  0.00     0.088 A 
ATOM    100  C   UNL A   1      43.428  21.106  25.934  1.00  0.00     0.022 A 
ATOM    101  C   UNL A   1      42.022  19.688  27.323  1.00  0.00     0.022 A 
ATOM    102  C   UNL A   1      43.802  19.993  25.185  1.00  0.00     0.001 A 
ATOM    103  C   UNL A   1      42.418  18.577  26.582  1.00  0.00     0.001 A 
ATOM    104  C   UNL A   1      43.310  18.729  25.518  1.00  0.00     0.000 A 
ENDBRANCH  96  99
ENDBRANCH  88  96
BRANCH  94 105
ATOM    105  C   UNL A   1      45.840  27.482  25.428  1.00  0.00     0.419 C 
ATOM    106  F   UNL A   1      45.874  27.639  24.076  1.00  0.00    -0.166 F 
ATOM    107  F   UNL A   1      45.665  28.721  25.958  1.00  0.00    -0.166 F 
ATOM    108  F   UNL A   1      47.110  27.114  25.770  1.00  0.00    -0.166 F 
ENDBRANCH  94 105
ENDBRANCH  84  86
ENDBRANCH  83  84
ENDBRANCH  82  83
ENDBRANCH  81  82
ENDBRANCH  80  81
ENDBRANCH  79  80
ENDBRANCH  78  79
ENDBRANCH  77  78
ENDBRANCH   1  77
TORSDOF 26
ENDMDL
