MODEL 1
REMARK VINA RESULT:      -8.8      0.000      0.000
REMARK SMILES O=C(OCCOCCOCCOCCOC(=O)C1(c2ccccc2)CCN(S(=O)(=O)c2cccs2)CC1)c1ccc(-c2c3nc(c(-c4c(F)cc(S(=O)(=O)[O-])cc4F)c4ccc([nH]4)c(-c4c(F)cc(S(=O)(=O)[O-])cc4F)c4nc(c(-c5c(F)cc(S(=O)(=O)[O-])cc5F)c5ccc2[nH]5)C=C4)C=C3)cc1
REMARK SMILES IDX 8 1 7 2 6 3 5 4 4 5 3 6 2 7 1 8 38 9 39 10 103 11 40 12
REMARK SMILES IDX 102 13 41 14 42 15 43 16 96 17 44 18 101 19 95 20 97 21
REMARK SMILES IDX 45 22 100 23 94 24 93 25 46 27 80 28 59 29 79 30 60 31 63 32
REMARK SMILES IDX 78 33 98 34 61 35 62 36 77 38 99 39 64 40 47 41 48 42 57 43
REMARK SMILES IDX 49 44 50 45 56 46 58 47 51 48 52 49 53 50 54 51 55 52 81 53
REMARK SMILES IDX 82 54 91 55 83 56 84 57 90 58 92 59 85 60 86 61 87 62 88 63
REMARK SMILES IDX 89 64 65 65 66 66 75 67 67 68 68 69 74 70 76 71 69 72 70 73
REMARK SMILES IDX 71 74 72 75 73 76 9 77 10 78 11 79 12 80 13 81 14 82 15 83
REMARK SMILES IDX 16 84 17 85 18 86 25 87 37 88 26 89 36 90 27 91 19 92 20 93
REMARK SMILES IDX 24 94 21 95 23 96 22 97 28 98 29 99 30 100 31 101 32 102
REMARK SMILES IDX 35 103 33 104 34 105
REMARK H PARENT 97 26 63 37
REMARK Flexibility Score: inf
ROOT
ATOM      1  C   UNL A   1      34.533  33.120  30.414  1.00  0.00     0.188 C 
ENDROOT
BRANCH   1   2
ATOM      2  C   UNL A   1      34.011  34.532  30.125  1.00  0.00     0.188 C 
BRANCH   2   3
ATOM      3  O   UNL A   1      34.287  35.307  31.290  1.00  0.00    -0.376 OA
BRANCH   3   4
ATOM      4  C   UNL A   1      33.888  34.776  32.545  1.00  0.00     0.202 C 
BRANCH   4   5
ATOM      5  C   UNL A   1      34.932  35.007  33.637  1.00  0.00     0.261 C 
BRANCH   5   6
ATOM      6  O   UNL A   1      36.231  35.254  33.080  1.00  0.00    -0.460 OA
BRANCH   6   7
ATOM      7  C   UNL A   1      37.297  34.413  33.087  1.00  0.00     0.338 C 
ATOM      8  O   UNL A   1      37.609  33.860  32.033  1.00  0.00    -0.246 OA
BRANCH   7   9
ATOM      9  C   UNL A   1      38.145  34.138  34.290  1.00  0.00     0.060 A 
ATOM     10  C   UNL A   1      38.699  35.103  35.136  1.00  0.00     0.016 A 
ATOM     11  C   UNL A   1      38.308  32.789  34.643  1.00  0.00     0.016 A 
ATOM     12  C   UNL A   1      39.410  34.760  36.278  1.00  0.00     0.010 A 
ATOM     13  C   UNL A   1      39.011  32.431  35.797  1.00  0.00     0.010 A 
ATOM     14  C   UNL A   1      39.571  33.422  36.612  1.00  0.00    -0.014 A 
BRANCH  14  15
ATOM     15  C   UNL A   1      40.457  33.076  37.737  1.00  0.00     0.031 A 
ATOM     16  C   UNL A   1      41.926  33.018  37.460  1.00  0.00     0.074 A 
ATOM     17  C   UNL A   1      39.955  32.889  38.971  1.00  0.00     0.049 A 
ATOM     18  N   UNL A   1      42.885  32.518  38.183  1.00  0.00    -0.248 NA
ATOM     19  C   UNL A   1      42.374  33.600  36.181  1.00  0.00     0.031 C 
ATOM     20  C   UNL A   1      38.552  33.073  39.351  1.00  0.00     0.029 A 
ATOM     21  N   UNL A   1      40.566  32.507  40.136  1.00  0.00    -0.354 N 
ATOM     22  C   UNL A   1      44.036  32.650  37.418  1.00  0.00     0.074 A 
ATOM     23  C   UNL A   1      43.667  33.313  36.189  1.00  0.00     0.031 C 
ATOM     24  C   UNL A   1      38.410  32.796  40.658  1.00  0.00     0.029 A 
ATOM     25  C   UNL A   1      39.687  32.327  41.179  1.00  0.00     0.049 A 
ATOM     26  H   UNL A   1      41.538  32.375  40.218  1.00  0.00     0.167 HD
ATOM     27  C   UNL A   1      45.279  32.218  37.720  1.00  0.00     0.037 A 
ATOM     28  C   UNL A   1      39.893  31.772  42.390  1.00  0.00     0.037 A 
ATOM     29  C   UNL A   1      45.596  31.603  38.979  1.00  0.00     0.049 A 
ATOM     30  C   UNL A   1      41.274  31.245  42.684  1.00  0.00     0.074 A 
ATOM     31  C   UNL A   1      46.806  31.105  39.419  1.00  0.00     0.029 A 
ATOM     32  N   UNL A   1      44.678  31.408  40.004  1.00  0.00    -0.354 N 
ATOM     33  N   UNL A   1      42.353  31.303  41.935  1.00  0.00    -0.248 NA
ATOM     34  C   UNL A   1      41.465  30.548  43.961  1.00  0.00     0.031 C 
ATOM     35  C   UNL A   1      46.608  30.570  40.697  1.00  0.00     0.029 A 
ATOM     36  C   UNL A   1      45.285  30.774  41.069  1.00  0.00     0.049 A 
ATOM     37  H   UNL A   1      43.733  31.684  39.976  1.00  0.00     0.167 HD
ATOM     38  C   UNL A   1      43.348  30.647  42.646  1.00  0.00     0.074 A 
ATOM     39  C   UNL A   1      42.751  30.226  43.899  1.00  0.00     0.031 C 
ATOM     40  C   UNL A   1      44.635  30.395  42.299  1.00  0.00     0.037 A 
BRANCH  27  41
ATOM     41  C   UNL A   1      46.332  32.318  36.657  1.00  0.00     0.058 A 
ATOM     42  C   UNL A   1      47.175  33.432  36.529  1.00  0.00     0.135 A 
ATOM     43  C   UNL A   1      46.489  31.269  35.735  1.00  0.00     0.135 A 
ATOM     44  F   UNL A   1      47.044  34.478  37.359  1.00  0.00    -0.206 F 
ATOM     45  C   UNL A   1      48.131  33.507  35.518  1.00  0.00     0.059 A 
ATOM     46  C   UNL A   1      47.450  31.314  34.729  1.00  0.00     0.059 A 
ATOM     47  F   UNL A   1      45.692  30.191  35.798  1.00  0.00    -0.206 F 
ATOM     48  C   UNL A   1      48.261  32.442  34.625  1.00  0.00     0.060 A 
BRANCH  48  49
ATOM     49  S   UNL A   1      49.515  32.547  33.328  1.00  0.00     0.124 S 
ATOM     50  O   UNL A   1      49.732  31.137  33.018  1.00  0.00    -0.237 OA
ATOM     51  O   UNL A   1      48.833  33.324  32.300  1.00  0.00    -0.237 OA
ATOM     52  O   UNL A   1      50.629  33.223  33.987  1.00  0.00    -0.744 OA
ENDBRANCH  48  49
ENDBRANCH  27  41
BRANCH  28  53
ATOM     53  C   UNL A   1      38.763  31.578  43.342  1.00  0.00     0.058 A 
ATOM     54  C   UNL A   1      37.952  30.433  43.298  1.00  0.00     0.135 A 
ATOM     55  C   UNL A   1      38.454  32.549  44.311  1.00  0.00     0.135 A 
ATOM     56  F   UNL A   1      38.191  29.478  42.387  1.00  0.00    -0.206 F 
ATOM     57  C   UNL A   1      36.869  30.269  44.161  1.00  0.00     0.059 A 
ATOM     58  C   UNL A   1      37.398  32.393  45.204  1.00  0.00     0.059 A 
ATOM     59  F   UNL A   1      39.195  33.664  44.407  1.00  0.00    -0.206 F 
ATOM     60  C   UNL A   1      36.598  31.256  45.110  1.00  0.00     0.060 A 
BRANCH  60  61
ATOM     61  S   UNL A   1      35.201  31.034  46.233  1.00  0.00     0.124 S 
ATOM     62  O   UNL A   1      35.793  30.205  47.276  1.00  0.00    -0.237 OA
ATOM     63  O   UNL A   1      34.886  32.407  46.612  1.00  0.00    -0.237 OA
ATOM     64  O   UNL A   1      34.199  30.379  45.397  1.00  0.00    -0.744 OA
ENDBRANCH  60  61
ENDBRANCH  28  53
BRANCH  40  65
ATOM     65  C   UNL A   1      45.471  29.646  43.291  1.00  0.00     0.058 A 
ATOM     66  C   UNL A   1      45.571  28.248  43.246  1.00  0.00     0.135 A 
ATOM     67  C   UNL A   1      46.259  30.342  44.221  1.00  0.00     0.135 A 
ATOM     68  F   UNL A   1      44.828  27.544  42.379  1.00  0.00    -0.206 F 
ATOM     69  C   UNL A   1      46.431  27.562  44.094  1.00  0.00     0.059 A 
ATOM     70  C   UNL A   1      47.143  29.678  45.060  1.00  0.00     0.059 A 
ATOM     71  F   UNL A   1      46.200  31.682  44.287  1.00  0.00    -0.206 F 
ATOM     72  C   UNL A   1      47.220  28.287  44.989  1.00  0.00     0.060 A 
BRANCH  72  73
ATOM     73  S   UNL A   1      48.394  27.391  46.024  1.00  0.00     0.124 S 
ATOM     74  O   UNL A   1      49.634  27.558  45.274  1.00  0.00    -0.237 OA
ATOM     75  O   UNL A   1      48.314  28.117  47.288  1.00  0.00    -0.237 OA
ATOM     76  O   UNL A   1      47.855  26.035  46.054  1.00  0.00    -0.744 OA
ENDBRANCH  72  73
ENDBRANCH  40  65
ENDBRANCH  14  15
ENDBRANCH   7   9
ENDBRANCH   6   7
ENDBRANCH   5   6
ENDBRANCH   4   5
ENDBRANCH   3   4
ENDBRANCH   2   3
ENDBRANCH   1   2
BRANCH   1  77
ATOM     77  O   UNL A   1      35.509  32.677  29.472  1.00  0.00    -0.377 OA
BRANCH  77  78
ATOM     78  C   UNL A   1      35.074  32.583  28.124  1.00  0.00     0.188 C 
BRANCH  78  79
ATOM     79  C   UNL A   1      33.816  31.754  27.776  1.00  0.00     0.188 C 
BRANCH  79  80
ATOM     80  O   UNL A   1      33.908  30.435  27.252  1.00  0.00    -0.376 OA
BRANCH  80  81
ATOM     81  C   UNL A   1      32.722  29.693  27.059  1.00  0.00     0.202 C 
BRANCH  81  82
ATOM     82  C   UNL A   1      32.979  28.288  26.506  1.00  0.00     0.261 C 
BRANCH  82  83
ATOM     83  O   UNL A   1      32.383  28.038  25.215  1.00  0.00    -0.463 OA
BRANCH  83  84
ATOM     84  C   UNL A   1      31.278  27.238  25.181  1.00  0.00     0.316 C 
ATOM     85  O   UNL A   1      30.789  26.724  26.181  1.00  0.00    -0.251 OA
BRANCH  84  86
ATOM     86  C   UNL A   1      30.776  26.930  23.720  1.00  0.00     0.095 C 
ATOM     87  C   UNL A   1      30.118  25.562  23.384  1.00  0.00     0.040 C 
ATOM     88  C   UNL A   1      32.053  26.960  22.825  1.00  0.00     0.040 C 
ATOM     89  C   UNL A   1      30.999  24.324  23.401  1.00  0.00     0.104 C 
ATOM     90  C   UNL A   1      32.980  25.757  23.101  1.00  0.00     0.104 C 
ATOM     91  N   UNL A   1      32.310  24.487  22.724  1.00  0.00    -0.197 NA
BRANCH  86  92
ATOM     92  C   UNL A   1      29.710  28.017  23.409  1.00  0.00    -0.031 A 
ATOM     93  C   UNL A   1      30.026  29.372  23.282  1.00  0.00     0.005 A 
ATOM     94  C   UNL A   1      28.338  27.659  23.374  1.00  0.00     0.005 A 
ATOM     95  C   UNL A   1      29.012  30.327  23.135  1.00  0.00     0.000 A 
ATOM     96  C   UNL A   1      27.330  28.610  23.232  1.00  0.00     0.000 A 
ATOM     97  C   UNL A   1      27.669  29.949  23.115  1.00  0.00     0.000 A 
ENDBRANCH  86  92
BRANCH  91  98
ATOM     98  S   UNL A   1      33.252  23.049  23.019  1.00  0.00     0.252 S 
ATOM     99  O   UNL A   1      32.408  21.918  22.655  1.00  0.00    -0.206 OA
ATOM    100  O   UNL A   1      34.523  23.233  22.369  1.00  0.00    -0.206 OA
BRANCH  98 101
ATOM    101  C   UNL A   1      33.543  22.828  24.758  1.00  0.00     0.135 A 
ATOM    102  C   UNL A   1      34.256  23.587  25.670  1.00  0.00     0.033 A 
ATOM    103  S   UNL A   1      32.764  21.510  25.522  1.00  0.00    -0.131 S 
ATOM    104  C   UNL A   1      34.145  23.091  27.000  1.00  0.00     0.013 A 
ATOM    105  C   UNL A   1      33.341  21.975  27.064  1.00  0.00     0.066 A 
ENDBRANCH  98 101
ENDBRANCH  91  98
ENDBRANCH  84  86
ENDBRANCH  83  84
ENDBRANCH  82  83
ENDBRANCH  81  82
ENDBRANCH  80  81
ENDBRANCH  79  80
ENDBRANCH  78  79
ENDBRANCH  77  78
ENDBRANCH   1  77
TORSDOF 26
ENDMDL
MODEL 2
REMARK VINA RESULT:      -8.6      8.286     11.432
REMARK SMILES O=C(OCCOCCOCCOCCOC(=O)C1(c2ccccc2)CCN(S(=O)(=O)c2cccs2)CC1)c1ccc(-c2c3nc(c(-c4c(F)cc(S(=O)(=O)[O-])cc4F)c4ccc([nH]4)c(-c4c(F)cc(S(=O)(=O)[O-])cc4F)c4nc(c(-c5c(F)cc(S(=O)(=O)[O-])cc5F)c5ccc2[nH]5)C=C4)C=C3)cc1
REMARK SMILES IDX 8 1 7 2 6 3 5 4 4 5 3 6 2 7 1 8 38 9 39 10 103 11 40 12
REMARK SMILES IDX 102 13 41 14 42 15 43 16 96 17 44 18 101 19 95 20 97 21
REMARK SMILES IDX 45 22 100 23 94 24 93 25 46 27 80 28 59 29 79 30 60 31 63 32
REMARK SMILES IDX 78 33 98 34 61 35 62 36 77 38 99 39 64 40 47 41 48 42 57 43
REMARK SMILES IDX 49 44 50 45 56 46 58 47 51 48 52 49 53 50 54 51 55 52 81 53
REMARK SMILES IDX 82 54 91 55 83 56 84 57 90 58 92 59 85 60 86 61 87 62 88 63
REMARK SMILES IDX 89 64 65 65 66 66 75 67 67 68 68 69 74 70 76 71 69 72 70 73
REMARK SMILES IDX 71 74 72 75 73 76 9 77 10 78 11 79 12 80 13 81 14 82 15 83
REMARK SMILES IDX 16 84 17 85 18 86 25 87 37 88 26 89 36 90 27 91 19 92 20 93
REMARK SMILES IDX 24 94 21 95 23 96 22 97 28 98 29 99 30 100 31 101 32 102
REMARK SMILES IDX 35 103 33 104 34 105
REMARK H PARENT 97 26 63 37
REMARK Flexibility Score: inf
ROOT
ATOM      1  C   UNL A   1      37.941  29.994  28.097  1.00  0.00     0.188 C 
ENDROOT
BRANCH   1   2
ATOM      2  C   UNL A   1      38.511  28.976  29.091  1.00  0.00     0.188 C 
BRANCH   2   3
ATOM      3  O   UNL A   1      39.110  27.945  28.309  1.00  0.00    -0.376 OA
BRANCH   3   4
ATOM      4  C   UNL A   1      39.328  26.687  28.930  1.00  0.00     0.202 C 
BRANCH   4   5
ATOM      5  C   UNL A   1      39.292  25.529  27.935  1.00  0.00     0.261 C 
BRANCH   5   6
ATOM      6  O   UNL A   1      40.595  24.955  27.748  1.00  0.00    -0.460 OA
BRANCH   6   7
ATOM      7  C   UNL A   1      41.678  25.551  27.187  1.00  0.00     0.338 C 
ATOM      8  O   UNL A   1      41.534  26.117  26.104  1.00  0.00    -0.246 OA
BRANCH   7   9
ATOM      9  C   UNL A   1      43.035  25.598  27.817  1.00  0.00     0.060 A 
ATOM     10  C   UNL A   1      44.054  24.659  27.633  1.00  0.00     0.016 A 
ATOM     11  C   UNL A   1      43.329  26.740  28.580  1.00  0.00     0.016 A 
ATOM     12  C   UNL A   1      45.313  24.820  28.194  1.00  0.00     0.010 A 
ATOM     13  C   UNL A   1      44.597  26.920  29.140  1.00  0.00     0.010 A 
ATOM     14  C   UNL A   1      45.590  25.950  28.952  1.00  0.00    -0.014 A 
BRANCH  14  15
ATOM     15  C   UNL A   1      46.876  26.026  29.666  1.00  0.00     0.031 A 
ATOM     16  C   UNL A   1      48.061  26.515  28.894  1.00  0.00     0.074 A 
ATOM     17  C   UNL A   1      46.950  25.728  30.976  1.00  0.00     0.049 A 
ATOM     18  N   UNL A   1      49.325  26.455  29.194  1.00  0.00    -0.248 NA
ATOM     19  C   UNL A   1      47.777  27.156  27.596  1.00  0.00     0.031 C 
ATOM     20  C   UNL A   1      45.811  25.386  31.832  1.00  0.00     0.029 A 
ATOM     21  N   UNL A   1      48.028  25.668  31.818  1.00  0.00    -0.354 N 
ATOM     22  C   UNL A   1      49.993  26.974  28.093  1.00  0.00     0.074 A 
ATOM     23  C   UNL A   1      48.996  27.382  27.131  1.00  0.00     0.031 C 
ATOM     24  C   UNL A   1      46.254  25.144  33.077  1.00  0.00     0.029 A 
ATOM     25  C   UNL A   1      47.709  25.223  33.081  1.00  0.00     0.049 A 
ATOM     26  H   UNL A   1      48.941  25.919  31.548  1.00  0.00     0.167 HD
ATOM     27  C   UNL A   1      51.328  27.063  27.907  1.00  0.00     0.037 A 
ATOM     28  C   UNL A   1      48.520  24.852  34.091  1.00  0.00     0.037 A 
ATOM     29  C   UNL A   1      52.274  26.680  28.919  1.00  0.00     0.049 A 
ATOM     30  C   UNL A   1      50.005  24.905  33.843  1.00  0.00     0.074 A 
ATOM     31  C   UNL A   1      53.653  26.702  28.868  1.00  0.00     0.029 A 
ATOM     32  N   UNL A   1      51.920  26.206  30.177  1.00  0.00    -0.354 N 
ATOM     33  N   UNL A   1      50.646  25.329  32.775  1.00  0.00    -0.248 NA
ATOM     34  C   UNL A   1      50.880  24.400  34.907  1.00  0.00     0.031 C 
ATOM     35  C   UNL A   1      54.133  26.201  30.082  1.00  0.00     0.029 A 
ATOM     36  C   UNL A   1      53.053  25.907  30.905  1.00  0.00     0.049 A 
ATOM     37  H   UNL A   1      50.996  26.101  30.502  1.00  0.00     0.167 HD
ATOM     38  C   UNL A   1      51.995  25.137  33.037  1.00  0.00     0.074 A 
ATOM     39  C   UNL A   1      52.082  24.588  34.376  1.00  0.00     0.031 C 
ATOM     40  C   UNL A   1      53.071  25.374  32.245  1.00  0.00     0.037 A 
BRANCH  27  41
ATOM     41  C   UNL A   1      51.819  27.499  26.559  1.00  0.00     0.058 A 
ATOM     42  C   UNL A   1      52.057  26.596  25.512  1.00  0.00     0.135 A 
ATOM     43  C   UNL A   1      52.065  28.861  26.317  1.00  0.00     0.135 A 
ATOM     44  F   UNL A   1      51.874  25.279  25.700  1.00  0.00    -0.206 F 
ATOM     45  C   UNL A   1      52.533  27.026  24.276  1.00  0.00     0.059 A 
ATOM     46  C   UNL A   1      52.522  29.316  25.084  1.00  0.00     0.059 A 
ATOM     47  F   UNL A   1      51.875  29.764  27.291  1.00  0.00    -0.206 F 
ATOM     48  C   UNL A   1      52.761  28.388  24.072  1.00  0.00     0.060 A 
BRANCH  48  49
ATOM     49  S   UNL A   1      53.364  28.934  22.459  1.00  0.00     0.124 S 
ATOM     50  O   UNL A   1      52.779  30.268  22.364  1.00  0.00    -0.237 OA
ATOM     51  O   UNL A   1      54.811  28.888  22.636  1.00  0.00    -0.237 OA
ATOM     52  O   UNL A   1      52.816  27.943  21.537  1.00  0.00    -0.744 OA
ENDBRANCH  48  49
ENDBRANCH  27  41
BRANCH  28  53
ATOM     53  C   UNL A   1      47.959  24.294  35.355  1.00  0.00     0.058 A 
ATOM     54  C   UNL A   1      47.615  25.123  36.435  1.00  0.00     0.135 A 
ATOM     55  C   UNL A   1      47.771  22.911  35.519  1.00  0.00     0.135 A 
ATOM     56  F   UNL A   1      47.783  26.450  36.341  1.00  0.00    -0.206 F 
ATOM     57  C   UNL A   1      47.128  24.600  37.632  1.00  0.00     0.059 A 
ATOM     58  C   UNL A   1      47.258  22.368  36.693  1.00  0.00     0.059 A 
ATOM     59  F   UNL A   1      48.077  22.067  34.521  1.00  0.00    -0.206 F 
ATOM     60  C   UNL A   1      46.956  23.220  37.753  1.00  0.00     0.060 A 
BRANCH  60  61
ATOM     61  S   UNL A   1      46.316  22.549  39.304  1.00  0.00     0.124 S 
ATOM     62  O   UNL A   1      45.305  23.540  39.656  1.00  0.00    -0.237 OA
ATOM     63  O   UNL A   1      45.812  21.243  38.892  1.00  0.00    -0.237 OA
ATOM     64  O   UNL A   1      47.493  22.513  40.166  1.00  0.00    -0.744 OA
ENDBRANCH  60  61
ENDBRANCH  28  53
BRANCH  40  65
ATOM     65  C   UNL A   1      54.418  25.053  32.816  1.00  0.00     0.058 A 
ATOM     66  C   UNL A   1      55.174  26.028  33.483  1.00  0.00     0.135 A 
ATOM     67  C   UNL A   1      54.902  23.736  32.789  1.00  0.00     0.135 A 
ATOM     68  F   UNL A   1      54.752  27.301  33.523  1.00  0.00    -0.206 F 
ATOM     69  C   UNL A   1      56.372  25.706  34.107  1.00  0.00     0.059 A 
ATOM     70  C   UNL A   1      56.084  23.387  33.428  1.00  0.00     0.059 A 
ATOM     71  F   UNL A   1      54.202  22.771  32.171  1.00  0.00    -0.206 F 
ATOM     72  C   UNL A   1      56.812  24.380  34.084  1.00  0.00     0.060 A 
BRANCH  72  73
ATOM     73  S   UNL A   1      58.324  23.958  34.971  1.00  0.00     0.124 S 
ATOM     74  O   UNL A   1      58.552  22.587  34.527  1.00  0.00    -0.237 OA
ATOM     75  O   UNL A   1      59.268  24.952  34.470  1.00  0.00    -0.237 OA
ATOM     76  O   UNL A   1      57.949  24.111  36.373  1.00  0.00    -0.744 OA
ENDBRANCH  72  73
ENDBRANCH  40  65
ENDBRANCH  14  15
ENDBRANCH   7   9
ENDBRANCH   6   7
ENDBRANCH   5   6
ENDBRANCH   4   5
ENDBRANCH   3   4
ENDBRANCH   2   3
ENDBRANCH   1   2
BRANCH   1  77
ATOM     77  O   UNL A   1      37.044  30.927  28.697  1.00  0.00    -0.377 OA
BRANCH  77  78
ATOM     78  C   UNL A   1      36.016  31.429  27.857  1.00  0.00     0.188 C 
BRANCH  78  79
ATOM     79  C   UNL A   1      34.552  30.985  28.082  1.00  0.00     0.188 C 
BRANCH  79  80
ATOM     80  O   UNL A   1      33.771  30.419  27.037  1.00  0.00    -0.376 OA
BRANCH  80  81
ATOM     81  C   UNL A   1      34.127  29.150  26.530  1.00  0.00     0.202 C 
BRANCH  81  82
ATOM     82  C   UNL A   1      32.914  28.272  26.208  1.00  0.00     0.261 C 
BRANCH  82  83
ATOM     83  O   UNL A   1      31.872  28.942  25.467  1.00  0.00    -0.463 OA
BRANCH  83  84
ATOM     84  C   UNL A   1      31.944  28.896  24.106  1.00  0.00     0.316 C 
ATOM     85  O   UNL A   1      32.893  29.340  23.468  1.00  0.00    -0.251 OA
BRANCH  84  86
ATOM     86  C   UNL A   1      30.633  28.343  23.430  1.00  0.00     0.095 C 
ATOM     87  C   UNL A   1      29.665  27.422  24.224  1.00  0.00     0.040 C 
ATOM     88  C   UNL A   1      31.118  27.446  22.250  1.00  0.00     0.040 C 
ATOM     89  C   UNL A   1      30.140  26.022  24.574  1.00  0.00     0.104 C 
ATOM     90  C   UNL A   1      31.789  26.149  22.748  1.00  0.00     0.104 C 
ATOM     91  N   UNL A   1      30.804  25.296  23.462  1.00  0.00    -0.197 NA
BRANCH  86  92
ATOM     92  C   UNL A   1      29.811  29.600  23.028  1.00  0.00    -0.031 A 
ATOM     93  C   UNL A   1      29.507  30.624  23.928  1.00  0.00     0.005 A 
ATOM     94  C   UNL A   1      29.230  29.670  21.736  1.00  0.00     0.005 A 
ATOM     95  C   UNL A   1      28.652  31.668  23.553  1.00  0.00     0.000 A 
ATOM     96  C   UNL A   1      28.377  30.707  21.366  1.00  0.00     0.000 A 
ATOM     97  C   UNL A   1      28.085  31.707  22.280  1.00  0.00     0.000 A 
ENDBRANCH  86  92
BRANCH  91  98
ATOM     98  S   UNL A   1      31.454  23.809  24.100  1.00  0.00     0.252 S 
ATOM     99  O   UNL A   1      30.808  23.594  25.389  1.00  0.00    -0.206 OA
ATOM    100  O   UNL A   1      31.337  22.816  23.065  1.00  0.00    -0.206 OA
BRANCH  98 101
ATOM    101  C   UNL A   1      33.174  23.991  24.505  1.00  0.00     0.135 A 
ATOM    102  C   UNL A   1      33.804  24.610  25.571  1.00  0.00     0.033 A 
ATOM    103  S   UNL A   1      34.306  23.214  23.483  1.00  0.00    -0.131 S 
ATOM    104  C   UNL A   1      35.216  24.430  25.553  1.00  0.00     0.013 A 
ATOM    105  C   UNL A   1      35.620  23.668  24.481  1.00  0.00     0.066 A 
ENDBRANCH  98 101
ENDBRANCH  91  98
ENDBRANCH  84  86
ENDBRANCH  83  84
ENDBRANCH  82  83
ENDBRANCH  81  82
ENDBRANCH  80  81
ENDBRANCH  79  80
ENDBRANCH  78  79
ENDBRANCH  77  78
ENDBRANCH   1  77
TORSDOF 26
ENDMDL
MODEL 3
REMARK VINA RESULT:      -8.5      6.722     10.259
REMARK SMILES O=C(OCCOCCOCCOCCOC(=O)C1(c2ccccc2)CCN(S(=O)(=O)c2cccs2)CC1)c1ccc(-c2c3nc(c(-c4c(F)cc(S(=O)(=O)[O-])cc4F)c4ccc([nH]4)c(-c4c(F)cc(S(=O)(=O)[O-])cc4F)c4nc(c(-c5c(F)cc(S(=O)(=O)[O-])cc5F)c5ccc2[nH]5)C=C4)C=C3)cc1
REMARK SMILES IDX 8 1 7 2 6 3 5 4 4 5 3 6 2 7 1 8 38 9 39 10 103 11 40 12
REMARK SMILES IDX 102 13 41 14 42 15 43 16 96 17 44 18 101 19 95 20 97 21
REMARK SMILES IDX 45 22 100 23 94 24 93 25 46 27 80 28 59 29 79 30 60 31 63 32
REMARK SMILES IDX 78 33 98 34 61 35 62 36 77 38 99 39 64 40 47 41 48 42 57 43
REMARK SMILES IDX 49 44 50 45 56 46 58 47 51 48 52 49 53 50 54 51 55 52 81 53
REMARK SMILES IDX 82 54 91 55 83 56 84 57 90 58 92 59 85 60 86 61 87 62 88 63
REMARK SMILES IDX 89 64 65 65 66 66 75 67 67 68 68 69 74 70 76 71 69 72 70 73
REMARK SMILES IDX 71 74 72 75 73 76 9 77 10 78 11 79 12 80 13 81 14 82 15 83
REMARK SMILES IDX 16 84 17 85 18 86 25 87 37 88 26 89 36 90 27 91 19 92 20 93
REMARK SMILES IDX 24 94 21 95 23 96 22 97 28 98 29 99 30 100 31 101 32 102
REMARK SMILES IDX 35 103 33 104 34 105
REMARK H PARENT 97 26 63 37
REMARK Flexibility Score: inf
ROOT
ATOM      1  C   UNL A   1      35.899  31.876  29.880  1.00  0.00     0.188 C 
ENDROOT
BRANCH   1   2
ATOM      2  C   UNL A   1      36.296  33.330  30.157  1.00  0.00     0.188 C 
BRANCH   2   3
ATOM      3  O   UNL A   1      35.339  33.837  31.085  1.00  0.00    -0.376 OA
BRANCH   3   4
ATOM      4  C   UNL A   1      34.510  32.900  31.757  1.00  0.00     0.202 C 
BRANCH   4   5
ATOM      5  C   UNL A   1      34.507  33.101  33.272  1.00  0.00     0.261 C 
BRANCH   5   6
ATOM      6  O   UNL A   1      35.671  33.819  33.710  1.00  0.00    -0.460 OA
BRANCH   6   7
ATOM      7  C   UNL A   1      36.716  33.325  34.422  1.00  0.00     0.338 C 
ATOM      8  O   UNL A   1      36.546  33.091  35.618  1.00  0.00    -0.246 OA
BRANCH   7   9
ATOM      9  C   UNL A   1      38.058  33.008  33.839  1.00  0.00     0.060 A 
ATOM     10  C   UNL A   1      38.296  32.176  32.741  1.00  0.00     0.016 A 
ATOM     11  C   UNL A   1      39.154  33.689  34.391  1.00  0.00     0.016 A 
ATOM     12  C   UNL A   1      39.568  31.998  32.215  1.00  0.00     0.010 A 
ATOM     13  C   UNL A   1      40.438  33.528  33.863  1.00  0.00     0.010 A 
ATOM     14  C   UNL A   1      40.645  32.671  32.775  1.00  0.00    -0.014 A 
BRANCH  14  15
ATOM     15  C   UNL A   1      42.003  32.349  32.304  1.00  0.00     0.031 A 
ATOM     16  C   UNL A   1      42.699  33.372  31.463  1.00  0.00     0.074 A 
ATOM     17  C   UNL A   1      42.604  31.206  32.681  1.00  0.00     0.049 A 
ATOM     18  N   UNL A   1      43.770  33.255  30.735  1.00  0.00    -0.248 NA
ATOM     19  C   UNL A   1      42.092  34.717  31.434  1.00  0.00     0.031 C 
ATOM     20  C   UNL A   1      42.049  30.226  33.618  1.00  0.00     0.029 A 
ATOM     21  N   UNL A   1      43.815  30.675  32.325  1.00  0.00    -0.354 N 
ATOM     22  C   UNL A   1      43.923  34.479  30.099  1.00  0.00     0.074 A 
ATOM     23  C   UNL A   1      42.859  35.343  30.554  1.00  0.00     0.031 C 
ATOM     24  C   UNL A   1      42.916  29.209  33.757  1.00  0.00     0.029 A 
ATOM     25  C   UNL A   1      44.037  29.422  32.850  1.00  0.00     0.049 A 
ATOM     26  H   UNL A   1      44.464  31.143  31.751  1.00  0.00     0.167 HD
ATOM     27  C   UNL A   1      44.861  34.823  29.190  1.00  0.00     0.037 A 
ATOM     28  C   UNL A   1      45.002  28.527  32.561  1.00  0.00     0.037 A 
ATOM     29  C   UNL A   1      45.924  33.935  28.806  1.00  0.00     0.049 A 
ATOM     30  C   UNL A   1      46.006  28.909  31.503  1.00  0.00     0.074 A 
ATOM     31  C   UNL A   1      46.935  34.140  27.890  1.00  0.00     0.029 A 
ATOM     32  N   UNL A   1      46.104  32.662  29.335  1.00  0.00    -0.354 N 
ATOM     33  N   UNL A   1      46.115  30.041  30.844  1.00  0.00    -0.248 NA
ATOM     34  C   UNL A   1      46.990  27.891  31.118  1.00  0.00     0.031 C 
ATOM     35  C   UNL A   1      47.704  32.972  27.834  1.00  0.00     0.029 A 
ATOM     36  C   UNL A   1      47.196  32.056  28.747  1.00  0.00     0.049 A 
ATOM     37  H   UNL A   1      45.537  32.252  30.028  1.00  0.00     0.167 HD
ATOM     38  C   UNL A   1      47.175  29.871  29.964  1.00  0.00     0.074 A 
ATOM     39  C   UNL A   1      47.693  28.537  30.196  1.00  0.00     0.031 C 
ATOM     40  C   UNL A   1      47.671  30.725  29.034  1.00  0.00     0.037 A 
BRANCH  27  41
ATOM     41  C   UNL A   1      44.720  36.150  28.507  1.00  0.00     0.058 A 
ATOM     42  C   UNL A   1      43.809  36.371  27.463  1.00  0.00     0.135 A 
ATOM     43  C   UNL A   1      45.530  37.226  28.907  1.00  0.00     0.135 A 
ATOM     44  F   UNL A   1      43.037  35.369  27.016  1.00  0.00    -0.206 F 
ATOM     45  C   UNL A   1      43.714  37.609  26.832  1.00  0.00     0.059 A 
ATOM     46  C   UNL A   1      45.439  38.477  28.305  1.00  0.00     0.059 A 
ATOM     47  F   UNL A   1      46.435  37.063  29.886  1.00  0.00    -0.206 F 
ATOM     48  C   UNL A   1      44.532  38.656  27.262  1.00  0.00     0.060 A 
BRANCH  48  49
ATOM     49  S   UNL A   1      44.387  40.261  26.445  1.00  0.00     0.124 S 
ATOM     50  O   UNL A   1      45.365  40.130  25.369  1.00  0.00    -0.237 OA
ATOM     51  O   UNL A   1      42.989  40.274  26.032  1.00  0.00    -0.237 OA
ATOM     52  O   UNL A   1      44.737  41.211  27.497  1.00  0.00    -0.744 OA
ENDBRANCH  48  49
ENDBRANCH  27  41
BRANCH  28  53
ATOM     53  C   UNL A   1      44.996  27.171  33.179  1.00  0.00     0.058 A 
ATOM     54  C   UNL A   1      45.643  26.915  34.398  1.00  0.00     0.135 A 
ATOM     55  C   UNL A   1      44.356  26.088  32.550  1.00  0.00     0.135 A 
ATOM     56  F   UNL A   1      46.280  27.906  35.039  1.00  0.00    -0.206 F 
ATOM     57  C   UNL A   1      45.673  25.638  34.957  1.00  0.00     0.059 A 
ATOM     58  C   UNL A   1      44.345  24.812  33.104  1.00  0.00     0.059 A 
ATOM     59  F   UNL A   1      43.716  26.270  31.384  1.00  0.00    -0.206 F 
ATOM     60  C   UNL A   1      45.024  24.591  34.300  1.00  0.00     0.060 A 
BRANCH  60  61
ATOM     61  S   UNL A   1      45.057  22.941  35.034  1.00  0.00     0.124 S 
ATOM     62  O   UNL A   1      43.639  22.701  35.281  1.00  0.00    -0.237 OA
ATOM     63  O   UNL A   1      45.663  22.142  33.974  1.00  0.00    -0.237 OA
ATOM     64  O   UNL A   1      45.884  23.118  36.223  1.00  0.00    -0.744 OA
ENDBRANCH  60  61
ENDBRANCH  28  53
BRANCH  40  65
ATOM     65  C   UNL A   1      48.832  30.242  28.221  1.00  0.00     0.058 A 
ATOM     66  C   UNL A   1      50.153  30.491  28.624  1.00  0.00     0.135 A 
ATOM     67  C   UNL A   1      48.620  29.436  27.093  1.00  0.00     0.135 A 
ATOM     68  F   UNL A   1      50.400  31.266  29.690  1.00  0.00    -0.206 F 
ATOM     69  C   UNL A   1      51.229  29.952  27.931  1.00  0.00     0.059 A 
ATOM     70  C   UNL A   1      49.680  28.866  26.401  1.00  0.00     0.059 A 
ATOM     71  F   UNL A   1      47.370  29.165  26.682  1.00  0.00    -0.206 F 
ATOM     72  C   UNL A   1      50.981  29.131  26.828  1.00  0.00     0.060 A 
BRANCH  72  73
ATOM     73  S   UNL A   1      52.383  28.368  25.990  1.00  0.00     0.124 S 
ATOM     74  O   UNL A   1      53.419  28.452  27.014  1.00  0.00    -0.237 OA
ATOM     75  O   UNL A   1      51.883  27.027  25.702  1.00  0.00    -0.237 OA
ATOM     76  O   UNL A   1      52.585  29.219  24.821  1.00  0.00    -0.744 OA
ENDBRANCH  72  73
ENDBRANCH  40  65
ENDBRANCH  14  15
ENDBRANCH   7   9
ENDBRANCH   6   7
ENDBRANCH   5   6
ENDBRANCH   4   5
ENDBRANCH   3   4
ENDBRANCH   2   3
ENDBRANCH   1   2
BRANCH   1  77
ATOM     77  O   UNL A   1      36.041  31.504  28.510  1.00  0.00    -0.377 OA
BRANCH  77  78
ATOM     78  C   UNL A   1      34.949  31.828  27.662  1.00  0.00     0.188 C 
BRANCH  78  79
ATOM     79  C   UNL A   1      33.868  30.765  27.358  1.00  0.00     0.188 C 
BRANCH  79  80
ATOM     80  O   UNL A   1      34.052  29.394  27.686  1.00  0.00    -0.376 OA
BRANCH  80  81
ATOM     81  C   UNL A   1      33.028  28.473  27.373  1.00  0.00     0.202 C 
BRANCH  81  82
ATOM     82  C   UNL A   1      33.015  28.072  25.896  1.00  0.00     0.261 C 
BRANCH  82  83
ATOM     83  O   UNL A   1      31.707  28.086  25.285  1.00  0.00    -0.463 OA
BRANCH  83  84
ATOM     84  C   UNL A   1      31.069  26.888  25.144  1.00  0.00     0.316 C 
ATOM     85  O   UNL A   1      30.881  26.114  26.076  1.00  0.00    -0.251 OA
BRANCH  84  86
ATOM     86  C   UNL A   1      30.722  26.538  23.648  1.00  0.00     0.095 C 
ATOM     87  C   UNL A   1      30.190  25.127  23.272  1.00  0.00     0.040 C 
ATOM     88  C   UNL A   1      32.069  26.649  22.870  1.00  0.00     0.040 C 
ATOM     89  C   UNL A   1      31.146  23.952  23.382  1.00  0.00     0.104 C 
ATOM     90  C   UNL A   1      33.046  25.514  23.243  1.00  0.00     0.104 C 
ATOM     91  N   UNL A   1      32.499  24.199  22.822  1.00  0.00    -0.197 NA
BRANCH  86  92
ATOM     92  C   UNL A   1      29.617  27.549  23.231  1.00  0.00    -0.031 A 
ATOM     93  C   UNL A   1      29.897  28.735  22.547  1.00  0.00     0.005 A 
ATOM     94  C   UNL A   1      28.282  27.341  23.661  1.00  0.00     0.005 A 
ATOM     95  C   UNL A   1      28.885  29.675  22.312  1.00  0.00     0.000 A 
ATOM     96  C   UNL A   1      27.278  28.278  23.430  1.00  0.00     0.000 A 
ATOM     97  C   UNL A   1      27.582  29.450  22.756  1.00  0.00     0.000 A 
ENDBRANCH  86  92
BRANCH  91  98
ATOM     98  S   UNL A   1      33.505  22.830  23.217  1.00  0.00     0.252 S 
ATOM     99  O   UNL A   1      32.748  21.640  22.849  1.00  0.00    -0.206 OA
ATOM    100  O   UNL A   1      34.797  23.069  22.629  1.00  0.00    -0.206 OA
BRANCH  98 101
ATOM    101  C   UNL A   1      33.713  22.683  24.975  1.00  0.00     0.135 A 
ATOM    102  C   UNL A   1      33.276  23.481  26.019  1.00  0.00     0.033 A 
ATOM    103  S   UNL A   1      34.511  21.285  25.556  1.00  0.00    -0.131 S 
ATOM    104  C   UNL A   1      33.586  22.932  27.295  1.00  0.00     0.013 A 
ATOM    105  C   UNL A   1      34.239  21.725  27.187  1.00  0.00     0.066 A 
ENDBRANCH  98 101
ENDBRANCH  91  98
ENDBRANCH  84  86
ENDBRANCH  83  84
ENDBRANCH  82  83
ENDBRANCH  81  82
ENDBRANCH  80  81
ENDBRANCH  79  80
ENDBRANCH  78  79
ENDBRANCH  77  78
ENDBRANCH   1  77
TORSDOF 26
ENDMDL
