MODEL 1
REMARK VINA RESULT:      -7.9      0.000      0.000
REMARK SMILES C[C@@H]1[C@@H](C(=O)OCCOCCOCCOCCOC(=O)c2ccc(-c3c4nc(c(-c5c(F)cc(S(=O)(=O)[O-])cc5F)c5ccc([nH]5)c(-c5c(F)cc(S(=O)(=O)[O-])cc5F)c5nc(c(-c6c(F)cc(S(=O)(=O)[O-])cc6F)c6ccc3[nH]6)C=C5)C=C4)cc2)CCN1C(=O)N(C)Cc1ccsc1
REMARK SMILES IDX 11 1 10 2 9 3 8 4 7 5 6 6 4 7 5 8 3 9 1 10 2 11 89 12 87 13
REMARK SMILES IDX 88 14 90 15 91 16 92 17 93 18 94 19 95 20 96 21 99 22 97 23
REMARK SMILES IDX 98 24 12 25 13 26 14 27 15 28 16 29 17 30 18 31 19 32 20 33
REMARK SMILES IDX 21 34 22 35 86 36 23 37 85 38 24 39 25 40 26 41 79 42 27 43
REMARK SMILES IDX 84 44 78 45 80 46 28 47 83 48 77 49 76 50 29 52 63 53 42 54
REMARK SMILES IDX 62 55 43 56 46 57 61 58 81 59 44 60 45 61 60 63 82 64 47 65
REMARK SMILES IDX 30 66 31 67 40 68 32 69 33 70 39 71 41 72 34 73 35 74 36 75
REMARK SMILES IDX 37 76 38 77 64 78 65 79 74 80 66 81 67 82 73 83 75 84 68 85
REMARK SMILES IDX 69 86 70 87 71 88 72 89 48 90 49 91 58 92 50 93 51 94 57 95
REMARK SMILES IDX 59 96 52 97 53 98 54 99 55 100 56 101
REMARK H PARENT 80 51 46 62
REMARK Flexibility Score: inf
ROOT
ATOM      1  C   UNL A   1      40.730  20.508  26.653  1.00  0.00     0.188 C 
ENDROOT
BRANCH   1   2
ATOM      2  C   UNL A   1      39.507  21.271  26.123  1.00  0.00     0.188 C 
BRANCH   2   3
ATOM      3  O   UNL A   1      39.331  22.625  26.485  1.00  0.00    -0.376 OA
BRANCH   3   4
ATOM      4  C   UNL A   1      38.233  23.442  26.101  1.00  0.00     0.202 C 
BRANCH   4   5
ATOM      5  C   UNL A   1      36.789  23.025  25.752  1.00  0.00     0.261 C 
BRANCH   5   6
ATOM      6  O   UNL A   1      35.829  24.049  25.542  1.00  0.00    -0.463 OA
BRANCH   6   7
ATOM      7  C   UNL A   1      35.262  24.026  24.319  1.00  0.00     0.311 C 
ATOM      8  O   UNL A   1      35.678  23.361  23.380  1.00  0.00    -0.252 OA
BRANCH   7   9
ATOM      9  C   UNL A   1      33.971  24.832  24.332  1.00  0.00     0.123 C 
ATOM     10  C   UNL A   1      31.959  25.169  25.853  1.00  0.00     0.032 C 
ATOM     11  C   UNL A   1      33.032  24.193  25.358  1.00  0.00     0.098 C 
ATOM     12  N   UNL A   1      32.460  23.085  24.604  1.00  0.00    -0.321 N 
ATOM     13  C   UNL A   1      33.219  24.710  23.024  1.00  0.00     0.039 C 
ATOM     14  C   UNL A   1      32.580  23.342  23.162  1.00  0.00     0.122 C 
BRANCH  12  15
ATOM     15  C   UNL A   1      32.288  21.776  24.971  1.00  0.00     0.320 C 
ATOM     16  O   UNL A   1      31.365  21.508  25.753  1.00  0.00    -0.248 OA
BRANCH  15  17
ATOM     17  N   UNL A   1      33.155  20.776  24.579  1.00  0.00    -0.323 N 
ATOM     18  C   UNL A   1      34.539  20.486  24.921  1.00  0.00     0.149 C 
BRANCH  17  19
ATOM     19  C   UNL A   1      32.555  19.786  23.690  1.00  0.00     0.157 C 
BRANCH  19  20
ATOM     20  C   UNL A   1      32.900  18.380  24.134  1.00  0.00    -0.018 A 
ATOM     21  C   UNL A   1      33.620  17.452  23.308  1.00  0.00     0.017 A 
ATOM     22  C   UNL A   1      32.527  17.768  25.322  1.00  0.00     0.070 A 
ATOM     23  C   UNL A   1      33.727  16.204  23.877  1.00  0.00     0.065 A 
ATOM     24  S   UNL A   1      32.997  16.131  25.417  1.00  0.00    -0.152 S 
ENDBRANCH  19  20
ENDBRANCH  17  19
ENDBRANCH  15  17
ENDBRANCH  12  15
ENDBRANCH   7   9
ENDBRANCH   6   7
ENDBRANCH   5   6
ENDBRANCH   4   5
ENDBRANCH   3   4
ENDBRANCH   2   3
ENDBRANCH   1   2
BRANCH   1  25
ATOM     25  O   UNL A   1      41.601  20.070  25.635  1.00  0.00    -0.377 OA
BRANCH  25  26
ATOM     26  C   UNL A   1      42.816  19.446  26.035  1.00  0.00     0.188 C 
BRANCH  26  27
ATOM     27  C   UNL A   1      43.927  19.139  25.001  1.00  0.00     0.188 C 
BRANCH  27  28
ATOM     28  O   UNL A   1      45.047  20.014  25.042  1.00  0.00    -0.376 OA
BRANCH  28  29
ATOM     29  C   UNL A   1      44.817  21.403  25.209  1.00  0.00     0.202 C 
BRANCH  29  30
ATOM     30  C   UNL A   1      45.818  22.363  24.546  1.00  0.00     0.261 C 
BRANCH  30  31
ATOM     31  O   UNL A   1      46.726  23.035  25.430  1.00  0.00    -0.460 OA
BRANCH  31  32
ATOM     32  C   UNL A   1      46.845  24.373  25.292  1.00  0.00     0.338 C 
ATOM     33  O   UNL A   1      47.014  24.988  24.252  1.00  0.00    -0.246 OA
BRANCH  32  34
ATOM     34  C   UNL A   1      46.529  24.994  26.596  1.00  0.00     0.060 A 
ATOM     35  C   UNL A   1      47.094  26.238  26.909  1.00  0.00     0.016 A 
ATOM     36  C   UNL A   1      45.672  24.360  27.498  1.00  0.00     0.016 A 
ATOM     37  C   UNL A   1      46.838  26.831  28.144  1.00  0.00     0.010 A 
ATOM     38  C   UNL A   1      45.434  24.943  28.745  1.00  0.00     0.010 A 
ATOM     39  C   UNL A   1      46.047  26.162  29.088  1.00  0.00    -0.014 A 
BRANCH  39  40
ATOM     40  C   UNL A   1      46.040  26.625  30.498  1.00  0.00     0.031 A 
ATOM     41  C   UNL A   1      47.189  26.218  31.382  1.00  0.00     0.074 A 
ATOM     42  C   UNL A   1      45.054  27.403  30.979  1.00  0.00     0.049 A 
ATOM     43  N   UNL A   1      47.381  26.446  32.654  1.00  0.00    -0.248 NA
ATOM     44  C   UNL A   1      48.265  25.443  30.740  1.00  0.00     0.031 C 
ATOM     45  C   UNL A   1      43.915  27.900  30.210  1.00  0.00     0.029 A 
ATOM     46  N   UNL A   1      44.854  27.905  32.241  1.00  0.00    -0.354 N 
ATOM     47  C   UNL A   1      48.591  25.839  32.968  1.00  0.00     0.074 A 
ATOM     48  C   UNL A   1      49.073  25.203  31.761  1.00  0.00     0.031 C 
ATOM     49  C   UNL A   1      43.126  28.624  31.023  1.00  0.00     0.029 A 
ATOM     50  C   UNL A   1      43.684  28.613  32.375  1.00  0.00     0.049 A 
ATOM     51  H   UNL A   1      45.489  27.770  32.982  1.00  0.00     0.167 HD
ATOM     52  C   UNL A   1      49.246  25.820  34.152  1.00  0.00     0.037 A 
ATOM     53  C   UNL A   1      43.118  29.164  33.468  1.00  0.00     0.037 A 
ATOM     54  C   UNL A   1      48.758  26.453  35.349  1.00  0.00     0.049 A 
ATOM     55  C   UNL A   1      43.829  29.064  34.796  1.00  0.00     0.074 A 
ATOM     56  C   UNL A   1      49.353  26.503  36.598  1.00  0.00     0.029 A 
ATOM     57  N   UNL A   1      47.555  27.136  35.452  1.00  0.00    -0.354 N 
ATOM     58  N   UNL A   1      44.983  28.504  35.077  1.00  0.00    -0.248 NA
ATOM     59  C   UNL A   1      43.161  29.673  35.956  1.00  0.00     0.031 C 
ATOM     60  C   UNL A   1      48.481  27.164  37.470  1.00  0.00     0.029 A 
ATOM     61  C   UNL A   1      47.375  27.586  36.748  1.00  0.00     0.049 A 
ATOM     62  H   UNL A   1      46.922  27.279  34.711  1.00  0.00     0.167 HD
ATOM     63  C   UNL A   1      45.194  28.724  36.435  1.00  0.00     0.074 A 
ATOM     64  C   UNL A   1      44.054  29.476  36.917  1.00  0.00     0.031 C 
ATOM     65  C   UNL A   1      46.238  28.344  37.213  1.00  0.00     0.037 A 
BRANCH  52  66
ATOM     66  C   UNL A   1      50.545  25.064  34.220  1.00  0.00     0.058 A 
ATOM     67  C   UNL A   1      50.591  23.690  34.507  1.00  0.00     0.135 A 
ATOM     68  C   UNL A   1      51.761  25.719  33.962  1.00  0.00     0.135 A 
ATOM     69  F   UNL A   1      49.463  23.019  34.784  1.00  0.00    -0.206 F 
ATOM     70  C   UNL A   1      51.797  22.998  34.561  1.00  0.00     0.059 A 
ATOM     71  C   UNL A   1      52.976  25.040  33.978  1.00  0.00     0.059 A 
ATOM     72  F   UNL A   1      51.777  27.033  33.688  1.00  0.00    -0.206 F 
ATOM     73  C   UNL A   1      52.984  23.682  34.291  1.00  0.00     0.060 A 
BRANCH  73  74
ATOM     74  S   UNL A   1      54.539  22.766  34.354  1.00  0.00     0.124 S 
ATOM     75  O   UNL A   1      55.440  23.676  33.653  1.00  0.00    -0.237 OA
ATOM     76  O   UNL A   1      54.764  22.635  35.790  1.00  0.00    -0.237 OA
ATOM     77  O   UNL A   1      54.232  21.524  33.653  1.00  0.00    -0.744 OA
ENDBRANCH  73  74
ENDBRANCH  52  66
BRANCH  53  78
ATOM     78  C   UNL A   1      41.799  29.847  33.364  1.00  0.00     0.058 A 
ATOM     79  C   UNL A   1      40.598  29.126  33.433  1.00  0.00     0.135 A 
ATOM     80  C   UNL A   1      41.715  31.237  33.181  1.00  0.00     0.135 A 
ATOM     81  F   UNL A   1      40.624  27.793  33.591  1.00  0.00    -0.206 F 
ATOM     82  C   UNL A   1      39.361  29.752  33.309  1.00  0.00     0.059 A 
ATOM     83  C   UNL A   1      40.489  31.890  33.084  1.00  0.00     0.059 A 
ATOM     84  F   UNL A   1      42.832  31.977  33.115  1.00  0.00    -0.206 F 
ATOM     85  C   UNL A   1      39.318  31.137  33.139  1.00  0.00     0.060 A 
BRANCH  85  86
ATOM     86  S   UNL A   1      37.706  31.944  33.026  1.00  0.00     0.124 S 
ATOM     87  O   UNL A   1      37.765  32.878  34.145  1.00  0.00    -0.237 OA
ATOM     88  O   UNL A   1      37.756  32.538  31.694  1.00  0.00    -0.237 OA
ATOM     89  O   UNL A   1      36.767  30.837  33.178  1.00  0.00    -0.744 OA
ENDBRANCH  85  86
ENDBRANCH  53  78
BRANCH  65  90
ATOM     90  C   UNL A   1      46.229  28.769  38.658  1.00  0.00     0.058 A 
ATOM     91  C   UNL A   1      45.645  27.981  39.662  1.00  0.00     0.135 A 
ATOM     92  C   UNL A   1      46.868  29.958  39.050  1.00  0.00     0.135 A 
ATOM     93  F   UNL A   1      45.018  26.838  39.345  1.00  0.00    -0.206 F 
ATOM     94  C   UNL A   1      45.671  28.369  40.999  1.00  0.00     0.059 A 
ATOM     95  C   UNL A   1      46.936  30.349  40.384  1.00  0.00     0.059 A 
ATOM     96  F   UNL A   1      47.454  30.745  38.133  1.00  0.00    -0.206 F 
ATOM     97  C   UNL A   1      46.322  29.553  41.350  1.00  0.00     0.060 A 
BRANCH  97  98
ATOM     98  S   UNL A   1      46.378  30.028  43.091  1.00  0.00     0.124 S 
ATOM     99  O   UNL A   1      45.398  31.109  43.132  1.00  0.00    -0.237 OA
ATOM    100  O   UNL A   1      45.987  28.792  43.763  1.00  0.00    -0.237 OA
ATOM    101  O   UNL A   1      47.766  30.432  43.290  1.00  0.00    -0.744 OA
ENDBRANCH  97  98
ENDBRANCH  65  90
ENDBRANCH  39  40
ENDBRANCH  32  34
ENDBRANCH  31  32
ENDBRANCH  30  31
ENDBRANCH  29  30
ENDBRANCH  28  29
ENDBRANCH  27  28
ENDBRANCH  26  27
ENDBRANCH  25  26
ENDBRANCH   1  25
TORSDOF 27
ENDMDL
MODEL 2
REMARK VINA RESULT:      -7.7      6.680     10.769
REMARK SMILES C[C@@H]1[C@@H](C(=O)OCCOCCOCCOCCOC(=O)c2ccc(-c3c4nc(c(-c5c(F)cc(S(=O)(=O)[O-])cc5F)c5ccc([nH]5)c(-c5c(F)cc(S(=O)(=O)[O-])cc5F)c5nc(c(-c6c(F)cc(S(=O)(=O)[O-])cc6F)c6ccc3[nH]6)C=C5)C=C4)cc2)CCN1C(=O)N(C)Cc1ccsc1
REMARK SMILES IDX 11 1 10 2 9 3 8 4 7 5 6 6 4 7 5 8 3 9 1 10 2 11 89 12 87 13
REMARK SMILES IDX 88 14 90 15 91 16 92 17 93 18 94 19 95 20 96 21 99 22 97 23
REMARK SMILES IDX 98 24 12 25 13 26 14 27 15 28 16 29 17 30 18 31 19 32 20 33
REMARK SMILES IDX 21 34 22 35 86 36 23 37 85 38 24 39 25 40 26 41 79 42 27 43
REMARK SMILES IDX 84 44 78 45 80 46 28 47 83 48 77 49 76 50 29 52 63 53 42 54
REMARK SMILES IDX 62 55 43 56 46 57 61 58 81 59 44 60 45 61 60 63 82 64 47 65
REMARK SMILES IDX 30 66 31 67 40 68 32 69 33 70 39 71 41 72 34 73 35 74 36 75
REMARK SMILES IDX 37 76 38 77 64 78 65 79 74 80 66 81 67 82 73 83 75 84 68 85
REMARK SMILES IDX 69 86 70 87 71 88 72 89 48 90 49 91 58 92 50 93 51 94 57 95
REMARK SMILES IDX 59 96 52 97 53 98 54 99 55 100 56 101
REMARK H PARENT 80 51 46 62
REMARK Flexibility Score: inf
ROOT
ATOM      1  C   UNL A   1      42.709  18.947  26.109  1.00  0.00     0.188 C 
ENDROOT
BRANCH   1   2
ATOM      2  C   UNL A   1      41.354  19.605  26.413  1.00  0.00     0.188 C 
BRANCH   2   3
ATOM      3  O   UNL A   1      41.324  20.944  26.859  1.00  0.00    -0.376 OA
BRANCH   3   4
ATOM      4  C   UNL A   1      40.187  21.795  26.826  1.00  0.00     0.202 C 
BRANCH   4   5
ATOM      5  C   UNL A   1      38.972  21.754  25.877  1.00  0.00     0.261 C 
BRANCH   5   6
ATOM      6  O   UNL A   1      38.371  22.985  25.505  1.00  0.00    -0.463 OA
BRANCH   6   7
ATOM      7  C   UNL A   1      37.145  22.854  24.958  1.00  0.00     0.311 C 
ATOM      8  O   UNL A   1      36.942  22.531  23.795  1.00  0.00    -0.252 OA
BRANCH   7   9
ATOM      9  C   UNL A   1      36.079  23.028  26.029  1.00  0.00     0.123 C 
ATOM     10  C   UNL A   1      33.974  21.839  26.824  1.00  0.00     0.032 C 
ATOM     11  C   UNL A   1      34.870  22.178  25.629  1.00  0.00     0.098 C 
ATOM     12  N   UNL A   1      34.196  23.037  24.663  1.00  0.00    -0.321 N 
ATOM     13  C   UNL A   1      35.537  24.442  26.058  1.00  0.00     0.039 C 
ATOM     14  C   UNL A   1      34.599  24.436  24.867  1.00  0.00     0.122 C 
BRANCH  12  15
ATOM     15  C   UNL A   1      33.684  22.731  23.430  1.00  0.00     0.320 C 
ATOM     16  O   UNL A   1      34.291  23.141  22.430  1.00  0.00    -0.248 OA
BRANCH  15  17
ATOM     17  N   UNL A   1      32.482  22.074  23.269  1.00  0.00    -0.323 N 
ATOM     18  C   UNL A   1      31.952  21.242  22.199  1.00  0.00     0.149 C 
BRANCH  17  19
ATOM     19  C   UNL A   1      31.584  22.191  24.415  1.00  0.00     0.157 C 
BRANCH  19  20
ATOM     20  C   UNL A   1      30.995  23.582  24.503  1.00  0.00    -0.018 A 
ATOM     21  C   UNL A   1      30.494  24.295  23.362  1.00  0.00     0.017 A 
ATOM     22  C   UNL A   1      30.919  24.383  25.634  1.00  0.00     0.070 A 
ATOM     23  C   UNL A   1      30.105  25.580  23.665  1.00  0.00     0.065 A 
ATOM     24  S   UNL A   1      30.302  25.942  25.320  1.00  0.00    -0.152 S 
ENDBRANCH  19  20
ENDBRANCH  17  19
ENDBRANCH  15  17
ENDBRANCH  12  15
ENDBRANCH   7   9
ENDBRANCH   6   7
ENDBRANCH   5   6
ENDBRANCH   4   5
ENDBRANCH   3   4
ENDBRANCH   2   3
ENDBRANCH   1   2
BRANCH   1  25
ATOM     25  O   UNL A   1      43.321  19.440  24.939  1.00  0.00    -0.377 OA
BRANCH  25  26
ATOM     26  C   UNL A   1      44.606  20.038  25.073  1.00  0.00     0.188 C 
BRANCH  26  27
ATOM     27  C   UNL A   1      44.986  21.294  24.249  1.00  0.00     0.188 C 
BRANCH  27  28
ATOM     28  O   UNL A   1      45.075  22.500  24.996  1.00  0.00    -0.376 OA
BRANCH  28  29
ATOM     29  C   UNL A   1      44.369  22.593  26.223  1.00  0.00     0.202 C 
BRANCH  29  30
ATOM     30  C   UNL A   1      43.404  23.779  26.386  1.00  0.00     0.261 C 
BRANCH  30  31
ATOM     31  O   UNL A   1      43.968  25.082  26.178  1.00  0.00    -0.460 OA
BRANCH  31  32
ATOM     32  C   UNL A   1      43.159  26.028  25.656  1.00  0.00     0.338 C 
ATOM     33  O   UNL A   1      42.297  25.866  24.807  1.00  0.00    -0.246 OA
BRANCH  32  34
ATOM     34  C   UNL A   1      43.348  27.269  26.438  1.00  0.00     0.060 A 
ATOM     35  C   UNL A   1      42.742  28.451  25.990  1.00  0.00     0.016 A 
ATOM     36  C   UNL A   1      44.106  27.264  27.610  1.00  0.00     0.016 A 
ATOM     37  C   UNL A   1      42.930  29.641  26.690  1.00  0.00     0.010 A 
ATOM     38  C   UNL A   1      44.313  28.462  28.298  1.00  0.00     0.010 A 
ATOM     39  C   UNL A   1      43.758  29.662  27.819  1.00  0.00    -0.014 A 
BRANCH  39  40
ATOM     40  C   UNL A   1      44.218  30.963  28.368  1.00  0.00     0.031 A 
ATOM     41  C   UNL A   1      43.349  31.648  29.389  1.00  0.00     0.074 A 
ATOM     42  C   UNL A   1      45.386  31.513  27.990  1.00  0.00     0.049 A 
ATOM     43  N   UNL A   1      43.505  32.807  29.969  1.00  0.00    -0.248 NA
ATOM     44  C   UNL A   1      42.137  30.923  29.807  1.00  0.00     0.031 C 
ATOM     45  C   UNL A   1      46.334  30.924  27.046  1.00  0.00     0.029 A 
ATOM     46  N   UNL A   1      45.967  32.701  28.354  1.00  0.00    -0.354 N 
ATOM     47  C   UNL A   1      42.411  32.957  30.813  1.00  0.00     0.074 A 
ATOM     48  C   UNL A   1      41.581  31.785  30.644  1.00  0.00     0.031 C 
ATOM     49  C   UNL A   1      47.373  31.763  26.893  1.00  0.00     0.029 A 
ATOM     50  C   UNL A   1      47.148  32.963  27.700  1.00  0.00     0.049 A 
ATOM     51  H   UNL A   1      45.575  33.312  29.021  1.00  0.00     0.167 HD
ATOM     52  C   UNL A   1      42.127  33.976  31.658  1.00  0.00     0.037 A 
ATOM     53  C   UNL A   1      47.938  34.054  27.730  1.00  0.00     0.037 A 
ATOM     54  C   UNL A   1      42.957  35.141  31.818  1.00  0.00     0.049 A 
ATOM     55  C   UNL A   1      47.562  35.213  28.623  1.00  0.00     0.074 A 
ATOM     56  C   UNL A   1      42.765  36.223  32.658  1.00  0.00     0.029 A 
ATOM     57  N   UNL A   1      44.130  35.382  31.117  1.00  0.00    -0.354 N 
ATOM     58  N   UNL A   1      46.535  35.335  29.431  1.00  0.00    -0.248 NA
ATOM     59  C   UNL A   1      48.455  36.382  28.609  1.00  0.00     0.031 C 
ATOM     60  C   UNL A   1      43.789  37.146  32.421  1.00  0.00     0.029 A 
ATOM     61  C   UNL A   1      44.657  36.608  31.484  1.00  0.00     0.049 A 
ATOM     62  H   UNL A   1      44.528  34.770  30.456  1.00  0.00     0.167 HD
ATOM     63  C   UNL A   1      46.677  36.576  30.045  1.00  0.00     0.074 A 
ATOM     64  C   UNL A   1      47.894  37.161  29.523  1.00  0.00     0.031 C 
ATOM     65  C   UNL A   1      45.877  37.176  30.962  1.00  0.00     0.037 A 
BRANCH  52  66
ATOM     66  C   UNL A   1      40.851  33.891  32.451  1.00  0.00     0.058 A 
ATOM     67  C   UNL A   1      40.826  33.407  33.769  1.00  0.00     0.135 A 
ATOM     68  C   UNL A   1      39.639  34.330  31.893  1.00  0.00     0.135 A 
ATOM     69  F   UNL A   1      41.950  32.953  34.345  1.00  0.00    -0.206 F 
ATOM     70  C   UNL A   1      39.642  33.339  34.496  1.00  0.00     0.059 A 
ATOM     71  C   UNL A   1      38.449  34.302  32.613  1.00  0.00     0.059 A 
ATOM     72  F   UNL A   1      39.604  34.797  30.635  1.00  0.00    -0.206 F 
ATOM     73  C   UNL A   1      38.459  33.792  33.910  1.00  0.00     0.060 A 
BRANCH  73  74
ATOM     74  S   UNL A   1      36.933  33.707  34.872  1.00  0.00     0.124 S 
ATOM     75  O   UNL A   1      36.267  34.942  34.470  1.00  0.00    -0.237 OA
ATOM     76  O   UNL A   1      36.327  32.472  34.384  1.00  0.00    -0.237 OA
ATOM     77  O   UNL A   1      37.403  33.670  36.253  1.00  0.00    -0.744 OA
ENDBRANCH  73  74
ENDBRANCH  52  66
BRANCH  53  78
ATOM     78  C   UNL A   1      49.159  34.118  26.880  1.00  0.00     0.058 A 
ATOM     79  C   UNL A   1      49.145  34.763  25.634  1.00  0.00     0.135 A 
ATOM     80  C   UNL A   1      50.363  33.525  27.292  1.00  0.00     0.135 A 
ATOM     81  F   UNL A   1      48.015  35.334  25.187  1.00  0.00    -0.206 F 
ATOM     82  C   UNL A   1      50.272  34.805  24.819  1.00  0.00     0.059 A 
ATOM     83  C   UNL A   1      51.512  33.578  26.509  1.00  0.00     0.059 A 
ATOM     84  F   UNL A   1      50.434  32.901  28.477  1.00  0.00    -0.206 F 
ATOM     85  C   UNL A   1      51.454  34.212  25.269  1.00  0.00     0.060 A 
BRANCH  85  86
ATOM     86  S   UNL A   1      52.923  34.312  24.224  1.00  0.00     0.124 S 
ATOM     87  O   UNL A   1      52.770  35.634  23.626  1.00  0.00    -0.237 OA
ATOM     88  O   UNL A   1      54.000  34.172  25.199  1.00  0.00    -0.237 OA
ATOM     89  O   UNL A   1      52.762  33.185  23.311  1.00  0.00    -0.744 OA
ENDBRANCH  85  86
ENDBRANCH  53  78
BRANCH  65  90
ATOM     90  C   UNL A   1      46.308  38.515  31.501  1.00  0.00     0.058 A 
ATOM     91  C   UNL A   1      47.141  38.632  32.625  1.00  0.00     0.135 A 
ATOM     92  C   UNL A   1      45.926  39.698  30.845  1.00  0.00     0.135 A 
ATOM     93  F   UNL A   1      47.533  37.536  33.292  1.00  0.00    -0.206 F 
ATOM     94  C   UNL A   1      47.559  39.874  33.094  1.00  0.00     0.059 A 
ATOM     95  C   UNL A   1      46.358  40.948  31.277  1.00  0.00     0.059 A 
ATOM     96  F   UNL A   1      45.140  39.645  29.759  1.00  0.00    -0.206 F 
ATOM     97  C   UNL A   1      47.165  41.026  32.411  1.00  0.00     0.060 A 
BRANCH  97  98
ATOM     98  S   UNL A   1      47.741  42.628  33.011  1.00  0.00     0.124 S 
ATOM     99  O   UNL A   1      48.454  42.248  34.227  1.00  0.00    -0.237 OA
ATOM    100  O   UNL A   1      48.575  43.093  31.906  1.00  0.00    -0.237 OA
ATOM    101  O   UNL A   1      46.507  43.380  33.217  1.00  0.00    -0.744 OA
ENDBRANCH  97  98
ENDBRANCH  65  90
ENDBRANCH  39  40
ENDBRANCH  32  34
ENDBRANCH  31  32
ENDBRANCH  30  31
ENDBRANCH  29  30
ENDBRANCH  28  29
ENDBRANCH  27  28
ENDBRANCH  26  27
ENDBRANCH  25  26
ENDBRANCH   1  25
TORSDOF 27
ENDMDL
MODEL 3
REMARK VINA RESULT:      -7.5      6.344     10.340
REMARK SMILES C[C@@H]1[C@@H](C(=O)OCCOCCOCCOCCOC(=O)c2ccc(-c3c4nc(c(-c5c(F)cc(S(=O)(=O)[O-])cc5F)c5ccc([nH]5)c(-c5c(F)cc(S(=O)(=O)[O-])cc5F)c5nc(c(-c6c(F)cc(S(=O)(=O)[O-])cc6F)c6ccc3[nH]6)C=C5)C=C4)cc2)CCN1C(=O)N(C)Cc1ccsc1
REMARK SMILES IDX 11 1 10 2 9 3 8 4 7 5 6 6 4 7 5 8 3 9 1 10 2 11 89 12 87 13
REMARK SMILES IDX 88 14 90 15 91 16 92 17 93 18 94 19 95 20 96 21 99 22 97 23
REMARK SMILES IDX 98 24 12 25 13 26 14 27 15 28 16 29 17 30 18 31 19 32 20 33
REMARK SMILES IDX 21 34 22 35 86 36 23 37 85 38 24 39 25 40 26 41 79 42 27 43
REMARK SMILES IDX 84 44 78 45 80 46 28 47 83 48 77 49 76 50 29 52 63 53 42 54
REMARK SMILES IDX 62 55 43 56 46 57 61 58 81 59 44 60 45 61 60 63 82 64 47 65
REMARK SMILES IDX 30 66 31 67 40 68 32 69 33 70 39 71 41 72 34 73 35 74 36 75
REMARK SMILES IDX 37 76 38 77 64 78 65 79 74 80 66 81 67 82 73 83 75 84 68 85
REMARK SMILES IDX 69 86 70 87 71 88 72 89 48 90 49 91 58 92 50 93 51 94 57 95
REMARK SMILES IDX 59 96 52 97 53 98 54 99 55 100 56 101
REMARK H PARENT 80 51 46 62
REMARK Flexibility Score: inf
ROOT
ATOM      1  C   UNL A   1      42.359  19.211  26.341  1.00  0.00     0.188 C 
ENDROOT
BRANCH   1   2
ATOM      2  C   UNL A   1      41.004  19.903  26.556  1.00  0.00     0.188 C 
BRANCH   2   3
ATOM      3  O   UNL A   1      40.980  21.262  26.941  1.00  0.00    -0.376 OA
BRANCH   3   4
ATOM      4  C   UNL A   1      39.846  22.116  26.869  1.00  0.00     0.202 C 
BRANCH   4   5
ATOM      5  C   UNL A   1      38.747  22.178  25.788  1.00  0.00     0.261 C 
BRANCH   5   6
ATOM      6  O   UNL A   1      38.144  23.434  25.519  1.00  0.00    -0.463 OA
BRANCH   6   7
ATOM      7  C   UNL A   1      36.896  23.346  25.014  1.00  0.00     0.311 C 
ATOM      8  O   UNL A   1      36.632  22.899  23.907  1.00  0.00    -0.252 OA
BRANCH   7   9
ATOM      9  C   UNL A   1      35.880  23.751  26.072  1.00  0.00     0.123 C 
ATOM     10  C   UNL A   1      34.108  22.644  27.525  1.00  0.00     0.032 C 
ATOM     11  C   UNL A   1      34.847  22.627  26.183  1.00  0.00     0.098 C 
ATOM     12  N   UNL A   1      33.959  22.915  25.063  1.00  0.00    -0.321 N 
ATOM     13  C   UNL A   1      35.067  24.953  25.640  1.00  0.00     0.039 C 
ATOM     14  C   UNL A   1      34.082  24.326  24.673  1.00  0.00     0.122 C 
BRANCH  12  15
ATOM     15  C   UNL A   1      33.448  22.070  24.114  1.00  0.00     0.320 C 
ATOM     16  O   UNL A   1      33.792  22.242  22.936  1.00  0.00    -0.248 OA
BRANCH  15  17
ATOM     17  N   UNL A   1      32.504  21.108  24.409  1.00  0.00    -0.323 N 
ATOM     18  C   UNL A   1      31.456  21.034  25.416  1.00  0.00     0.149 C 
BRANCH  17  19
ATOM     19  C   UNL A   1      32.521  19.963  23.503  1.00  0.00     0.157 C 
BRANCH  19  20
ATOM     20  C   UNL A   1      33.011  18.718  24.211  1.00  0.00    -0.018 A 
ATOM     21  C   UNL A   1      34.397  18.348  24.277  1.00  0.00     0.017 A 
ATOM     22  C   UNL A   1      32.230  17.744  24.816  1.00  0.00     0.070 A 
ATOM     23  C   UNL A   1      34.594  17.126  24.880  1.00  0.00     0.065 A 
ATOM     24  S   UNL A   1      33.133  16.421  25.405  1.00  0.00    -0.152 S 
ENDBRANCH  19  20
ENDBRANCH  17  19
ENDBRANCH  15  17
ENDBRANCH  12  15
ENDBRANCH   7   9
ENDBRANCH   6   7
ENDBRANCH   5   6
ENDBRANCH   4   5
ENDBRANCH   3   4
ENDBRANCH   2   3
ENDBRANCH   1   2
BRANCH   1  25
ATOM     25  O   UNL A   1      43.024  19.632  25.172  1.00  0.00    -0.377 OA
BRANCH  25  26
ATOM     26  C   UNL A   1      44.323  20.194  25.322  1.00  0.00     0.188 C 
BRANCH  26  27
ATOM     27  C   UNL A   1      44.754  21.429  24.493  1.00  0.00     0.188 C 
BRANCH  27  28
ATOM     28  O   UNL A   1      44.867  22.639  25.230  1.00  0.00    -0.376 OA
BRANCH  28  29
ATOM     29  C   UNL A   1      44.138  22.769  26.440  1.00  0.00     0.202 C 
BRANCH  29  30
ATOM     30  C   UNL A   1      43.234  24.004  26.582  1.00  0.00     0.261 C 
BRANCH  30  31
ATOM     31  O   UNL A   1      43.869  25.275  26.380  1.00  0.00    -0.460 OA
BRANCH  31  32
ATOM     32  C   UNL A   1      43.116  26.263  25.850  1.00  0.00     0.338 C 
ATOM     33  O   UNL A   1      42.291  26.155  24.958  1.00  0.00    -0.246 OA
BRANCH  32  34
ATOM     34  C   UNL A   1      43.308  27.473  26.678  1.00  0.00     0.060 A 
ATOM     35  C   UNL A   1      42.639  28.651  26.319  1.00  0.00     0.016 A 
ATOM     36  C   UNL A   1      44.130  27.442  27.806  1.00  0.00     0.016 A 
ATOM     37  C   UNL A   1      42.827  29.815  27.063  1.00  0.00     0.010 A 
ATOM     38  C   UNL A   1      44.337  28.615  28.537  1.00  0.00     0.010 A 
ATOM     39  C   UNL A   1      43.716  29.815  28.146  1.00  0.00    -0.014 A 
BRANCH  39  40
ATOM     40  C   UNL A   1      44.164  31.104  28.728  1.00  0.00     0.031 A 
ATOM     41  C   UNL A   1      43.357  31.689  29.857  1.00  0.00     0.074 A 
ATOM     42  C   UNL A   1      45.268  31.732  28.286  1.00  0.00     0.049 A 
ATOM     43  N   UNL A   1      43.511  32.821  30.489  1.00  0.00    -0.248 NA
ATOM     44  C   UNL A   1      42.219  30.883  30.333  1.00  0.00     0.031 C 
ATOM     45  C   UNL A   1      46.156  31.243  27.233  1.00  0.00     0.029 A 
ATOM     46  N   UNL A   1      45.825  32.926  28.669  1.00  0.00    -0.354 N 
ATOM     47  C   UNL A   1      42.488  32.870  31.430  1.00  0.00     0.074 A 
ATOM     48  C   UNL A   1      41.700  31.669  31.263  1.00  0.00     0.031 C 
ATOM     49  C   UNL A   1      47.139  32.140  27.043  1.00  0.00     0.029 A 
ATOM     50  C   UNL A   1      46.931  33.281  27.935  1.00  0.00     0.049 A 
ATOM     51  H   UNL A   1      45.465  33.479  29.401  1.00  0.00     0.167 HD
ATOM     52  C   UNL A   1      42.234  33.826  32.354  1.00  0.00     0.037 A 
ATOM     53  C   UNL A   1      47.671  34.408  27.962  1.00  0.00     0.037 A 
ATOM     54  C   UNL A   1      43.021  35.021  32.512  1.00  0.00     0.049 A 
ATOM     55  C   UNL A   1      47.323  35.496  28.949  1.00  0.00     0.074 A 
ATOM     56  C   UNL A   1      42.854  36.045  33.427  1.00  0.00     0.029 A 
ATOM     57  N   UNL A   1      44.116  35.357  31.729  1.00  0.00    -0.354 N 
ATOM     58  N   UNL A   1      46.365  35.522  29.847  1.00  0.00    -0.248 NA
ATOM     59  C   UNL A   1      48.157  36.706  28.928  1.00  0.00     0.031 C 
ATOM     60  C   UNL A   1      43.811  37.029  33.159  1.00  0.00     0.029 A 
ATOM     61  C   UNL A   1      44.617  36.587  32.122  1.00  0.00     0.049 A 
ATOM     62  H   UNL A   1      44.483  34.804  31.002  1.00  0.00     0.167 HD
ATOM     63  C   UNL A   1      46.505  36.734  30.519  1.00  0.00     0.074 A 
ATOM     64  C   UNL A   1      47.644  37.407  29.930  1.00  0.00     0.031 C 
ATOM     65  C   UNL A   1      45.761  37.242  31.533  1.00  0.00     0.037 A 
BRANCH  52  66
ATOM     66  C   UNL A   1      41.036  33.635  33.245  1.00  0.00     0.058 A 
ATOM     67  C   UNL A   1      39.748  34.039  32.856  1.00  0.00     0.135 A 
ATOM     68  C   UNL A   1      41.175  33.009  34.495  1.00  0.00     0.135 A 
ATOM     69  F   UNL A   1      39.560  34.662  31.682  1.00  0.00    -0.206 F 
ATOM     70  C   UNL A   1      38.646  33.851  33.684  1.00  0.00     0.059 A 
ATOM     71  C   UNL A   1      40.081  32.782  35.325  1.00  0.00     0.059 A 
ATOM     72  F   UNL A   1      42.383  32.608  34.920  1.00  0.00    -0.206 F 
ATOM     73  C   UNL A   1      38.823  33.219  34.916  1.00  0.00     0.060 A 
BRANCH  73  74
ATOM     74  S   UNL A   1      37.380  32.973  35.973  1.00  0.00     0.124 S 
ATOM     75  O   UNL A   1      36.288  33.235  35.040  1.00  0.00    -0.237 OA
ATOM     76  O   UNL A   1      37.535  31.584  36.391  1.00  0.00    -0.237 OA
ATOM     77  O   UNL A   1      37.555  33.967  37.027  1.00  0.00    -0.744 OA
ENDBRANCH  73  74
ENDBRANCH  52  66
BRANCH  53  78
ATOM     78  C   UNL A   1      48.809  34.579  27.017  1.00  0.00     0.058 A 
ATOM     79  C   UNL A   1      48.639  35.221  25.781  1.00  0.00     0.135 A 
ATOM     80  C   UNL A   1      50.089  34.092  27.326  1.00  0.00     0.135 A 
ATOM     81  F   UNL A   1      47.431  35.691  25.430  1.00  0.00    -0.206 F 
ATOM     82  C   UNL A   1      49.688  35.361  24.879  1.00  0.00     0.059 A 
ATOM     83  C   UNL A   1      51.163  34.246  26.453  1.00  0.00     0.059 A 
ATOM     84  F   UNL A   1      50.310  33.476  28.497  1.00  0.00    -0.206 F 
ATOM     85  C   UNL A   1      50.950  34.873  25.227  1.00  0.00     0.060 A 
BRANCH  85  86
ATOM     86  S   UNL A   1      52.316  35.103  24.068  1.00  0.00     0.124 S 
ATOM     87  O   UNL A   1      51.914  36.322  23.377  1.00  0.00    -0.237 OA
ATOM     88  O   UNL A   1      53.460  35.223  24.967  1.00  0.00    -0.237 OA
ATOM     89  O   UNL A   1      52.282  33.883  23.266  1.00  0.00    -0.744 OA
ENDBRANCH  85  86
ENDBRANCH  53  78
BRANCH  65  90
ATOM     90  C   UNL A   1      46.176  38.570  32.111  1.00  0.00     0.058 A 
ATOM     91  C   UNL A   1      47.151  38.671  33.116  1.00  0.00     0.135 A 
ATOM     92  C   UNL A   1      45.629  39.763  31.608  1.00  0.00     0.135 A 
ATOM     93  F   UNL A   1      47.704  37.564  33.635  1.00  0.00    -0.206 F 
ATOM     94  C   UNL A   1      47.550  39.906  33.620  1.00  0.00     0.059 A 
ATOM     95  C   UNL A   1      46.037  41.009  32.073  1.00  0.00     0.059 A 
ATOM     96  F   UNL A   1      44.702  39.726  30.639  1.00  0.00    -0.206 F 
ATOM     97  C   UNL A   1      46.990  41.070  33.089  1.00  0.00     0.060 A 
BRANCH  97  98
ATOM     98  S   UNL A   1      47.540  42.666  33.728  1.00  0.00     0.124 S 
ATOM     99  O   UNL A   1      47.112  43.571  32.667  1.00  0.00    -0.237 OA
ATOM    100  O   UNL A   1      46.805  42.768  34.985  1.00  0.00    -0.237 OA
ATOM    101  O   UNL A   1      48.984  42.499  33.865  1.00  0.00    -0.744 OA
ENDBRANCH  97  98
ENDBRANCH  65  90
ENDBRANCH  39  40
ENDBRANCH  32  34
ENDBRANCH  31  32
ENDBRANCH  30  31
ENDBRANCH  29  30
ENDBRANCH  28  29
ENDBRANCH  27  28
ENDBRANCH  26  27
ENDBRANCH  25  26
ENDBRANCH   1  25
TORSDOF 27
ENDMDL
