MODEL 1
REMARK VINA RESULT:      -7.4      0.000      0.000
REMARK SMILES O=C(COc1cc(-c2ccccc2)nc(NCc2ccc(Cl)cc2)n1)OCCOCCOCCOCCOC(=O)c1ccc(-c2c3nc(c(-c4c(F)cc(S(=O)(=O)[O-])cc4F)c4ccc([nH]4)c(-c4c(F)cc(S(=O)(=O)[O-])cc4F)c4nc(c(-c5c(F)cc(S(=O)(=O)[O-])cc5F)c5ccc2[nH]5)C=C4)C=C3)cc1
REMARK SMILES IDX 31 1 30 2 29 3 28 4 27 5 26 6 2 7 1 8 3 9 4 10 5 11 6 12
REMARK SMILES IDX 25 13 7 14 15 15 14 16 8 17 9 18 13 19 10 20 12 21 11 22
REMARK SMILES IDX 16 23 17 25 18 26 19 27 24 28 20 29 23 30 21 31 22 32 32 33
REMARK SMILES IDX 33 34 34 35 35 36 36 37 37 38 38 39 39 40 40 41 41 42 42 43
REMARK SMILES IDX 106 44 43 45 105 46 44 47 45 48 46 49 99 50 47 51 104 52
REMARK SMILES IDX 98 53 100 54 48 55 103 56 97 57 96 58 49 60 83 61 62 62
REMARK SMILES IDX 82 63 63 64 66 65 81 66 101 67 64 68 65 69 80 71 102 72
REMARK SMILES IDX 67 73 50 74 51 75 60 76 52 77 53 78 59 79 61 80 54 81 55 82
REMARK SMILES IDX 56 83 57 84 58 85 84 86 85 87 94 88 86 89 87 90 93 91 95 92
REMARK SMILES IDX 88 93 89 94 90 95 91 96 92 97 68 98 69 99 78 100 70 101
REMARK SMILES IDX 71 102 77 103 79 104 72 105 73 106 74 107 75 108 76 109
REMARK H PARENT 16 24 100 59 66 70
REMARK Flexibility Score: inf
ROOT
ATOM      1  C   UNL A   1      40.032  31.240  30.577  1.00  0.00     0.188 C 
ENDROOT
BRANCH   1   2
ATOM      2  C   UNL A   1      39.593  29.772  30.510  1.00  0.00     0.188 C 
BRANCH   2   3
ATOM      3  O   UNL A   1      38.340  29.449  29.930  1.00  0.00    -0.376 OA
BRANCH   3   4
ATOM      4  C   UNL A   1      37.045  29.791  30.377  1.00  0.00     0.202 C 
BRANCH   4   5
ATOM      5  C   UNL A   1      36.114  30.724  29.604  1.00  0.00     0.261 C 
BRANCH   5   6
ATOM      6  O   UNL A   1      35.042  30.126  28.857  1.00  0.00    -0.461 OA
BRANCH   6   7
ATOM      7  C   UNL A   1      35.006  29.936  27.520  1.00  0.00     0.344 C 
ATOM      8  O   UNL A   1      36.020  29.572  26.928  1.00  0.00    -0.248 OA
BRANCH   7   9
ATOM      9  C   UNL A   1      33.705  30.217  26.782  1.00  0.00     0.353 C 
BRANCH   9  10
ATOM     10  O   UNL A   1      32.627  29.392  27.223  1.00  0.00    -0.466 OA
BRANCH  10  11
ATOM     11  C   UNL A   1      32.090  28.821  26.110  1.00  0.00     0.219 A 
ATOM     12  C   UNL A   1      31.645  29.611  25.093  1.00  0.00     0.097 A 
ATOM     13  N   UNL A   1      31.810  27.537  26.259  1.00  0.00    -0.177 NA
ATOM     14  C   UNL A   1      30.662  29.046  24.323  1.00  0.00     0.080 A 
ATOM     15  C   UNL A   1      30.969  27.015  25.380  1.00  0.00     0.226 A 
ATOM     16  N   UNL A   1      30.324  27.737  24.446  1.00  0.00    -0.213 NA
BRANCH  14  17
ATOM     17  C   UNL A   1      29.826  29.931  23.488  1.00  0.00     0.000 A 
ATOM     18  C   UNL A   1      29.337  29.501  22.244  1.00  0.00     0.010 A 
ATOM     19  C   UNL A   1      29.361  31.170  23.977  1.00  0.00     0.010 A 
ATOM     20  C   UNL A   1      28.422  30.276  21.521  1.00  0.00     0.001 A 
ATOM     21  C   UNL A   1      28.445  31.942  23.260  1.00  0.00     0.001 A 
ATOM     22  C   UNL A   1      27.978  31.495  22.030  1.00  0.00     0.000 A 
ENDBRANCH  14  17
BRANCH  15  23
ATOM     23  N   UNL A   1      30.733  25.673  25.459  1.00  0.00    -0.350 N 
ATOM     24  H   UNL A   1      30.197  25.316  26.203  1.00  0.00     0.164 HD
BRANCH  23  25
ATOM     25  C   UNL A   1      31.264  24.767  24.464  1.00  0.00     0.152 C 
BRANCH  25  26
ATOM     26  C   UNL A   1      32.670  24.335  24.816  1.00  0.00    -0.029 A 
ATOM     27  C   UNL A   1      33.711  24.478  23.888  1.00  0.00     0.007 A 
ATOM     28  C   UNL A   1      32.967  23.831  26.095  1.00  0.00     0.007 A 
ATOM     29  C   UNL A   1      35.014  24.110  24.218  1.00  0.00     0.021 A 
ATOM     30  C   UNL A   1      34.276  23.471  26.430  1.00  0.00     0.021 A 
ATOM     31  C   UNL A   1      35.293  23.611  25.487  1.00  0.00     0.041 A 
ATOM     32  Cl  UNL A   1      36.906  23.173  25.893  1.00  0.00    -0.084 Cl
ENDBRANCH  25  26
ENDBRANCH  23  25
ENDBRANCH  15  23
ENDBRANCH  10  11
ENDBRANCH   9  10
ENDBRANCH   7   9
ENDBRANCH   6   7
ENDBRANCH   5   6
ENDBRANCH   4   5
ENDBRANCH   3   4
ENDBRANCH   2   3
ENDBRANCH   1   2
BRANCH   1  33
ATOM     33  O   UNL A   1      39.373  32.155  29.714  1.00  0.00    -0.377 OA
BRANCH  33  34
ATOM     34  C   UNL A   1      38.713  33.228  30.362  1.00  0.00     0.188 C 
BRANCH  34  35
ATOM     35  C   UNL A   1      38.686  33.093  31.895  1.00  0.00     0.188 C 
BRANCH  35  36
ATOM     36  O   UNL A   1      37.536  32.523  32.485  1.00  0.00    -0.376 OA
BRANCH  36  37
ATOM     37  C   UNL A   1      37.561  31.828  33.719  1.00  0.00     0.202 C 
BRANCH  37  38
ATOM     38  C   UNL A   1      37.540  32.419  35.144  1.00  0.00     0.261 C 
BRANCH  38  39
ATOM     39  O   UNL A   1      38.381  31.858  36.144  1.00  0.00    -0.460 OA
BRANCH  39  40
ATOM     40  C   UNL A   1      37.941  31.950  37.411  1.00  0.00     0.338 C 
ATOM     41  O   UNL A   1      37.323  31.103  38.038  1.00  0.00    -0.246 OA
BRANCH  40  42
ATOM     42  C   UNL A   1      38.549  33.159  38.001  1.00  0.00     0.060 A 
ATOM     43  C   UNL A   1      38.708  34.280  37.175  1.00  0.00     0.016 A 
ATOM     44  C   UNL A   1      38.935  33.199  39.344  1.00  0.00     0.016 A 
ATOM     45  C   UNL A   1      39.322  35.422  37.668  1.00  0.00     0.010 A 
ATOM     46  C   UNL A   1      39.592  34.333  39.828  1.00  0.00     0.010 A 
ATOM     47  C   UNL A   1      39.840  35.416  38.967  1.00  0.00    -0.014 A 
BRANCH  47  48
ATOM     48  C   UNL A   1      40.913  36.388  39.272  1.00  0.00     0.031 A 
ATOM     49  C   UNL A   1      42.317  36.003  38.888  1.00  0.00     0.074 A 
ATOM     50  C   UNL A   1      40.638  37.606  39.765  1.00  0.00     0.049 A 
ATOM     51  N   UNL A   1      43.425  36.687  38.992  1.00  0.00    -0.248 NA
ATOM     52  C   UNL A   1      42.494  34.662  38.301  1.00  0.00     0.031 C 
ATOM     53  C   UNL A   1      39.306  38.103  40.107  1.00  0.00     0.029 A 
ATOM     54  N   UNL A   1      41.475  38.654  40.049  1.00  0.00    -0.354 N 
ATOM     55  C   UNL A   1      44.426  35.857  38.497  1.00  0.00     0.074 A 
ATOM     56  C   UNL A   1      43.804  34.610  38.122  1.00  0.00     0.031 C 
ATOM     57  C   UNL A   1      39.418  39.365  40.559  1.00  0.00     0.029 A 
ATOM     58  C   UNL A   1      40.828  39.751  40.563  1.00  0.00     0.049 A 
ATOM     59  H   UNL A   1      42.447  38.622  39.901  1.00  0.00     0.167 HD
ATOM     60  C   UNL A   1      45.745  36.119  38.357  1.00  0.00     0.037 A 
ATOM     61  C   UNL A   1      41.328  40.926  40.993  1.00  0.00     0.037 A 
ATOM     62  C   UNL A   1      46.352  37.368  38.730  1.00  0.00     0.049 A 
ATOM     63  C   UNL A   1      42.813  41.169  40.890  1.00  0.00     0.074 A 
ATOM     64  C   UNL A   1      47.677  37.746  38.623  1.00  0.00     0.029 A 
ATOM     65  N   UNL A   1      45.672  38.439  39.292  1.00  0.00    -0.354 N 
ATOM     66  N   UNL A   1      43.750  40.385  40.407  1.00  0.00    -0.248 NA
ATOM     67  C   UNL A   1      43.309  42.461  41.381  1.00  0.00     0.031 C 
ATOM     68  C   UNL A   1      47.810  39.022  39.179  1.00  0.00     0.029 A 
ATOM     69  C   UNL A   1      46.555  39.470  39.563  1.00  0.00     0.049 A 
ATOM     70  H   UNL A   1      44.704  38.463  39.471  1.00  0.00     0.167 HD
ATOM     71  C   UNL A   1      44.937  41.107  40.497  1.00  0.00     0.074 A 
ATOM     72  C   UNL A   1      44.597  42.390  41.075  1.00  0.00     0.031 C 
ATOM     73  C   UNL A   1      46.193  40.745  40.130  1.00  0.00     0.037 A 
BRANCH  60  74
ATOM     74  C   UNL A   1      46.622  35.017  37.825  1.00  0.00     0.058 A 
ATOM     75  C   UNL A   1      47.243  34.082  38.669  1.00  0.00     0.135 A 
ATOM     76  C   UNL A   1      46.831  34.891  36.443  1.00  0.00     0.135 A 
ATOM     77  F   UNL A   1      47.101  34.170  40.001  1.00  0.00    -0.206 F 
ATOM     78  C   UNL A   1      48.060  33.075  38.161  1.00  0.00     0.059 A 
ATOM     79  C   UNL A   1      47.616  33.873  35.911  1.00  0.00     0.059 A 
ATOM     80  F   UNL A   1      46.270  35.764  35.592  1.00  0.00    -0.206 F 
ATOM     81  C   UNL A   1      48.237  32.978  36.779  1.00  0.00     0.060 A 
BRANCH  81  82
ATOM     82  S   UNL A   1      49.290  31.661  36.136  1.00  0.00     0.124 S 
ATOM     83  O   UNL A   1      48.869  30.526  36.952  1.00  0.00    -0.237 OA
ATOM     84  O   UNL A   1      48.901  31.611  34.731  1.00  0.00    -0.237 OA
ATOM     85  O   UNL A   1      50.641  32.150  36.392  1.00  0.00    -0.744 OA
ENDBRANCH  81  82
ENDBRANCH  60  74
BRANCH  61  86
ATOM     86  C   UNL A   1      40.422  41.963  41.555  1.00  0.00     0.058 A 
ATOM     87  C   UNL A   1      39.967  41.892  42.881  1.00  0.00     0.135 A 
ATOM     88  C   UNL A   1      39.982  43.043  40.773  1.00  0.00     0.135 A 
ATOM     89  F   UNL A   1      40.351  40.874  43.667  1.00  0.00    -0.206 F 
ATOM     90  C   UNL A   1      39.097  42.842  43.406  1.00  0.00     0.059 A 
ATOM     91  C   UNL A   1      39.136  44.022  41.285  1.00  0.00     0.059 A 
ATOM     92  F   UNL A   1      40.394  43.165  39.502  1.00  0.00    -0.206 F 
ATOM     93  C   UNL A   1      38.690  43.907  42.600  1.00  0.00     0.060 A 
BRANCH  93  94
ATOM     94  S   UNL A   1      37.600  45.160  43.308  1.00  0.00     0.124 S 
ATOM     95  O   UNL A   1      37.928  45.069  44.726  1.00  0.00    -0.237 OA
ATOM     96  O   UNL A   1      38.045  46.370  42.624  1.00  0.00    -0.237 OA
ATOM     97  O   UNL A   1      36.267  44.693  42.936  1.00  0.00    -0.744 OA
ENDBRANCH  93  94
ENDBRANCH  61  86
BRANCH  73  98
ATOM     98  C   UNL A   1      47.283  41.774  40.282  1.00  0.00     0.058 A 
ATOM     99  C   UNL A   1      47.581  42.703  39.273  1.00  0.00     0.135 A 
ATOM    100  C   UNL A   1      48.016  41.850  41.478  1.00  0.00     0.135 A 
ATOM    101  F   UNL A   1      46.910  42.676  38.109  1.00  0.00    -0.206 F 
ATOM    102  C   UNL A   1      48.597  43.640  39.425  1.00  0.00     0.059 A 
ATOM    103  C   UNL A   1      49.011  42.803  41.667  1.00  0.00     0.059 A 
ATOM    104  F   UNL A   1      47.762  40.999  42.484  1.00  0.00    -0.206 F 
ATOM    105  C   UNL A   1      49.309  43.681  40.627  1.00  0.00     0.060 A 
BRANCH 105 106
ATOM    106  S   UNL A   1      50.624  44.903  40.813  1.00  0.00     0.124 S 
ATOM    107  O   UNL A   1      50.398  45.370  42.177  1.00  0.00    -0.237 OA
ATOM    108  O   UNL A   1      51.825  44.101  40.607  1.00  0.00    -0.237 OA
ATOM    109  O   UNL A   1      50.337  45.874  39.761  1.00  0.00    -0.744 OA
ENDBRANCH 105 106
ENDBRANCH  73  98
ENDBRANCH  47  48
ENDBRANCH  40  42
ENDBRANCH  39  40
ENDBRANCH  38  39
ENDBRANCH  37  38
ENDBRANCH  36  37
ENDBRANCH  35  36
ENDBRANCH  34  35
ENDBRANCH  33  34
ENDBRANCH   1  33
TORSDOF 29
ENDMDL
MODEL 2
REMARK VINA RESULT:      -7.1     10.283     19.941
REMARK SMILES O=C(COc1cc(-c2ccccc2)nc(NCc2ccc(Cl)cc2)n1)OCCOCCOCCOCCOC(=O)c1ccc(-c2c3nc(c(-c4c(F)cc(S(=O)(=O)[O-])cc4F)c4ccc([nH]4)c(-c4c(F)cc(S(=O)(=O)[O-])cc4F)c4nc(c(-c5c(F)cc(S(=O)(=O)[O-])cc5F)c5ccc2[nH]5)C=C4)C=C3)cc1
REMARK SMILES IDX 31 1 30 2 29 3 28 4 27 5 26 6 2 7 1 8 3 9 4 10 5 11 6 12
REMARK SMILES IDX 25 13 7 14 15 15 14 16 8 17 9 18 13 19 10 20 12 21 11 22
REMARK SMILES IDX 16 23 17 25 18 26 19 27 24 28 20 29 23 30 21 31 22 32 32 33
REMARK SMILES IDX 33 34 34 35 35 36 36 37 37 38 38 39 39 40 40 41 41 42 42 43
REMARK SMILES IDX 106 44 43 45 105 46 44 47 45 48 46 49 99 50 47 51 104 52
REMARK SMILES IDX 98 53 100 54 48 55 103 56 97 57 96 58 49 60 83 61 62 62
REMARK SMILES IDX 82 63 63 64 66 65 81 66 101 67 64 68 65 69 80 71 102 72
REMARK SMILES IDX 67 73 50 74 51 75 60 76 52 77 53 78 59 79 61 80 54 81 55 82
REMARK SMILES IDX 56 83 57 84 58 85 84 86 85 87 94 88 86 89 87 90 93 91 95 92
REMARK SMILES IDX 88 93 89 94 90 95 91 96 92 97 68 98 69 99 78 100 70 101
REMARK SMILES IDX 71 102 77 103 79 104 72 105 73 106 74 107 75 108 76 109
REMARK H PARENT 16 24 100 59 66 70
REMARK Flexibility Score: inf
ROOT
ATOM      1  C   UNL A   1      48.278  32.503  32.886  1.00  0.00     0.188 C 
ENDROOT
BRANCH   1   2
ATOM      2  C   UNL A   1      49.787  32.397  32.635  1.00  0.00     0.188 C 
BRANCH   2   3
ATOM      3  O   UNL A   1      50.302  31.250  31.979  1.00  0.00    -0.376 OA
BRANCH   3   4
ATOM      4  C   UNL A   1      49.825  30.610  30.815  1.00  0.00     0.202 C 
BRANCH   4   5
ATOM      5  C   UNL A   1      49.709  29.092  30.685  1.00  0.00     0.261 C 
BRANCH   5   6
ATOM      6  O   UNL A   1      48.477  28.559  30.171  1.00  0.00    -0.461 OA
BRANCH   6   7
ATOM      7  C   UNL A   1      47.436  28.102  30.900  1.00  0.00     0.344 C 
ATOM      8  O   UNL A   1      46.286  28.352  30.546  1.00  0.00    -0.248 OA
BRANCH   7   9
ATOM      9  C   UNL A   1      47.730  27.313  32.169  1.00  0.00     0.353 C 
BRANCH   9  10
ATOM     10  O   UNL A   1      48.502  26.138  31.925  1.00  0.00    -0.466 OA
BRANCH  10  11
ATOM     11  C   UNL A   1      49.123  25.829  33.096  1.00  0.00     0.219 A 
ATOM     12  C   UNL A   1      49.961  24.755  33.154  1.00  0.00     0.097 A 
ATOM     13  N   UNL A   1      48.623  26.465  34.143  1.00  0.00    -0.177 NA
ATOM     14  C   UNL A   1      50.083  24.195  34.399  1.00  0.00     0.080 A 
ATOM     15  C   UNL A   1      48.913  25.956  35.330  1.00  0.00     0.226 A 
ATOM     16  N   UNL A   1      49.575  24.799  35.504  1.00  0.00    -0.213 NA
BRANCH  14  17
ATOM     17  C   UNL A   1      50.603  22.819  34.504  1.00  0.00     0.000 A 
ATOM     18  C   UNL A   1      51.533  22.470  35.497  1.00  0.00     0.010 A 
ATOM     19  C   UNL A   1      50.069  21.775  33.718  1.00  0.00     0.010 A 
ATOM     20  C   UNL A   1      51.911  21.137  35.696  1.00  0.00     0.001 A 
ATOM     21  C   UNL A   1      50.442  20.445  33.918  1.00  0.00     0.001 A 
ATOM     22  C   UNL A   1      51.366  20.127  34.907  1.00  0.00     0.000 A 
ENDBRANCH  14  17
BRANCH  15  23
ATOM     23  N   UNL A   1      48.484  26.645  36.428  1.00  0.00    -0.350 N 
ATOM     24  H   UNL A   1      47.558  26.534  36.740  1.00  0.00     0.164 HD
BRANCH  23  25
ATOM     25  C   UNL A   1      49.373  27.538  37.137  1.00  0.00     0.152 C 
BRANCH  25  26
ATOM     26  C   UNL A   1      49.088  27.523  38.623  1.00  0.00    -0.029 A 
ATOM     27  C   UNL A   1      48.110  28.368  39.168  1.00  0.00     0.007 A 
ATOM     28  C   UNL A   1      49.759  26.628  39.475  1.00  0.00     0.007 A 
ATOM     29  C   UNL A   1      47.822  28.337  40.531  1.00  0.00     0.021 A 
ATOM     30  C   UNL A   1      49.463  26.589  40.840  1.00  0.00     0.021 A 
ATOM     31  C   UNL A   1      48.496  27.446  41.362  1.00  0.00     0.041 A 
ATOM     32  Cl  UNL A   1      48.124  27.401  43.041  1.00  0.00    -0.084 Cl
ENDBRANCH  25  26
ENDBRANCH  23  25
ENDBRANCH  15  23
ENDBRANCH  10  11
ENDBRANCH   9  10
ENDBRANCH   7   9
ENDBRANCH   6   7
ENDBRANCH   5   6
ENDBRANCH   4   5
ENDBRANCH   3   4
ENDBRANCH   2   3
ENDBRANCH   1   2
BRANCH   1  33
ATOM     33  O   UNL A   1      47.735  33.807  33.039  1.00  0.00    -0.377 OA
BRANCH  33  34
ATOM     34  C   UNL A   1      48.684  34.833  33.270  1.00  0.00     0.188 C 
BRANCH  34  35
ATOM     35  C   UNL A   1      48.259  36.198  32.701  1.00  0.00     0.188 C 
BRANCH  35  36
ATOM     36  O   UNL A   1      49.253  36.991  32.086  1.00  0.00    -0.376 OA
BRANCH  36  37
ATOM     37  C   UNL A   1      48.961  38.153  31.329  1.00  0.00     0.202 C 
BRANCH  37  38
ATOM     38  C   UNL A   1      48.965  38.315  29.795  1.00  0.00     0.261 C 
BRANCH  38  39
ATOM     39  O   UNL A   1      48.150  37.462  29.002  1.00  0.00    -0.460 OA
BRANCH  39  40
ATOM     40  C   UNL A   1      48.785  36.477  28.344  1.00  0.00     0.338 C 
ATOM     41  O   UNL A   1      49.953  36.469  27.982  1.00  0.00    -0.246 OA
BRANCH  40  42
ATOM     42  C   UNL A   1      47.896  35.299  28.348  1.00  0.00     0.060 A 
ATOM     43  C   UNL A   1      47.886  34.492  29.494  1.00  0.00     0.016 A 
ATOM     44  C   UNL A   1      47.072  35.003  27.258  1.00  0.00     0.016 A 
ATOM     45  C   UNL A   1      47.107  33.345  29.527  1.00  0.00     0.010 A 
ATOM     46  C   UNL A   1      46.321  33.826  27.274  1.00  0.00     0.010 A 
ATOM     47  C   UNL A   1      46.393  32.967  28.385  1.00  0.00    -0.014 A 
BRANCH  47  48
ATOM     48  C   UNL A   1      46.028  31.540  28.257  1.00  0.00     0.031 A 
ATOM     49  C   UNL A   1      44.604  31.165  28.574  1.00  0.00     0.074 A 
ATOM     50  C   UNL A   1      46.892  30.633  27.774  1.00  0.00     0.049 A 
ATOM     51  N   UNL A   1      44.012  30.004  28.493  1.00  0.00    -0.248 NA
ATOM     52  C   UNL A   1      43.727  32.254  29.042  1.00  0.00     0.031 C 
ATOM     53  C   UNL A   1      48.272  30.905  27.374  1.00  0.00     0.029 A 
ATOM     54  N   UNL A   1      46.723  29.296  27.525  1.00  0.00    -0.354 N 
ATOM     55  C   UNL A   1      42.702  30.221  28.909  1.00  0.00     0.074 A 
ATOM     56  C   UNL A   1      42.592  31.613  29.273  1.00  0.00     0.031 C 
ATOM     57  C   UNL A   1      48.827  29.763  26.929  1.00  0.00     0.029 A 
ATOM     58  C   UNL A   1      47.851  28.680  27.039  1.00  0.00     0.049 A 
ATOM     59  H   UNL A   1      45.875  28.822  27.681  1.00  0.00     0.167 HD
ATOM     60  C   UNL A   1      41.680  29.338  28.971  1.00  0.00     0.037 A 
ATOM     61  C   UNL A   1      48.063  27.385  26.732  1.00  0.00     0.037 A 
ATOM     62  C   UNL A   1      41.802  27.954  28.601  1.00  0.00     0.049 A 
ATOM     63  C   UNL A   1      46.926  26.405  26.874  1.00  0.00     0.074 A 
ATOM     64  C   UNL A   1      40.829  26.972  28.615  1.00  0.00     0.029 A 
ATOM     65  N   UNL A   1      42.973  27.354  28.160  1.00  0.00    -0.354 N 
ATOM     66  N   UNL A   1      45.687  26.621  27.255  1.00  0.00    -0.248 NA
ATOM     67  C   UNL A   1      47.211  25.005  26.535  1.00  0.00     0.031 C 
ATOM     68  C   UNL A   1      41.428  25.764  28.243  1.00  0.00     0.029 A 
ATOM     69  C   UNL A   1      42.755  26.008  27.924  1.00  0.00     0.049 A 
ATOM     70  H   UNL A   1      43.832  27.819  28.033  1.00  0.00     0.167 HD
ATOM     71  C   UNL A   1      45.038  25.394  27.159  1.00  0.00     0.074 A 
ATOM     72  C   UNL A   1      46.019  24.443  26.679  1.00  0.00     0.031 C 
ATOM     73  C   UNL A   1      43.746  25.081  27.436  1.00  0.00     0.037 A 
BRANCH  60  74
ATOM     74  C   UNL A   1      40.363  29.833  29.503  1.00  0.00     0.058 A 
ATOM     75  C   UNL A   1      39.251  30.044  28.672  1.00  0.00     0.135 A 
ATOM     76  C   UNL A   1      40.210  30.088  30.876  1.00  0.00     0.135 A 
ATOM     77  F   UNL A   1      39.346  29.843  27.347  1.00  0.00    -0.206 F 
ATOM     78  C   UNL A   1      38.042  30.513  29.179  1.00  0.00     0.059 A 
ATOM     79  C   UNL A   1      39.002  30.526  31.409  1.00  0.00     0.059 A 
ATOM     80  F   UNL A   1      41.243  29.914  31.714  1.00  0.00    -0.206 F 
ATOM     81  C   UNL A   1      37.928  30.748  30.551  1.00  0.00     0.060 A 
BRANCH  81  82
ATOM     82  S   UNL A   1      36.351  31.345  31.195  1.00  0.00     0.124 S 
ATOM     83  O   UNL A   1      35.519  31.323  29.996  1.00  0.00    -0.237 OA
ATOM     84  O   UNL A   1      36.031  30.345  32.207  1.00  0.00    -0.237 OA
ATOM     85  O   UNL A   1      36.675  32.672  31.709  1.00  0.00    -0.744 OA
ENDBRANCH  81  82
ENDBRANCH  60  74
BRANCH  61  86
ATOM     86  C   UNL A   1      49.400  26.940  26.256  1.00  0.00     0.058 A 
ATOM     87  C   UNL A   1      49.757  27.024  24.902  1.00  0.00     0.135 A 
ATOM     88  C   UNL A   1      50.348  26.411  27.147  1.00  0.00     0.135 A 
ATOM     89  F   UNL A   1      48.884  27.514  24.008  1.00  0.00    -0.206 F 
ATOM     90  C   UNL A   1      50.995  26.584  24.444  1.00  0.00     0.059 A 
ATOM     91  C   UNL A   1      51.603  25.993  26.718  1.00  0.00     0.059 A 
ATOM     92  F   UNL A   1      50.062  26.317  28.455  1.00  0.00    -0.206 F 
ATOM     93  C   UNL A   1      51.914  26.074  25.362  1.00  0.00     0.060 A 
BRANCH  93  94
ATOM     94  S   UNL A   1      53.536  25.553  24.765  1.00  0.00     0.124 S 
ATOM     95  O   UNL A   1      54.428  26.296  25.646  1.00  0.00    -0.237 OA
ATOM     96  O   UNL A   1      53.486  24.109  24.972  1.00  0.00    -0.237 OA
ATOM     97  O   UNL A   1      53.530  25.976  23.367  1.00  0.00    -0.744 OA
ENDBRANCH  93  94
ENDBRANCH  61  86
BRANCH  73  98
ATOM     98  C   UNL A   1      43.302  23.667  27.165  1.00  0.00     0.058 A 
ATOM     99  C   UNL A   1      43.184  22.712  28.186  1.00  0.00     0.135 A 
ATOM    100  C   UNL A   1      42.953  23.277  25.861  1.00  0.00     0.135 A 
ATOM    101  F   UNL A   1      43.503  23.030  29.451  1.00  0.00    -0.206 F 
ATOM    102  C   UNL A   1      42.781  21.407  27.918  1.00  0.00     0.059 A 
ATOM    103  C   UNL A   1      42.512  21.989  25.575  1.00  0.00     0.059 A 
ATOM    104  F   UNL A   1      43.028  24.154  24.848  1.00  0.00    -0.206 F 
ATOM    105  C   UNL A   1      42.449  21.055  26.607  1.00  0.00     0.060 A 
BRANCH 105 106
ATOM    106  S   UNL A   1      41.927  19.360  26.272  1.00  0.00     0.124 S 
ATOM    107  O   UNL A   1      40.515  19.546  25.956  1.00  0.00    -0.237 OA
ATOM    108  O   UNL A   1      42.784  18.986  25.151  1.00  0.00    -0.237 OA
ATOM    109  O   UNL A   1      42.204  18.665  27.525  1.00  0.00    -0.744 OA
ENDBRANCH 105 106
ENDBRANCH  73  98
ENDBRANCH  47  48
ENDBRANCH  40  42
ENDBRANCH  39  40
ENDBRANCH  38  39
ENDBRANCH  37  38
ENDBRANCH  36  37
ENDBRANCH  35  36
ENDBRANCH  34  35
ENDBRANCH  33  34
ENDBRANCH   1  33
TORSDOF 29
ENDMDL
MODEL 3
REMARK VINA RESULT:      -7.1      8.547     16.394
REMARK SMILES O=C(COc1cc(-c2ccccc2)nc(NCc2ccc(Cl)cc2)n1)OCCOCCOCCOCCOC(=O)c1ccc(-c2c3nc(c(-c4c(F)cc(S(=O)(=O)[O-])cc4F)c4ccc([nH]4)c(-c4c(F)cc(S(=O)(=O)[O-])cc4F)c4nc(c(-c5c(F)cc(S(=O)(=O)[O-])cc5F)c5ccc2[nH]5)C=C4)C=C3)cc1
REMARK SMILES IDX 31 1 30 2 29 3 28 4 27 5 26 6 2 7 1 8 3 9 4 10 5 11 6 12
REMARK SMILES IDX 25 13 7 14 15 15 14 16 8 17 9 18 13 19 10 20 12 21 11 22
REMARK SMILES IDX 16 23 17 25 18 26 19 27 24 28 20 29 23 30 21 31 22 32 32 33
REMARK SMILES IDX 33 34 34 35 35 36 36 37 37 38 38 39 39 40 40 41 41 42 42 43
REMARK SMILES IDX 106 44 43 45 105 46 44 47 45 48 46 49 99 50 47 51 104 52
REMARK SMILES IDX 98 53 100 54 48 55 103 56 97 57 96 58 49 60 83 61 62 62
REMARK SMILES IDX 82 63 63 64 66 65 81 66 101 67 64 68 65 69 80 71 102 72
REMARK SMILES IDX 67 73 50 74 51 75 60 76 52 77 53 78 59 79 61 80 54 81 55 82
REMARK SMILES IDX 56 83 57 84 58 85 84 86 85 87 94 88 86 89 87 90 93 91 95 92
REMARK SMILES IDX 88 93 89 94 90 95 91 96 92 97 68 98 69 99 78 100 70 101
REMARK SMILES IDX 71 102 77 103 79 104 72 105 73 106 74 107 75 108 76 109
REMARK H PARENT 16 24 100 59 66 70
REMARK Flexibility Score: inf
ROOT
ATOM      1  C   UNL A   1      50.995  44.729  21.816  1.00  0.00     0.188 C 
ENDROOT
BRANCH   1   2
ATOM      2  C   UNL A   1      52.223  44.987  22.697  1.00  0.00     0.188 C 
BRANCH   2   3
ATOM      3  O   UNL A   1      52.244  44.484  24.023  1.00  0.00    -0.376 OA
BRANCH   3   4
ATOM      4  C   UNL A   1      51.760  45.088  25.204  1.00  0.00     0.202 C 
BRANCH   4   5
ATOM      5  C   UNL A   1      50.321  45.575  25.364  1.00  0.00     0.261 C 
BRANCH   5   6
ATOM      6  O   UNL A   1      49.969  46.216  26.602  1.00  0.00    -0.461 OA
BRANCH   6   7
ATOM      7  C   UNL A   1      49.424  45.621  27.685  1.00  0.00     0.344 C 
ATOM      8  O   UNL A   1      49.342  46.239  28.744  1.00  0.00    -0.248 OA
BRANCH   7   9
ATOM      9  C   UNL A   1      48.959  44.177  27.562  1.00  0.00     0.353 C 
BRANCH   9  10
ATOM     10  O   UNL A   1      47.641  43.973  28.072  1.00  0.00    -0.466 OA
BRANCH  10  11
ATOM     11  C   UNL A   1      47.713  42.922  28.933  1.00  0.00     0.219 A 
ATOM     12  C   UNL A   1      48.183  43.115  30.197  1.00  0.00     0.097 A 
ATOM     13  N   UNL A   1      47.564  41.747  28.344  1.00  0.00    -0.177 NA
ATOM     14  C   UNL A   1      48.737  42.002  30.774  1.00  0.00     0.080 A 
ATOM     15  C   UNL A   1      47.979  40.692  29.029  1.00  0.00     0.226 A 
ATOM     16  N   UNL A   1      48.626  40.775  30.205  1.00  0.00    -0.213 NA
BRANCH  14  17
ATOM     17  C   UNL A   1      49.634  42.181  31.932  1.00  0.00     0.000 A 
ATOM     18  C   UNL A   1      50.179  41.075  32.604  1.00  0.00     0.010 A 
ATOM     19  C   UNL A   1      50.100  43.461  32.301  1.00  0.00     0.010 A 
ATOM     20  C   UNL A   1      51.147  41.241  33.601  1.00  0.00     0.001 A 
ATOM     21  C   UNL A   1      51.069  43.628  33.292  1.00  0.00     0.001 A 
ATOM     22  C   UNL A   1      51.590  42.517  33.944  1.00  0.00     0.000 A 
ENDBRANCH  14  17
BRANCH  15  23
ATOM     23  N   UNL A   1      47.754  39.462  28.481  1.00  0.00    -0.350 N 
ATOM     24  H   UNL A   1      47.503  39.391  27.533  1.00  0.00     0.164 HD
BRANCH  23  25
ATOM     25  C   UNL A   1      47.879  38.262  29.278  1.00  0.00     0.152 C 
BRANCH  25  26
ATOM     26  C   UNL A   1      47.189  37.092  28.610  1.00  0.00    -0.029 A 
ATOM     27  C   UNL A   1      47.008  37.074  27.220  1.00  0.00     0.007 A 
ATOM     28  C   UNL A   1      46.763  35.983  29.363  1.00  0.00     0.007 A 
ATOM     29  C   UNL A   1      46.400  35.985  26.596  1.00  0.00     0.021 A 
ATOM     30  C   UNL A   1      46.163  34.887  28.737  1.00  0.00     0.021 A 
ATOM     31  C   UNL A   1      45.983  34.895  27.355  1.00  0.00     0.041 A 
ATOM     32  Cl  UNL A   1      45.248  33.548  26.577  1.00  0.00    -0.084 Cl
ENDBRANCH  25  26
ENDBRANCH  23  25
ENDBRANCH  15  23
ENDBRANCH  10  11
ENDBRANCH   9  10
ENDBRANCH   7   9
ENDBRANCH   6   7
ENDBRANCH   5   6
ENDBRANCH   4   5
ENDBRANCH   3   4
ENDBRANCH   2   3
ENDBRANCH   1   2
BRANCH   1  33
ATOM     33  O   UNL A   1      49.840  44.199  22.449  1.00  0.00    -0.377 OA
BRANCH  33  34
ATOM     34  C   UNL A   1      48.828  43.738  21.573  1.00  0.00     0.188 C 
BRANCH  34  35
ATOM     35  C   UNL A   1      47.420  44.230  21.952  1.00  0.00     0.188 C 
BRANCH  35  36
ATOM     36  O   UNL A   1      46.777  43.603  23.042  1.00  0.00    -0.376 OA
BRANCH  36  37
ATOM     37  C   UNL A   1      45.566  44.078  23.606  1.00  0.00     0.202 C 
BRANCH  37  38
ATOM     38  C   UNL A   1      44.211  43.346  23.704  1.00  0.00     0.261 C 
BRANCH  38  39
ATOM     39  O   UNL A   1      43.885  42.644  24.897  1.00  0.00    -0.460 OA
BRANCH  39  40
ATOM     40  C   UNL A   1      42.771  41.892  24.857  1.00  0.00     0.338 C 
ATOM     41  O   UNL A   1      41.837  42.002  24.076  1.00  0.00    -0.246 OA
BRANCH  40  42
ATOM     42  C   UNL A   1      42.981  40.747  25.763  1.00  0.00     0.060 A 
ATOM     43  C   UNL A   1      41.847  40.125  26.305  1.00  0.00     0.016 A 
ATOM     44  C   UNL A   1      44.265  40.277  26.061  1.00  0.00     0.016 A 
ATOM     45  C   UNL A   1      41.993  39.079  27.203  1.00  0.00     0.010 A 
ATOM     46  C   UNL A   1      44.413  39.253  26.998  1.00  0.00     0.010 A 
ATOM     47  C   UNL A   1      43.276  38.702  27.615  1.00  0.00    -0.014 A 
BRANCH  47  48
ATOM     48  C   UNL A   1      43.390  37.997  28.910  1.00  0.00     0.031 A 
ATOM     49  C   UNL A   1      43.787  38.820  30.107  1.00  0.00     0.074 A 
ATOM     50  C   UNL A   1      43.049  36.705  29.040  1.00  0.00     0.049 A 
ATOM     51  N   UNL A   1      43.906  38.465  31.359  1.00  0.00    -0.248 NA
ATOM     52  C   UNL A   1      44.084  40.243  29.857  1.00  0.00     0.031 C 
ATOM     53  C   UNL A   1      42.587  35.836  27.958  1.00  0.00     0.029 A 
ATOM     54  N   UNL A   1      43.025  35.904  30.152  1.00  0.00    -0.354 N 
ATOM     55  C   UNL A   1      44.302  39.613  32.038  1.00  0.00     0.074 A 
ATOM     56  C   UNL A   1      44.435  40.667  31.060  1.00  0.00     0.031 C 
ATOM     57  C   UNL A   1      42.327  34.617  28.463  1.00  0.00     0.029 A 
ATOM     58  C   UNL A   1      42.629  34.615  29.894  1.00  0.00     0.049 A 
ATOM     59  H   UNL A   1      43.270  36.223  31.050  1.00  0.00     0.167 HD
ATOM     60  C   UNL A   1      44.524  39.774  33.362  1.00  0.00     0.037 A 
ATOM     61  C   UNL A   1      42.535  33.557  30.724  1.00  0.00     0.037 A 
ATOM     62  C   UNL A   1      44.385  38.717  34.326  1.00  0.00     0.049 A 
ATOM     63  C   UNL A   1      42.854  33.746  32.186  1.00  0.00     0.074 A 
ATOM     64  C   UNL A   1      44.574  38.770  35.694  1.00  0.00     0.029 A 
ATOM     65  N   UNL A   1      44.029  37.411  34.020  1.00  0.00    -0.354 N 
ATOM     66  N   UNL A   1      43.213  34.838  32.822  1.00  0.00    -0.248 NA
ATOM     67  C   UNL A   1      42.745  32.561  33.046  1.00  0.00     0.031 C 
ATOM     68  C   UNL A   1      44.396  37.482  36.207  1.00  0.00     0.029 A 
ATOM     69  C   UNL A   1      44.020  36.641  35.170  1.00  0.00     0.049 A 
ATOM     70  H   UNL A   1      43.814  37.080  33.117  1.00  0.00     0.167 HD
ATOM     71  C   UNL A   1      43.331  34.478  34.162  1.00  0.00     0.074 A 
ATOM     72  C   UNL A   1      42.997  33.071  34.243  1.00  0.00     0.031 C 
ATOM     73  C   UNL A   1      43.675  35.243  35.229  1.00  0.00     0.037 A 
BRANCH  60  74
ATOM     74  C   UNL A   1      44.989  41.126  33.831  1.00  0.00     0.058 A 
ATOM     75  C   UNL A   1      44.100  42.195  34.033  1.00  0.00     0.135 A 
ATOM     76  C   UNL A   1      46.350  41.349  34.095  1.00  0.00     0.135 A 
ATOM     77  F   UNL A   1      42.791  42.048  33.770  1.00  0.00    -0.206 F 
ATOM     78  C   UNL A   1      44.548  43.443  34.456  1.00  0.00     0.059 A 
ATOM     79  C   UNL A   1      46.815  42.579  34.550  1.00  0.00     0.059 A 
ATOM     80  F   UNL A   1      47.244  40.367  33.908  1.00  0.00    -0.206 F 
ATOM     81  C   UNL A   1      45.908  43.623  34.715  1.00  0.00     0.060 A 
BRANCH  81  82
ATOM     82  S   UNL A   1      46.472  45.244  35.275  1.00  0.00     0.124 S 
ATOM     83  O   UNL A   1      47.830  45.282  34.740  1.00  0.00    -0.237 OA
ATOM     84  O   UNL A   1      45.515  46.142  34.641  1.00  0.00    -0.237 OA
ATOM     85  O   UNL A   1      46.374  45.154  36.729  1.00  0.00    -0.744 OA
ENDBRANCH  81  82
ENDBRANCH  60  74
BRANCH  61  86
ATOM     86  C   UNL A   1      42.118  32.230  30.198  1.00  0.00     0.058 A 
ATOM     87  C   UNL A   1      43.043  31.356  29.607  1.00  0.00     0.135 A 
ATOM     88  C   UNL A   1      40.779  31.811  30.266  1.00  0.00     0.135 A 
ATOM     89  F   UNL A   1      44.333  31.713  29.510  1.00  0.00    -0.206 F 
ATOM     90  C   UNL A   1      42.656  30.125  29.088  1.00  0.00     0.059 A 
ATOM     91  C   UNL A   1      40.373  30.573  29.780  1.00  0.00     0.059 A 
ATOM     92  F   UNL A   1      39.854  32.604  30.829  1.00  0.00    -0.206 F 
ATOM     93  C   UNL A   1      41.318  29.740  29.183  1.00  0.00     0.060 A 
BRANCH  93  94
ATOM     94  S   UNL A   1      40.836  28.120  28.550  1.00  0.00     0.124 S 
ATOM     95  O   UNL A   1      41.914  27.275  29.051  1.00  0.00    -0.237 OA
ATOM     96  O   UNL A   1      39.529  27.927  29.170  1.00  0.00    -0.237 OA
ATOM     97  O   UNL A   1      40.810  28.319  27.103  1.00  0.00    -0.744 OA
ENDBRANCH  93  94
ENDBRANCH  61  86
BRANCH  73  98
ATOM     98  C   UNL A   1      43.647  34.590  36.587  1.00  0.00     0.058 A 
ATOM     99  C   UNL A   1      42.515  34.634  37.415  1.00  0.00     0.135 A 
ATOM    100  C   UNL A   1      44.767  33.876  37.047  1.00  0.00     0.135 A 
ATOM    101  F   UNL A   1      41.417  35.301  37.025  1.00  0.00    -0.206 F 
ATOM    102  C   UNL A   1      42.509  34.034  38.670  1.00  0.00     0.059 A 
ATOM    103  C   UNL A   1      44.771  33.237  38.282  1.00  0.00     0.059 A 
ATOM    104  F   UNL A   1      45.871  33.785  36.289  1.00  0.00    -0.206 F 
ATOM    105  C   UNL A   1      43.644  33.339  39.096  1.00  0.00     0.060 A 
BRANCH 105 106
ATOM    106  S   UNL A   1      43.624  32.564  40.726  1.00  0.00     0.124 S 
ATOM    107  O   UNL A   1      43.083  33.636  41.554  1.00  0.00    -0.237 OA
ATOM    108  O   UNL A   1      42.743  31.419  40.515  1.00  0.00    -0.237 OA
ATOM    109  O   UNL A   1      45.026  32.233  40.963  1.00  0.00    -0.744 OA
ENDBRANCH 105 106
ENDBRANCH  73  98
ENDBRANCH  47  48
ENDBRANCH  40  42
ENDBRANCH  39  40
ENDBRANCH  38  39
ENDBRANCH  37  38
ENDBRANCH  36  37
ENDBRANCH  35  36
ENDBRANCH  34  35
ENDBRANCH  33  34
ENDBRANCH   1  33
TORSDOF 29
ENDMDL
