MODEL 1
REMARK VINA RESULT:      -9.5      0.000      0.000
REMARK SMILES C=C1C=C[C@H](C(=O)OCCOCCOCCOCCOC(=O)c2ccc(-c3c4nc(c(-c5c(F)cc(S(=O)(=O)[O-])cc5F)c5ccc([nH]5)c(-c5c(F)cc(S(=O)(=O)[O-])cc5F)c5nc(c(-c6c(F)cc(S(=O)(=O)[O-])cc6F)c6ccc3[nH]6)C=C5)C=C4)cc2)C(=S)N1
REMARK SMILES IDX 15 1 14 2 13 3 12 4 11 5 10 6 9 7 8 8 6 9 7 10 5 11 1 12
REMARK SMILES IDX 2 13 3 14 91 15 4 16 89 17 90 19 16 20 17 21 18 22 19 23
REMARK SMILES IDX 20 24 21 25 22 26 23 27 24 28 88 29 25 30 87 31 26 32 27 33
REMARK SMILES IDX 28 34 81 35 29 36 86 37 80 38 82 39 30 40 85 41 79 42 78 43
REMARK SMILES IDX 31 45 65 46 44 47 64 48 45 49 48 50 63 51 83 52 46 53 47 54
REMARK SMILES IDX 62 56 84 57 49 58 32 59 33 60 42 61 34 62 35 63 41 64 43 65
REMARK SMILES IDX 36 66 37 67 38 68 39 69 40 70 66 71 67 72 76 73 68 74 69 75
REMARK SMILES IDX 75 76 77 77 70 78 71 79 72 80 73 81 74 82 50 83 51 84 60 85
REMARK SMILES IDX 52 86 53 87 59 88 61 89 54 90 55 91 56 92 57 93 58 94
REMARK H PARENT 91 18 82 44 48 55
REMARK Flexibility Score: inf
ROOT
ATOM      1  C   UNL A   1      34.109  31.922  28.417  1.00  0.00     0.188 C 
ENDROOT
BRANCH   1   2
ATOM      2  O   UNL A   1      33.351  31.212  27.450  1.00  0.00    -0.377 OA
BRANCH   2   3
ATOM      3  C   UNL A   1      33.877  29.969  27.032  1.00  0.00     0.188 C 
BRANCH   3   4
ATOM      4  C   UNL A   1      32.820  28.891  26.710  1.00  0.00     0.188 C 
BRANCH   4   5
ATOM      5  O   UNL A   1      33.192  27.533  26.504  1.00  0.00    -0.376 OA
BRANCH   5   6
ATOM      6  C   UNL A   1      32.203  26.515  26.517  1.00  0.00     0.202 C 
BRANCH   6   7
ATOM      7  C   UNL A   1      30.807  26.769  25.916  1.00  0.00     0.261 C 
BRANCH   7   8
ATOM      8  O   UNL A   1      30.701  26.691  24.480  1.00  0.00    -0.462 OA
BRANCH   8   9
ATOM      9  C   UNL A   1      29.477  26.887  23.932  1.00  0.00     0.319 C 
ATOM     10  O   UNL A   1      28.470  26.265  24.263  1.00  0.00    -0.251 OA
BRANCH   9  11
ATOM     11  C   UNL A   1      29.409  28.051  22.934  1.00  0.00     0.180 C 
ATOM     12  C   UNL A   1      28.507  32.219  23.291  1.00  0.00     0.037 C 
ATOM     13  C   UNL A   1      28.775  30.911  23.179  1.00  0.00     0.031 C 
ATOM     14  C   UNL A   1      27.729  29.922  23.094  1.00  0.00     0.022 C 
ATOM     15  N   UNL A   1      30.073  30.468  23.140  1.00  0.00    -0.350 N 
ATOM     16  C   UNL A   1      28.002  28.616  22.967  1.00  0.00    -0.003 C 
ATOM     17  C   UNL A   1      30.473  29.154  23.029  1.00  0.00     0.098 C 
ATOM     18  H   UNL A   1      30.781  31.148  23.198  1.00  0.00     0.167 HD
ATOM     19  S   UNL A   1      32.114  28.841  22.871  1.00  0.00    -0.064 S 
ENDBRANCH   9  11
ENDBRANCH   8   9
ENDBRANCH   7   8
ENDBRANCH   6   7
ENDBRANCH   5   6
ENDBRANCH   4   5
ENDBRANCH   3   4
ENDBRANCH   2   3
ENDBRANCH   1   2
BRANCH   1  20
ATOM     20  C   UNL A   1      34.652  33.302  28.004  1.00  0.00     0.188 C 
BRANCH  20  21
ATOM     21  O   UNL A   1      35.458  33.924  29.001  1.00  0.00    -0.376 OA
BRANCH  21  22
ATOM     22  C   UNL A   1      34.927  34.074  30.309  1.00  0.00     0.202 C 
BRANCH  22  23
ATOM     23  C   UNL A   1      35.669  33.350  31.445  1.00  0.00     0.261 C 
BRANCH  23  24
ATOM     24  O   UNL A   1      36.928  32.755  31.098  1.00  0.00    -0.460 OA
BRANCH  24  25
ATOM     25  C   UNL A   1      37.357  31.737  31.879  1.00  0.00     0.338 C 
ATOM     26  O   UNL A   1      36.867  31.371  32.928  1.00  0.00    -0.246 OA
BRANCH  25  27
ATOM     27  C   UNL A   1      38.402  30.996  31.139  1.00  0.00     0.060 A 
ATOM     28  C   UNL A   1      39.395  30.344  31.877  1.00  0.00     0.016 A 
ATOM     29  C   UNL A   1      38.410  30.947  29.742  1.00  0.00     0.016 A 
ATOM     30  C   UNL A   1      40.433  29.689  31.220  1.00  0.00     0.010 A 
ATOM     31  C   UNL A   1      39.465  30.305  29.082  1.00  0.00     0.010 A 
ATOM     32  C   UNL A   1      40.504  29.712  29.820  1.00  0.00    -0.014 A 
BRANCH  32  33
ATOM     33  C   UNL A   1      41.769  29.290  29.171  1.00  0.00     0.031 A 
ATOM     34  C   UNL A   1      42.894  30.288  29.073  1.00  0.00     0.074 A 
ATOM     35  C   UNL A   1      41.951  28.020  28.766  1.00  0.00     0.049 A 
ATOM     36  N   UNL A   1      44.115  30.123  28.636  1.00  0.00    -0.248 NA
ATOM     37  C   UNL A   1      42.601  31.655  29.534  1.00  0.00     0.031 C 
ATOM     38  C   UNL A   1      40.949  26.959  28.839  1.00  0.00     0.029 A 
ATOM     39  N   UNL A   1      43.054  27.407  28.227  1.00  0.00    -0.354 N 
ATOM     40  C   UNL A   1      44.737  31.359  28.776  1.00  0.00     0.074 A 
ATOM     41  C   UNL A   1      43.747  32.275  29.297  1.00  0.00     0.031 C 
ATOM     42  C   UNL A   1      41.485  25.820  28.366  1.00  0.00     0.029 A 
ATOM     43  C   UNL A   1      42.860  26.076  27.940  1.00  0.00     0.049 A 
ATOM     44  H   UNL A   1      43.904  27.875  28.061  1.00  0.00     0.167 HD
ATOM     45  C   UNL A   1      46.022  31.696  28.512  1.00  0.00     0.037 A 
ATOM     46  C   UNL A   1      43.697  25.172  27.393  1.00  0.00     0.037 A 
ATOM     47  C   UNL A   1      47.002  30.781  27.987  1.00  0.00     0.049 A 
ATOM     48  C   UNL A   1      45.108  25.586  27.056  1.00  0.00     0.074 A 
ATOM     49  C   UNL A   1      48.333  31.020  27.691  1.00  0.00     0.029 A 
ATOM     50  N   UNL A   1      46.757  29.452  27.668  1.00  0.00    -0.354 N 
ATOM     51  N   UNL A   1      45.691  26.750  27.221  1.00  0.00    -0.248 NA
ATOM     52  C   UNL A   1      45.978  24.557  26.471  1.00  0.00     0.031 C 
ATOM     53  C   UNL A   1      48.876  29.854  27.140  1.00  0.00     0.029 A 
ATOM     54  C   UNL A   1      47.903  28.867  27.157  1.00  0.00     0.049 A 
ATOM     55  H   UNL A   1      45.894  28.993  27.789  1.00  0.00     0.167 HD
ATOM     56  C   UNL A   1      47.005  26.584  26.789  1.00  0.00     0.074 A 
ATOM     57  C   UNL A   1      47.132  25.202  26.375  1.00  0.00     0.031 C 
ATOM     58  C   UNL A   1      48.016  27.489  26.743  1.00  0.00     0.037 A 
BRANCH  45  59
ATOM     59  C   UNL A   1      46.433  33.124  28.758  1.00  0.00     0.058 A 
ATOM     60  C   UNL A   1      46.983  33.538  29.982  1.00  0.00     0.135 A 
ATOM     61  C   UNL A   1      46.298  34.086  27.744  1.00  0.00     0.135 A 
ATOM     62  F   UNL A   1      47.114  32.668  30.995  1.00  0.00    -0.206 F 
ATOM     63  C   UNL A   1      47.362  34.861  30.199  1.00  0.00     0.059 A 
ATOM     64  C   UNL A   1      46.699  35.406  27.928  1.00  0.00     0.059 A 
ATOM     65  F   UNL A   1      45.773  33.748  26.556  1.00  0.00    -0.206 F 
ATOM     66  C   UNL A   1      47.218  35.787  29.165  1.00  0.00     0.060 A 
BRANCH  66  67
ATOM     67  S   UNL A   1      47.722  37.494  29.460  1.00  0.00     0.124 S 
ATOM     68  O   UNL A   1      48.891  37.607  28.593  1.00  0.00    -0.237 OA
ATOM     69  O   UNL A   1      46.545  38.244  29.034  1.00  0.00    -0.237 OA
ATOM     70  O   UNL A   1      48.000  37.526  30.892  1.00  0.00    -0.744 OA
ENDBRANCH  66  67
ENDBRANCH  45  59
BRANCH  46  71
ATOM     71  C   UNL A   1      43.228  23.784  27.132  1.00  0.00     0.058 A 
ATOM     72  C   UNL A   1      43.065  22.858  28.174  1.00  0.00     0.135 A 
ATOM     73  C   UNL A   1      42.941  23.351  25.827  1.00  0.00     0.135 A 
ATOM     74  F   UNL A   1      43.336  23.217  29.439  1.00  0.00    -0.206 F 
ATOM     75  C   UNL A   1      42.652  21.551  27.932  1.00  0.00     0.059 A 
ATOM     76  C   UNL A   1      42.498  22.059  25.563  1.00  0.00     0.059 A 
ATOM     77  F   UNL A   1      43.074  24.198  24.795  1.00  0.00    -0.206 F 
ATOM     78  C   UNL A   1      42.367  21.163  26.622  1.00  0.00     0.060 A 
BRANCH  78  79
ATOM     79  S   UNL A   1      41.787  19.479  26.325  1.00  0.00     0.124 S 
ATOM     80  O   UNL A   1      40.346  19.679  26.215  1.00  0.00    -0.237 OA
ATOM     81  O   UNL A   1      42.480  19.131  25.089  1.00  0.00    -0.237 OA
ATOM     82  O   UNL A   1      42.234  18.754  27.511  1.00  0.00    -0.744 OA
ENDBRANCH  78  79
ENDBRANCH  46  71
BRANCH  58  83
ATOM     83  C   UNL A   1      49.358  27.000  26.263  1.00  0.00     0.058 A 
ATOM     84  C   UNL A   1      50.304  26.443  27.138  1.00  0.00     0.135 A 
ATOM     85  C   UNL A   1      49.699  27.086  24.902  1.00  0.00     0.135 A 
ATOM     86  F   UNL A   1      50.032  26.334  28.448  1.00  0.00    -0.206 F 
ATOM     87  C   UNL A   1      51.560  26.041  26.692  1.00  0.00     0.059 A 
ATOM     88  C   UNL A   1      50.935  26.657  24.429  1.00  0.00     0.059 A 
ATOM     89  F   UNL A   1      48.827  27.591  24.016  1.00  0.00    -0.206 F 
ATOM     90  C   UNL A   1      51.869  26.160  25.336  1.00  0.00     0.060 A 
BRANCH  90  91
ATOM     91  S   UNL A   1      53.508  25.656  24.772  1.00  0.00     0.124 S 
ATOM     92  O   UNL A   1      54.371  26.515  25.577  1.00  0.00    -0.237 OA
ATOM     93  O   UNL A   1      53.534  24.236  25.111  1.00  0.00    -0.237 OA
ATOM     94  O   UNL A   1      53.484  25.953  23.343  1.00  0.00    -0.744 OA
ENDBRANCH  90  91
ENDBRANCH  58  83
ENDBRANCH  32  33
ENDBRANCH  25  27
ENDBRANCH  24  25
ENDBRANCH  23  24
ENDBRANCH  22  23
ENDBRANCH  21  22
ENDBRANCH  20  21
ENDBRANCH   1  20
TORSDOF 23
ENDMDL
MODEL 2
REMARK VINA RESULT:      -9.3      6.538     11.511
REMARK SMILES C=C1C=C[C@H](C(=O)OCCOCCOCCOCCOC(=O)c2ccc(-c3c4nc(c(-c5c(F)cc(S(=O)(=O)[O-])cc5F)c5ccc([nH]5)c(-c5c(F)cc(S(=O)(=O)[O-])cc5F)c5nc(c(-c6c(F)cc(S(=O)(=O)[O-])cc6F)c6ccc3[nH]6)C=C5)C=C4)cc2)C(=S)N1
REMARK SMILES IDX 15 1 14 2 13 3 12 4 11 5 10 6 9 7 8 8 6 9 7 10 5 11 1 12
REMARK SMILES IDX 2 13 3 14 91 15 4 16 89 17 90 19 16 20 17 21 18 22 19 23
REMARK SMILES IDX 20 24 21 25 22 26 23 27 24 28 88 29 25 30 87 31 26 32 27 33
REMARK SMILES IDX 28 34 81 35 29 36 86 37 80 38 82 39 30 40 85 41 79 42 78 43
REMARK SMILES IDX 31 45 65 46 44 47 64 48 45 49 48 50 63 51 83 52 46 53 47 54
REMARK SMILES IDX 62 56 84 57 49 58 32 59 33 60 42 61 34 62 35 63 41 64 43 65
REMARK SMILES IDX 36 66 37 67 38 68 39 69 40 70 66 71 67 72 76 73 68 74 69 75
REMARK SMILES IDX 75 76 77 77 70 78 71 79 72 80 73 81 74 82 50 83 51 84 60 85
REMARK SMILES IDX 52 86 53 87 59 88 61 89 54 90 55 91 56 92 57 93 58 94
REMARK H PARENT 91 18 82 44 48 55
REMARK Flexibility Score: inf
ROOT
ATOM      1  C   UNL A   1      32.220  28.442  26.260  1.00  0.00     0.188 C 
ENDROOT
BRANCH   1   2
ATOM      2  O   UNL A   1      33.160  27.513  26.777  1.00  0.00    -0.377 OA
BRANCH   2   3
ATOM      3  C   UNL A   1      33.635  26.535  25.874  1.00  0.00     0.188 C 
BRANCH   3   4
ATOM      4  C   UNL A   1      33.007  26.592  24.464  1.00  0.00     0.188 C 
BRANCH   4   5
ATOM      5  O   UNL A   1      33.731  26.161  23.318  1.00  0.00    -0.376 OA
BRANCH   5   6
ATOM      6  C   UNL A   1      33.326  24.994  22.618  1.00  0.00     0.202 C 
BRANCH   6   7
ATOM      7  C   UNL A   1      33.859  23.608  23.030  1.00  0.00     0.261 C 
BRANCH   7   8
ATOM      8  O   UNL A   1      32.882  22.652  23.487  1.00  0.00    -0.462 OA
BRANCH   8   9
ATOM      9  C   UNL A   1      32.640  22.592  24.819  1.00  0.00     0.319 C 
ATOM     10  O   UNL A   1      32.000  23.439  25.438  1.00  0.00    -0.251 OA
BRANCH   9  11
ATOM     11  C   UNL A   1      33.126  21.302  25.493  1.00  0.00     0.180 C 
ATOM     12  C   UNL A   1      34.563  17.547  24.031  1.00  0.00     0.037 C 
ATOM     13  C   UNL A   1      34.099  18.717  24.487  1.00  0.00     0.031 C 
ATOM     14  C   UNL A   1      32.687  19.000  24.568  1.00  0.00     0.022 C 
ATOM     15  N   UNL A   1      34.968  19.697  24.896  1.00  0.00    -0.350 N 
ATOM     16  C   UNL A   1      32.228  20.167  25.039  1.00  0.00    -0.003 C 
ATOM     17  C   UNL A   1      34.613  20.938  25.381  1.00  0.00     0.098 C 
ATOM     18  H   UNL A   1      35.930  19.497  24.839  1.00  0.00     0.167 HD
ATOM     19  S   UNL A   1      35.834  21.941  25.948  1.00  0.00    -0.064 S 
ENDBRANCH   9  11
ENDBRANCH   8   9
ENDBRANCH   7   8
ENDBRANCH   6   7
ENDBRANCH   5   6
ENDBRANCH   4   5
ENDBRANCH   3   4
ENDBRANCH   2   3
ENDBRANCH   1   2
BRANCH   1  20
ATOM     20  C   UNL A   1      32.774  29.777  25.732  1.00  0.00     0.188 C 
BRANCH  20  21
ATOM     21  O   UNL A   1      33.858  30.294  26.500  1.00  0.00    -0.376 OA
BRANCH  21  22
ATOM     22  C   UNL A   1      33.565  31.094  27.636  1.00  0.00     0.202 C 
BRANCH  22  23
ATOM     23  C   UNL A   1      32.844  32.427  27.376  1.00  0.00     0.261 C 
BRANCH  23  24
ATOM     24  O   UNL A   1      33.665  33.603  27.395  1.00  0.00    -0.460 OA
BRANCH  24  25
ATOM     25  C   UNL A   1      33.511  34.437  28.449  1.00  0.00     0.338 C 
ATOM     26  O   UNL A   1      32.602  35.221  28.628  1.00  0.00    -0.246 OA
BRANCH  25  27
ATOM     27  C   UNL A   1      34.528  34.088  29.466  1.00  0.00     0.060 A 
ATOM     28  C   UNL A   1      35.877  34.226  29.123  1.00  0.00     0.016 A 
ATOM     29  C   UNL A   1      34.162  33.627  30.734  1.00  0.00     0.016 A 
ATOM     30  C   UNL A   1      36.866  33.848  30.027  1.00  0.00     0.010 A 
ATOM     31  C   UNL A   1      35.157  33.230  31.635  1.00  0.00     0.010 A 
ATOM     32  C   UNL A   1      36.513  33.298  31.267  1.00  0.00    -0.014 A 
BRANCH  32  33
ATOM     33  C   UNL A   1      37.564  32.620  32.063  1.00  0.00     0.031 A 
ATOM     34  C   UNL A   1      38.263  31.427  31.463  1.00  0.00     0.074 A 
ATOM     35  C   UNL A   1      37.960  33.111  33.251  1.00  0.00     0.049 A 
ATOM     36  N   UNL A   1      39.270  30.734  31.926  1.00  0.00    -0.248 NA
ATOM     37  C   UNL A   1      37.758  30.955  30.163  1.00  0.00     0.031 C 
ATOM     38  C   UNL A   1      37.382  34.276  33.918  1.00  0.00     0.029 A 
ATOM     39  N   UNL A   1      38.956  32.696  34.099  1.00  0.00    -0.354 N 
ATOM     40  C   UNL A   1      39.525  29.753  30.974  1.00  0.00     0.074 A 
ATOM     41  C   UNL A   1      38.538  29.912  29.929  1.00  0.00     0.031 C 
ATOM     42  C   UNL A   1      38.037  34.487  35.072  1.00  0.00     0.029 A 
ATOM     43  C   UNL A   1      39.067  33.462  35.236  1.00  0.00     0.049 A 
ATOM     44  H   UNL A   1      39.535  31.923  33.913  1.00  0.00     0.167 HD
ATOM     45  C   UNL A   1      40.501  28.815  30.963  1.00  0.00     0.037 A 
ATOM     46  C   UNL A   1      39.904  33.345  36.287  1.00  0.00     0.037 A 
ATOM     47  C   UNL A   1      41.477  28.658  32.011  1.00  0.00     0.049 A 
ATOM     48  C   UNL A   1      40.949  32.258  36.277  1.00  0.00     0.074 A 
ATOM     49  C   UNL A   1      42.514  27.745  32.092  1.00  0.00     0.029 A 
ATOM     50  N   UNL A   1      41.532  29.425  33.166  1.00  0.00    -0.354 N 
ATOM     51  N   UNL A   1      41.197  31.355  35.357  1.00  0.00    -0.248 NA
ATOM     52  C   UNL A   1      41.838  32.183  37.444  1.00  0.00     0.031 C 
ATOM     53  C   UNL A   1      43.158  27.921  33.321  1.00  0.00     0.029 A 
ATOM     54  C   UNL A   1      42.568  28.990  33.976  1.00  0.00     0.049 A 
ATOM     55  H   UNL A   1      40.923  30.169  33.378  1.00  0.00     0.167 HD
ATOM     56  C   UNL A   1      42.290  30.627  35.820  1.00  0.00     0.074 A 
ATOM     57  C   UNL A   1      42.665  31.209  37.092  1.00  0.00     0.031 C 
ATOM     58  C   UNL A   1      42.928  29.576  35.245  1.00  0.00     0.037 A 
BRANCH  45  59
ATOM     59  C   UNL A   1      40.544  27.867  29.794  1.00  0.00     0.058 A 
ATOM     60  C   UNL A   1      41.485  28.004  28.760  1.00  0.00     0.135 A 
ATOM     61  C   UNL A   1      39.648  26.788  29.721  1.00  0.00     0.135 A 
ATOM     62  F   UNL A   1      42.352  29.029  28.764  1.00  0.00    -0.206 F 
ATOM     63  C   UNL A   1      41.518  27.121  27.683  1.00  0.00     0.059 A 
ATOM     64  C   UNL A   1      39.684  25.875  28.672  1.00  0.00     0.059 A 
ATOM     65  F   UNL A   1      38.724  26.611  30.678  1.00  0.00    -0.206 F 
ATOM     66  C   UNL A   1      40.614  26.058  27.650  1.00  0.00     0.060 A 
BRANCH  66  67
ATOM     67  S   UNL A   1      40.677  24.917  26.253  1.00  0.00     0.124 S 
ATOM     68  O   UNL A   1      39.264  24.596  26.075  1.00  0.00    -0.237 OA
ATOM     69  O   UNL A   1      41.275  25.739  25.207  1.00  0.00    -0.237 OA
ATOM     70  O   UNL A   1      41.510  23.823  26.743  1.00  0.00    -0.744 OA
ENDBRANCH  66  67
ENDBRANCH  45  59
BRANCH  46  71
ATOM     71  C   UNL A   1      39.792  34.283  37.436  1.00  0.00     0.058 A 
ATOM     72  C   UNL A   1      40.504  35.492  37.467  1.00  0.00     0.135 A 
ATOM     73  C   UNL A   1      38.973  33.984  38.537  1.00  0.00     0.135 A 
ATOM     74  F   UNL A   1      41.310  35.821  36.446  1.00  0.00    -0.206 F 
ATOM     75  C   UNL A   1      40.424  36.360  38.553  1.00  0.00     0.059 A 
ATOM     76  C   UNL A   1      38.852  34.849  39.619  1.00  0.00     0.059 A 
ATOM     77  F   UNL A   1      38.264  32.844  38.556  1.00  0.00    -0.206 F 
ATOM     78  C   UNL A   1      39.590  36.030  39.622  1.00  0.00     0.060 A 
BRANCH  78  79
ATOM     79  S   UNL A   1      39.457  37.186  41.003  1.00  0.00     0.124 S 
ATOM     80  O   UNL A   1      40.844  37.604  41.174  1.00  0.00    -0.237 OA
ATOM     81  O   UNL A   1      38.547  38.195  40.470  1.00  0.00    -0.237 OA
ATOM     82  O   UNL A   1      38.908  36.364  42.078  1.00  0.00    -0.744 OA
ENDBRANCH  78  79
ENDBRANCH  46  71
BRANCH  58  83
ATOM     83  C   UNL A   1      44.123  29.014  35.971  1.00  0.00     0.058 A 
ATOM     84  C   UNL A   1      45.408  29.561  35.825  1.00  0.00     0.135 A 
ATOM     85  C   UNL A   1      43.977  27.913  36.832  1.00  0.00     0.135 A 
ATOM     86  F   UNL A   1      45.607  30.615  35.017  1.00  0.00    -0.206 F 
ATOM     87  C   UNL A   1      46.513  29.003  36.461  1.00  0.00     0.059 A 
ATOM     88  C   UNL A   1      45.062  27.362  37.506  1.00  0.00     0.059 A 
ATOM     89  F   UNL A   1      42.770  27.361  37.026  1.00  0.00    -0.206 F 
ATOM     90  C   UNL A   1      46.331  27.898  37.294  1.00  0.00     0.060 A 
BRANCH  90  91
ATOM     91  S   UNL A   1      47.774  27.168  38.096  1.00  0.00     0.124 S 
ATOM     92  O   UNL A   1      47.382  27.216  39.501  1.00  0.00    -0.237 OA
ATOM     93  O   UNL A   1      47.826  25.837  37.498  1.00  0.00    -0.237 OA
ATOM     94  O   UNL A   1      48.864  28.062  37.718  1.00  0.00    -0.744 OA
ENDBRANCH  90  91
ENDBRANCH  58  83
ENDBRANCH  32  33
ENDBRANCH  25  27
ENDBRANCH  24  25
ENDBRANCH  23  24
ENDBRANCH  22  23
ENDBRANCH  21  22
ENDBRANCH  20  21
ENDBRANCH   1  20
TORSDOF 23
ENDMDL
MODEL 3
REMARK VINA RESULT:      -9.1      6.276      9.025
REMARK SMILES C=C1C=C[C@H](C(=O)OCCOCCOCCOCCOC(=O)c2ccc(-c3c4nc(c(-c5c(F)cc(S(=O)(=O)[O-])cc5F)c5ccc([nH]5)c(-c5c(F)cc(S(=O)(=O)[O-])cc5F)c5nc(c(-c6c(F)cc(S(=O)(=O)[O-])cc6F)c6ccc3[nH]6)C=C5)C=C4)cc2)C(=S)N1
REMARK SMILES IDX 15 1 14 2 13 3 12 4 11 5 10 6 9 7 8 8 6 9 7 10 5 11 1 12
REMARK SMILES IDX 2 13 3 14 91 15 4 16 89 17 90 19 16 20 17 21 18 22 19 23
REMARK SMILES IDX 20 24 21 25 22 26 23 27 24 28 88 29 25 30 87 31 26 32 27 33
REMARK SMILES IDX 28 34 81 35 29 36 86 37 80 38 82 39 30 40 85 41 79 42 78 43
REMARK SMILES IDX 31 45 65 46 44 47 64 48 45 49 48 50 63 51 83 52 46 53 47 54
REMARK SMILES IDX 62 56 84 57 49 58 32 59 33 60 42 61 34 62 35 63 41 64 43 65
REMARK SMILES IDX 36 66 37 67 38 68 39 69 40 70 66 71 67 72 76 73 68 74 69 75
REMARK SMILES IDX 75 76 77 77 70 78 71 79 72 80 73 81 74 82 50 83 51 84 60 85
REMARK SMILES IDX 52 86 53 87 59 88 61 89 54 90 55 91 56 92 57 93 58 94
REMARK H PARENT 91 18 82 44 48 55
REMARK Flexibility Score: inf
ROOT
ATOM      1  C   UNL A   1      32.167  28.432  26.558  1.00  0.00     0.188 C 
ENDROOT
BRANCH   1   2
ATOM      2  O   UNL A   1      33.123  27.412  26.804  1.00  0.00    -0.377 OA
BRANCH   2   3
ATOM      3  C   UNL A   1      33.275  26.438  25.791  1.00  0.00     0.188 C 
BRANCH   3   4
ATOM      4  C   UNL A   1      32.496  26.727  24.489  1.00  0.00     0.188 C 
BRANCH   4   5
ATOM      5  O   UNL A   1      33.056  26.431  23.216  1.00  0.00    -0.376 OA
BRANCH   5   6
ATOM      6  C   UNL A   1      32.879  25.144  22.643  1.00  0.00     0.202 C 
BRANCH   6   7
ATOM      7  C   UNL A   1      33.851  23.995  22.978  1.00  0.00     0.261 C 
BRANCH   7   8
ATOM      8  O   UNL A   1      33.257  22.714  23.266  1.00  0.00    -0.462 OA
BRANCH   8   9
ATOM      9  C   UNL A   1      32.634  22.566  24.460  1.00  0.00     0.319 C 
ATOM     10  O   UNL A   1      31.721  23.291  24.850  1.00  0.00    -0.251 OA
BRANCH   9  11
ATOM     11  C   UNL A   1      33.074  21.330  25.256  1.00  0.00     0.180 C 
ATOM     12  C   UNL A   1      34.615  17.491  24.165  1.00  0.00     0.037 C 
ATOM     13  C   UNL A   1      34.119  18.687  24.504  1.00  0.00     0.031 C 
ATOM     14  C   UNL A   1      32.704  18.966  24.466  1.00  0.00     0.022 C 
ATOM     15  N   UNL A   1      34.955  19.699  24.903  1.00  0.00    -0.350 N 
ATOM     16  C   UNL A   1      32.211  20.160  24.821  1.00  0.00    -0.003 C 
ATOM     17  C   UNL A   1      34.565  20.969  25.274  1.00  0.00     0.098 C 
ATOM     18  H   UNL A   1      35.919  19.502  24.927  1.00  0.00     0.167 HD
ATOM     19  S   UNL A   1      35.742  22.016  25.852  1.00  0.00    -0.064 S 
ENDBRANCH   9  11
ENDBRANCH   8   9
ENDBRANCH   7   8
ENDBRANCH   6   7
ENDBRANCH   5   6
ENDBRANCH   4   5
ENDBRANCH   3   4
ENDBRANCH   2   3
ENDBRANCH   1   2
BRANCH   1  20
ATOM     20  C   UNL A   1      32.651  29.671  25.784  1.00  0.00     0.188 C 
BRANCH  20  21
ATOM     21  O   UNL A   1      33.716  30.369  26.425  1.00  0.00    -0.376 OA
BRANCH  21  22
ATOM     22  C   UNL A   1      33.440  31.072  27.628  1.00  0.00     0.202 C 
BRANCH  22  23
ATOM     23  C   UNL A   1      32.685  32.405  27.492  1.00  0.00     0.261 C 
BRANCH  23  24
ATOM     24  O   UNL A   1      33.494  33.590  27.471  1.00  0.00    -0.460 OA
BRANCH  24  25
ATOM     25  C   UNL A   1      33.437  34.386  28.564  1.00  0.00     0.338 C 
ATOM     26  O   UNL A   1      32.525  35.123  28.878  1.00  0.00    -0.246 OA
BRANCH  25  27
ATOM     27  C   UNL A   1      34.585  34.054  29.437  1.00  0.00     0.060 A 
ATOM     28  C   UNL A   1      35.874  34.278  28.943  1.00  0.00     0.016 A 
ATOM     29  C   UNL A   1      34.397  33.527  30.718  1.00  0.00     0.016 A 
ATOM     30  C   UNL A   1      36.982  33.920  29.706  1.00  0.00     0.010 A 
ATOM     31  C   UNL A   1      35.512  33.151  31.477  1.00  0.00     0.010 A 
ATOM     32  C   UNL A   1      36.808  33.305  30.954  1.00  0.00    -0.014 A 
BRANCH  32  33
ATOM     33  C   UNL A   1      37.980  32.655  31.590  1.00  0.00     0.031 A 
ATOM     34  C   UNL A   1      38.455  33.177  32.921  1.00  0.00     0.074 A 
ATOM     35  C   UNL A   1      38.548  31.563  31.047  1.00  0.00     0.049 A 
ATOM     36  N   UNL A   1      39.392  32.716  33.708  1.00  0.00    -0.248 NA
ATOM     37  C   UNL A   1      37.780  34.380  33.435  1.00  0.00     0.031 C 
ATOM     38  C   UNL A   1      38.155  30.948  29.781  1.00  0.00     0.029 A 
ATOM     39  N   UNL A   1      39.570  30.770  31.505  1.00  0.00    -0.354 N 
ATOM     40  C   UNL A   1      39.414  33.564  34.810  1.00  0.00     0.074 A 
ATOM     41  C   UNL A   1      38.427  34.593  34.570  1.00  0.00     0.031 C 
ATOM     42  C   UNL A   1      38.924  29.868  29.564  1.00  0.00     0.029 A 
ATOM     43  C   UNL A   1      39.876  29.726  30.665  1.00  0.00     0.049 A 
ATOM     44  H   UNL A   1      40.040  30.934  32.353  1.00  0.00     0.167 HD
ATOM     45  C   UNL A   1      40.174  33.484  35.927  1.00  0.00     0.037 A 
ATOM     46  C   UNL A   1      40.819  28.768  30.773  1.00  0.00     0.037 A 
ATOM     47  C   UNL A   1      41.160  32.459  36.157  1.00  0.00     0.049 A 
ATOM     48  C   UNL A   1      41.691  28.731  32.003  1.00  0.00     0.074 A 
ATOM     49  C   UNL A   1      41.978  32.283  37.260  1.00  0.00     0.029 A 
ATOM     50  N   UNL A   1      41.471  31.443  35.265  1.00  0.00    -0.354 N 
ATOM     51  N   UNL A   1      41.680  29.522  33.050  1.00  0.00    -0.248 NA
ATOM     52  C   UNL A   1      42.695  27.661  32.071  1.00  0.00     0.031 C 
ATOM     53  C   UNL A   1      42.823  31.197  37.009  1.00  0.00     0.029 A 
ATOM     54  C   UNL A   1      42.485  30.653  35.780  1.00  0.00     0.049 A 
ATOM     55  H   UNL A   1      41.036  31.305  34.393  1.00  0.00     0.167 HD
ATOM     56  C   UNL A   1      42.653  29.026  33.915  1.00  0.00     0.074 A 
ATOM     57  C   UNL A   1      43.216  27.855  33.274  1.00  0.00     0.031 C 
ATOM     58  C   UNL A   1      43.042  29.491  35.129  1.00  0.00     0.037 A 
BRANCH  45  59
ATOM     59  C   UNL A   1      39.989  34.550  36.975  1.00  0.00     0.058 A 
ATOM     60  C   UNL A   1      40.764  35.721  36.987  1.00  0.00     0.135 A 
ATOM     61  C   UNL A   1      39.004  34.409  37.966  1.00  0.00     0.135 A 
ATOM     62  F   UNL A   1      41.736  35.900  36.079  1.00  0.00    -0.206 F 
ATOM     63  C   UNL A   1      40.585  36.703  37.959  1.00  0.00     0.059 A 
ATOM     64  C   UNL A   1      38.786  35.391  38.927  1.00  0.00     0.059 A 
ATOM     65  F   UNL A   1      38.238  33.308  38.006  1.00  0.00    -0.206 F 
ATOM     66  C   UNL A   1      39.591  36.529  38.923  1.00  0.00     0.060 A 
BRANCH  66  67
ATOM     67  S   UNL A   1      39.365  37.814  40.170  1.00  0.00     0.124 S 
ATOM     68  O   UNL A   1      38.187  38.510  39.661  1.00  0.00    -0.237 OA
ATOM     69  O   UNL A   1      39.164  37.035  41.387  1.00  0.00    -0.237 OA
ATOM     70  O   UNL A   1      40.612  38.571  40.111  1.00  0.00    -0.744 OA
ENDBRANCH  66  67
ENDBRANCH  45  59
BRANCH  46  71
ATOM     71  C   UNL A   1      40.988  27.762  29.689  1.00  0.00     0.058 A 
ATOM     72  C   UNL A   1      42.093  27.795  28.824  1.00  0.00     0.135 A 
ATOM     73  C   UNL A   1      40.037  26.749  29.490  1.00  0.00     0.135 A 
ATOM     74  F   UNL A   1      43.025  28.750  28.964  1.00  0.00    -0.206 F 
ATOM     75  C   UNL A   1      42.240  26.873  27.793  1.00  0.00     0.059 A 
ATOM     76  C   UNL A   1      40.178  25.797  28.485  1.00  0.00     0.059 A 
ATOM     77  F   UNL A   1      38.964  26.667  30.292  1.00  0.00    -0.206 F 
ATOM     78  C   UNL A   1      41.278  25.875  27.634  1.00  0.00     0.060 A 
BRANCH  78  79
ATOM     79  S   UNL A   1      41.505  24.655  26.322  1.00  0.00     0.124 S 
ATOM     80  O   UNL A   1      40.183  24.041  26.259  1.00  0.00    -0.237 OA
ATOM     81  O   UNL A   1      41.875  25.493  25.186  1.00  0.00    -0.237 OA
ATOM     82  O   UNL A   1      42.573  23.801  26.836  1.00  0.00    -0.744 OA
ENDBRANCH  78  79
ENDBRANCH  46  71
BRANCH  58  83
ATOM     83  C   UNL A   1      44.102  28.709  35.860  1.00  0.00     0.058 A 
ATOM     84  C   UNL A   1      43.783  27.655  36.731  1.00  0.00     0.135 A 
ATOM     85  C   UNL A   1      45.462  29.016  35.680  1.00  0.00     0.135 A 
ATOM     86  F   UNL A   1      42.501  27.315  36.939  1.00  0.00    -0.206 F 
ATOM     87  C   UNL A   1      44.767  26.972  37.439  1.00  0.00     0.059 A 
ATOM     88  C   UNL A   1      46.464  28.324  36.350  1.00  0.00     0.059 A 
ATOM     89  F   UNL A   1      45.828  30.001  34.845  1.00  0.00    -0.206 F 
ATOM     90  C   UNL A   1      46.106  27.319  37.248  1.00  0.00     0.060 A 
BRANCH  90  91
ATOM     91  S   UNL A   1      47.373  26.443  38.188  1.00  0.00     0.124 S 
ATOM     92  O   UNL A   1      46.580  25.425  38.870  1.00  0.00    -0.237 OA
ATOM     93  O   UNL A   1      48.261  25.954  37.136  1.00  0.00    -0.237 OA
ATOM     94  O   UNL A   1      47.939  27.478  39.047  1.00  0.00    -0.744 OA
ENDBRANCH  90  91
ENDBRANCH  58  83
ENDBRANCH  32  33
ENDBRANCH  25  27
ENDBRANCH  24  25
ENDBRANCH  23  24
ENDBRANCH  22  23
ENDBRANCH  21  22
ENDBRANCH  20  21
ENDBRANCH   1  20
TORSDOF 23
ENDMDL
