MODEL 1
REMARK VINA RESULT:      -9.6      0.000      0.000
REMARK SMILES Cc1ccccc1OCC(=O)N1C[C@@H](O)C[C@H]1C(=O)OCCOCCOCCOCCOC(=O)c1ccc(-c2c3nc(c(-c4c(F)cc(S(=O)(=O)[O-])cc4F)c4ccc([nH]4)c(-c4c(F)cc(S(=O)(=O)[O-])cc4F)c4nc(c(-c5c(F)cc(S(=O)(=O)[O-])cc5F)c5ccc2[nH]5)C=C4)C=C3)cc1
REMARK SMILES IDX 25 1 24 2 23 3 22 4 21 5 20 6 18 7 19 8 17 9 12 10 13 11
REMARK SMILES IDX 14 12 16 13 10 14 11 15 9 16 8 17 7 18 1 19 2 20 3 21 4 22
REMARK SMILES IDX 6 23 5 24 15 25 26 27 27 28 28 29 29 30 30 31 31 32 32 33
REMARK SMILES IDX 33 34 34 35 35 36 36 37 100 38 37 39 99 40 38 41 39 42 40 43
REMARK SMILES IDX 93 44 41 45 98 46 92 47 94 48 42 49 97 50 91 51 90 52 43 54
REMARK SMILES IDX 77 55 56 56 76 57 57 58 60 59 75 60 95 61 58 62 59 63 74 65
REMARK SMILES IDX 96 66 61 67 44 68 45 69 54 70 46 71 47 72 53 73 55 74 48 75
REMARK SMILES IDX 49 76 50 77 51 78 52 79 78 80 79 81 88 82 80 83 81 84 87 85
REMARK SMILES IDX 89 86 82 87 83 88 84 89 85 90 86 91 62 92 63 93 72 94 64 95
REMARK SMILES IDX 65 96 71 97 73 98 66 99 67 100 68 101 69 102 70 103
REMARK H PARENT 15 26 94 53 60 64
REMARK Flexibility Score: inf
ROOT
ATOM      1  C   UNL A   1      40.888  20.866  27.162  1.00  0.00     0.188 C 
ENDROOT
BRANCH   1   2
ATOM      2  C   UNL A   1      39.955  22.059  26.844  1.00  0.00     0.188 C 
BRANCH   2   3
ATOM      3  O   UNL A   1      39.090  22.093  25.720  1.00  0.00    -0.376 OA
BRANCH   3   4
ATOM      4  C   UNL A   1      37.727  22.351  25.958  1.00  0.00     0.202 C 
BRANCH   4   5
ATOM      5  C   UNL A   1      36.779  21.249  25.523  1.00  0.00     0.261 C 
BRANCH   5   6
ATOM      6  O   UNL A   1      35.403  21.653  25.546  1.00  0.00    -0.462 OA
BRANCH   6   7
ATOM      7  C   UNL A   1      35.009  22.484  24.559  1.00  0.00     0.329 C 
ATOM      8  O   UNL A   1      35.578  22.603  23.472  1.00  0.00    -0.250 OA
BRANCH   7   9
ATOM      9  C   UNL A   1      33.821  23.363  24.971  1.00  0.00     0.198 C 
ATOM     10  N   UNL A   1      32.523  23.310  24.245  1.00  0.00    -0.323 N 
ATOM     11  C   UNL A   1      31.421  23.198  25.185  1.00  0.00     0.152 C 
ATOM     12  C   UNL A   1      32.029  23.658  26.509  1.00  0.00     0.136 C 
ATOM     13  C   UNL A   1      33.437  23.088  26.434  1.00  0.00     0.070 C 
BRANCH  10  14
ATOM     14  C   UNL A   1      32.436  23.710  22.934  1.00  0.00     0.261 C 
ATOM     15  O   UNL A   1      32.493  22.868  22.029  1.00  0.00    -0.271 OA
BRANCH  14  16
ATOM     16  C   UNL A   1      32.335  25.206  22.519  1.00  0.00     0.329 C 
BRANCH  16  17
ATOM     17  O   UNL A   1      32.584  26.304  23.355  1.00  0.00    -0.484 OA
BRANCH  17  18
ATOM     18  C   UNL A   1      31.757  27.355  23.606  1.00  0.00     0.122 A 
ATOM     19  C   UNL A   1      33.041  28.760  25.341  1.00  0.00     0.048 C 
ATOM     20  C   UNL A   1      31.933  28.513  24.371  1.00  0.00    -0.009 A 
ATOM     21  C   UNL A   1      30.983  29.558  24.247  1.00  0.00     0.007 A 
ATOM     22  C   UNL A   1      29.805  29.400  23.523  1.00  0.00     0.001 A 
ATOM     23  C   UNL A   1      30.531  27.193  22.930  1.00  0.00     0.047 A 
ATOM     24  C   UNL A   1      29.552  28.189  22.907  1.00  0.00     0.004 A 
ENDBRANCH  17  18
ENDBRANCH  16  17
ENDBRANCH  14  16
ENDBRANCH  10  14
BRANCH  12  25
ATOM     25  O   UNL A   1      31.313  23.220  27.647  1.00  0.00    -0.391 OA
ATOM     26  H   UNL A   1      31.571  23.753  28.415  1.00  0.00     0.211 HD
ENDBRANCH  12  25
ENDBRANCH   7   9
ENDBRANCH   6   7
ENDBRANCH   5   6
ENDBRANCH   4   5
ENDBRANCH   3   4
ENDBRANCH   2   3
ENDBRANCH   1   2
BRANCH   1  27
ATOM     27  O   UNL A   1      42.209  20.953  26.662  1.00  0.00    -0.377 OA
BRANCH  27  28
ATOM     28  C   UNL A   1      42.469  22.050  25.790  1.00  0.00     0.188 C 
BRANCH  28  29
ATOM     29  C   UNL A   1      43.712  22.822  26.183  1.00  0.00     0.188 C 
BRANCH  29  30
ATOM     30  O   UNL A   1      43.320  23.908  27.001  1.00  0.00    -0.376 OA
BRANCH  30  31
ATOM     31  C   UNL A   1      43.345  25.197  26.436  1.00  0.00     0.202 C 
BRANCH  31  32
ATOM     32  C   UNL A   1      42.230  25.418  25.420  1.00  0.00     0.261 C 
BRANCH  32  33
ATOM     33  O   UNL A   1      41.439  26.561  25.815  1.00  0.00    -0.460 OA
BRANCH  33  34
ATOM     34  C   UNL A   1      41.963  27.781  25.484  1.00  0.00     0.338 C 
ATOM     35  O   UNL A   1      42.632  27.976  24.484  1.00  0.00    -0.246 OA
BRANCH  34  36
ATOM     36  C   UNL A   1      41.706  28.782  26.572  1.00  0.00     0.060 A 
ATOM     37  C   UNL A   1      42.739  29.593  27.083  1.00  0.00     0.016 A 
ATOM     38  C   UNL A   1      40.516  28.694  27.280  1.00  0.00     0.016 A 
ATOM     39  C   UNL A   1      42.628  30.198  28.362  1.00  0.00     0.010 A 
ATOM     40  C   UNL A   1      40.467  29.194  28.569  1.00  0.00     0.010 A 
ATOM     41  C   UNL A   1      41.505  29.954  29.148  1.00  0.00    -0.014 A 
BRANCH  41  42
ATOM     42  C   UNL A   1      41.263  30.309  30.579  1.00  0.00     0.031 A 
ATOM     43  C   UNL A   1      40.413  31.544  30.838  1.00  0.00     0.074 A 
ATOM     44  C   UNL A   1      41.397  29.375  31.562  1.00  0.00     0.049 A 
ATOM     45  N   UNL A   1      39.811  31.847  31.940  1.00  0.00    -0.248 NA
ATOM     46  C   UNL A   1      40.139  32.548  29.799  1.00  0.00     0.031 C 
ATOM     47  C   UNL A   1      40.481  29.192  32.694  1.00  0.00     0.029 A 
ATOM     48  N   UNL A   1      42.286  28.322  31.751  1.00  0.00    -0.354 N 
ATOM     49  C   UNL A   1      38.879  32.847  31.693  1.00  0.00     0.074 A 
ATOM     50  C   UNL A   1      39.160  33.277  30.349  1.00  0.00     0.031 C 
ATOM     51  C   UNL A   1      40.852  28.163  33.468  1.00  0.00     0.029 A 
ATOM     52  C   UNL A   1      42.197  27.851  33.075  1.00  0.00     0.049 A 
ATOM     53  H   UNL A   1      42.887  27.961  31.061  1.00  0.00     0.167 HD
ATOM     54  C   UNL A   1      37.909  33.105  32.626  1.00  0.00     0.037 A 
ATOM     55  C   UNL A   1      43.258  28.013  33.924  1.00  0.00     0.037 A 
ATOM     56  C   UNL A   1      38.256  32.488  33.920  1.00  0.00     0.049 A 
ATOM     57  C   UNL A   1      42.986  29.090  34.975  1.00  0.00     0.074 A 
ATOM     58  C   UNL A   1      37.608  31.674  34.835  1.00  0.00     0.029 A 
ATOM     59  N   UNL A   1      39.570  32.591  34.381  1.00  0.00    -0.354 N 
ATOM     60  N   UNL A   1      42.024  29.980  34.869  1.00  0.00    -0.248 NA
ATOM     61  C   UNL A   1      43.662  29.196  36.266  1.00  0.00     0.031 C 
ATOM     62  C   UNL A   1      38.592  31.123  35.706  1.00  0.00     0.029 A 
ATOM     63  C   UNL A   1      39.810  31.724  35.422  1.00  0.00     0.049 A 
ATOM     64  H   UNL A   1      40.241  33.206  34.007  1.00  0.00     0.167 HD
ATOM     65  C   UNL A   1      41.957  30.758  35.988  1.00  0.00     0.074 A 
ATOM     66  C   UNL A   1      43.000  30.219  36.840  1.00  0.00     0.031 C 
ATOM     67  C   UNL A   1      41.072  31.790  36.143  1.00  0.00     0.037 A 
BRANCH  54  68
ATOM     68  C   UNL A   1      36.551  33.791  32.378  1.00  0.00     0.058 A 
ATOM     69  C   UNL A   1      35.907  33.668  31.122  1.00  0.00     0.135 A 
ATOM     70  C   UNL A   1      35.893  34.681  33.262  1.00  0.00     0.135 A 
ATOM     71  F   UNL A   1      36.381  32.844  30.176  1.00  0.00    -0.206 F 
ATOM     72  C   UNL A   1      34.752  34.377  30.760  1.00  0.00     0.059 A 
ATOM     73  C   UNL A   1      34.699  35.361  32.941  1.00  0.00     0.059 A 
ATOM     74  F   UNL A   1      36.390  34.971  34.469  1.00  0.00    -0.206 F 
ATOM     75  C   UNL A   1      34.144  35.219  31.677  1.00  0.00     0.060 A 
BRANCH  75  76
ATOM     76  S   UNL A   1      32.620  36.073  31.207  1.00  0.00     0.124 S 
ATOM     77  O   UNL A   1      32.202  35.331  30.022  1.00  0.00    -0.237 OA
ATOM     78  O   UNL A   1      31.784  35.893  32.390  1.00  0.00    -0.237 OA
ATOM     79  O   UNL A   1      33.057  37.445  30.962  1.00  0.00    -0.744 OA
ENDBRANCH  75  76
ENDBRANCH  54  68
BRANCH  55  80
ATOM     80  C   UNL A   1      44.520  27.544  33.244  1.00  0.00     0.058 A 
ATOM     81  C   UNL A   1      45.524  28.545  33.201  1.00  0.00     0.135 A 
ATOM     82  C   UNL A   1      44.961  26.223  33.455  1.00  0.00     0.135 A 
ATOM     83  F   UNL A   1      45.178  29.819  32.952  1.00  0.00    -0.206 F 
ATOM     84  C   UNL A   1      46.815  28.310  33.679  1.00  0.00     0.059 A 
ATOM     85  C   UNL A   1      46.262  25.963  33.918  1.00  0.00     0.059 A 
ATOM     86  F   UNL A   1      44.077  25.215  33.460  1.00  0.00    -0.206 F 
ATOM     87  C   UNL A   1      47.144  27.029  34.118  1.00  0.00     0.060 A 
BRANCH  87  88
ATOM     88  S   UNL A   1      48.622  26.850  35.157  1.00  0.00     0.124 S 
ATOM     89  O   UNL A   1      49.470  25.989  34.342  1.00  0.00    -0.237 OA
ATOM     90  O   UNL A   1      49.071  28.236  35.284  1.00  0.00    -0.237 OA
ATOM     91  O   UNL A   1      48.102  26.254  36.383  1.00  0.00    -0.744 OA
ENDBRANCH  87  88
ENDBRANCH  55  80
BRANCH  67  92
ATOM     92  C   UNL A   1      41.297  32.995  37.036  1.00  0.00     0.058 A 
ATOM     93  C   UNL A   1      42.186  34.031  36.709  1.00  0.00     0.135 A 
ATOM     94  C   UNL A   1      40.454  33.250  38.152  1.00  0.00     0.135 A 
ATOM     95  F   UNL A   1      42.941  33.991  35.604  1.00  0.00    -0.206 F 
ATOM     96  C   UNL A   1      42.300  35.185  37.478  1.00  0.00     0.059 A 
ATOM     97  C   UNL A   1      40.505  34.425  38.892  1.00  0.00     0.059 A 
ATOM     98  F   UNL A   1      39.523  32.375  38.556  1.00  0.00    -0.206 F 
ATOM     99  C   UNL A   1      41.459  35.373  38.569  1.00  0.00     0.060 A 
BRANCH  99 100
ATOM    100  S   UNL A   1      41.614  36.877  39.539  1.00  0.00     0.124 S 
ATOM    101  O   UNL A   1      41.604  36.341  40.897  1.00  0.00    -0.237 OA
ATOM    102  O   UNL A   1      42.890  37.417  39.083  1.00  0.00    -0.237 OA
ATOM    103  O   UNL A   1      40.438  37.653  39.157  1.00  0.00    -0.744 OA
ENDBRANCH  99 100
ENDBRANCH  67  92
ENDBRANCH  41  42
ENDBRANCH  34  36
ENDBRANCH  33  34
ENDBRANCH  32  33
ENDBRANCH  31  32
ENDBRANCH  30  31
ENDBRANCH  29  30
ENDBRANCH  28  29
ENDBRANCH  27  28
ENDBRANCH   1  27
TORSDOF 28
ENDMDL
MODEL 2
REMARK VINA RESULT:      -9.3      5.544      7.784
REMARK SMILES Cc1ccccc1OCC(=O)N1C[C@@H](O)C[C@H]1C(=O)OCCOCCOCCOCCOC(=O)c1ccc(-c2c3nc(c(-c4c(F)cc(S(=O)(=O)[O-])cc4F)c4ccc([nH]4)c(-c4c(F)cc(S(=O)(=O)[O-])cc4F)c4nc(c(-c5c(F)cc(S(=O)(=O)[O-])cc5F)c5ccc2[nH]5)C=C4)C=C3)cc1
REMARK SMILES IDX 25 1 24 2 23 3 22 4 21 5 20 6 18 7 19 8 17 9 12 10 13 11
REMARK SMILES IDX 14 12 16 13 10 14 11 15 9 16 8 17 7 18 1 19 2 20 3 21 4 22
REMARK SMILES IDX 6 23 5 24 15 25 26 27 27 28 28 29 29 30 30 31 31 32 32 33
REMARK SMILES IDX 33 34 34 35 35 36 36 37 100 38 37 39 99 40 38 41 39 42 40 43
REMARK SMILES IDX 93 44 41 45 98 46 92 47 94 48 42 49 97 50 91 51 90 52 43 54
REMARK SMILES IDX 77 55 56 56 76 57 57 58 60 59 75 60 95 61 58 62 59 63 74 65
REMARK SMILES IDX 96 66 61 67 44 68 45 69 54 70 46 71 47 72 53 73 55 74 48 75
REMARK SMILES IDX 49 76 50 77 51 78 52 79 78 80 79 81 88 82 80 83 81 84 87 85
REMARK SMILES IDX 89 86 82 87 83 88 84 89 85 90 86 91 62 92 63 93 72 94 64 95
REMARK SMILES IDX 65 96 71 97 73 98 66 99 67 100 68 101 69 102 70 103
REMARK H PARENT 15 26 94 53 60 64
REMARK Flexibility Score: inf
ROOT
ATOM      1  C   UNL A   1      40.873  21.327  27.630  1.00  0.00     0.188 C 
ENDROOT
BRANCH   1   2
ATOM      2  C   UNL A   1      40.134  21.986  26.440  1.00  0.00     0.188 C 
BRANCH   2   3
ATOM      3  O   UNL A   1      39.092  22.936  26.602  1.00  0.00    -0.376 OA
BRANCH   3   4
ATOM      4  C   UNL A   1      37.912  22.737  25.862  1.00  0.00     0.202 C 
BRANCH   4   5
ATOM      5  C   UNL A   1      37.914  21.512  24.966  1.00  0.00     0.261 C 
BRANCH   5   6
ATOM      6  O   UNL A   1      36.637  21.255  24.365  1.00  0.00    -0.462 OA
BRANCH   6   7
ATOM      7  C   UNL A   1      35.969  22.331  23.901  1.00  0.00     0.329 C 
ATOM      8  O   UNL A   1      36.419  23.140  23.086  1.00  0.00    -0.250 OA
BRANCH   7   9
ATOM      9  C   UNL A   1      34.605  22.514  24.581  1.00  0.00     0.198 C 
ATOM     10  N   UNL A   1      33.456  23.135  23.870  1.00  0.00    -0.323 N 
ATOM     11  C   UNL A   1      32.260  22.329  24.038  1.00  0.00     0.152 C 
ATOM     12  C   UNL A   1      32.581  21.456  25.251  1.00  0.00     0.136 C 
ATOM     13  C   UNL A   1      34.059  21.156  25.051  1.00  0.00     0.070 C 
BRANCH  10  14
ATOM     14  C   UNL A   1      33.501  24.452  23.480  1.00  0.00     0.261 C 
ATOM     15  O   UNL A   1      33.781  24.738  22.310  1.00  0.00    -0.271 OA
BRANCH  14  16
ATOM     16  C   UNL A   1      33.279  25.628  24.475  1.00  0.00     0.329 C 
BRANCH  16  17
ATOM     17  O   UNL A   1      32.547  26.794  24.211  1.00  0.00    -0.484 OA
BRANCH  17  18
ATOM     18  C   UNL A   1      32.594  27.972  24.892  1.00  0.00     0.122 A 
ATOM     19  C   UNL A   1      30.652  29.345  23.903  1.00  0.00     0.048 C 
ATOM     20  C   UNL A   1      31.741  29.080  24.891  1.00  0.00    -0.009 A 
ATOM     21  C   UNL A   1      31.909  30.066  25.896  1.00  0.00     0.007 A 
ATOM     22  C   UNL A   1      32.991  30.048  26.770  1.00  0.00     0.001 A 
ATOM     23  C   UNL A   1      33.715  28.005  25.745  1.00  0.00     0.047 A 
ATOM     24  C   UNL A   1      33.931  29.041  26.657  1.00  0.00     0.004 A 
ENDBRANCH  17  18
ENDBRANCH  16  17
ENDBRANCH  14  16
ENDBRANCH  10  14
BRANCH  12  25
ATOM     25  O   UNL A   1      31.785  20.292  25.341  1.00  0.00    -0.391 OA
ATOM     26  H   UNL A   1      31.637  19.932  24.453  1.00  0.00     0.211 HD
ENDBRANCH  12  25
ENDBRANCH   7   9
ENDBRANCH   6   7
ENDBRANCH   5   6
ENDBRANCH   4   5
ENDBRANCH   3   4
ENDBRANCH   2   3
ENDBRANCH   1   2
BRANCH   1  27
ATOM     27  O   UNL A   1      41.273  19.982  27.450  1.00  0.00    -0.377 OA
BRANCH  27  28
ATOM     28  C   UNL A   1      41.624  19.613  26.118  1.00  0.00     0.188 C 
BRANCH  28  29
ATOM     29  C   UNL A   1      42.975  18.932  26.042  1.00  0.00     0.188 C 
BRANCH  29  30
ATOM     30  O   UNL A   1      43.380  18.901  24.686  1.00  0.00    -0.376 OA
BRANCH  30  31
ATOM     31  C   UNL A   1      44.759  18.858  24.415  1.00  0.00     0.202 C 
BRANCH  31  32
ATOM     32  C   UNL A   1      45.525  20.005  25.064  1.00  0.00     0.261 C 
BRANCH  32  33
ATOM     33  O   UNL A   1      45.434  21.180  24.227  1.00  0.00    -0.460 OA
BRANCH  33  34
ATOM     34  C   UNL A   1      44.569  22.146  24.662  1.00  0.00     0.338 C 
ATOM     35  O   UNL A   1      43.405  22.214  24.305  1.00  0.00    -0.246 OA
BRANCH  34  36
ATOM     36  C   UNL A   1      45.282  23.153  25.516  1.00  0.00     0.060 A 
ATOM     37  C   UNL A   1      45.105  23.186  26.914  1.00  0.00     0.016 A 
ATOM     38  C   UNL A   1      45.879  24.239  24.894  1.00  0.00     0.016 A 
ATOM     39  C   UNL A   1      45.399  24.357  27.660  1.00  0.00     0.010 A 
ATOM     40  C   UNL A   1      46.053  25.408  25.613  1.00  0.00     0.010 A 
ATOM     41  C   UNL A   1      45.824  25.508  27.002  1.00  0.00    -0.014 A 
BRANCH  41  42
ATOM     42  C   UNL A   1      45.995  26.891  27.540  1.00  0.00     0.031 A 
ATOM     43  C   UNL A   1      44.724  27.701  27.747  1.00  0.00     0.074 A 
ATOM     44  C   UNL A   1      47.126  27.244  28.214  1.00  0.00     0.049 A 
ATOM     45  N   UNL A   1      44.592  28.752  28.485  1.00  0.00    -0.248 NA
ATOM     46  C   UNL A   1      43.440  27.328  27.134  1.00  0.00     0.031 C 
ATOM     47  C   UNL A   1      47.170  28.043  29.444  1.00  0.00     0.029 A 
ATOM     48  N   UNL A   1      48.466  26.912  28.051  1.00  0.00    -0.354 N 
ATOM     49  C   UNL A   1      43.241  29.004  28.689  1.00  0.00     0.074 A 
ATOM     50  C   UNL A   1      42.569  28.109  27.784  1.00  0.00     0.031 C 
ATOM     51  C   UNL A   1      48.423  28.185  29.896  1.00  0.00     0.029 A 
ATOM     52  C   UNL A   1      49.272  27.781  28.811  1.00  0.00     0.049 A 
ATOM     53  H   UNL A   1      48.801  26.178  27.486  1.00  0.00     0.167 HD
ATOM     54  C   UNL A   1      42.861  29.864  29.686  1.00  0.00     0.037 A 
ATOM     55  C   UNL A   1      50.107  28.659  28.176  1.00  0.00     0.037 A 
ATOM     56  C   UNL A   1      44.013  30.661  30.151  1.00  0.00     0.049 A 
ATOM     57  C   UNL A   1      49.596  30.098  28.269  1.00  0.00     0.074 A 
ATOM     58  C   UNL A   1      44.577  30.963  31.379  1.00  0.00     0.029 A 
ATOM     59  N   UNL A   1      44.884  31.196  29.201  1.00  0.00    -0.354 N 
ATOM     60  N   UNL A   1      48.362  30.408  28.597  1.00  0.00    -0.248 NA
ATOM     61  C   UNL A   1      50.422  31.295  28.129  1.00  0.00     0.031 C 
ATOM     62  C   UNL A   1      45.884  31.481  31.146  1.00  0.00     0.029 A 
ATOM     63  C   UNL A   1      46.051  31.641  29.778  1.00  0.00     0.049 A 
ATOM     64  H   UNL A   1      44.688  31.249  28.237  1.00  0.00     0.167 HD
ATOM     65  C   UNL A   1      48.209  31.762  28.687  1.00  0.00     0.074 A 
ATOM     66  C   UNL A   1      49.535  32.274  28.394  1.00  0.00     0.031 C 
ATOM     67  C   UNL A   1      47.021  32.375  28.979  1.00  0.00     0.037 A 
BRANCH  54  68
ATOM     68  C   UNL A   1      41.486  29.919  30.381  1.00  0.00     0.058 A 
ATOM     69  C   UNL A   1      40.879  28.732  30.860  1.00  0.00     0.135 A 
ATOM     70  C   UNL A   1      40.655  31.060  30.493  1.00  0.00     0.135 A 
ATOM     71  F   UNL A   1      41.538  27.564  30.854  1.00  0.00    -0.206 F 
ATOM     72  C   UNL A   1      39.572  28.669  31.365  1.00  0.00     0.059 A 
ATOM     73  C   UNL A   1      39.359  31.031  31.049  1.00  0.00     0.059 A 
ATOM     74  F   UNL A   1      41.036  32.258  30.033  1.00  0.00    -0.206 F 
ATOM     75  C   UNL A   1      38.815  29.824  31.466  1.00  0.00     0.060 A 
BRANCH  75  76
ATOM     76  S   UNL A   1      37.155  29.726  32.179  1.00  0.00     0.124 S 
ATOM     77  O   UNL A   1      36.347  29.337  31.029  1.00  0.00    -0.237 OA
ATOM     78  O   UNL A   1      37.319  28.705  33.209  1.00  0.00    -0.237 OA
ATOM     79  O   UNL A   1      36.918  31.076  32.682  1.00  0.00    -0.744 OA
ENDBRANCH  75  76
ENDBRANCH  54  68
BRANCH  55  80
ATOM     80  C   UNL A   1      50.906  27.924  27.130  1.00  0.00     0.058 A 
ATOM     81  C   UNL A   1      50.537  28.280  25.807  1.00  0.00     0.135 A 
ATOM     82  C   UNL A   1      52.277  27.689  27.355  1.00  0.00     0.135 A 
ATOM     83  F   UNL A   1      49.240  28.468  25.511  1.00  0.00    -0.206 F 
ATOM     84  C   UNL A   1      51.480  28.711  24.873  1.00  0.00     0.059 A 
ATOM     85  C   UNL A   1      53.242  28.099  26.419  1.00  0.00     0.059 A 
ATOM     86  F   UNL A   1      52.699  27.301  28.567  1.00  0.00    -0.206 F 
ATOM     87  C   UNL A   1      52.827  28.698  25.225  1.00  0.00     0.060 A 
BRANCH  87  88
ATOM     88  S   UNL A   1      53.971  29.685  24.218  1.00  0.00     0.124 S 
ATOM     89  O   UNL A   1      55.095  28.773  24.044  1.00  0.00    -0.237 OA
ATOM     90  O   UNL A   1      53.174  29.937  23.018  1.00  0.00    -0.237 OA
ATOM     91  O   UNL A   1      54.226  30.857  25.048  1.00  0.00    -0.744 OA
ENDBRANCH  87  88
ENDBRANCH  55  80
BRANCH  67  92
ATOM     92  C   UNL A   1      46.645  33.780  28.553  1.00  0.00     0.058 A 
ATOM     93  C   UNL A   1      46.688  34.879  29.426  1.00  0.00     0.135 A 
ATOM     94  C   UNL A   1      46.436  34.102  27.185  1.00  0.00     0.135 A 
ATOM     95  F   UNL A   1      47.014  34.742  30.718  1.00  0.00    -0.206 F 
ATOM     96  C   UNL A   1      46.451  36.181  28.997  1.00  0.00     0.059 A 
ATOM     97  C   UNL A   1      46.265  35.403  26.726  1.00  0.00     0.059 A 
ATOM     98  F   UNL A   1      46.416  33.165  26.227  1.00  0.00    -0.206 F 
ATOM     99  C   UNL A   1      46.237  36.434  27.647  1.00  0.00     0.060 A 
BRANCH  99 100
ATOM    100  S   UNL A   1      45.947  38.125  27.112  1.00  0.00     0.124 S 
ATOM    101  O   UNL A   1      46.737  38.174  25.885  1.00  0.00    -0.237 OA
ATOM    102  O   UNL A   1      44.499  38.155  26.931  1.00  0.00    -0.237 OA
ATOM    103  O   UNL A   1      46.452  38.926  28.222  1.00  0.00    -0.744 OA
ENDBRANCH  99 100
ENDBRANCH  67  92
ENDBRANCH  41  42
ENDBRANCH  34  36
ENDBRANCH  33  34
ENDBRANCH  32  33
ENDBRANCH  31  32
ENDBRANCH  30  31
ENDBRANCH  29  30
ENDBRANCH  28  29
ENDBRANCH  27  28
ENDBRANCH   1  27
TORSDOF 28
ENDMDL
MODEL 3
REMARK VINA RESULT:      -9.3      3.981      5.897
REMARK SMILES Cc1ccccc1OCC(=O)N1C[C@@H](O)C[C@H]1C(=O)OCCOCCOCCOCCOC(=O)c1ccc(-c2c3nc(c(-c4c(F)cc(S(=O)(=O)[O-])cc4F)c4ccc([nH]4)c(-c4c(F)cc(S(=O)(=O)[O-])cc4F)c4nc(c(-c5c(F)cc(S(=O)(=O)[O-])cc5F)c5ccc2[nH]5)C=C4)C=C3)cc1
REMARK SMILES IDX 25 1 24 2 23 3 22 4 21 5 20 6 18 7 19 8 17 9 12 10 13 11
REMARK SMILES IDX 14 12 16 13 10 14 11 15 9 16 8 17 7 18 1 19 2 20 3 21 4 22
REMARK SMILES IDX 6 23 5 24 15 25 26 27 27 28 28 29 29 30 30 31 31 32 32 33
REMARK SMILES IDX 33 34 34 35 35 36 36 37 100 38 37 39 99 40 38 41 39 42 40 43
REMARK SMILES IDX 93 44 41 45 98 46 92 47 94 48 42 49 97 50 91 51 90 52 43 54
REMARK SMILES IDX 77 55 56 56 76 57 57 58 60 59 75 60 95 61 58 62 59 63 74 65
REMARK SMILES IDX 96 66 61 67 44 68 45 69 54 70 46 71 47 72 53 73 55 74 48 75
REMARK SMILES IDX 49 76 50 77 51 78 52 79 78 80 79 81 88 82 80 83 81 84 87 85
REMARK SMILES IDX 89 86 82 87 83 88 84 89 85 90 86 91 62 92 63 93 72 94 64 95
REMARK SMILES IDX 65 96 71 97 73 98 66 99 67 100 68 101 69 102 70 103
REMARK H PARENT 15 26 94 53 60 64
REMARK Flexibility Score: inf
ROOT
ATOM      1  C   UNL A   1      39.781  23.331  26.759  1.00  0.00     0.188 C 
ENDROOT
BRANCH   1   2
ATOM      2  C   UNL A   1      39.307  21.910  26.367  1.00  0.00     0.188 C 
BRANCH   2   3
ATOM      3  O   UNL A   1      38.476  21.649  25.246  1.00  0.00    -0.376 OA
BRANCH   3   4
ATOM      4  C   UNL A   1      37.345  22.467  25.071  1.00  0.00     0.202 C 
BRANCH   4   5
ATOM      5  C   UNL A   1      36.016  21.737  25.076  1.00  0.00     0.261 C 
BRANCH   5   6
ATOM      6  O   UNL A   1      35.026  22.378  25.893  1.00  0.00    -0.462 OA
BRANCH   6   7
ATOM      7  C   UNL A   1      34.046  23.033  25.237  1.00  0.00     0.329 C 
ATOM      8  O   UNL A   1      34.075  23.325  24.039  1.00  0.00    -0.250 OA
BRANCH   7   9
ATOM      9  C   UNL A   1      32.913  23.482  26.170  1.00  0.00     0.198 C 
ATOM     10  N   UNL A   1      32.131  24.720  25.910  1.00  0.00    -0.323 N 
ATOM     11  C   UNL A   1      30.708  24.454  26.023  1.00  0.00     0.152 C 
ATOM     12  C   UNL A   1      30.647  23.151  26.817  1.00  0.00     0.136 C 
ATOM     13  C   UNL A   1      31.842  22.383  26.274  1.00  0.00     0.070 C 
BRANCH  10  14
ATOM     14  C   UNL A   1      32.735  25.953  25.957  1.00  0.00     0.261 C 
ATOM     15  O   UNL A   1      33.948  26.036  26.186  1.00  0.00    -0.271 OA
BRANCH  14  16
ATOM     16  C   UNL A   1      31.940  27.282  25.800  1.00  0.00     0.329 C 
BRANCH  16  17
ATOM     17  O   UNL A   1      31.838  28.039  24.625  1.00  0.00    -0.484 OA
BRANCH  17  18
ATOM     18  C   UNL A   1      31.118  29.178  24.434  1.00  0.00     0.122 A 
ATOM     19  C   UNL A   1      29.762  28.712  22.295  1.00  0.00     0.048 C 
ATOM     20  C   UNL A   1      30.118  29.502  23.512  1.00  0.00    -0.009 A 
ATOM     21  C   UNL A   1      29.368  30.688  23.713  1.00  0.00     0.007 A 
ATOM     22  C   UNL A   1      29.705  31.614  24.695  1.00  0.00     0.001 A 
ATOM     23  C   UNL A   1      31.481  30.156  25.382  1.00  0.00     0.047 A 
ATOM     24  C   UNL A   1      30.804  31.373  25.499  1.00  0.00     0.004 A 
ENDBRANCH  17  18
ENDBRANCH  16  17
ENDBRANCH  14  16
ENDBRANCH  10  14
BRANCH  12  25
ATOM     25  O   UNL A   1      29.427  22.452  26.673  1.00  0.00    -0.391 OA
ATOM     26  H   UNL A   1      28.835  22.682  27.407  1.00  0.00     0.211 HD
ENDBRANCH  12  25
ENDBRANCH   7   9
ENDBRANCH   6   7
ENDBRANCH   5   6
ENDBRANCH   4   5
ENDBRANCH   3   4
ENDBRANCH   2   3
ENDBRANCH   1   2
BRANCH   1  27
ATOM     27  O   UNL A   1      41.150  23.466  27.086  1.00  0.00    -0.377 OA
BRANCH  27  28
ATOM     28  C   UNL A   1      42.062  23.350  25.996  1.00  0.00     0.188 C 
BRANCH  28  29
ATOM     29  C   UNL A   1      43.112  22.283  26.228  1.00  0.00     0.188 C 
BRANCH  29  30
ATOM     30  O   UNL A   1      44.281  22.650  25.519  1.00  0.00    -0.376 OA
BRANCH  30  31
ATOM     31  C   UNL A   1      44.336  23.944  24.970  1.00  0.00     0.202 C 
BRANCH  31  32
ATOM     32  C   UNL A   1      45.763  24.429  24.742  1.00  0.00     0.261 C 
BRANCH  32  33
ATOM     33  O   UNL A   1      46.371  24.753  26.012  1.00  0.00    -0.460 OA
BRANCH  33  34
ATOM     34  C   UNL A   1      45.704  25.682  26.763  1.00  0.00     0.338 C 
ATOM     35  O   UNL A   1      45.454  26.808  26.371  1.00  0.00    -0.246 OA
BRANCH  34  36
ATOM     36  C   UNL A   1      45.448  25.161  28.148  1.00  0.00     0.060 A 
ATOM     37  C   UNL A   1      44.150  24.825  28.577  1.00  0.00     0.016 A 
ATOM     38  C   UNL A   1      46.450  25.298  29.097  1.00  0.00     0.016 A 
ATOM     39  C   UNL A   1      43.830  24.763  29.958  1.00  0.00     0.010 A 
ATOM     40  C   UNL A   1      46.100  25.347  30.435  1.00  0.00     0.010 A 
ATOM     41  C   UNL A   1      44.797  25.083  30.908  1.00  0.00    -0.014 A 
BRANCH  41  42
ATOM     42  C   UNL A   1      44.641  25.283  32.380  1.00  0.00     0.031 A 
ATOM     43  C   UNL A   1      44.067  26.619  32.827  1.00  0.00     0.074 A 
ATOM     44  C   UNL A   1      44.583  24.217  33.227  1.00  0.00     0.049 A 
ATOM     45  N   UNL A   1      43.547  26.887  33.978  1.00  0.00    -0.248 NA
ATOM     46  C   UNL A   1      44.003  27.789  31.939  1.00  0.00     0.031 C 
ATOM     47  C   UNL A   1      43.654  24.073  34.354  1.00  0.00     0.029 A 
ATOM     48  N   UNL A   1      45.234  22.988  33.246  1.00  0.00    -0.354 N 
ATOM     49  C   UNL A   1      42.841  28.080  33.896  1.00  0.00     0.074 A 
ATOM     50  C   UNL A   1      43.199  28.622  32.612  1.00  0.00     0.031 C 
ATOM     51  C   UNL A   1      43.807  22.895  34.973  1.00  0.00     0.029 A 
ATOM     52  C   UNL A   1      45.056  22.370  34.499  1.00  0.00     0.049 A 
ATOM     53  H   UNL A   1      45.745  22.608  32.495  1.00  0.00     0.167 HD
ATOM     54  C   UNL A   1      41.951  28.404  34.886  1.00  0.00     0.037 A 
ATOM     55  C   UNL A   1      46.132  22.194  35.326  1.00  0.00     0.037 A 
ATOM     56  C   UNL A   1      42.168  27.558  36.076  1.00  0.00     0.049 A 
ATOM     57  C   UNL A   1      46.093  23.151  36.519  1.00  0.00     0.074 A 
ATOM     58  C   UNL A   1      41.369  26.778  36.896  1.00  0.00     0.029 A 
ATOM     59  N   UNL A   1      43.477  27.326  36.503  1.00  0.00    -0.354 N 
ATOM     60  N   UNL A   1      45.337  24.225  36.562  1.00  0.00    -0.248 NA
ATOM     61  C   UNL A   1      46.783  22.939  37.790  1.00  0.00     0.031 C 
ATOM     62  C   UNL A   1      42.222  25.923  37.654  1.00  0.00     0.029 A 
ATOM     63  C   UNL A   1      43.537  26.295  37.412  1.00  0.00     0.049 A 
ATOM     64  H   UNL A   1      44.260  27.835  36.191  1.00  0.00     0.167 HD
ATOM     65  C   UNL A   1      45.438  24.842  37.775  1.00  0.00     0.074 A 
ATOM     66  C   UNL A   1      46.351  23.989  38.515  1.00  0.00     0.031 C 
ATOM     67  C   UNL A   1      44.788  26.002  38.094  1.00  0.00     0.037 A 
BRANCH  54  68
ATOM     68  C   UNL A   1      40.764  29.380  34.775  1.00  0.00     0.058 A 
ATOM     69  C   UNL A   1      39.854  29.280  33.693  1.00  0.00     0.135 A 
ATOM     70  C   UNL A   1      40.531  30.507  35.602  1.00  0.00     0.135 A 
ATOM     71  F   UNL A   1      39.914  28.257  32.829  1.00  0.00    -0.206 F 
ATOM     72  C   UNL A   1      38.841  30.214  33.432  1.00  0.00     0.059 A 
ATOM     73  C   UNL A   1      39.483  31.427  35.392  1.00  0.00     0.059 A 
ATOM     74  F   UNL A   1      41.329  30.799  36.635  1.00  0.00    -0.206 F 
ATOM     75  C   UNL A   1      38.652  31.285  34.289  1.00  0.00     0.060 A 
BRANCH  75  76
ATOM     76  S   UNL A   1      37.298  32.440  33.965  1.00  0.00     0.124 S 
ATOM     77  O   UNL A   1      36.857  32.786  35.312  1.00  0.00    -0.237 OA
ATOM     78  O   UNL A   1      37.967  33.507  33.228  1.00  0.00    -0.237 OA
ATOM     79  O   UNL A   1      36.352  31.649  33.183  1.00  0.00    -0.744 OA
ENDBRANCH  75  76
ENDBRANCH  54  68
BRANCH  55  80
ATOM     80  C   UNL A   1      47.265  21.573  34.549  1.00  0.00     0.058 A 
ATOM     81  C   UNL A   1      48.404  22.414  34.474  1.00  0.00     0.135 A 
ATOM     82  C   UNL A   1      47.515  20.193  34.687  1.00  0.00     0.135 A 
ATOM     83  F   UNL A   1      48.240  23.735  34.291  1.00  0.00    -0.206 F 
ATOM     84  C   UNL A   1      49.671  21.970  34.858  1.00  0.00     0.059 A 
ATOM     85  C   UNL A   1      48.787  19.723  35.055  1.00  0.00     0.059 A 
ATOM     86  F   UNL A   1      46.490  19.328  34.716  1.00  0.00    -0.206 F 
ATOM     87  C   UNL A   1      49.830  20.638  35.231  1.00  0.00     0.060 A 
BRANCH  87  88
ATOM     88  S   UNL A   1      51.324  20.197  36.165  1.00  0.00     0.124 S 
ATOM     89  O   UNL A   1      51.242  18.742  36.208  1.00  0.00    -0.237 OA
ATOM     90  O   UNL A   1      52.381  20.743  35.315  1.00  0.00    -0.237 OA
ATOM     91  O   UNL A   1      51.140  20.882  37.439  1.00  0.00    -0.744 OA
ENDBRANCH  87  88
ENDBRANCH  55  80
BRANCH  67  92
ATOM     92  C   UNL A   1      45.262  27.003  39.130  1.00  0.00     0.058 A 
ATOM     93  C   UNL A   1      45.931  28.190  38.793  1.00  0.00     0.135 A 
ATOM     94  C   UNL A   1      44.862  26.898  40.489  1.00  0.00     0.135 A 
ATOM     95  F   UNL A   1      46.244  28.489  37.525  1.00  0.00    -0.206 F 
ATOM     96  C   UNL A   1      46.260  29.155  39.741  1.00  0.00     0.059 A 
ATOM     97  C   UNL A   1      45.121  27.882  41.438  1.00  0.00     0.059 A 
ATOM     98  F   UNL A   1      44.175  25.845  40.952  1.00  0.00    -0.206 F 
ATOM     99  C   UNL A   1      45.855  28.992  41.061  1.00  0.00     0.060 A 
BRANCH  99 100
ATOM    100  S   UNL A   1      46.278  30.256  42.265  1.00  0.00     0.124 S 
ATOM    101  O   UNL A   1      44.963  30.814  42.564  1.00  0.00    -0.237 OA
ATOM    102  O   UNL A   1      46.892  29.478  43.336  1.00  0.00    -0.237 OA
ATOM    103  O   UNL A   1      47.186  31.134  41.535  1.00  0.00    -0.744 OA
ENDBRANCH  99 100
ENDBRANCH  67  92
ENDBRANCH  41  42
ENDBRANCH  34  36
ENDBRANCH  33  34
ENDBRANCH  32  33
ENDBRANCH  31  32
ENDBRANCH  30  31
ENDBRANCH  29  30
ENDBRANCH  28  29
ENDBRANCH  27  28
ENDBRANCH   1  27
TORSDOF 28
ENDMDL
