MODEL 1
REMARK VINA RESULT:     -10.2      0.000      0.000
REMARK SMILES Cc1c(CC(=O)OCCOCCOCCOCCOC(=O)c2ccc(-c3c4nc(c(-c5c(F)cc(S(=O)(=O)[O-])cc5F)c5ccc([nH]5)c(-c5c(F)cc(S(=O)(=O)[O-])cc5F)c5nc(c(-c6c(F)cc(S(=O)(=O)[O-])cc6F)c6ccc3[nH]6)C=C5)C=C4)cc2)c2cc(O)ccc2n1C(=O)c1ccc(Cl)cc1
REMARK SMILES IDX 13 1 12 2 11 3 10 4 9 5 8 6 7 7 5 8 6 9 4 10 3 11 1 12 2 13
REMARK SMILES IDX 95 14 88 15 94 16 89 17 93 18 90 19 92 20 96 21 97 22 98 23
REMARK SMILES IDX 99 24 104 25 100 26 103 27 101 28 102 29 91 30 14 32 15 33
REMARK SMILES IDX 16 34 17 35 18 36 19 37 20 38 21 39 22 40 23 41 87 42 24 43
REMARK SMILES IDX 86 44 25 45 26 46 27 47 80 48 28 49 85 50 79 51 81 52 29 53
REMARK SMILES IDX 84 54 78 55 77 56 30 58 64 59 43 60 63 61 44 62 47 63 62 64
REMARK SMILES IDX 82 65 45 66 46 67 61 69 83 70 48 71 31 72 32 73 41 74 33 75
REMARK SMILES IDX 34 76 40 77 42 78 35 79 36 80 37 81 38 82 39 83 65 84 66 85
REMARK SMILES IDX 75 86 67 87 68 88 74 89 76 90 69 91 70 92 71 93 72 94 73 95
REMARK SMILES IDX 49 96 50 97 59 98 51 99 52 100 58 101 60 102 53 103 54 104
REMARK SMILES IDX 55 105 56 106 57 107
REMARK H PARENT 91 31 81 57 47 68
REMARK Flexibility Score: inf
ROOT
ATOM      1  O   UNL A   1      32.246  30.259  26.277  1.00  0.00    -0.377 OA
ENDROOT
BRANCH   1   2
ATOM      2  C   UNL A   1      32.877  29.638  25.194  1.00  0.00     0.188 C 
BRANCH   2   3
ATOM      3  C   UNL A   1      33.495  28.254  25.351  1.00  0.00     0.188 C 
BRANCH   3   4
ATOM      4  O   UNL A   1      32.612  27.171  25.508  1.00  0.00    -0.376 OA
BRANCH   4   5
ATOM      5  C   UNL A   1      31.353  27.267  26.151  1.00  0.00     0.202 C 
BRANCH   5   6
ATOM      6  C   UNL A   1      30.514  26.137  26.795  1.00  0.00     0.261 C 
BRANCH   6   7
ATOM      7  O   UNL A   1      30.065  25.015  26.019  1.00  0.00    -0.463 OA
BRANCH   7   8
ATOM      8  C   UNL A   1      30.394  23.786  26.478  1.00  0.00     0.310 C 
ATOM      9  O   UNL A   1      30.140  23.404  27.619  1.00  0.00    -0.252 OA
BRANCH   8  10
ATOM     10  C   UNL A   1      31.084  22.864  25.477  1.00  0.00     0.160 C 
BRANCH  10  11
ATOM     11  C   UNL A   1      32.302  23.322  24.686  1.00  0.00    -0.008 A 
ATOM     12  C   UNL A   1      34.063  21.627  25.550  1.00  0.00     0.065 C 
ATOM     13  C   UNL A   1      33.584  22.784  24.729  1.00  0.00     0.028 A 
ATOM     14  N   UNL A   1      34.424  23.478  23.841  1.00  0.00    -0.280 N 
ATOM     15  C   UNL A   1      32.330  24.324  23.655  1.00  0.00     0.008 A 
ATOM     16  C   UNL A   1      33.662  24.502  23.253  1.00  0.00     0.057 A 
ATOM     17  C   UNL A   1      31.335  25.173  23.100  1.00  0.00     0.056 A 
ATOM     18  C   UNL A   1      34.009  25.570  22.393  1.00  0.00     0.031 A 
ATOM     19  C   UNL A   1      31.719  26.277  22.335  1.00  0.00     0.116 A 
ATOM     20  C   UNL A   1      33.037  26.480  21.981  1.00  0.00     0.048 A 
BRANCH  14  21
ATOM     21  C   UNL A   1      35.791  23.170  23.559  1.00  0.00     0.262 C 
ATOM     22  O   UNL A   1      36.171  23.113  22.391  1.00  0.00    -0.268 OA
BRANCH  21  23
ATOM     23  C   UNL A   1      36.849  22.968  24.567  1.00  0.00     0.040 A 
ATOM     24  C   UNL A   1      37.310  24.046  25.331  1.00  0.00     0.015 A 
ATOM     25  C   UNL A   1      37.374  21.683  24.752  1.00  0.00     0.015 A 
ATOM     26  C   UNL A   1      38.358  23.846  26.236  1.00  0.00     0.021 A 
ATOM     27  C   UNL A   1      38.413  21.488  25.667  1.00  0.00     0.021 A 
ATOM     28  C   UNL A   1      38.910  22.573  26.393  1.00  0.00     0.041 A 
ATOM     29  Cl  UNL A   1      40.224  22.337  27.480  1.00  0.00    -0.084 Cl
ENDBRANCH  21  23
ENDBRANCH  14  21
BRANCH  19  30
ATOM     30  O   UNL A   1      30.770  27.208  22.026  1.00  0.00    -0.508 OA
ATOM     31  H   UNL A   1      30.665  27.493  21.140  1.00  0.00     0.293 HD
ENDBRANCH  19  30
ENDBRANCH  10  11
ENDBRANCH   8  10
ENDBRANCH   7   8
ENDBRANCH   6   7
ENDBRANCH   5   6
ENDBRANCH   4   5
ENDBRANCH   3   4
ENDBRANCH   2   3
ENDBRANCH   1   2
BRANCH   1  32
ATOM     32  C   UNL A   1      31.251  31.178  25.934  1.00  0.00     0.188 C 
BRANCH  32  33
ATOM     33  C   UNL A   1      31.523  32.560  26.527  1.00  0.00     0.188 C 
BRANCH  33  34
ATOM     34  O   UNL A   1      32.335  32.752  27.691  1.00  0.00    -0.376 OA
BRANCH  34  35
ATOM     35  C   UNL A   1      33.041  33.965  27.902  1.00  0.00     0.202 C 
BRANCH  35  36
ATOM     36  C   UNL A   1      34.529  33.854  28.300  1.00  0.00     0.261 C 
BRANCH  36  37
ATOM     37  O   UNL A   1      34.812  32.807  29.234  1.00  0.00    -0.460 OA
BRANCH  37  38
ATOM     38  C   UNL A   1      34.970  31.546  28.759  1.00  0.00     0.338 C 
ATOM     39  O   UNL A   1      34.315  30.986  27.899  1.00  0.00    -0.246 OA
BRANCH  38  40
ATOM     40  C   UNL A   1      36.285  31.094  29.262  1.00  0.00     0.060 A 
ATOM     41  C   UNL A   1      37.376  31.969  29.303  1.00  0.00     0.016 A 
ATOM     42  C   UNL A   1      36.475  29.706  29.322  1.00  0.00     0.016 A 
ATOM     43  C   UNL A   1      38.660  31.437  29.206  1.00  0.00     0.010 A 
ATOM     44  C   UNL A   1      37.762  29.181  29.217  1.00  0.00     0.010 A 
ATOM     45  C   UNL A   1      38.850  30.046  29.083  1.00  0.00    -0.014 A 
BRANCH  45  46
ATOM     46  C   UNL A   1      40.233  29.548  29.056  1.00  0.00     0.031 A 
ATOM     47  C   UNL A   1      40.781  29.406  30.431  1.00  0.00     0.074 A 
ATOM     48  C   UNL A   1      40.934  29.089  27.997  1.00  0.00     0.049 A 
ATOM     49  N   UNL A   1      41.801  29.991  30.968  1.00  0.00    -0.248 NA
ATOM     50  C   UNL A   1      39.964  28.617  31.370  1.00  0.00     0.031 C 
ATOM     51  C   UNL A   1      40.454  28.840  26.637  1.00  0.00     0.029 A 
ATOM     52  N   UNL A   1      42.230  28.639  27.949  1.00  0.00    -0.354 N 
ATOM     53  C   UNL A   1      41.857  29.496  32.267  1.00  0.00     0.074 A 
ATOM     54  C   UNL A   1      40.616  28.811  32.512  1.00  0.00     0.031 C 
ATOM     55  C   UNL A   1      41.372  28.108  25.964  1.00  0.00     0.029 A 
ATOM     56  C   UNL A   1      42.544  27.910  26.804  1.00  0.00     0.049 A 
ATOM     57  H   UNL A   1      42.883  28.818  28.663  1.00  0.00     0.167 HD
ATOM     58  C   UNL A   1      43.004  29.469  32.994  1.00  0.00     0.037 A 
ATOM     59  C   UNL A   1      43.641  27.131  26.602  1.00  0.00     0.037 A 
ATOM     60  C   UNL A   1      43.995  30.372  32.482  1.00  0.00     0.049 A 
ATOM     61  C   UNL A   1      44.679  27.553  27.579  1.00  0.00     0.074 A 
ATOM     62  C   UNL A   1      44.087  31.741  32.341  1.00  0.00     0.029 A 
ATOM     63  N   UNL A   1      44.991  29.837  31.706  1.00  0.00    -0.354 N 
ATOM     64  N   UNL A   1      45.296  28.701  27.562  1.00  0.00    -0.248 NA
ATOM     65  C   UNL A   1      44.816  26.794  28.813  1.00  0.00     0.031 C 
ATOM     66  C   UNL A   1      44.875  31.951  31.173  1.00  0.00     0.029 A 
ATOM     67  C   UNL A   1      45.241  30.701  30.670  1.00  0.00     0.049 A 
ATOM     68  H   UNL A   1      45.449  28.980  31.866  1.00  0.00     0.167 HD
ATOM     69  C   UNL A   1      45.545  28.991  28.894  1.00  0.00     0.074 A 
ATOM     70  C   UNL A   1      45.352  27.730  29.597  1.00  0.00     0.031 C 
ATOM     71  C   UNL A   1      45.616  30.279  29.335  1.00  0.00     0.037 A 
BRANCH  58  72
ATOM     72  C   UNL A   1      43.316  28.358  33.960  1.00  0.00     0.058 A 
ATOM     73  C   UNL A   1      43.451  28.629  35.332  1.00  0.00     0.135 A 
ATOM     74  C   UNL A   1      43.726  27.069  33.544  1.00  0.00     0.135 A 
ATOM     75  F   UNL A   1      43.131  29.836  35.824  1.00  0.00    -0.206 F 
ATOM     76  C   UNL A   1      43.977  27.692  36.224  1.00  0.00     0.059 A 
ATOM     77  C   UNL A   1      44.190  26.101  34.422  1.00  0.00     0.059 A 
ATOM     78  F   UNL A   1      43.786  26.723  32.251  1.00  0.00    -0.206 F 
ATOM     79  C   UNL A   1      44.347  26.433  35.756  1.00  0.00     0.060 A 
BRANCH  79  80
ATOM     80  S   UNL A   1      45.111  25.254  36.883  1.00  0.00     0.124 S 
ATOM     81  O   UNL A   1      46.509  25.664  36.825  1.00  0.00    -0.237 OA
ATOM     82  O   UNL A   1      44.412  25.535  38.133  1.00  0.00    -0.237 OA
ATOM     83  O   UNL A   1      44.804  23.962  36.276  1.00  0.00    -0.744 OA
ENDBRANCH  79  80
ENDBRANCH  58  72
BRANCH  59  84
ATOM     84  C   UNL A   1      43.748  25.829  25.875  1.00  0.00     0.058 A 
ATOM     85  C   UNL A   1      44.870  25.535  25.072  1.00  0.00     0.135 A 
ATOM     86  C   UNL A   1      42.921  24.733  26.193  1.00  0.00     0.135 A 
ATOM     87  F   UNL A   1      45.720  26.509  24.715  1.00  0.00    -0.206 F 
ATOM     88  C   UNL A   1      45.200  24.227  24.691  1.00  0.00     0.059 A 
ATOM     89  C   UNL A   1      43.219  23.427  25.809  1.00  0.00     0.059 A 
ATOM     90  F   UNL A   1      41.846  24.878  26.980  1.00  0.00    -0.206 F 
ATOM     91  C   UNL A   1      44.382  23.174  25.095  1.00  0.00     0.060 A 
BRANCH  91  92
ATOM     92  S   UNL A   1      44.921  21.468  24.824  1.00  0.00     0.124 S 
ATOM     93  O   UNL A   1      44.109  20.736  25.789  1.00  0.00    -0.237 OA
ATOM     94  O   UNL A   1      44.586  21.261  23.419  1.00  0.00    -0.237 OA
ATOM     95  O   UNL A   1      46.351  21.516  25.119  1.00  0.00    -0.744 OA
ENDBRANCH  91  92
ENDBRANCH  59  84
BRANCH  71  96
ATOM     96  C   UNL A   1      45.865  31.365  28.319  1.00  0.00     0.058 A 
ATOM     97  C   UNL A   1      44.903  31.863  27.425  1.00  0.00     0.135 A 
ATOM     98  C   UNL A   1      47.108  32.023  28.354  1.00  0.00     0.135 A 
ATOM     99  F   UNL A   1      43.658  31.363  27.390  1.00  0.00    -0.206 F 
ATOM    100  C   UNL A   1      45.177  32.943  26.587  1.00  0.00     0.059 A 
ATOM    101  C   UNL A   1      47.383  33.133  27.559  1.00  0.00     0.059 A 
ATOM    102  F   UNL A   1      48.056  31.623  29.217  1.00  0.00    -0.206 F 
ATOM    103  C   UNL A   1      46.410  33.586  26.674  1.00  0.00     0.060 A 
BRANCH 103 104
ATOM    104  S   UNL A   1      46.684  35.073  25.688  1.00  0.00     0.124 S 
ATOM    105  O   UNL A   1      48.100  34.965  25.358  1.00  0.00    -0.237 OA
ATOM    106  O   UNL A   1      45.757  34.881  24.575  1.00  0.00    -0.237 OA
ATOM    107  O   UNL A   1      46.335  36.159  26.600  1.00  0.00    -0.744 OA
ENDBRANCH 103 104
ENDBRANCH  71  96
ENDBRANCH  45  46
ENDBRANCH  38  40
ENDBRANCH  37  38
ENDBRANCH  36  37
ENDBRANCH  35  36
ENDBRANCH  34  35
ENDBRANCH  33  34
ENDBRANCH  32  33
ENDBRANCH   1  32
TORSDOF 27
ENDMDL
MODEL 2
REMARK VINA RESULT:      -9.7      3.191      8.570
REMARK SMILES Cc1c(CC(=O)OCCOCCOCCOCCOC(=O)c2ccc(-c3c4nc(c(-c5c(F)cc(S(=O)(=O)[O-])cc5F)c5ccc([nH]5)c(-c5c(F)cc(S(=O)(=O)[O-])cc5F)c5nc(c(-c6c(F)cc(S(=O)(=O)[O-])cc6F)c6ccc3[nH]6)C=C5)C=C4)cc2)c2cc(O)ccc2n1C(=O)c1ccc(Cl)cc1
REMARK SMILES IDX 13 1 12 2 11 3 10 4 9 5 8 6 7 7 5 8 6 9 4 10 3 11 1 12 2 13
REMARK SMILES IDX 95 14 88 15 94 16 89 17 93 18 90 19 92 20 96 21 97 22 98 23
REMARK SMILES IDX 99 24 104 25 100 26 103 27 101 28 102 29 91 30 14 32 15 33
REMARK SMILES IDX 16 34 17 35 18 36 19 37 20 38 21 39 22 40 23 41 87 42 24 43
REMARK SMILES IDX 86 44 25 45 26 46 27 47 80 48 28 49 85 50 79 51 81 52 29 53
REMARK SMILES IDX 84 54 78 55 77 56 30 58 64 59 43 60 63 61 44 62 47 63 62 64
REMARK SMILES IDX 82 65 45 66 46 67 61 69 83 70 48 71 31 72 32 73 41 74 33 75
REMARK SMILES IDX 34 76 40 77 42 78 35 79 36 80 37 81 38 82 39 83 65 84 66 85
REMARK SMILES IDX 75 86 67 87 68 88 74 89 76 90 69 91 70 92 71 93 72 94 73 95
REMARK SMILES IDX 49 96 50 97 59 98 51 99 52 100 58 101 60 102 53 103 54 104
REMARK SMILES IDX 55 105 56 106 57 107
REMARK H PARENT 91 31 81 57 47 68
REMARK Flexibility Score: inf
ROOT
ATOM      1  O   UNL A   1      40.410  20.872  26.737  1.00  0.00    -0.377 OA
ENDROOT
BRANCH   1   2
ATOM      2  C   UNL A   1      39.661  21.807  26.017  1.00  0.00     0.188 C 
BRANCH   2   3
ATOM      3  C   UNL A   1      39.207  23.104  26.675  1.00  0.00     0.188 C 
BRANCH   3   4
ATOM      4  O   UNL A   1      38.270  23.885  25.976  1.00  0.00    -0.376 OA
BRANCH   4   5
ATOM      5  C   UNL A   1      36.929  23.489  25.746  1.00  0.00     0.202 C 
BRANCH   5   6
ATOM      6  C   UNL A   1      36.330  22.809  24.491  1.00  0.00     0.261 C 
BRANCH   6   7
ATOM      7  O   UNL A   1      35.708  21.518  24.575  1.00  0.00    -0.463 OA
BRANCH   7   8
ATOM      8  C   UNL A   1      34.545  21.445  25.262  1.00  0.00     0.310 C 
ATOM      9  O   UNL A   1      34.479  21.087  26.436  1.00  0.00    -0.252 OA
BRANCH   8  10
ATOM     10  C   UNL A   1      33.293  21.871  24.500  1.00  0.00     0.160 C 
BRANCH  10  11
ATOM     11  C   UNL A   1      32.805  23.312  24.522  1.00  0.00    -0.008 A 
ATOM     12  C   UNL A   1      32.261  23.566  27.044  1.00  0.00     0.065 C 
ATOM     13  C   UNL A   1      32.358  24.033  25.625  1.00  0.00     0.028 A 
ATOM     14  N   UNL A   1      32.008  25.337  25.235  1.00  0.00    -0.280 N 
ATOM     15  C   UNL A   1      32.825  24.244  23.426  1.00  0.00     0.008 A 
ATOM     16  C   UNL A   1      32.203  25.429  23.847  1.00  0.00     0.057 A 
ATOM     17  C   UNL A   1      33.234  24.136  22.070  1.00  0.00     0.056 A 
ATOM     18  C   UNL A   1      31.903  26.445  22.910  1.00  0.00     0.031 A 
ATOM     19  C   UNL A   1      32.836  25.110  21.150  1.00  0.00     0.116 A 
ATOM     20  C   UNL A   1      32.180  26.254  21.557  1.00  0.00     0.048 A 
BRANCH  14  21
ATOM     21  C   UNL A   1      31.573  26.388  26.101  1.00  0.00     0.262 C 
ATOM     22  O   UNL A   1      30.450  26.336  26.600  1.00  0.00    -0.268 OA
BRANCH  21  23
ATOM     23  C   UNL A   1      32.390  27.540  26.525  1.00  0.00     0.040 A 
ATOM     24  C   UNL A   1      31.777  28.685  27.048  1.00  0.00     0.015 A 
ATOM     25  C   UNL A   1      33.783  27.467  26.406  1.00  0.00     0.015 A 
ATOM     26  C   UNL A   1      32.565  29.791  27.385  1.00  0.00     0.021 A 
ATOM     27  C   UNL A   1      34.565  28.571  26.755  1.00  0.00     0.021 A 
ATOM     28  C   UNL A   1      33.951  29.733  27.229  1.00  0.00     0.041 A 
ATOM     29  Cl  UNL A   1      34.914  31.109  27.609  1.00  0.00    -0.084 Cl
ENDBRANCH  21  23
ENDBRANCH  14  21
BRANCH  19  30
ATOM     30  O   UNL A   1      33.026  24.858  19.822  1.00  0.00    -0.508 OA
ATOM     31  H   UNL A   1      32.388  24.367  19.343  1.00  0.00     0.293 HD
ENDBRANCH  19  30
ENDBRANCH  10  11
ENDBRANCH   8  10
ENDBRANCH   7   8
ENDBRANCH   6   7
ENDBRANCH   5   6
ENDBRANCH   4   5
ENDBRANCH   3   4
ENDBRANCH   2   3
ENDBRANCH   1   2
BRANCH   1  32
ATOM     32  C   UNL A   1      41.665  20.577  26.198  1.00  0.00     0.188 C 
BRANCH  32  33
ATOM     33  C   UNL A   1      41.988  19.086  26.284  1.00  0.00     0.188 C 
BRANCH  33  34
ATOM     34  O   UNL A   1      43.290  18.563  25.999  1.00  0.00    -0.376 OA
BRANCH  34  35
ATOM     35  C   UNL A   1      44.032  19.013  24.876  1.00  0.00     0.202 C 
BRANCH  35  36
ATOM     36  C   UNL A   1      45.508  19.398  25.115  1.00  0.00     0.261 C 
BRANCH  36  37
ATOM     37  O   UNL A   1      46.014  20.383  24.207  1.00  0.00    -0.460 OA
BRANCH  37  38
ATOM     38  C   UNL A   1      45.334  21.550  24.079  1.00  0.00     0.338 C 
ATOM     39  O   UNL A   1      44.345  21.765  23.402  1.00  0.00    -0.246 OA
BRANCH  38  40
ATOM     40  C   UNL A   1      45.839  22.424  25.160  1.00  0.00     0.060 A 
ATOM     41  C   UNL A   1      45.400  22.259  26.478  1.00  0.00     0.016 A 
ATOM     42  C   UNL A   1      46.446  23.619  24.749  1.00  0.00     0.016 A 
ATOM     43  C   UNL A   1      45.398  23.368  27.323  1.00  0.00     0.010 A 
ATOM     44  C   UNL A   1      46.433  24.726  25.596  1.00  0.00     0.010 A 
ATOM     45  C   UNL A   1      45.841  24.622  26.857  1.00  0.00    -0.014 A 
BRANCH  45  46
ATOM     46  C   UNL A   1      45.877  25.731  27.820  1.00  0.00     0.031 A 
ATOM     47  C   UNL A   1      44.524  26.318  28.016  1.00  0.00     0.074 A 
ATOM     48  C   UNL A   1      46.906  26.125  28.601  1.00  0.00     0.049 A 
ATOM     49  N   UNL A   1      44.117  27.523  27.788  1.00  0.00    -0.248 NA
ATOM     50  C   UNL A   1      43.456  25.365  28.362  1.00  0.00     0.031 C 
ATOM     51  C   UNL A   1      48.199  25.466  28.790  1.00  0.00     0.029 A 
ATOM     52  N   UNL A   1      46.964  27.171  29.489  1.00  0.00    -0.354 N 
ATOM     53  C   UNL A   1      42.770  27.520  28.142  1.00  0.00     0.074 A 
ATOM     54  C   UNL A   1      42.380  26.145  28.306  1.00  0.00     0.031 C 
ATOM     55  C   UNL A   1      48.822  26.003  29.866  1.00  0.00     0.029 A 
ATOM     56  C   UNL A   1      48.024  27.101  30.390  1.00  0.00     0.049 A 
ATOM     57  H   UNL A   1      46.311  27.907  29.489  1.00  0.00     0.167 HD
ATOM     58  C   UNL A   1      42.106  28.645  28.510  1.00  0.00     0.037 A 
ATOM     59  C   UNL A   1      48.184  27.831  31.527  1.00  0.00     0.037 A 
ATOM     60  C   UNL A   1      42.774  29.840  28.078  1.00  0.00     0.049 A 
ATOM     61  C   UNL A   1      47.321  29.036  31.415  1.00  0.00     0.074 A 
ATOM     62  C   UNL A   1      43.087  30.395  26.856  1.00  0.00     0.029 A 
ATOM     63  N   UNL A   1      43.528  30.508  29.009  1.00  0.00    -0.354 N 
ATOM     64  N   UNL A   1      47.510  30.013  30.574  1.00  0.00    -0.248 NA
ATOM     65  C   UNL A   1      46.012  29.008  32.050  1.00  0.00     0.031 C 
ATOM     66  C   UNL A   1      44.311  31.095  27.058  1.00  0.00     0.029 A 
ATOM     67  C   UNL A   1      44.673  30.950  28.398  1.00  0.00     0.049 A 
ATOM     68  H   UNL A   1      43.287  30.647  29.954  1.00  0.00     0.167 HD
ATOM     69  C   UNL A   1      46.238  30.469  30.266  1.00  0.00     0.074 A 
ATOM     70  C   UNL A   1      45.377  29.909  31.298  1.00  0.00     0.031 C 
ATOM     71  C   UNL A   1      45.964  31.029  29.054  1.00  0.00     0.037 A 
BRANCH  58  72
ATOM     72  C   UNL A   1      41.026  28.633  29.560  1.00  0.00     0.058 A 
ATOM     73  C   UNL A   1      39.679  28.484  29.189  1.00  0.00     0.135 A 
ATOM     74  C   UNL A   1      41.258  29.007  30.905  1.00  0.00     0.135 A 
ATOM     75  F   UNL A   1      39.349  28.173  27.926  1.00  0.00    -0.206 F 
ATOM     76  C   UNL A   1      38.635  28.711  30.087  1.00  0.00     0.059 A 
ATOM     77  C   UNL A   1      40.239  29.175  31.831  1.00  0.00     0.059 A 
ATOM     78  F   UNL A   1      42.479  29.321  31.357  1.00  0.00    -0.206 F 
ATOM     79  C   UNL A   1      38.928  29.061  31.404  1.00  0.00     0.060 A 
BRANCH  79  80
ATOM     80  S   UNL A   1      37.585  29.446  32.542  1.00  0.00     0.124 S 
ATOM     81  O   UNL A   1      37.420  28.173  33.234  1.00  0.00    -0.237 OA
ATOM     82  O   UNL A   1      38.157  30.534  33.328  1.00  0.00    -0.237 OA
ATOM     83  O   UNL A   1      36.492  29.830  31.653  1.00  0.00    -0.744 OA
ENDBRANCH  79  80
ENDBRANCH  58  72
BRANCH  59  84
ATOM     84  C   UNL A   1      48.750  27.404  32.845  1.00  0.00     0.058 A 
ATOM     85  C   UNL A   1      49.971  27.933  33.316  1.00  0.00     0.135 A 
ATOM     86  C   UNL A   1      47.970  26.724  33.800  1.00  0.00     0.135 A 
ATOM     87  F   UNL A   1      50.785  28.600  32.484  1.00  0.00    -0.206 F 
ATOM     88  C   UNL A   1      50.346  27.871  34.665  1.00  0.00     0.059 A 
ATOM     89  C   UNL A   1      48.332  26.633  35.143  1.00  0.00     0.059 A 
ATOM     90  F   UNL A   1      46.774  26.211  33.484  1.00  0.00    -0.206 F 
ATOM     91  C   UNL A   1      49.500  27.246  35.578  1.00  0.00     0.060 A 
BRANCH  91  92
ATOM     92  S   UNL A   1      49.847  27.371  37.350  1.00  0.00     0.124 S 
ATOM     93  O   UNL A   1      49.548  28.772  37.619  1.00  0.00    -0.237 OA
ATOM     94  O   UNL A   1      48.915  26.399  37.913  1.00  0.00    -0.237 OA
ATOM     95  O   UNL A   1      51.257  27.003  37.443  1.00  0.00    -0.744 OA
ENDBRANCH  91  92
ENDBRANCH  59  84
BRANCH  71  96
ATOM     96  C   UNL A   1      47.117  31.551  28.234  1.00  0.00     0.058 A 
ATOM     97  C   UNL A   1      47.667  32.838  28.352  1.00  0.00     0.135 A 
ATOM     98  C   UNL A   1      47.781  30.646  27.386  1.00  0.00     0.135 A 
ATOM     99  F   UNL A   1      47.161  33.737  29.210  1.00  0.00    -0.206 F 
ATOM    100  C   UNL A   1      48.803  33.213  27.635  1.00  0.00     0.059 A 
ATOM    101  C   UNL A   1      48.943  30.987  26.700  1.00  0.00     0.059 A 
ATOM    102  F   UNL A   1      47.330  29.387  27.262  1.00  0.00    -0.206 F 
ATOM    103  C   UNL A   1      49.447  32.277  26.828  1.00  0.00     0.060 A 
BRANCH 103 104
ATOM    104  S   UNL A   1      51.000  32.743  26.032  1.00  0.00     0.124 S 
ATOM    105  O   UNL A   1      50.563  33.758  25.080  1.00  0.00    -0.237 OA
ATOM    106  O   UNL A   1      51.791  33.230  27.159  1.00  0.00    -0.237 OA
ATOM    107  O   UNL A   1      51.470  31.493  25.442  1.00  0.00    -0.744 OA
ENDBRANCH 103 104
ENDBRANCH  71  96
ENDBRANCH  45  46
ENDBRANCH  38  40
ENDBRANCH  37  38
ENDBRANCH  36  37
ENDBRANCH  35  36
ENDBRANCH  34  35
ENDBRANCH  33  34
ENDBRANCH  32  33
ENDBRANCH   1  32
TORSDOF 27
ENDMDL
MODEL 3
REMARK VINA RESULT:      -9.5      2.720      9.641
REMARK SMILES Cc1c(CC(=O)OCCOCCOCCOCCOC(=O)c2ccc(-c3c4nc(c(-c5c(F)cc(S(=O)(=O)[O-])cc5F)c5ccc([nH]5)c(-c5c(F)cc(S(=O)(=O)[O-])cc5F)c5nc(c(-c6c(F)cc(S(=O)(=O)[O-])cc6F)c6ccc3[nH]6)C=C5)C=C4)cc2)c2cc(O)ccc2n1C(=O)c1ccc(Cl)cc1
REMARK SMILES IDX 13 1 12 2 11 3 10 4 9 5 8 6 7 7 5 8 6 9 4 10 3 11 1 12 2 13
REMARK SMILES IDX 95 14 88 15 94 16 89 17 93 18 90 19 92 20 96 21 97 22 98 23
REMARK SMILES IDX 99 24 104 25 100 26 103 27 101 28 102 29 91 30 14 32 15 33
REMARK SMILES IDX 16 34 17 35 18 36 19 37 20 38 21 39 22 40 23 41 87 42 24 43
REMARK SMILES IDX 86 44 25 45 26 46 27 47 80 48 28 49 85 50 79 51 81 52 29 53
REMARK SMILES IDX 84 54 78 55 77 56 30 58 64 59 43 60 63 61 44 62 47 63 62 64
REMARK SMILES IDX 82 65 45 66 46 67 61 69 83 70 48 71 31 72 32 73 41 74 33 75
REMARK SMILES IDX 34 76 40 77 42 78 35 79 36 80 37 81 38 82 39 83 65 84 66 85
REMARK SMILES IDX 75 86 67 87 68 88 74 89 76 90 69 91 70 92 71 93 72 94 73 95
REMARK SMILES IDX 49 96 50 97 59 98 51 99 52 100 58 101 60 102 53 103 54 104
REMARK SMILES IDX 55 105 56 106 57 107
REMARK H PARENT 91 31 81 57 47 68
REMARK Flexibility Score: inf
ROOT
ATOM      1  O   UNL A   1      40.313  20.954  26.696  1.00  0.00    -0.377 OA
ENDROOT
BRANCH   1   2
ATOM      2  C   UNL A   1      39.304  21.662  26.035  1.00  0.00     0.188 C 
BRANCH   2   3
ATOM      3  C   UNL A   1      38.797  22.986  26.595  1.00  0.00     0.188 C 
BRANCH   3   4
ATOM      4  O   UNL A   1      37.818  23.665  25.850  1.00  0.00    -0.376 OA
BRANCH   4   5
ATOM      5  C   UNL A   1      36.447  23.307  25.840  1.00  0.00     0.202 C 
BRANCH   5   6
ATOM      6  C   UNL A   1      35.694  22.414  24.824  1.00  0.00     0.261 C 
BRANCH   6   7
ATOM      7  O   UNL A   1      34.877  21.319  25.264  1.00  0.00    -0.463 OA
BRANCH   7   8
ATOM      8  C   UNL A   1      33.745  21.634  25.936  1.00  0.00     0.310 C 
ATOM      9  O   UNL A   1      33.682  21.679  27.162  1.00  0.00    -0.252 OA
BRANCH   8  10
ATOM     10  C   UNL A   1      32.532  21.972  25.074  1.00  0.00     0.160 C 
BRANCH  10  11
ATOM     11  C   UNL A   1      32.286  23.389  24.573  1.00  0.00    -0.008 A 
ATOM     12  C   UNL A   1      31.437  24.497  26.758  1.00  0.00     0.065 C 
ATOM     13  C   UNL A   1      31.809  24.470  25.307  1.00  0.00     0.028 A 
ATOM     14  N   UNL A   1      31.735  25.609  24.488  1.00  0.00    -0.280 N 
ATOM     15  C   UNL A   1      32.613  23.910  23.273  1.00  0.00     0.008 A 
ATOM     16  C   UNL A   1      32.138  25.228  23.198  1.00  0.00     0.057 A 
ATOM     17  C   UNL A   1      33.188  23.328  22.112  1.00  0.00     0.056 A 
ATOM     18  C   UNL A   1      32.143  25.916  21.961  1.00  0.00     0.031 A 
ATOM     19  C   UNL A   1      33.088  23.991  20.887  1.00  0.00     0.116 A 
ATOM     20  C   UNL A   1      32.576  25.270  20.804  1.00  0.00     0.048 A 
BRANCH  14  21
ATOM     21  C   UNL A   1      31.357  26.924  24.904  1.00  0.00     0.262 C 
ATOM     22  O   UNL A   1      30.235  27.347  24.632  1.00  0.00    -0.268 OA
BRANCH  21  23
ATOM     23  C   UNL A   1      32.186  27.836  25.714  1.00  0.00     0.040 A 
ATOM     24  C   UNL A   1      31.642  28.478  26.833  1.00  0.00     0.015 A 
ATOM     25  C   UNL A   1      33.523  28.041  25.353  1.00  0.00     0.015 A 
ATOM     26  C   UNL A   1      32.426  29.388  27.549  1.00  0.00     0.021 A 
ATOM     27  C   UNL A   1      34.304  28.943  26.080  1.00  0.00     0.021 A 
ATOM     28  C   UNL A   1      33.748  29.623  27.166  1.00  0.00     0.041 A 
ATOM     29  Cl  UNL A   1      34.699  30.771  28.027  1.00  0.00    -0.084 Cl
ENDBRANCH  21  23
ENDBRANCH  14  21
BRANCH  19  30
ATOM     30  O   UNL A   1      33.422  23.307  19.754  1.00  0.00    -0.508 OA
ATOM     31  H   UNL A   1      32.788  22.761  19.333  1.00  0.00     0.293 HD
ENDBRANCH  19  30
ENDBRANCH  10  11
ENDBRANCH   8  10
ENDBRANCH   7   8
ENDBRANCH   6   7
ENDBRANCH   5   6
ENDBRANCH   4   5
ENDBRANCH   3   4
ENDBRANCH   2   3
ENDBRANCH   1   2
BRANCH   1  32
ATOM     32  C   UNL A   1      41.601  21.148  26.191  1.00  0.00     0.188 C 
BRANCH  32  33
ATOM     33  C   UNL A   1      42.361  19.831  26.043  1.00  0.00     0.188 C 
BRANCH  33  34
ATOM     34  O   UNL A   1      43.776  19.779  25.829  1.00  0.00    -0.376 OA
BRANCH  34  35
ATOM     35  C   UNL A   1      44.438  20.766  25.053  1.00  0.00     0.202 C 
BRANCH  35  36
ATOM     36  C   UNL A   1      45.226  21.852  25.818  1.00  0.00     0.261 C 
BRANCH  36  37
ATOM     37  O   UNL A   1      45.104  23.167  25.266  1.00  0.00    -0.460 OA
BRANCH  37  38
ATOM     38  C   UNL A   1      43.872  23.598  24.895  1.00  0.00     0.338 C 
ATOM     39  O   UNL A   1      43.219  23.247  23.929  1.00  0.00    -0.246 OA
BRANCH  38  40
ATOM     40  C   UNL A   1      43.345  24.342  26.060  1.00  0.00     0.060 A 
ATOM     41  C   UNL A   1      42.261  25.215  25.920  1.00  0.00     0.016 A 
ATOM     42  C   UNL A   1      44.196  24.424  27.171  1.00  0.00     0.016 A 
ATOM     43  C   UNL A   1      42.154  26.290  26.800  1.00  0.00     0.010 A 
ATOM     44  C   UNL A   1      44.088  25.507  28.042  1.00  0.00     0.010 A 
ATOM     45  C   UNL A   1      43.115  26.482  27.814  1.00  0.00    -0.014 A 
BRANCH  45  46
ATOM     46  C   UNL A   1      42.904  27.595  28.750  1.00  0.00     0.031 A 
ATOM     47  C   UNL A   1      43.920  28.664  28.552  1.00  0.00     0.074 A 
ATOM     48  C   UNL A   1      41.864  27.796  29.587  1.00  0.00     0.049 A 
ATOM     49  N   UNL A   1      44.796  29.121  29.384  1.00  0.00    -0.248 NA
ATOM     50  C   UNL A   1      44.065  29.164  27.174  1.00  0.00     0.031 C 
ATOM     51  C   UNL A   1      40.619  27.033  29.678  1.00  0.00     0.029 A 
ATOM     52  N   UNL A   1      41.661  28.818  30.481  1.00  0.00    -0.354 N 
ATOM     53  C   UNL A   1      45.485  30.103  28.678  1.00  0.00     0.074 A 
ATOM     54  C   UNL A   1      45.125  29.958  27.293  1.00  0.00     0.031 C 
ATOM     55  C   UNL A   1      39.722  27.726  30.419  1.00  0.00     0.029 A 
ATOM     56  C   UNL A   1      40.348  28.934  30.933  1.00  0.00     0.049 A 
ATOM     57  H   UNL A   1      42.382  29.418  30.778  1.00  0.00     0.167 HD
ATOM     58  C   UNL A   1      46.130  31.130  29.290  1.00  0.00     0.037 A 
ATOM     59  C   UNL A   1      39.800  29.986  31.599  1.00  0.00     0.037 A 
ATOM     60  C   UNL A   1      46.401  30.858  30.673  1.00  0.00     0.049 A 
ATOM     61  C   UNL A   1      40.912  30.772  32.195  1.00  0.00     0.074 A 
ATOM     62  C   UNL A   1      47.169  29.938  31.353  1.00  0.00     0.029 A 
ATOM     63  N   UNL A   1      45.557  31.415  31.598  1.00  0.00    -0.354 N 
ATOM     64  N   UNL A   1      41.684  30.360  33.160  1.00  0.00    -0.248 NA
ATOM     65  C   UNL A   1      41.390  31.945  31.477  1.00  0.00     0.031 C 
ATOM     66  C   UNL A   1      46.478  29.693  32.574  1.00  0.00     0.029 A 
ATOM     67  C   UNL A   1      45.333  30.491  32.587  1.00  0.00     0.049 A 
ATOM     68  H   UNL A   1      45.178  32.324  31.560  1.00  0.00     0.167 HD
ATOM     69  C   UNL A   1      42.913  30.949  32.910  1.00  0.00     0.074 A 
ATOM     70  C   UNL A   1      42.634  32.009  31.950  1.00  0.00     0.031 C 
ATOM     71  C   UNL A   1      44.075  30.348  33.293  1.00  0.00     0.037 A 
BRANCH  58  72
ATOM     72  C   UNL A   1      46.195  32.508  28.688  1.00  0.00     0.058 A 
ATOM     73  C   UNL A   1      47.438  33.098  28.401  1.00  0.00     0.135 A 
ATOM     74  C   UNL A   1      45.073  33.367  28.607  1.00  0.00     0.135 A 
ATOM     75  F   UNL A   1      48.570  32.382  28.491  1.00  0.00    -0.206 F 
ATOM     76  C   UNL A   1      47.559  34.451  28.079  1.00  0.00     0.059 A 
ATOM     77  C   UNL A   1      45.162  34.697  28.226  1.00  0.00     0.059 A 
ATOM     78  F   UNL A   1      43.849  32.976  28.990  1.00  0.00    -0.206 F 
ATOM     79  C   UNL A   1      46.413  35.242  27.999  1.00  0.00     0.060 A 
BRANCH  79  80
ATOM     80  S   UNL A   1      46.571  37.006  27.675  1.00  0.00     0.124 S 
ATOM     81  O   UNL A   1      46.302  37.062  26.243  1.00  0.00    -0.237 OA
ATOM     82  O   UNL A   1      45.541  37.566  28.544  1.00  0.00    -0.237 OA
ATOM     83  O   UNL A   1      47.945  37.299  28.074  1.00  0.00    -0.744 OA
ENDBRANCH  79  80
ENDBRANCH  58  72
BRANCH  59  84
ATOM     84  C   UNL A   1      38.424  30.562  31.477  1.00  0.00     0.058 A 
ATOM     85  C   UNL A   1      37.556  30.612  32.588  1.00  0.00     0.135 A 
ATOM     86  C   UNL A   1      38.048  31.349  30.371  1.00  0.00     0.135 A 
ATOM     87  F   UNL A   1      37.827  29.898  33.691  1.00  0.00    -0.206 F 
ATOM     88  C   UNL A   1      36.442  31.460  32.633  1.00  0.00     0.059 A 
ATOM     89  C   UNL A   1      36.933  32.186  30.387  1.00  0.00     0.059 A 
ATOM     90  F   UNL A   1      38.810  31.415  29.272  1.00  0.00    -0.206 F 
ATOM     91  C   UNL A   1      36.158  32.270  31.536  1.00  0.00     0.060 A 
BRANCH  91  92
ATOM     92  S   UNL A   1      34.877  33.541  31.669  1.00  0.00     0.124 S 
ATOM     93  O   UNL A   1      35.532  34.545  32.500  1.00  0.00    -0.237 OA
ATOM     94  O   UNL A   1      34.664  33.908  30.273  1.00  0.00    -0.237 OA
ATOM     95  O   UNL A   1      33.766  32.834  32.301  1.00  0.00    -0.744 OA
ENDBRANCH  91  92
ENDBRANCH  59  84
BRANCH  71  96
ATOM     96  C   UNL A   1      44.007  29.286  34.362  1.00  0.00     0.058 A 
ATOM     97  C   UNL A   1      44.072  29.533  35.743  1.00  0.00     0.135 A 
ATOM     98  C   UNL A   1      43.724  27.969  33.960  1.00  0.00     0.135 A 
ATOM     99  F   UNL A   1      44.240  30.775  36.223  1.00  0.00    -0.206 F 
ATOM    100  C   UNL A   1      43.894  28.511  36.675  1.00  0.00     0.059 A 
ATOM    101  C   UNL A   1      43.496  26.945  34.875  1.00  0.00     0.059 A 
ATOM    102  F   UNL A   1      43.606  27.675  32.654  1.00  0.00    -0.206 F 
ATOM    103  C   UNL A   1      43.586  27.225  36.235  1.00  0.00     0.060 A 
BRANCH 103 104
ATOM    104  S   UNL A   1      43.211  25.956  37.463  1.00  0.00     0.124 S 
ATOM    105  O   UNL A   1      44.136  24.891  37.095  1.00  0.00    -0.237 OA
ATOM    106  O   UNL A   1      43.504  26.644  38.718  1.00  0.00    -0.237 OA
ATOM    107  O   UNL A   1      41.798  25.664  37.234  1.00  0.00    -0.744 OA
ENDBRANCH 103 104
ENDBRANCH  71  96
ENDBRANCH  45  46
ENDBRANCH  38  40
ENDBRANCH  37  38
ENDBRANCH  36  37
ENDBRANCH  35  36
ENDBRANCH  34  35
ENDBRANCH  33  34
ENDBRANCH  32  33
ENDBRANCH   1  32
TORSDOF 27
ENDMDL
