MODEL 1
REMARK VINA RESULT:      -9.7      0.000      0.000
REMARK SMILES C[C@H]1[C@H](C(=O)OCCOCCOCCOCCOC(=O)c2ccc(-c3c4nc(c(-c5c(F)cc(S(=O)(=O)[O-])cc5F)c5ccc([nH]5)c(-c5c(F)cc(S(=O)(=O)[O-])cc5F)c5nc(c(-c6c(F)cc(S(=O)(=O)[O-])cc6F)c6ccc3[nH]6)C=C5)C=C4)cc2)CCN1C(=O)Nc1ccc(F)c(Cl)c1
REMARK SMILES IDX 13 1 12 2 11 3 10 4 9 5 8 6 7 7 6 8 4 9 5 10 3 11 1 12 2 13
REMARK SMILES IDX 89 14 87 15 88 16 90 17 91 18 92 19 93 21 94 22 100 23 95 24
REMARK SMILES IDX 98 25 96 26 99 27 97 28 14 29 15 30 16 31 17 32 18 33 19 34
REMARK SMILES IDX 20 35 21 36 22 37 86 38 23 39 85 40 24 41 25 42 26 43 79 44
REMARK SMILES IDX 27 45 84 46 78 47 80 48 28 49 83 50 77 51 76 52 29 54 63 55
REMARK SMILES IDX 42 56 62 57 43 58 46 59 61 60 81 61 44 62 45 63 60 65 82 66
REMARK SMILES IDX 47 67 30 68 31 69 40 70 32 71 33 72 39 73 41 74 34 75 35 76
REMARK SMILES IDX 36 77 37 78 38 79 64 80 65 81 74 82 66 83 67 84 73 85 75 86
REMARK SMILES IDX 68 87 69 88 70 89 71 90 72 91 48 92 49 93 58 94 50 95 51 96
REMARK SMILES IDX 57 97 59 98 52 99 53 100 54 101 55 102 56 103
REMARK H PARENT 92 20 80 53 46 64
REMARK Flexibility Score: inf
ROOT
ATOM      1  C   UNL A   1      33.937  34.165  29.434  1.00  0.00     0.188 C 
ENDROOT
BRANCH   1   2
ATOM      2  O   UNL A   1      34.666  33.334  28.551  1.00  0.00    -0.377 OA
BRANCH   2   3
ATOM      3  C   UNL A   1      33.994  32.221  27.998  1.00  0.00     0.188 C 
BRANCH   3   4
ATOM      4  C   UNL A   1      34.871  30.957  27.862  1.00  0.00     0.188 C 
BRANCH   4   5
ATOM      5  O   UNL A   1      34.374  29.779  27.226  1.00  0.00    -0.376 OA
BRANCH   5   6
ATOM      6  C   UNL A   1      33.287  29.903  26.323  1.00  0.00     0.202 C 
BRANCH   6   7
ATOM      7  C   UNL A   1      32.027  29.162  26.801  1.00  0.00     0.261 C 
BRANCH   7   8
ATOM      8  O   UNL A   1      32.233  27.791  27.212  1.00  0.00    -0.463 OA
BRANCH   8   9
ATOM      9  C   UNL A   1      31.853  26.849  26.313  1.00  0.00     0.311 C 
ATOM     10  O   UNL A   1      30.693  26.497  26.112  1.00  0.00    -0.252 OA
BRANCH   9  11
ATOM     11  C   UNL A   1      33.012  26.108  25.679  1.00  0.00     0.123 C 
ATOM     12  C   UNL A   1      33.578  23.823  26.529  1.00  0.00     0.032 C 
ATOM     13  C   UNL A   1      32.919  24.589  25.375  1.00  0.00     0.098 C 
ATOM     14  N   UNL A   1      33.623  24.417  24.083  1.00  0.00    -0.321 N 
ATOM     15  C   UNL A   1      33.289  26.751  24.330  1.00  0.00     0.039 C 
ATOM     16  C   UNL A   1      34.102  25.706  23.608  1.00  0.00     0.122 C 
BRANCH  14  17
ATOM     17  C   UNL A   1      34.007  23.329  23.350  1.00  0.00     0.322 C 
ATOM     18  O   UNL A   1      33.223  22.791  22.557  1.00  0.00    -0.248 OA
ATOM     19  N   UNL A   1      35.281  22.889  23.280  1.00  0.00    -0.308 N 
ATOM     20  H   UNL A   1      35.519  22.575  22.378  1.00  0.00     0.171 HD
BRANCH  19  21
ATOM     21  C   UNL A   1      36.341  22.774  24.177  1.00  0.00     0.044 A 
ATOM     22  C   UNL A   1      36.919  21.502  24.325  1.00  0.00     0.029 A 
ATOM     23  C   UNL A   1      36.759  23.820  24.985  1.00  0.00     0.049 A 
ATOM     24  C   UNL A   1      37.981  21.302  25.208  1.00  0.00     0.043 A 
ATOM     25  C   UNL A   1      37.767  23.596  25.922  1.00  0.00     0.078 A 
ATOM     26  C   UNL A   1      38.405  22.357  26.004  1.00  0.00     0.141 A 
ATOM     27  Cl  UNL A   1      38.115  24.856  27.022  1.00  0.00    -0.081 Cl
ATOM     28  F   UNL A   1      39.413  22.149  26.863  1.00  0.00    -0.205 F 
ENDBRANCH  19  21
ENDBRANCH  14  17
ENDBRANCH   9  11
ENDBRANCH   8   9
ENDBRANCH   7   8
ENDBRANCH   6   7
ENDBRANCH   5   6
ENDBRANCH   4   5
ENDBRANCH   3   4
ENDBRANCH   2   3
ENDBRANCH   1   2
BRANCH   1  29
ATOM     29  C   UNL A   1      34.597  34.580  30.756  1.00  0.00     0.188 C 
BRANCH  29  30
ATOM     30  O   UNL A   1      34.229  33.904  31.938  1.00  0.00    -0.376 OA
BRANCH  30  31
ATOM     31  C   UNL A   1      34.468  32.536  32.211  1.00  0.00     0.202 C 
BRANCH  31  32
ATOM     32  C   UNL A   1      35.813  31.904  32.581  1.00  0.00     0.261 C 
BRANCH  32  33
ATOM     33  O   UNL A   1      36.825  31.940  31.583  1.00  0.00    -0.460 OA
BRANCH  33  34
ATOM     34  C   UNL A   1      38.083  32.052  32.072  1.00  0.00     0.338 C 
ATOM     35  O   UNL A   1      38.434  32.630  33.089  1.00  0.00    -0.246 OA
BRANCH  34  36
ATOM     36  C   UNL A   1      38.985  31.208  31.281  1.00  0.00     0.060 A 
ATOM     37  C   UNL A   1      39.973  30.492  31.964  1.00  0.00     0.016 A 
ATOM     38  C   UNL A   1      38.895  31.161  29.889  1.00  0.00     0.016 A 
ATOM     39  C   UNL A   1      40.909  29.758  31.246  1.00  0.00     0.010 A 
ATOM     40  C   UNL A   1      39.822  30.402  29.171  1.00  0.00     0.010 A 
ATOM     41  C   UNL A   1      40.871  29.748  29.844  1.00  0.00    -0.014 A 
BRANCH  41  42
ATOM     42  C   UNL A   1      42.083  29.300  29.114  1.00  0.00     0.031 A 
ATOM     43  C   UNL A   1      43.214  30.285  28.959  1.00  0.00     0.074 A 
ATOM     44  C   UNL A   1      42.231  28.027  28.705  1.00  0.00     0.049 A 
ATOM     45  N   UNL A   1      44.410  30.105  28.464  1.00  0.00    -0.248 NA
ATOM     46  C   UNL A   1      42.960  31.660  29.425  1.00  0.00     0.031 C 
ATOM     47  C   UNL A   1      41.222  26.974  28.816  1.00  0.00     0.029 A 
ATOM     48  N   UNL A   1      43.307  27.400  28.127  1.00  0.00    -0.354 N 
ATOM     49  C   UNL A   1      45.046  31.338  28.560  1.00  0.00     0.074 A 
ATOM     50  C   UNL A   1      44.086  32.273  29.099  1.00  0.00     0.031 C 
ATOM     51  C   UNL A   1      41.735  25.827  28.336  1.00  0.00     0.029 A 
ATOM     52  C   UNL A   1      43.101  26.065  27.872  1.00  0.00     0.049 A 
ATOM     53  H   UNL A   1      44.150  27.863  27.915  1.00  0.00     0.167 HD
ATOM     54  C   UNL A   1      46.324  31.662  28.262  1.00  0.00     0.037 A 
ATOM     55  C   UNL A   1      43.925  25.144  27.333  1.00  0.00     0.037 A 
ATOM     56  C   UNL A   1      47.288  30.732  27.741  1.00  0.00     0.049 A 
ATOM     57  C   UNL A   1      45.335  25.539  26.963  1.00  0.00     0.074 A 
ATOM     58  C   UNL A   1      48.613  30.959  27.421  1.00  0.00     0.029 A 
ATOM     59  N   UNL A   1      47.027  29.399  27.466  1.00  0.00    -0.354 N 
ATOM     60  N   UNL A   1      45.933  26.701  27.097  1.00  0.00    -0.248 NA
ATOM     61  C   UNL A   1      46.188  24.492  26.382  1.00  0.00     0.031 C 
ATOM     62  C   UNL A   1      49.144  29.772  26.904  1.00  0.00     0.029 A 
ATOM     63  C   UNL A   1      48.164  28.793  26.958  1.00  0.00     0.049 A 
ATOM     64  H   UNL A   1      46.164  28.949  27.610  1.00  0.00     0.167 HD
ATOM     65  C   UNL A   1      47.239  26.513  26.650  1.00  0.00     0.074 A 
ATOM     66  C   UNL A   1      47.346  25.124  26.254  1.00  0.00     0.031 C 
ATOM     67  C   UNL A   1      48.258  27.405  26.577  1.00  0.00     0.037 A 
BRANCH  54  68
ATOM     68  C   UNL A   1      46.740  33.090  28.480  1.00  0.00     0.058 A 
ATOM     69  C   UNL A   1      46.706  34.036  27.443  1.00  0.00     0.135 A 
ATOM     70  C   UNL A   1      47.181  33.516  29.742  1.00  0.00     0.135 A 
ATOM     71  F   UNL A   1      46.320  33.675  26.209  1.00  0.00    -0.206 F 
ATOM     72  C   UNL A   1      47.124  35.347  27.642  1.00  0.00     0.059 A 
ATOM     73  C   UNL A   1      47.574  34.830  29.972  1.00  0.00     0.059 A 
ATOM     74  F   UNL A   1      47.241  32.649  30.765  1.00  0.00    -0.206 F 
ATOM     75  C   UNL A   1      47.557  35.734  28.911  1.00  0.00     0.060 A 
BRANCH  75  76
ATOM     76  S   UNL A   1      48.094  37.439  29.156  1.00  0.00     0.124 S 
ATOM     77  O   UNL A   1      48.622  37.386  30.515  1.00  0.00    -0.237 OA
ATOM     78  O   UNL A   1      49.086  37.608  28.098  1.00  0.00    -0.237 OA
ATOM     79  O   UNL A   1      46.867  38.211  28.988  1.00  0.00    -0.744 OA
ENDBRANCH  75  76
ENDBRANCH  54  68
BRANCH  55  80
ATOM     80  C   UNL A   1      43.453  23.748  27.117  1.00  0.00     0.058 A 
ATOM     81  C   UNL A   1      43.116  23.281  25.838  1.00  0.00     0.135 A 
ATOM     82  C   UNL A   1      43.301  22.862  28.195  1.00  0.00     0.135 A 
ATOM     83  F   UNL A   1      43.231  24.092  24.776  1.00  0.00    -0.206 F 
ATOM     84  C   UNL A   1      42.627  21.994  25.635  1.00  0.00     0.059 A 
ATOM     85  C   UNL A   1      42.839  21.562  28.014  1.00  0.00     0.059 A 
ATOM     86  F   UNL A   1      43.614  23.256  29.439  1.00  0.00    -0.206 F 
ATOM     87  C   UNL A   1      42.492  21.139  26.732  1.00  0.00     0.060 A 
BRANCH  87  88
ATOM     88  S   UNL A   1      41.893  19.458  26.454  1.00  0.00     0.124 S 
ATOM     89  O   UNL A   1      42.346  19.207  25.091  1.00  0.00    -0.237 OA
ATOM     90  O   UNL A   1      42.578  18.712  27.504  1.00  0.00    -0.237 OA
ATOM     91  O   UNL A   1      40.448  19.586  26.626  1.00  0.00    -0.744 OA
ENDBRANCH  87  88
ENDBRANCH  55  80
BRANCH  67  92
ATOM     92  C   UNL A   1      49.592  26.904  26.094  1.00  0.00     0.058 A 
ATOM     93  C   UNL A   1      50.013  27.076  24.766  1.00  0.00     0.135 A 
ATOM     94  C   UNL A   1      50.482  26.283  26.987  1.00  0.00     0.135 A 
ATOM     95  F   UNL A   1      49.205  27.666  23.871  1.00  0.00    -0.206 F 
ATOM     96  C   UNL A   1      51.253  26.615  24.331  1.00  0.00     0.059 A 
ATOM     97  C   UNL A   1      51.738  25.842  26.582  1.00  0.00     0.059 A 
ATOM     98  F   UNL A   1      50.138  26.109  28.273  1.00  0.00    -0.206 F 
ATOM     99  C   UNL A   1      52.106  25.997  25.246  1.00  0.00     0.060 A 
BRANCH  99 100
ATOM    100  S   UNL A   1      53.715  25.409  24.673  1.00  0.00     0.124 S 
ATOM    101  O   UNL A   1      53.691  24.018  25.110  1.00  0.00    -0.237 OA
ATOM    102  O   UNL A   1      53.630  25.623  23.232  1.00  0.00    -0.237 OA
ATOM    103  O   UNL A   1      54.662  26.271  25.374  1.00  0.00    -0.744 OA
ENDBRANCH  99 100
ENDBRANCH  67  92
ENDBRANCH  41  42
ENDBRANCH  34  36
ENDBRANCH  33  34
ENDBRANCH  32  33
ENDBRANCH  31  32
ENDBRANCH  30  31
ENDBRANCH  29  30
ENDBRANCH   1  29
TORSDOF 25
ENDMDL
MODEL 2
REMARK VINA RESULT:      -8.8      3.916      8.791
REMARK SMILES C[C@H]1[C@H](C(=O)OCCOCCOCCOCCOC(=O)c2ccc(-c3c4nc(c(-c5c(F)cc(S(=O)(=O)[O-])cc5F)c5ccc([nH]5)c(-c5c(F)cc(S(=O)(=O)[O-])cc5F)c5nc(c(-c6c(F)cc(S(=O)(=O)[O-])cc6F)c6ccc3[nH]6)C=C5)C=C4)cc2)CCN1C(=O)Nc1ccc(F)c(Cl)c1
REMARK SMILES IDX 13 1 12 2 11 3 10 4 9 5 8 6 7 7 6 8 4 9 5 10 3 11 1 12 2 13
REMARK SMILES IDX 89 14 87 15 88 16 90 17 91 18 92 19 93 21 94 22 100 23 95 24
REMARK SMILES IDX 98 25 96 26 99 27 97 28 14 29 15 30 16 31 17 32 18 33 19 34
REMARK SMILES IDX 20 35 21 36 22 37 86 38 23 39 85 40 24 41 25 42 26 43 79 44
REMARK SMILES IDX 27 45 84 46 78 47 80 48 28 49 83 50 77 51 76 52 29 54 63 55
REMARK SMILES IDX 42 56 62 57 43 58 46 59 61 60 81 61 44 62 45 63 60 65 82 66
REMARK SMILES IDX 47 67 30 68 31 69 40 70 32 71 33 72 39 73 41 74 34 75 35 76
REMARK SMILES IDX 36 77 37 78 38 79 64 80 65 81 74 82 66 83 67 84 73 85 75 86
REMARK SMILES IDX 68 87 69 88 70 89 71 90 72 91 48 92 49 93 58 94 50 95 51 96
REMARK SMILES IDX 57 97 59 98 52 99 53 100 54 101 55 102 56 103
REMARK H PARENT 92 20 80 53 46 64
REMARK Flexibility Score: inf
ROOT
ATOM      1  C   UNL A   1      34.793  35.053  33.945  1.00  0.00     0.188 C 
ENDROOT
BRANCH   1   2
ATOM      2  O   UNL A   1      36.162  34.981  33.590  1.00  0.00    -0.377 OA
BRANCH   2   3
ATOM      3  C   UNL A   1      36.963  34.033  34.266  1.00  0.00     0.188 C 
BRANCH   3   4
ATOM      4  C   UNL A   1      38.297  33.714  33.558  1.00  0.00     0.188 C 
BRANCH   4   5
ATOM      5  O   UNL A   1      39.161  32.684  34.041  1.00  0.00    -0.376 OA
BRANCH   5   6
ATOM      6  C   UNL A   1      40.421  33.053  34.578  1.00  0.00     0.202 C 
BRANCH   6   7
ATOM      7  C   UNL A   1      41.591  32.291  33.932  1.00  0.00     0.261 C 
BRANCH   7   8
ATOM      8  O   UNL A   1      42.508  33.103  33.162  1.00  0.00    -0.463 OA
BRANCH   8   9
ATOM      9  C   UNL A   1      41.933  33.946  32.269  1.00  0.00     0.311 C 
ATOM     10  O   UNL A   1      41.041  33.635  31.483  1.00  0.00    -0.252 OA
BRANCH   9  11
ATOM     11  C   UNL A   1      42.611  35.296  32.181  1.00  0.00     0.123 C 
ATOM     12  C   UNL A   1      42.676  36.736  34.228  1.00  0.00     0.032 C 
ATOM     13  C   UNL A   1      43.514  35.814  33.333  1.00  0.00     0.098 C 
ATOM     14  N   UNL A   1      44.629  36.514  32.655  1.00  0.00    -0.321 N 
ATOM     15  C   UNL A   1      43.520  35.281  30.962  1.00  0.00     0.039 C 
ATOM     16  C   UNL A   1      44.456  36.435  31.213  1.00  0.00     0.122 C 
BRANCH  14  17
ATOM     17  C   UNL A   1      45.665  37.293  33.092  1.00  0.00     0.322 C 
ATOM     18  O   UNL A   1      46.724  36.780  33.478  1.00  0.00    -0.248 OA
ATOM     19  N   UNL A   1      45.697  38.635  32.957  1.00  0.00    -0.308 N 
ATOM     20  H   UNL A   1      46.597  38.967  32.737  1.00  0.00     0.171 HD
BRANCH  19  21
ATOM     21  C   UNL A   1      44.763  39.664  33.053  1.00  0.00     0.044 A 
ATOM     22  C   UNL A   1      44.630  40.294  34.302  1.00  0.00     0.029 A 
ATOM     23  C   UNL A   1      43.908  40.003  32.015  1.00  0.00     0.049 A 
ATOM     24  C   UNL A   1      43.711  41.329  34.482  1.00  0.00     0.043 A 
ATOM     25  C   UNL A   1      42.939  40.984  32.224  1.00  0.00     0.078 A 
ATOM     26  C   UNL A   1      42.869  41.673  33.435  1.00  0.00     0.141 A 
ATOM     27  Cl  UNL A   1      41.789  41.231  30.984  1.00  0.00    -0.081 Cl
ATOM     28  F   UNL A   1      41.977  42.657  33.625  1.00  0.00    -0.205 F 
ENDBRANCH  19  21
ENDBRANCH  14  17
ENDBRANCH   9  11
ENDBRANCH   8   9
ENDBRANCH   7   8
ENDBRANCH   6   7
ENDBRANCH   5   6
ENDBRANCH   4   5
ENDBRANCH   3   4
ENDBRANCH   2   3
ENDBRANCH   1   2
BRANCH   1  29
ATOM     29  C   UNL A   1      33.767  34.375  33.028  1.00  0.00     0.188 C 
BRANCH  29  30
ATOM     30  O   UNL A   1      34.123  33.171  32.385  1.00  0.00    -0.376 OA
BRANCH  30  31
ATOM     31  C   UNL A   1      34.564  33.054  31.046  1.00  0.00     0.202 C 
BRANCH  31  32
ATOM     32  C   UNL A   1      35.676  32.137  30.530  1.00  0.00     0.261 C 
BRANCH  32  33
ATOM     33  O   UNL A   1      36.579  31.628  31.503  1.00  0.00    -0.460 OA
BRANCH  33  34
ATOM     34  C   UNL A   1      36.946  30.340  31.301  1.00  0.00     0.338 C 
ATOM     35  O   UNL A   1      36.250  29.343  31.426  1.00  0.00    -0.246 OA
BRANCH  34  36
ATOM     36  C   UNL A   1      38.293  30.307  30.722  1.00  0.00     0.060 A 
ATOM     37  C   UNL A   1      38.402  30.302  29.328  1.00  0.00     0.016 A 
ATOM     38  C   UNL A   1      39.425  30.229  31.533  1.00  0.00     0.016 A 
ATOM     39  C   UNL A   1      39.653  30.172  28.737  1.00  0.00     0.010 A 
ATOM     40  C   UNL A   1      40.685  30.125  30.937  1.00  0.00     0.010 A 
ATOM     41  C   UNL A   1      40.797  30.032  29.537  1.00  0.00    -0.014 A 
BRANCH  41  42
ATOM     42  C   UNL A   1      42.033  29.508  28.904  1.00  0.00     0.031 A 
ATOM     43  C   UNL A   1      43.222  30.430  28.817  1.00  0.00     0.074 A 
ATOM     44  C   UNL A   1      42.143  28.221  28.527  1.00  0.00     0.049 A 
ATOM     45  N   UNL A   1      44.440  30.179  28.413  1.00  0.00    -0.248 NA
ATOM     46  C   UNL A   1      43.009  31.825  29.241  1.00  0.00     0.031 C 
ATOM     47  C   UNL A   1      41.074  27.224  28.580  1.00  0.00     0.029 A 
ATOM     48  N   UNL A   1      43.223  27.529  28.038  1.00  0.00    -0.354 N 
ATOM     49  C   UNL A   1      45.132  31.379  28.536  1.00  0.00     0.074 A 
ATOM     50  C   UNL A   1      44.187  32.373  28.989  1.00  0.00     0.031 C 
ATOM     51  C   UNL A   1      41.558  26.043  28.155  1.00  0.00     0.029 A 
ATOM     52  C   UNL A   1      42.965  26.201  27.789  1.00  0.00     0.049 A 
ATOM     53  H   UNL A   1      44.102  27.944  27.881  1.00  0.00     0.167 HD
ATOM     54  C   UNL A   1      46.443  31.630  28.327  1.00  0.00     0.037 A 
ATOM     55  C   UNL A   1      43.776  25.229  27.325  1.00  0.00     0.037 A 
ATOM     56  C   UNL A   1      47.392  30.643  27.892  1.00  0.00     0.049 A 
ATOM     57  C   UNL A   1      45.227  25.544  27.053  1.00  0.00     0.074 A 
ATOM     58  C   UNL A   1      48.747  30.794  27.665  1.00  0.00     0.029 A 
ATOM     59  N   UNL A   1      47.082  29.319  27.619  1.00  0.00    -0.354 N 
ATOM     60  N   UNL A   1      45.875  26.675  27.213  1.00  0.00    -0.248 NA
ATOM     61  C   UNL A   1      46.063  24.443  26.552  1.00  0.00     0.031 C 
ATOM     62  C   UNL A   1      49.250  29.572  27.207  1.00  0.00     0.029 A 
ATOM     63  C   UNL A   1      48.218  28.646  27.204  1.00  0.00     0.049 A 
ATOM     64  H   UNL A   1      46.187  28.918  27.707  1.00  0.00     0.167 HD
ATOM     65  C   UNL A   1      47.198  26.411  26.865  1.00  0.00     0.074 A 
ATOM     66  C   UNL A   1      47.260  25.011  26.499  1.00  0.00     0.031 C 
ATOM     67  C   UNL A   1      48.265  27.248  26.853  1.00  0.00     0.037 A 
BRANCH  54  68
ATOM     68  C   UNL A   1      46.918  33.039  28.553  1.00  0.00     0.058 A 
ATOM     69  C   UNL A   1      46.863  34.009  27.538  1.00  0.00     0.135 A 
ATOM     70  C   UNL A   1      47.435  33.422  29.799  1.00  0.00     0.135 A 
ATOM     71  F   UNL A   1      46.404  33.688  26.318  1.00  0.00    -0.206 F 
ATOM     72  C   UNL A   1      47.335  35.301  27.743  1.00  0.00     0.059 A 
ATOM     73  C   UNL A   1      47.883  34.717  30.036  1.00  0.00     0.059 A 
ATOM     74  F   UNL A   1      47.518  32.531  30.800  1.00  0.00    -0.206 F 
ATOM     75  C   UNL A   1      47.843  35.645  28.996  1.00  0.00     0.060 A 
BRANCH  75  76
ATOM     76  S   UNL A   1      48.449  37.326  29.248  1.00  0.00     0.124 S 
ATOM     77  O   UNL A   1      48.155  37.939  27.957  1.00  0.00    -0.237 OA
ATOM     78  O   UNL A   1      47.634  37.786  30.368  1.00  0.00    -0.237 OA
ATOM     79  O   UNL A   1      49.865  37.137  29.545  1.00  0.00    -0.744 OA
ENDBRANCH  75  76
ENDBRANCH  54  68
BRANCH  55  80
ATOM     80  C   UNL A   1      43.247  23.855  27.098  1.00  0.00     0.058 A 
ATOM     81  C   UNL A   1      43.046  22.965  28.164  1.00  0.00     0.135 A 
ATOM     82  C   UNL A   1      42.960  23.396  25.803  1.00  0.00     0.135 A 
ATOM     83  F   UNL A   1      43.317  23.350  29.419  1.00  0.00    -0.206 F 
ATOM     84  C   UNL A   1      42.599  21.664  27.954  1.00  0.00     0.059 A 
ATOM     85  C   UNL A   1      42.488  22.108  25.570  1.00  0.00     0.059 A 
ATOM     86  F   UNL A   1      43.130  24.209  24.748  1.00  0.00    -0.206 F 
ATOM     87  C   UNL A   1      42.322  21.244  26.651  1.00  0.00     0.060 A 
BRANCH  87  88
ATOM     88  S   UNL A   1      41.706  19.565  26.393  1.00  0.00     0.124 S 
ATOM     89  O   UNL A   1      42.073  18.922  27.650  1.00  0.00    -0.237 OA
ATOM     90  O   UNL A   1      40.280  19.791  26.184  1.00  0.00    -0.237 OA
ATOM     91  O   UNL A   1      42.443  19.116  25.215  1.00  0.00    -0.744 OA
ENDBRANCH  87  88
ENDBRANCH  55  80
BRANCH  67  92
ATOM     92  C   UNL A   1      49.602  26.670  26.476  1.00  0.00     0.058 A 
ATOM     93  C   UNL A   1      50.102  26.746  25.166  1.00  0.00     0.135 A 
ATOM     94  C   UNL A   1      50.416  26.070  27.452  1.00  0.00     0.135 A 
ATOM     95  F   UNL A   1      49.368  27.311  24.195  1.00  0.00    -0.206 F 
ATOM     96  C   UNL A   1      51.344  26.213  24.829  1.00  0.00     0.059 A 
ATOM     97  C   UNL A   1      51.674  25.559  27.145  1.00  0.00     0.059 A 
ATOM     98  F   UNL A   1      49.996  25.987  28.725  1.00  0.00    -0.206 F 
ATOM     99  C   UNL A   1      52.120  25.621  25.826  1.00  0.00     0.060 A 
BRANCH  99 100
ATOM    100  S   UNL A   1      53.733  24.940  25.380  1.00  0.00     0.124 S 
ATOM    101  O   UNL A   1      54.107  25.787  24.253  1.00  0.00    -0.237 OA
ATOM    102  O   UNL A   1      54.504  25.135  26.604  1.00  0.00    -0.237 OA
ATOM    103  O   UNL A   1      53.435  23.550  25.048  1.00  0.00    -0.744 OA
ENDBRANCH  99 100
ENDBRANCH  67  92
ENDBRANCH  41  42
ENDBRANCH  34  36
ENDBRANCH  33  34
ENDBRANCH  32  33
ENDBRANCH  31  32
ENDBRANCH  30  31
ENDBRANCH  29  30
ENDBRANCH   1  29
TORSDOF 25
ENDMDL
MODEL 3
REMARK VINA RESULT:      -8.7      7.350     14.454
REMARK SMILES C[C@H]1[C@H](C(=O)OCCOCCOCCOCCOC(=O)c2ccc(-c3c4nc(c(-c5c(F)cc(S(=O)(=O)[O-])cc5F)c5ccc([nH]5)c(-c5c(F)cc(S(=O)(=O)[O-])cc5F)c5nc(c(-c6c(F)cc(S(=O)(=O)[O-])cc6F)c6ccc3[nH]6)C=C5)C=C4)cc2)CCN1C(=O)Nc1ccc(F)c(Cl)c1
REMARK SMILES IDX 13 1 12 2 11 3 10 4 9 5 8 6 7 7 6 8 4 9 5 10 3 11 1 12 2 13
REMARK SMILES IDX 89 14 87 15 88 16 90 17 91 18 92 19 93 21 94 22 100 23 95 24
REMARK SMILES IDX 98 25 96 26 99 27 97 28 14 29 15 30 16 31 17 32 18 33 19 34
REMARK SMILES IDX 20 35 21 36 22 37 86 38 23 39 85 40 24 41 25 42 26 43 79 44
REMARK SMILES IDX 27 45 84 46 78 47 80 48 28 49 83 50 77 51 76 52 29 54 63 55
REMARK SMILES IDX 42 56 62 57 43 58 46 59 61 60 81 61 44 62 45 63 60 65 82 66
REMARK SMILES IDX 47 67 30 68 31 69 40 70 32 71 33 72 39 73 41 74 34 75 35 76
REMARK SMILES IDX 36 77 37 78 38 79 64 80 65 81 74 82 66 83 67 84 73 85 75 86
REMARK SMILES IDX 68 87 69 88 70 89 71 90 72 91 48 92 49 93 58 94 50 95 51 96
REMARK SMILES IDX 57 97 59 98 52 99 53 100 54 101 55 102 56 103
REMARK H PARENT 92 20 80 53 46 64
REMARK Flexibility Score: inf
ROOT
ATOM      1  C   UNL A   1      46.927  42.131  29.771  1.00  0.00     0.188 C 
ENDROOT
BRANCH   1   2
ATOM      2  O   UNL A   1      45.816  42.982  29.555  1.00  0.00    -0.377 OA
BRANCH   2   3
ATOM      3  C   UNL A   1      45.153  42.886  28.311  1.00  0.00     0.188 C 
BRANCH   3   4
ATOM      4  C   UNL A   1      45.378  44.096  27.380  1.00  0.00     0.188 C 
BRANCH   4   5
ATOM      5  O   UNL A   1      44.971  44.061  26.012  1.00  0.00    -0.376 OA
BRANCH   5   6
ATOM      6  C   UNL A   1      45.880  43.558  25.046  1.00  0.00     0.202 C 
BRANCH   6   7
ATOM      7  C   UNL A   1      46.775  44.654  24.442  1.00  0.00     0.261 C 
BRANCH   7   8
ATOM      8  O   UNL A   1      47.304  44.365  23.127  1.00  0.00    -0.463 OA
BRANCH   8   9
ATOM      9  C   UNL A   1      46.692  45.003  22.099  1.00  0.00     0.311 C 
ATOM     10  O   UNL A   1      46.704  46.218  21.919  1.00  0.00    -0.252 OA
BRANCH   9  11
ATOM     11  C   UNL A   1      45.817  44.100  21.255  1.00  0.00     0.123 C 
ATOM     12  C   UNL A   1      43.520  43.549  22.084  1.00  0.00     0.032 C 
ATOM     13  C   UNL A   1      44.304  44.396  21.074  1.00  0.00     0.098 C 
ATOM     14  N   UNL A   1      44.014  44.041  19.665  1.00  0.00    -0.321 N 
ATOM     15  C   UNL A   1      46.377  44.099  19.842  1.00  0.00     0.039 C 
ATOM     16  C   UNL A   1      45.230  43.579  19.014  1.00  0.00     0.122 C 
BRANCH  14  17
ATOM     17  C   UNL A   1      42.866  43.942  18.929  1.00  0.00     0.322 C 
ATOM     18  O   UNL A   1      42.282  42.856  18.811  1.00  0.00    -0.248 OA
ATOM     19  N   UNL A   1      42.189  45.009  18.457  1.00  0.00    -0.308 N 
ATOM     20  H   UNL A   1      41.214  44.885  18.506  1.00  0.00     0.171 HD
BRANCH  19  21
ATOM     21  C   UNL A   1      42.538  46.244  17.914  1.00  0.00     0.044 A 
ATOM     22  C   UNL A   1      41.683  46.779  16.936  1.00  0.00     0.029 A 
ATOM     23  C   UNL A   1      43.726  46.891  18.221  1.00  0.00     0.049 A 
ATOM     24  C   UNL A   1      41.966  48.009  16.340  1.00  0.00     0.043 A 
ATOM     25  C   UNL A   1      44.042  48.080  17.565  1.00  0.00     0.078 A 
ATOM     26  C   UNL A   1      43.149  48.658  16.662  1.00  0.00     0.141 A 
ATOM     27  Cl  UNL A   1      45.596  48.737  17.832  1.00  0.00    -0.081 Cl
ATOM     28  F   UNL A   1      43.420  49.830  16.069  1.00  0.00    -0.205 F 
ENDBRANCH  19  21
ENDBRANCH  14  17
ENDBRANCH   9  11
ENDBRANCH   8   9
ENDBRANCH   7   8
ENDBRANCH   6   7
ENDBRANCH   5   6
ENDBRANCH   4   5
ENDBRANCH   3   4
ENDBRANCH   2   3
ENDBRANCH   1   2
BRANCH   1  29
ATOM     29  C   UNL A   1      46.985  40.802  29.008  1.00  0.00     0.188 C 
BRANCH  29  30
ATOM     30  O   UNL A   1      47.502  40.797  27.694  1.00  0.00    -0.376 OA
BRANCH  30  31
ATOM     31  C   UNL A   1      48.013  39.665  27.018  1.00  0.00     0.202 C 
BRANCH  31  32
ATOM     32  C   UNL A   1      47.327  38.302  26.876  1.00  0.00     0.261 C 
BRANCH  32  33
ATOM     33  O   UNL A   1      48.181  37.167  26.816  1.00  0.00    -0.460 OA
BRANCH  33  34
ATOM     34  C   UNL A   1      48.352  36.537  28.002  1.00  0.00     0.338 C 
ATOM     35  O   UNL A   1      48.935  36.960  28.989  1.00  0.00    -0.246 OA
BRANCH  34  36
ATOM     36  C   UNL A   1      47.566  35.299  28.009  1.00  0.00     0.060 A 
ATOM     37  C   UNL A   1      47.433  34.618  29.222  1.00  0.00     0.016 A 
ATOM     38  C   UNL A   1      47.012  34.790  26.833  1.00  0.00     0.016 A 
ATOM     39  C   UNL A   1      46.780  33.391  29.254  1.00  0.00     0.010 A 
ATOM     40  C   UNL A   1      46.334  33.569  26.872  1.00  0.00     0.010 A 
ATOM     41  C   UNL A   1      46.271  32.836  28.072  1.00  0.00    -0.014 A 
BRANCH  41  42
ATOM     42  C   UNL A   1      45.945  31.388  28.064  1.00  0.00     0.031 A 
ATOM     43  C   UNL A   1      44.526  30.985  28.376  1.00  0.00     0.074 A 
ATOM     44  C   UNL A   1      46.842  30.463  27.676  1.00  0.00     0.049 A 
ATOM     45  N   UNL A   1      43.967  29.805  28.326  1.00  0.00    -0.248 NA
ATOM     46  C   UNL A   1      43.613  32.061  28.802  1.00  0.00     0.031 C 
ATOM     47  C   UNL A   1      48.238  30.725  27.329  1.00  0.00     0.029 A 
ATOM     48  N   UNL A   1      46.700  29.110  27.493  1.00  0.00    -0.354 N 
ATOM     49  C   UNL A   1      42.645  29.999  28.713  1.00  0.00     0.074 A 
ATOM     50  C   UNL A   1      42.500  31.394  29.056  1.00  0.00     0.031 C 
ATOM     51  C   UNL A   1      48.820  29.570  26.958  1.00  0.00     0.029 A 
ATOM     52  C   UNL A   1      47.843  28.485  27.054  1.00  0.00     0.049 A 
ATOM     53  H   UNL A   1      45.856  28.630  27.660  1.00  0.00     0.167 HD
ATOM     54  C   UNL A   1      41.630  29.107  28.748  1.00  0.00     0.037 A 
ATOM     55  C   UNL A   1      48.069  27.189  26.758  1.00  0.00     0.037 A 
ATOM     56  C   UNL A   1      41.764  27.722  28.392  1.00  0.00     0.049 A 
ATOM     57  C   UNL A   1      46.931  26.201  26.849  1.00  0.00     0.074 A 
ATOM     58  C   UNL A   1      40.791  26.739  28.379  1.00  0.00     0.029 A 
ATOM     59  N   UNL A   1      42.947  27.124  27.985  1.00  0.00    -0.354 N 
ATOM     60  N   UNL A   1      45.677  26.408  27.179  1.00  0.00    -0.248 NA
ATOM     61  C   UNL A   1      47.237  24.803  26.512  1.00  0.00     0.031 C 
ATOM     62  C   UNL A   1      41.396  25.533  28.011  1.00  0.00     0.029 A 
ATOM     63  C   UNL A   1      42.733  25.778  27.739  1.00  0.00     0.049 A 
ATOM     64  H   UNL A   1      43.810  27.586  27.886  1.00  0.00     0.167 HD
ATOM     65  C   UNL A   1      45.040  25.176  27.054  1.00  0.00     0.074 A 
ATOM     66  C   UNL A   1      46.043  24.233  26.608  1.00  0.00     0.031 C 
ATOM     67  C   UNL A   1      43.742  24.853  27.285  1.00  0.00     0.037 A 
BRANCH  54  68
ATOM     68  C   UNL A   1      40.288  29.610  29.204  1.00  0.00     0.058 A 
ATOM     69  C   UNL A   1      39.250  29.873  28.294  1.00  0.00     0.135 A 
ATOM     70  C   UNL A   1      40.040  29.835  30.565  1.00  0.00     0.135 A 
ATOM     71  F   UNL A   1      39.445  29.703  26.976  1.00  0.00    -0.206 F 
ATOM     72  C   UNL A   1      38.023  30.372  28.717  1.00  0.00     0.059 A 
ATOM     73  C   UNL A   1      38.809  30.302  31.015  1.00  0.00     0.059 A 
ATOM     74  F   UNL A   1      41.001  29.608  31.474  1.00  0.00    -0.206 F 
ATOM     75  C   UNL A   1      37.813  30.583  30.081  1.00  0.00     0.060 A 
BRANCH  75  76
ATOM     76  S   UNL A   1      36.214  31.227  30.616  1.00  0.00     0.124 S 
ATOM     77  O   UNL A   1      35.924  30.370  31.761  1.00  0.00    -0.237 OA
ATOM     78  O   UNL A   1      36.528  32.618  30.930  1.00  0.00    -0.237 OA
ATOM     79  O   UNL A   1      35.359  31.030  29.451  1.00  0.00    -0.744 OA
ENDBRANCH  75  76
ENDBRANCH  54  68
BRANCH  55  80
ATOM     80  C   UNL A   1      49.424  26.741  26.333  1.00  0.00     0.058 A 
ATOM     81  C   UNL A   1      49.849  26.865  25.001  1.00  0.00     0.135 A 
ATOM     82  C   UNL A   1      50.311  26.152  27.247  1.00  0.00     0.135 A 
ATOM     83  F   UNL A   1      49.034  27.409  24.085  1.00  0.00    -0.206 F 
ATOM     84  C   UNL A   1      51.094  26.403  24.585  1.00  0.00     0.059 A 
ATOM     85  C   UNL A   1      51.572  25.707  26.861  1.00  0.00     0.059 A 
ATOM     86  F   UNL A   1      49.957  26.015  28.535  1.00  0.00    -0.206 F 
ATOM     87  C   UNL A   1      51.951  25.825  25.526  1.00  0.00     0.060 A 
BRANCH  87  88
ATOM     88  S   UNL A   1      53.580  25.264  24.984  1.00  0.00     0.124 S 
ATOM     89  O   UNL A   1      53.554  25.609  23.568  1.00  0.00    -0.237 OA
ATOM     90  O   UNL A   1      54.471  26.061  25.820  1.00  0.00    -0.237 OA
ATOM     91  O   UNL A   1      53.559  23.835  25.287  1.00  0.00    -0.744 OA
ENDBRANCH  87  88
ENDBRANCH  55  80
BRANCH  67  92
ATOM     92  C   UNL A   1      43.316  23.435  27.016  1.00  0.00     0.058 A 
ATOM     93  C   UNL A   1      43.027  22.537  28.055  1.00  0.00     0.135 A 
ATOM     94  C   UNL A   1      43.152  22.982  25.696  1.00  0.00     0.135 A 
ATOM     95  F   UNL A   1      43.164  22.917  29.335  1.00  0.00    -0.206 F 
ATOM     96  C   UNL A   1      42.628  21.228  27.796  1.00  0.00     0.059 A 
ATOM     97  C   UNL A   1      42.724  21.688  25.413  1.00  0.00     0.059 A 
ATOM     98  F   UNL A   1      43.397  23.804  24.664  1.00  0.00    -0.206 F 
ATOM     99  C   UNL A   1      42.481  20.814  26.471  1.00  0.00     0.060 A 
BRANCH  99 100
ATOM    100  S   UNL A   1      41.955  19.117  26.146  1.00  0.00     0.124 S 
ATOM    101  O   UNL A   1      42.789  18.766  25.002  1.00  0.00    -0.237 OA
ATOM    102  O   UNL A   1      42.281  18.444  27.400  1.00  0.00    -0.237 OA
ATOM    103  O   UNL A   1      40.529  19.251  25.866  1.00  0.00    -0.744 OA
ENDBRANCH  99 100
ENDBRANCH  67  92
ENDBRANCH  41  42
ENDBRANCH  34  36
ENDBRANCH  33  34
ENDBRANCH  32  33
ENDBRANCH  31  32
ENDBRANCH  30  31
ENDBRANCH  29  30
ENDBRANCH   1  29
TORSDOF 25
ENDMDL
