MODEL 1
REMARK VINA RESULT:      -8.4      0.000      0.000
REMARK SMILES CC(C)(C)c1cc2c(cc1Cl)C=C(C(=O)OCCOCCOCCOCCOC(=O)c1ccc(-c3c4nc(c(-c5c(F)cc(S(=O)(=O)[O-])cc5F)c5ccc([nH]5)c(-c5c(F)cc(S(=O)(=O)[O-])cc5F)c5nc(c(-c6c(F)cc(S(=O)(=O)[O-])cc6F)c6ccc3[nH]6)C=C5)C=C4)cc1)[C@@H](C(F)(F)F)O2
REMARK SMILES IDX 23 1 22 2 21 3 20 4 19 5 18 6 17 7 16 8 14 9 15 10 13 11
REMARK SMILES IDX 5 12 6 13 10 14 7 15 9 16 11 17 8 18 102 19 12 20 97 21 2 22
REMARK SMILES IDX 1 23 3 24 4 25 98 26 99 27 100 28 101 29 24 30 25 31 26 32
REMARK SMILES IDX 27 33 28 34 29 35 30 36 31 37 32 38 96 39 33 40 95 41 34 42
REMARK SMILES IDX 35 43 36 44 89 45 37 46 94 47 88 48 90 49 38 50 93 51 87 52
REMARK SMILES IDX 86 53 39 55 73 56 52 57 72 58 53 59 56 60 71 61 91 62 54 63
REMARK SMILES IDX 55 64 70 66 92 67 57 68 40 69 41 70 50 71 42 72 43 73 49 74
REMARK SMILES IDX 51 75 44 76 45 77 46 78 47 79 48 80 74 81 75 82 84 83 76 84
REMARK SMILES IDX 77 85 83 86 85 87 78 88 79 89 80 90 81 91 82 92 58 93 59 94
REMARK SMILES IDX 68 95 60 96 61 97 67 98 69 99 62 100 63 101 64 102 65 103
REMARK SMILES IDX 66 104
REMARK H PARENT 90 54 56 65
REMARK Flexibility Score: inf
ROOT
ATOM      1  C   UNL A   1      33.246  36.504  30.198  1.00  0.00     0.188 C 
ENDROOT
BRANCH   1   2
ATOM      2  O   UNL A   1      32.568  36.969  31.366  1.00  0.00    -0.377 OA
BRANCH   2   3
ATOM      3  C   UNL A   1      33.376  37.444  32.433  1.00  0.00     0.188 C 
BRANCH   3   4
ATOM      4  C   UNL A   1      33.949  36.296  33.285  1.00  0.00     0.188 C 
BRANCH   4   5
ATOM      5  O   UNL A   1      35.243  35.885  32.880  1.00  0.00    -0.376 OA
BRANCH   5   6
ATOM      6  C   UNL A   1      35.684  34.549  33.082  1.00  0.00     0.202 C 
BRANCH   6   7
ATOM      7  C   UNL A   1      35.668  33.815  34.438  1.00  0.00     0.261 C 
BRANCH   7   8
ATOM      8  O   UNL A   1      36.928  33.481  35.023  1.00  0.00    -0.460 OA
BRANCH   8   9
ATOM      9  C   UNL A   1      38.007  34.189  34.650  1.00  0.00     0.338 C 
ATOM     10  O   UNL A   1      38.140  35.399  34.685  1.00  0.00    -0.246 OA
BRANCH   9  11
ATOM     11  C   UNL A   1      39.095  33.222  34.381  1.00  0.00     0.087 C 
ATOM     12  C   UNL A   1      41.768  29.059  33.341  1.00  0.00    -0.020 A 
ATOM     13  C   UNL A   1      42.066  30.373  33.772  1.00  0.00     0.053 A 
ATOM     14  C   UNL A   1      40.440  28.838  32.906  1.00  0.00     0.045 A 
ATOM     15  C   UNL A   1      41.086  31.367  33.890  1.00  0.00     0.128 A 
ATOM     16  C   UNL A   1      39.458  29.833  33.035  1.00  0.00     0.032 A 
ATOM     17  Cl  UNL A   1      39.879  27.370  32.182  1.00  0.00    -0.084 Cl
ATOM     18  C   UNL A   1      39.768  31.078  33.576  1.00  0.00     0.019 A 
ATOM     19  O   UNL A   1      41.511  32.578  34.352  1.00  0.00    -0.475 OA
ATOM     20  C   UNL A   1      38.725  32.043  33.866  1.00  0.00     0.027 C 
ATOM     21  C   UNL A   1      40.532  33.630  34.599  1.00  0.00     0.316 C 
BRANCH  12  22
ATOM     22  C   UNL A   1      42.861  27.962  33.408  1.00  0.00    -0.012 C 
ATOM     23  C   UNL A   1      44.225  28.555  33.835  1.00  0.00     0.016 C 
ATOM     24  C   UNL A   1      43.140  27.287  32.034  1.00  0.00     0.016 C 
ATOM     25  C   UNL A   1      42.440  26.832  34.367  1.00  0.00     0.016 C 
ENDBRANCH  12  22
BRANCH  21  26
ATOM     26  C   UNL A   1      40.777  34.175  36.012  1.00  0.00     0.430 C 
ATOM     27  F   UNL A   1      42.067  34.000  36.387  1.00  0.00    -0.167 F 
ATOM     28  F   UNL A   1      40.515  35.497  36.100  1.00  0.00    -0.167 F 
ATOM     29  F   UNL A   1      40.002  33.544  36.925  1.00  0.00    -0.167 F 
ENDBRANCH  21  26
ENDBRANCH   9  11
ENDBRANCH   8   9
ENDBRANCH   7   8
ENDBRANCH   6   7
ENDBRANCH   5   6
ENDBRANCH   4   5
ENDBRANCH   3   4
ENDBRANCH   2   3
ENDBRANCH   1   2
BRANCH   1  30
ATOM     30  C   UNL A   1      33.233  35.001  29.830  1.00  0.00     0.188 C 
BRANCH  30  31
ATOM     31  O   UNL A   1      34.251  34.628  28.903  1.00  0.00    -0.376 OA
BRANCH  31  32
ATOM     32  C   UNL A   1      35.270  33.751  29.357  1.00  0.00     0.202 C 
BRANCH  32  33
ATOM     33  C   UNL A   1      35.781  32.759  28.308  1.00  0.00     0.261 C 
BRANCH  33  34
ATOM     34  O   UNL A   1      34.772  31.979  27.653  1.00  0.00    -0.460 OA
BRANCH  34  35
ATOM     35  C   UNL A   1      34.656  30.677  28.000  1.00  0.00     0.338 C 
ATOM     36  O   UNL A   1      33.647  29.996  27.968  1.00  0.00    -0.246 OA
BRANCH  35  37
ATOM     37  C   UNL A   1      36.021  30.167  28.247  1.00  0.00     0.060 A 
ATOM     38  C   UNL A   1      36.943  30.103  27.201  1.00  0.00     0.016 A 
ATOM     39  C   UNL A   1      36.368  29.720  29.529  1.00  0.00     0.016 A 
ATOM     40  C   UNL A   1      38.226  29.619  27.444  1.00  0.00     0.010 A 
ATOM     41  C   UNL A   1      37.659  29.239  29.773  1.00  0.00     0.010 A 
ATOM     42  C   UNL A   1      38.603  29.208  28.736  1.00  0.00    -0.014 A 
BRANCH  42  43
ATOM     43  C   UNL A   1      40.033  28.919  29.004  1.00  0.00     0.031 A 
ATOM     44  C   UNL A   1      40.652  27.594  28.686  1.00  0.00     0.074 A 
ATOM     45  C   UNL A   1      40.784  29.916  29.514  1.00  0.00     0.049 A 
ATOM     46  N   UNL A   1      41.917  27.257  28.709  1.00  0.00    -0.248 NA
ATOM     47  C   UNL A   1      39.745  26.504  28.300  1.00  0.00     0.031 C 
ATOM     48  C   UNL A   1      40.272  31.233  29.903  1.00  0.00     0.029 A 
ATOM     49  N   UNL A   1      42.129  29.993  29.768  1.00  0.00    -0.354 N 
ATOM     50  C   UNL A   1      41.966  25.928  28.313  1.00  0.00     0.074 A 
ATOM     51  C   UNL A   1      40.595  25.502  28.112  1.00  0.00     0.031 C 
ATOM     52  C   UNL A   1      41.297  32.002  30.300  1.00  0.00     0.029 A 
ATOM     53  C   UNL A   1      42.532  31.229  30.216  1.00  0.00     0.049 A 
ATOM     54  H   UNL A   1      42.747  29.236  29.642  1.00  0.00     0.167 HD
ATOM     55  C   UNL A   1      43.057  25.148  28.114  1.00  0.00     0.037 A 
ATOM     56  C   UNL A   1      43.760  31.695  30.510  1.00  0.00     0.037 A 
ATOM     57  C   UNL A   1      44.414  25.584  28.335  1.00  0.00     0.049 A 
ATOM     58  C   UNL A   1      44.949  30.797  30.319  1.00  0.00     0.074 A 
ATOM     59  C   UNL A   1      45.588  24.885  28.113  1.00  0.00     0.029 A 
ATOM     60  N   UNL A   1      44.782  26.822  28.845  1.00  0.00    -0.354 N 
ATOM     61  N   UNL A   1      44.987  29.575  29.844  1.00  0.00    -0.248 NA
ATOM     62  C   UNL A   1      46.260  31.338  30.702  1.00  0.00     0.031 C 
ATOM     63  C   UNL A   1      46.660  25.676  28.539  1.00  0.00     0.029 A 
ATOM     64  C   UNL A   1      46.159  26.890  28.983  1.00  0.00     0.049 A 
ATOM     65  H   UNL A   1      44.154  27.545  29.076  1.00  0.00     0.167 HD
ATOM     66  C   UNL A   1      46.326  29.201  29.867  1.00  0.00     0.074 A 
ATOM     67  C   UNL A   1      47.068  30.337  30.377  1.00  0.00     0.031 C 
ATOM     68  C   UNL A   1      46.887  28.021  29.506  1.00  0.00     0.037 A 
BRANCH  55  69
ATOM     69  C   UNL A   1      42.839  23.745  27.617  1.00  0.00     0.058 A 
ATOM     70  C   UNL A   1      42.587  22.688  28.505  1.00  0.00     0.135 A 
ATOM     71  C   UNL A   1      42.804  23.463  26.241  1.00  0.00     0.135 A 
ATOM     72  F   UNL A   1      42.613  22.899  29.831  1.00  0.00    -0.206 F 
ATOM     73  C   UNL A   1      42.329  21.400  28.051  1.00  0.00     0.059 A 
ATOM     74  C   UNL A   1      42.523  22.186  25.762  1.00  0.00     0.059 A 
ATOM     75  F   UNL A   1      43.032  24.438  25.345  1.00  0.00    -0.206 F 
ATOM     76  C   UNL A   1      42.297  21.158  26.676  1.00  0.00     0.060 A 
BRANCH  76  77
ATOM     77  S   UNL A   1      41.954  19.480  26.107  1.00  0.00     0.124 S 
ATOM     78  O   UNL A   1      42.848  19.373  24.958  1.00  0.00    -0.237 OA
ATOM     79  O   UNL A   1      42.319  18.678  27.271  1.00  0.00    -0.237 OA
ATOM     80  O   UNL A   1      40.530  19.510  25.791  1.00  0.00    -0.744 OA
ENDBRANCH  76  77
ENDBRANCH  55  69
BRANCH  56  81
ATOM     81  C   UNL A   1      43.919  33.097  30.979  1.00  0.00     0.058 A 
ATOM     82  C   UNL A   1      43.780  34.174  30.092  1.00  0.00     0.135 A 
ATOM     83  C   UNL A   1      44.170  33.387  32.330  1.00  0.00     0.135 A 
ATOM     84  F   UNL A   1      43.542  33.946  28.792  1.00  0.00    -0.206 F 
ATOM     85  C   UNL A   1      43.891  35.491  30.525  1.00  0.00     0.059 A 
ATOM     86  C   UNL A   1      44.261  34.695  32.791  1.00  0.00     0.059 A 
ATOM     87  F   UNL A   1      44.293  32.390  33.220  1.00  0.00    -0.206 F 
ATOM     88  C   UNL A   1      44.126  35.741  31.880  1.00  0.00     0.060 A 
BRANCH  88  89
ATOM     89  S   UNL A   1      44.211  37.457  32.436  1.00  0.00     0.124 S 
ATOM     90  O   UNL A   1      43.201  37.475  33.489  1.00  0.00    -0.237 OA
ATOM     91  O   UNL A   1      45.597  37.564  32.879  1.00  0.00    -0.237 OA
ATOM     92  O   UNL A   1      43.883  38.217  31.234  1.00  0.00    -0.744 OA
ENDBRANCH  88  89
ENDBRANCH  56  81
BRANCH  68  93
ATOM     93  C   UNL A   1      48.375  27.878  29.671  1.00  0.00     0.058 A 
ATOM     94  C   UNL A   1      49.259  28.282  28.659  1.00  0.00     0.135 A 
ATOM     95  C   UNL A   1      48.926  27.418  30.878  1.00  0.00     0.135 A 
ATOM     96  F   UNL A   1      48.784  28.719  27.482  1.00  0.00    -0.206 F 
ATOM     97  C   UNL A   1      50.638  28.234  28.836  1.00  0.00     0.059 A 
ATOM     98  C   UNL A   1      50.303  27.386  31.086  1.00  0.00     0.059 A 
ATOM     99  F   UNL A   1      48.126  27.023  31.880  1.00  0.00    -0.206 F 
ATOM    100  C   UNL A   1      51.150  27.795  30.057  1.00  0.00     0.060 A 
BRANCH 100 101
ATOM    101  S   UNL A   1      52.940  27.805  30.292  1.00  0.00     0.124 S 
ATOM    102  O   UNL A   1      53.419  27.784  28.913  1.00  0.00    -0.237 OA
ATOM    103  O   UNL A   1      53.150  29.055  31.015  1.00  0.00    -0.237 OA
ATOM    104  O   UNL A   1      53.192  26.591  31.061  1.00  0.00    -0.744 OA
ENDBRANCH 100 101
ENDBRANCH  68  93
ENDBRANCH  42  43
ENDBRANCH  35  37
ENDBRANCH  34  35
ENDBRANCH  33  34
ENDBRANCH  32  33
ENDBRANCH  31  32
ENDBRANCH  30  31
ENDBRANCH   1  30
TORSDOF 25
ENDMDL
MODEL 2
REMARK VINA RESULT:      -8.1      5.231     11.520
REMARK SMILES CC(C)(C)c1cc2c(cc1Cl)C=C(C(=O)OCCOCCOCCOCCOC(=O)c1ccc(-c3c4nc(c(-c5c(F)cc(S(=O)(=O)[O-])cc5F)c5ccc([nH]5)c(-c5c(F)cc(S(=O)(=O)[O-])cc5F)c5nc(c(-c6c(F)cc(S(=O)(=O)[O-])cc6F)c6ccc3[nH]6)C=C5)C=C4)cc1)[C@@H](C(F)(F)F)O2
REMARK SMILES IDX 23 1 22 2 21 3 20 4 19 5 18 6 17 7 16 8 14 9 15 10 13 11
REMARK SMILES IDX 5 12 6 13 10 14 7 15 9 16 11 17 8 18 102 19 12 20 97 21 2 22
REMARK SMILES IDX 1 23 3 24 4 25 98 26 99 27 100 28 101 29 24 30 25 31 26 32
REMARK SMILES IDX 27 33 28 34 29 35 30 36 31 37 32 38 96 39 33 40 95 41 34 42
REMARK SMILES IDX 35 43 36 44 89 45 37 46 94 47 88 48 90 49 38 50 93 51 87 52
REMARK SMILES IDX 86 53 39 55 73 56 52 57 72 58 53 59 56 60 71 61 91 62 54 63
REMARK SMILES IDX 55 64 70 66 92 67 57 68 40 69 41 70 50 71 42 72 43 73 49 74
REMARK SMILES IDX 51 75 44 76 45 77 46 78 47 79 48 80 74 81 75 82 84 83 76 84
REMARK SMILES IDX 77 85 83 86 85 87 78 88 79 89 80 90 81 91 82 92 58 93 59 94
REMARK SMILES IDX 68 95 60 96 61 97 67 98 69 99 62 100 63 101 64 102 65 103
REMARK SMILES IDX 66 104
REMARK H PARENT 90 54 56 65
REMARK Flexibility Score: inf
ROOT
ATOM      1  C   UNL A   1      32.732  28.971  27.198  1.00  0.00     0.188 C 
ENDROOT
BRANCH   1   2
ATOM      2  O   UNL A   1      31.611  28.960  26.313  1.00  0.00    -0.377 OA
BRANCH   2   3
ATOM      3  C   UNL A   1      31.502  30.040  25.398  1.00  0.00     0.188 C 
BRANCH   3   4
ATOM      4  C   UNL A   1      31.174  29.564  23.971  1.00  0.00     0.188 C 
BRANCH   4   5
ATOM      5  O   UNL A   1      29.999  28.776  23.895  1.00  0.00    -0.376 OA
BRANCH   5   6
ATOM      6  C   UNL A   1      29.998  27.526  23.219  1.00  0.00     0.202 C 
BRANCH   6   7
ATOM      7  C   UNL A   1      29.433  26.214  23.802  1.00  0.00     0.261 C 
BRANCH   7   8
ATOM      8  O   UNL A   1      30.369  25.218  24.215  1.00  0.00    -0.460 OA
BRANCH   8   9
ATOM      9  C   UNL A   1      31.618  25.279  23.723  1.00  0.00     0.338 C 
ATOM     10  O   UNL A   1      32.200  26.268  23.316  1.00  0.00    -0.246 OA
BRANCH   9  11
ATOM     11  C   UNL A   1      32.246  23.958  23.956  1.00  0.00     0.087 C 
ATOM     12  C   UNL A   1      33.374  19.031  23.957  1.00  0.00    -0.020 A 
ATOM     13  C   UNL A   1      33.817  20.172  24.667  1.00  0.00     0.053 A 
ATOM     14  C   UNL A   1      32.545  19.282  22.839  1.00  0.00     0.045 A 
ATOM     15  C   UNL A   1      33.364  21.464  24.372  1.00  0.00     0.128 A 
ATOM     16  C   UNL A   1      32.084  20.578  22.552  1.00  0.00     0.032 A 
ATOM     17  Cl  UNL A   1      32.015  18.073  21.721  1.00  0.00    -0.084 Cl
ATOM     18  C   UNL A   1      32.450  21.659  23.350  1.00  0.00     0.019 A 
ATOM     19  O   UNL A   1      33.848  22.465  25.162  1.00  0.00    -0.475 OA
ATOM     20  C   UNL A   1      31.844  22.962  23.157  1.00  0.00     0.027 C 
ATOM     21  C   UNL A   1      33.344  23.821  24.983  1.00  0.00     0.316 C 
BRANCH  12  22
ATOM     22  C   UNL A   1      33.771  17.617  24.451  1.00  0.00    -0.012 C 
ATOM     23  C   UNL A   1      35.266  17.561  24.849  1.00  0.00     0.016 C 
ATOM     24  C   UNL A   1      33.616  16.518  23.361  1.00  0.00     0.016 C 
ATOM     25  C   UNL A   1      32.882  17.183  25.631  1.00  0.00     0.016 C 
ENDBRANCH  12  22
BRANCH  21  26
ATOM     26  C   UNL A   1      32.927  24.352  26.361  1.00  0.00     0.430 C 
ATOM     27  F   UNL A   1      31.628  24.067  26.621  1.00  0.00    -0.167 F 
ATOM     28  F   UNL A   1      33.659  23.810  27.358  1.00  0.00    -0.167 F 
ATOM     29  F   UNL A   1      33.069  25.696  26.434  1.00  0.00    -0.167 F 
ENDBRANCH  21  26
ENDBRANCH   9  11
ENDBRANCH   8   9
ENDBRANCH   7   8
ENDBRANCH   6   7
ENDBRANCH   5   6
ENDBRANCH   4   5
ENDBRANCH   3   4
ENDBRANCH   2   3
ENDBRANCH   1   2
BRANCH   1  30
ATOM     30  C   UNL A   1      34.171  29.076  26.640  1.00  0.00     0.188 C 
BRANCH  30  31
ATOM     31  O   UNL A   1      35.005  29.977  27.367  1.00  0.00    -0.376 OA
BRANCH  31  32
ATOM     32  C   UNL A   1      34.386  31.085  28.000  1.00  0.00     0.202 C 
BRANCH  32  33
ATOM     33  C   UNL A   1      34.875  31.370  29.424  1.00  0.00     0.261 C 
BRANCH  33  34
ATOM     34  O   UNL A   1      36.297  31.325  29.608  1.00  0.00    -0.460 OA
BRANCH  34  35
ATOM     35  C   UNL A   1      36.823  30.231  30.202  1.00  0.00     0.338 C 
ATOM     36  O   UNL A   1      36.242  29.431  30.913  1.00  0.00    -0.246 OA
BRANCH  35  37
ATOM     37  C   UNL A   1      38.197  30.068  29.682  1.00  0.00     0.060 A 
ATOM     38  C   UNL A   1      39.286  30.130  30.554  1.00  0.00     0.016 A 
ATOM     39  C   UNL A   1      38.396  29.883  28.308  1.00  0.00     0.016 A 
ATOM     40  C   UNL A   1      40.576  29.977  30.053  1.00  0.00     0.010 A 
ATOM     41  C   UNL A   1      39.692  29.723  27.808  1.00  0.00     0.010 A 
ATOM     42  C   UNL A   1      40.789  29.746  28.681  1.00  0.00    -0.014 A 
BRANCH  42  43
ATOM     43  C   UNL A   1      42.147  29.360  28.225  1.00  0.00     0.031 A 
ATOM     44  C   UNL A   1      43.286  30.332  28.199  1.00  0.00     0.074 A 
ATOM     45  C   UNL A   1      42.341  28.076  27.866  1.00  0.00     0.049 A 
ATOM     46  N   UNL A   1      44.555  30.096  27.987  1.00  0.00    -0.248 NA
ATOM     47  C   UNL A   1      42.965  31.747  28.432  1.00  0.00     0.031 C 
ATOM     48  C   UNL A   1      41.290  27.055  27.811  1.00  0.00     0.029 A 
ATOM     49  N   UNL A   1      43.480  27.400  27.508  1.00  0.00    -0.354 N 
ATOM     50  C   UNL A   1      45.194  31.324  28.090  1.00  0.00     0.074 A 
ATOM     51  C   UNL A   1      44.162  32.313  28.326  1.00  0.00     0.031 C 
ATOM     52  C   UNL A   1      41.841  25.876  27.490  1.00  0.00     0.029 A 
ATOM     53  C   UNL A   1      43.276  26.058  27.293  1.00  0.00     0.049 A 
ATOM     54  H   UNL A   1      44.358  27.836  27.415  1.00  0.00     0.167 HD
ATOM     55  C   UNL A   1      46.522  31.590  28.017  1.00  0.00     0.037 A 
ATOM     56  C   UNL A   1      44.147  25.079  26.989  1.00  0.00     0.037 A 
ATOM     57  C   UNL A   1      47.535  30.594  27.765  1.00  0.00     0.049 A 
ATOM     58  C   UNL A   1      45.608  25.409  26.875  1.00  0.00     0.074 A 
ATOM     59  C   UNL A   1      48.909  30.758  27.725  1.00  0.00     0.029 A 
ATOM     60  N   UNL A   1      47.288  29.256  27.493  1.00  0.00    -0.354 N 
ATOM     61  N   UNL A   1      46.210  26.557  27.077  1.00  0.00    -0.248 NA
ATOM     62  C   UNL A   1      46.510  24.314  26.491  1.00  0.00     0.031 C 
ATOM     63  C   UNL A   1      49.488  29.534  27.375  1.00  0.00     0.029 A 
ATOM     64  C   UNL A   1      48.479  28.593  27.244  1.00  0.00     0.049 A 
ATOM     65  H   UNL A   1      46.395  28.839  27.479  1.00  0.00     0.167 HD
ATOM     66  C   UNL A   1      47.561  26.323  26.850  1.00  0.00     0.074 A 
ATOM     67  C   UNL A   1      47.691  24.917  26.522  1.00  0.00     0.031 C 
ATOM     68  C   UNL A   1      48.597  27.196  26.902  1.00  0.00     0.037 A 
BRANCH  55  69
ATOM     69  C   UNL A   1      46.967  33.011  28.229  1.00  0.00     0.058 A 
ATOM     70  C   UNL A   1      46.982  33.935  27.172  1.00  0.00     0.135 A 
ATOM     71  C   UNL A   1      47.308  33.480  29.509  1.00  0.00     0.135 A 
ATOM     72  F   UNL A   1      46.671  33.541  25.926  1.00  0.00    -0.206 F 
ATOM     73  C   UNL A   1      47.339  35.264  27.370  1.00  0.00     0.059 A 
ATOM     74  C   UNL A   1      47.643  34.812  29.736  1.00  0.00     0.059 A 
ATOM     75  F   UNL A   1      47.304  32.641  30.558  1.00  0.00    -0.206 F 
ATOM     76  C   UNL A   1      47.667  35.695  28.657  1.00  0.00     0.060 A 
BRANCH  76  77
ATOM     77  S   UNL A   1      48.120  37.426  28.893  1.00  0.00     0.124 S 
ATOM     78  O   UNL A   1      49.399  37.490  28.191  1.00  0.00    -0.237 OA
ATOM     79  O   UNL A   1      47.010  38.127  28.255  1.00  0.00    -0.237 OA
ATOM     80  O   UNL A   1      48.196  37.565  30.343  1.00  0.00    -0.744 OA
ENDBRANCH  76  77
ENDBRANCH  55  69
BRANCH  56  81
ATOM     81  C   UNL A   1      43.654  23.688  26.810  1.00  0.00     0.058 A 
ATOM     82  C   UNL A   1      43.248  22.920  27.911  1.00  0.00     0.135 A 
ATOM     83  C   UNL A   1      43.540  23.115  25.533  1.00  0.00     0.135 A 
ATOM     84  F   UNL A   1      43.341  23.423  29.151  1.00  0.00    -0.206 F 
ATOM     85  C   UNL A   1      42.752  21.630  27.754  1.00  0.00     0.059 A 
ATOM     86  C   UNL A   1      43.023  21.838  25.349  1.00  0.00     0.059 A 
ATOM     87  F   UNL A   1      43.899  23.817  24.447  1.00  0.00    -0.206 F 
ATOM     88  C   UNL A   1      42.637  21.100  26.467  1.00  0.00     0.060 A 
BRANCH  88  89
ATOM     89  S   UNL A   1      41.938  19.447  26.275  1.00  0.00     0.124 S 
ATOM     90  O   UNL A   1      42.334  18.814  27.528  1.00  0.00    -0.237 OA
ATOM     91  O   UNL A   1      40.515  19.735  26.126  1.00  0.00    -0.237 OA
ATOM     92  O   UNL A   1      42.597  18.940  25.076  1.00  0.00    -0.744 OA
ENDBRANCH  88  89
ENDBRANCH  56  81
BRANCH  68  93
ATOM     93  C   UNL A   1      49.966  26.671  26.571  1.00  0.00     0.058 A 
ATOM     94  C   UNL A   1      50.796  26.130  27.566  1.00  0.00     0.135 A 
ATOM     95  C   UNL A   1      50.421  26.627  25.244  1.00  0.00     0.135 A 
ATOM     96  F   UNL A   1      50.414  26.157  28.853  1.00  0.00    -0.206 F 
ATOM     97  C   UNL A   1      52.028  25.564  27.257  1.00  0.00     0.059 A 
ATOM     98  C   UNL A   1      51.640  26.042  24.908  1.00  0.00     0.059 A 
ATOM     99  F   UNL A   1      49.666  27.127  24.253  1.00  0.00    -0.206 F 
ATOM    100  C   UNL A   1      52.437  25.514  25.923  1.00  0.00     0.060 A 
BRANCH 100 101
ATOM    101  S   UNL A   1      54.008  24.714  25.535  1.00  0.00     0.124 S 
ATOM    102  O   UNL A   1      53.568  23.387  25.116  1.00  0.00    -0.237 OA
ATOM    103  O   UNL A   1      54.536  25.569  24.477  1.00  0.00    -0.237 OA
ATOM    104  O   UNL A   1      54.738  24.763  26.797  1.00  0.00    -0.744 OA
ENDBRANCH 100 101
ENDBRANCH  68  93
ENDBRANCH  42  43
ENDBRANCH  35  37
ENDBRANCH  34  35
ENDBRANCH  33  34
ENDBRANCH  32  33
ENDBRANCH  31  32
ENDBRANCH  30  31
ENDBRANCH   1  30
TORSDOF 25
ENDMDL
MODEL 3
REMARK VINA RESULT:      -6.9      4.290      8.858
REMARK SMILES CC(C)(C)c1cc2c(cc1Cl)C=C(C(=O)OCCOCCOCCOCCOC(=O)c1ccc(-c3c4nc(c(-c5c(F)cc(S(=O)(=O)[O-])cc5F)c5ccc([nH]5)c(-c5c(F)cc(S(=O)(=O)[O-])cc5F)c5nc(c(-c6c(F)cc(S(=O)(=O)[O-])cc6F)c6ccc3[nH]6)C=C5)C=C4)cc1)[C@@H](C(F)(F)F)O2
REMARK SMILES IDX 23 1 22 2 21 3 20 4 19 5 18 6 17 7 16 8 14 9 15 10 13 11
REMARK SMILES IDX 5 12 6 13 10 14 7 15 9 16 11 17 8 18 102 19 12 20 97 21 2 22
REMARK SMILES IDX 1 23 3 24 4 25 98 26 99 27 100 28 101 29 24 30 25 31 26 32
REMARK SMILES IDX 27 33 28 34 29 35 30 36 31 37 32 38 96 39 33 40 95 41 34 42
REMARK SMILES IDX 35 43 36 44 89 45 37 46 94 47 88 48 90 49 38 50 93 51 87 52
REMARK SMILES IDX 86 53 39 55 73 56 52 57 72 58 53 59 56 60 71 61 91 62 54 63
REMARK SMILES IDX 55 64 70 66 92 67 57 68 40 69 41 70 50 71 42 72 43 73 49 74
REMARK SMILES IDX 51 75 44 76 45 77 46 78 47 79 48 80 74 81 75 82 84 83 76 84
REMARK SMILES IDX 77 85 83 86 85 87 78 88 79 89 80 90 81 91 82 92 58 93 59 94
REMARK SMILES IDX 68 95 60 96 61 97 67 98 69 99 62 100 63 101 64 102 65 103
REMARK SMILES IDX 66 104
REMARK H PARENT 90 54 56 65
REMARK Flexibility Score: inf
ROOT
ATOM      1  C   UNL A   1      32.519  27.263  26.194  1.00  0.00     0.188 C 
ENDROOT
BRANCH   1   2
ATOM      2  O   UNL A   1      31.834  26.829  25.019  1.00  0.00    -0.377 OA
BRANCH   2   3
ATOM      3  C   UNL A   1      31.755  27.751  23.942  1.00  0.00     0.188 C 
BRANCH   3   4
ATOM      4  C   UNL A   1      32.589  27.300  22.728  1.00  0.00     0.188 C 
BRANCH   4   5
ATOM      5  O   UNL A   1      32.662  25.893  22.584  1.00  0.00    -0.376 OA
BRANCH   5   6
ATOM      6  C   UNL A   1      33.844  25.182  22.930  1.00  0.00     0.202 C 
BRANCH   6   7
ATOM      7  C   UNL A   1      34.001  24.299  24.185  1.00  0.00     0.261 C 
BRANCH   7   8
ATOM      8  O   UNL A   1      35.315  24.147  24.725  1.00  0.00    -0.460 OA
BRANCH   8   9
ATOM      9  C   UNL A   1      35.458  23.427  25.850  1.00  0.00     0.338 C 
ATOM     10  O   UNL A   1      34.573  22.926  26.520  1.00  0.00    -0.246 OA
BRANCH   9  11
ATOM     11  C   UNL A   1      36.906  23.171  26.025  1.00  0.00     0.087 C 
ATOM     12  C   UNL A   1      41.911  23.648  26.551  1.00  0.00    -0.020 A 
ATOM     13  C   UNL A   1      41.011  22.575  26.344  1.00  0.00     0.053 A 
ATOM     14  C   UNL A   1      41.323  24.893  26.876  1.00  0.00     0.045 A 
ATOM     15  C   UNL A   1      39.622  22.751  26.329  1.00  0.00     0.128 A 
ATOM     16  C   UNL A   1      39.930  25.068  26.849  1.00  0.00     0.032 A 
ATOM     17  Cl  UNL A   1      42.212  26.305  27.334  1.00  0.00    -0.084 Cl
ATOM     18  C   UNL A   1      39.083  24.012  26.524  1.00  0.00     0.019 A 
ATOM     19  O   UNL A   1      38.878  21.635  26.082  1.00  0.00    -0.475 OA
ATOM     20  C   UNL A   1      37.663  24.232  26.332  1.00  0.00     0.027 C 
ATOM     21  C   UNL A   1      37.431  21.758  25.949  1.00  0.00     0.316 C 
BRANCH  12  22
ATOM     22  C   UNL A   1      43.433  23.419  26.374  1.00  0.00    -0.012 C 
ATOM     23  C   UNL A   1      43.739  21.949  25.996  1.00  0.00     0.016 C 
ATOM     24  C   UNL A   1      44.248  23.666  27.676  1.00  0.00     0.016 C 
ATOM     25  C   UNL A   1      44.009  24.379  25.315  1.00  0.00     0.016 C 
ENDBRANCH  12  22
BRANCH  21  26
ATOM     26  C   UNL A   1      37.019  21.049  24.651  1.00  0.00     0.430 C 
ATOM     27  F   UNL A   1      37.059  21.898  23.596  1.00  0.00    -0.167 F 
ATOM     28  F   UNL A   1      37.832  20.012  24.356  1.00  0.00    -0.167 F 
ATOM     29  F   UNL A   1      35.757  20.567  24.734  1.00  0.00    -0.167 F 
ENDBRANCH  21  26
ENDBRANCH   9  11
ENDBRANCH   8   9
ENDBRANCH   7   8
ENDBRANCH   6   7
ENDBRANCH   5   6
ENDBRANCH   4   5
ENDBRANCH   3   4
ENDBRANCH   2   3
ENDBRANCH   1   2
BRANCH   1  30
ATOM     30  C   UNL A   1      34.023  27.621  26.138  1.00  0.00     0.188 C 
BRANCH  30  31
ATOM     31  O   UNL A   1      34.299  28.992  26.417  1.00  0.00    -0.376 OA
BRANCH  31  32
ATOM     32  C   UNL A   1      33.197  29.881  26.516  1.00  0.00     0.202 C 
BRANCH  32  33
ATOM     33  C   UNL A   1      33.379  31.024  27.521  1.00  0.00     0.261 C 
BRANCH  33  34
ATOM     34  O   UNL A   1      34.717  31.522  27.651  1.00  0.00    -0.460 OA
BRANCH  34  35
ATOM     35  C   UNL A   1      34.942  32.493  28.564  1.00  0.00     0.338 C 
ATOM     36  O   UNL A   1      34.132  33.286  29.008  1.00  0.00    -0.246 OA
BRANCH  35  37
ATOM     37  C   UNL A   1      36.316  32.303  29.076  1.00  0.00     0.060 A 
ATOM     38  C   UNL A   1      37.257  33.326  28.947  1.00  0.00     0.016 A 
ATOM     39  C   UNL A   1      36.671  31.079  29.658  1.00  0.00     0.016 A 
ATOM     40  C   UNL A   1      38.550  33.136  29.431  1.00  0.00     0.010 A 
ATOM     41  C   UNL A   1      37.968  30.892  30.149  1.00  0.00     0.010 A 
ATOM     42  C   UNL A   1      38.908  31.929  30.059  1.00  0.00    -0.014 A 
BRANCH  42  43
ATOM     43  C   UNL A   1      40.212  31.850  30.761  1.00  0.00     0.031 A 
ATOM     44  C   UNL A   1      41.425  31.242  30.127  1.00  0.00     0.074 A 
ATOM     45  C   UNL A   1      40.289  32.388  31.995  1.00  0.00     0.049 A 
ATOM     46  N   UNL A   1      42.662  31.256  30.552  1.00  0.00    -0.248 NA
ATOM     47  C   UNL A   1      41.229  30.521  28.861  1.00  0.00     0.031 C 
ATOM     48  C   UNL A   1      39.157  32.966  32.725  1.00  0.00     0.029 A 
ATOM     49  N   UNL A   1      41.354  32.563  32.839  1.00  0.00    -0.354 N 
ATOM     50  C   UNL A   1      43.402  30.574  29.596  1.00  0.00     0.074 A 
ATOM     51  C   UNL A   1      42.464  30.108  28.596  1.00  0.00     0.031 C 
ATOM     52  C   UNL A   1      39.598  33.475  33.885  1.00  0.00     0.029 A 
ATOM     53  C   UNL A   1      41.034  33.240  33.992  1.00  0.00     0.049 A 
ATOM     54  H   UNL A   1      42.261  32.235  32.639  1.00  0.00     0.167 HD
ATOM     55  C   UNL A   1      44.743  30.379  29.551  1.00  0.00     0.037 A 
ATOM     56  C   UNL A   1      41.811  33.643  35.014  1.00  0.00     0.037 A 
ATOM     57  C   UNL A   1      45.662  30.836  30.565  1.00  0.00     0.049 A 
ATOM     58  C   UNL A   1      43.289  33.379  34.958  1.00  0.00     0.074 A 
ATOM     59  C   UNL A   1      47.043  30.733  30.583  1.00  0.00     0.029 A 
ATOM     60  N   UNL A   1      45.297  31.466  31.747  1.00  0.00    -0.354 N 
ATOM     61  N   UNL A   1      43.989  32.824  33.998  1.00  0.00    -0.248 NA
ATOM     62  C   UNL A   1      44.084  33.794  36.122  1.00  0.00     0.031 C 
ATOM     63  C   UNL A   1      47.507  31.248  31.798  1.00  0.00     0.029 A 
ATOM     64  C   UNL A   1      46.421  31.718  32.519  1.00  0.00     0.049 A 
ATOM     65  H   UNL A   1      44.374  31.698  32.001  1.00  0.00     0.167 HD
ATOM     66  C   UNL A   1      45.307  32.827  34.438  1.00  0.00     0.074 A 
ATOM     67  C   UNL A   1      45.311  33.464  35.740  1.00  0.00     0.031 C 
ATOM     68  C   UNL A   1      46.412  32.339  33.821  1.00  0.00     0.037 A 
BRANCH  55  69
ATOM     69  C   UNL A   1      45.311  29.656  28.361  1.00  0.00     0.058 A 
ATOM     70  C   UNL A   1      45.847  30.357  27.269  1.00  0.00     0.135 A 
ATOM     71  C   UNL A   1      45.393  28.253  28.338  1.00  0.00     0.135 A 
ATOM     72  F   UNL A   1      45.792  31.698  27.235  1.00  0.00    -0.206 F 
ATOM     73  C   UNL A   1      46.424  29.696  26.190  1.00  0.00     0.059 A 
ATOM     74  C   UNL A   1      45.989  27.571  27.281  1.00  0.00     0.059 A 
ATOM     75  F   UNL A   1      44.901  27.532  29.359  1.00  0.00    -0.206 F 
ATOM     76  C   UNL A   1      46.492  28.302  26.206  1.00  0.00     0.060 A 
BRANCH  76  77
ATOM     77  S   UNL A   1      47.251  27.465  24.798  1.00  0.00     0.124 S 
ATOM     78  O   UNL A   1      48.613  27.989  24.848  1.00  0.00    -0.237 OA
ATOM     79  O   UNL A   1      47.101  26.058  25.156  1.00  0.00    -0.237 OA
ATOM     80  O   UNL A   1      46.450  27.910  23.663  1.00  0.00    -0.744 OA
ENDBRANCH  76  77
ENDBRANCH  55  69
BRANCH  56  81
ATOM     81  C   UNL A   1      41.200  34.372  36.157  1.00  0.00     0.058 A 
ATOM     82  C   UNL A   1      40.636  33.678  37.236  1.00  0.00     0.135 A 
ATOM     83  C   UNL A   1      41.206  35.775  36.210  1.00  0.00     0.135 A 
ATOM     84  F   UNL A   1      40.605  32.337  37.229  1.00  0.00    -0.206 F 
ATOM     85  C   UNL A   1      40.093  34.347  38.328  1.00  0.00     0.059 A 
ATOM     86  C   UNL A   1      40.692  36.466  37.302  1.00  0.00     0.059 A 
ATOM     87  F   UNL A   1      41.750  36.484  35.209  1.00  0.00    -0.206 F 
ATOM     88  C   UNL A   1      40.132  35.744  38.353  1.00  0.00     0.060 A 
BRANCH  88  89
ATOM     89  S   UNL A   1      39.475  36.597  39.802  1.00  0.00     0.124 S 
ATOM     90  O   UNL A   1      38.667  35.550  40.418  1.00  0.00    -0.237 OA
ATOM     91  O   UNL A   1      40.693  36.967  40.515  1.00  0.00    -0.237 OA
ATOM     92  O   UNL A   1      38.730  37.713  39.227  1.00  0.00    -0.744 OA
ENDBRANCH  88  89
ENDBRANCH  56  81
BRANCH  68  93
ATOM     93  C   UNL A   1      47.721  32.446  34.553  1.00  0.00     0.058 A 
ATOM     94  C   UNL A   1      48.523  33.592  34.442  1.00  0.00     0.135 A 
ATOM     95  C   UNL A   1      48.138  31.438  35.438  1.00  0.00     0.135 A 
ATOM     96  F   UNL A   1      48.177  34.580  33.601  1.00  0.00    -0.206 F 
ATOM     97  C   UNL A   1      49.692  33.736  35.181  1.00  0.00     0.059 A 
ATOM     98  C   UNL A   1      49.291  31.572  36.207  1.00  0.00     0.059 A 
ATOM     99  F   UNL A   1      47.406  30.323  35.585  1.00  0.00    -0.206 F 
ATOM    100  C   UNL A   1      50.063  32.726  36.069  1.00  0.00     0.060 A 
BRANCH 100 101
ATOM    101  S   UNL A   1      51.547  32.962  37.070  1.00  0.00     0.124 S 
ATOM    102  O   UNL A   1      51.337  31.994  38.142  1.00  0.00    -0.237 OA
ATOM    103  O   UNL A   1      52.611  32.638  36.125  1.00  0.00    -0.237 OA
ATOM    104  O   UNL A   1      51.472  34.364  37.468  1.00  0.00    -0.744 OA
ENDBRANCH 100 101
ENDBRANCH  68  93
ENDBRANCH  42  43
ENDBRANCH  35  37
ENDBRANCH  34  35
ENDBRANCH  33  34
ENDBRANCH  32  33
ENDBRANCH  31  32
ENDBRANCH  30  31
ENDBRANCH   1  30
TORSDOF 25
ENDMDL
