MODEL 1
REMARK VINA RESULT:      -7.0      0.000      0.000
REMARK SMILES CCN(CCOC)C(=O)c1cccn1CC(=O)OCCOCCOCCOCCOC(=O)c1ccc(-c2c3nc(c(-c4c(F)cc(S(=O)(=O)[O-])cc4F)c4ccc([nH]4)c(-c4c(F)cc(S(=O)(=O)[O-])cc4F)c4nc(c(-c5c(F)cc(S(=O)(=O)[O-])cc5F)c5ccc2[nH]5)C=C4)C=C3)cc1
REMARK SMILES IDX 22 1 21 2 20 3 19 4 18 5 16 6 17 7 15 8 14 9 10 10 11 11
REMARK SMILES IDX 12 12 13 13 8 14 9 15 3 16 2 17 1 18 4 19 5 20 6 21 7 22
REMARK SMILES IDX 23 23 24 24 25 25 26 26 27 27 28 28 29 29 30 30 31 31 32 32
REMARK SMILES IDX 33 33 34 34 98 35 35 36 97 37 36 38 37 39 38 40 91 41 39 42
REMARK SMILES IDX 96 43 90 44 92 45 40 46 95 47 89 48 88 49 41 51 75 52 54 53
REMARK SMILES IDX 74 54 55 55 58 56 73 57 93 58 56 59 57 60 72 62 94 63 59 64
REMARK SMILES IDX 42 65 43 66 52 67 44 68 45 69 51 70 53 71 46 72 47 73 48 74
REMARK SMILES IDX 49 75 50 76 76 77 77 78 86 79 78 80 79 81 85 82 87 83 80 84
REMARK SMILES IDX 81 85 82 86 83 87 84 88 60 89 61 90 70 91 62 92 63 93 69 94
REMARK SMILES IDX 71 95 64 96 65 97 66 98 67 99 68 100
REMARK H PARENT 92 50 58 61
REMARK Flexibility Score: inf
ROOT
ATOM      1  C   UNL A   1      43.276  43.170  32.697  1.00  0.00     0.188 C 
ENDROOT
BRANCH   1   2
ATOM      2  O   UNL A   1      44.327  43.580  33.574  1.00  0.00    -0.376 OA
BRANCH   2   3
ATOM      3  C   UNL A   1      45.537  42.849  33.561  1.00  0.00     0.202 C 
BRANCH   3   4
ATOM      4  C   UNL A   1      45.354  41.337  33.375  1.00  0.00     0.261 C 
BRANCH   4   5
ATOM      5  O   UNL A   1      45.033  40.642  34.594  1.00  0.00    -0.462 OA
BRANCH   5   6
ATOM      6  C   UNL A   1      45.948  39.741  35.034  1.00  0.00     0.326 C 
ATOM      7  O   UNL A   1      47.116  40.023  35.299  1.00  0.00    -0.250 OA
BRANCH   6   8
ATOM      8  C   UNL A   1      45.406  38.343  35.231  1.00  0.00     0.244 C 
BRANCH   8   9
ATOM      9  N   UNL A   1      44.643  38.079  36.457  1.00  0.00    -0.332 N 
ATOM     10  C   UNL A   1      43.916  36.927  36.773  1.00  0.00     0.107 A 
ATOM     11  C   UNL A   1      43.344  37.201  38.012  1.00  0.00     0.033 A 
ATOM     12  C   UNL A   1      43.820  38.439  38.494  1.00  0.00     0.020 A 
ATOM     13  C   UNL A   1      44.659  38.937  37.535  1.00  0.00     0.087 A 
BRANCH  10  14
ATOM     14  C   UNL A   1      43.923  35.732  35.924  1.00  0.00     0.270 C 
ATOM     15  O   UNL A   1      45.006  35.199  35.663  1.00  0.00    -0.267 OA
BRANCH  14  16
ATOM     16  N   UNL A   1      42.759  35.140  35.404  1.00  0.00    -0.335 N 
BRANCH  16  17
ATOM     17  C   UNL A   1      41.809  36.027  34.722  1.00  0.00     0.116 C 
ATOM     18  C   UNL A   1      40.564  36.345  35.540  1.00  0.00     0.027 C 
ENDBRANCH  16  17
BRANCH  16  19
ATOM     19  C   UNL A   1      42.412  33.712  35.393  1.00  0.00     0.148 C 
BRANCH  19  20
ATOM     20  C   UNL A   1      41.618  33.280  34.141  1.00  0.00     0.181 C 
BRANCH  20  21
ATOM     21  O   UNL A   1      40.613  32.311  34.434  1.00  0.00    -0.383 OA
ATOM     22  C   UNL A   1      39.336  32.865  34.714  1.00  0.00     0.194 C 
ENDBRANCH  20  21
ENDBRANCH  19  20
ENDBRANCH  16  19
ENDBRANCH  14  16
ENDBRANCH  10  14
ENDBRANCH   8   9
ENDBRANCH   6   8
ENDBRANCH   5   6
ENDBRANCH   4   5
ENDBRANCH   3   4
ENDBRANCH   2   3
ENDBRANCH   1   2
BRANCH   1  23
ATOM     23  C   UNL A   1      42.145  42.226  33.164  1.00  0.00     0.188 C 
BRANCH  23  24
ATOM     24  O   UNL A   1      41.681  41.338  32.146  1.00  0.00    -0.377 OA
BRANCH  24  25
ATOM     25  C   UNL A   1      41.817  41.852  30.825  1.00  0.00     0.188 C 
BRANCH  25  26
ATOM     26  C   UNL A   1      41.086  40.993  29.786  1.00  0.00     0.188 C 
BRANCH  26  27
ATOM     27  O   UNL A   1      41.980  40.224  28.982  1.00  0.00    -0.376 OA
BRANCH  27  28
ATOM     28  C   UNL A   1      43.328  40.661  28.888  1.00  0.00     0.202 C 
BRANCH  28  29
ATOM     29  C   UNL A   1      44.304  39.733  29.624  1.00  0.00     0.261 C 
BRANCH  29  30
ATOM     30  O   UNL A   1      43.943  38.350  29.596  1.00  0.00    -0.460 OA
BRANCH  30  31
ATOM     31  C   UNL A   1      44.392  37.661  30.660  1.00  0.00     0.338 C 
ATOM     32  O   UNL A   1      44.757  38.094  31.738  1.00  0.00    -0.246 OA
BRANCH  31  33
ATOM     33  C   UNL A   1      44.417  36.236  30.375  1.00  0.00     0.060 A 
ATOM     34  C   UNL A   1      44.128  35.866  29.057  1.00  0.00     0.016 A 
ATOM     35  C   UNL A   1      44.250  35.383  31.467  1.00  0.00     0.016 A 
ATOM     36  C   UNL A   1      43.458  34.682  28.847  1.00  0.00     0.010 A 
ATOM     37  C   UNL A   1      43.538  34.224  31.260  1.00  0.00     0.010 A 
ATOM     38  C   UNL A   1      43.080  33.932  29.965  1.00  0.00    -0.014 A 
BRANCH  38  39
ATOM     39  C   UNL A   1      42.108  32.850  29.779  1.00  0.00     0.031 A 
ATOM     40  C   UNL A   1      42.695  31.669  29.041  1.00  0.00     0.074 A 
ATOM     41  C   UNL A   1      40.859  33.091  30.279  1.00  0.00     0.049 A 
ATOM     42  N   UNL A   1      42.090  30.770  28.335  1.00  0.00    -0.248 NA
ATOM     43  C   UNL A   1      44.174  31.511  28.990  1.00  0.00     0.031 C 
ATOM     44  C   UNL A   1      40.455  34.360  30.923  1.00  0.00     0.029 A 
ATOM     45  N   UNL A   1      39.694  32.357  30.364  1.00  0.00    -0.354 N 
ATOM     46  C   UNL A   1      43.065  29.837  27.954  1.00  0.00     0.074 A 
ATOM     47  C   UNL A   1      44.340  30.417  28.247  1.00  0.00     0.031 C 
ATOM     48  C   UNL A   1      39.154  34.328  31.273  1.00  0.00     0.029 A 
ATOM     49  C   UNL A   1      38.586  33.042  30.929  1.00  0.00     0.049 A 
ATOM     50  H   UNL A   1      39.635  31.424  30.055  1.00  0.00     0.167 HD
ATOM     51  C   UNL A   1      42.768  28.566  27.578  1.00  0.00     0.037 A 
ATOM     52  C   UNL A   1      37.296  32.616  31.096  1.00  0.00     0.037 A 
ATOM     53  C   UNL A   1      41.365  28.324  27.660  1.00  0.00     0.049 A 
ATOM     54  C   UNL A   1      37.296  31.176  30.767  1.00  0.00     0.074 A 
ATOM     55  C   UNL A   1      40.305  28.726  26.891  1.00  0.00     0.029 A 
ATOM     56  N   UNL A   1      40.888  27.847  28.862  1.00  0.00    -0.354 N 
ATOM     57  N   UNL A   1      37.894  30.251  31.462  1.00  0.00    -0.248 NA
ATOM     58  C   UNL A   1      36.647  30.729  29.530  1.00  0.00     0.031 C 
ATOM     59  C   UNL A   1      39.229  28.828  27.799  1.00  0.00     0.029 A 
ATOM     60  C   UNL A   1      39.638  28.384  29.062  1.00  0.00     0.049 A 
ATOM     61  H   UNL A   1      41.359  27.232  29.470  1.00  0.00     0.167 HD
ATOM     62  C   UNL A   1      37.981  29.204  30.574  1.00  0.00     0.074 A 
ATOM     63  C   UNL A   1      36.982  29.442  29.556  1.00  0.00     0.031 C 
ATOM     64  C   UNL A   1      39.167  28.558  30.425  1.00  0.00     0.037 A 
BRANCH  51  65
ATOM     65  C   UNL A   1      43.667  27.394  27.365  1.00  0.00     0.058 A 
ATOM     66  C   UNL A   1      44.405  26.926  28.472  1.00  0.00     0.135 A 
ATOM     67  C   UNL A   1      44.069  26.948  26.098  1.00  0.00     0.135 A 
ATOM     68  F   UNL A   1      44.054  27.271  29.723  1.00  0.00    -0.206 F 
ATOM     69  C   UNL A   1      45.554  26.163  28.324  1.00  0.00     0.059 A 
ATOM     70  C   UNL A   1      45.197  26.148  25.928  1.00  0.00     0.059 A 
ATOM     71  F   UNL A   1      43.434  27.352  24.989  1.00  0.00    -0.206 F 
ATOM     72  C   UNL A   1      45.965  25.813  27.042  1.00  0.00     0.060 A 
BRANCH  72  73
ATOM     73  S   UNL A   1      47.548  24.972  26.847  1.00  0.00     0.124 S 
ATOM     74  O   UNL A   1      48.012  24.897  28.228  1.00  0.00    -0.237 OA
ATOM     75  O   UNL A   1      47.155  23.702  26.242  1.00  0.00    -0.237 OA
ATOM     76  O   UNL A   1      48.296  25.867  25.971  1.00  0.00    -0.744 OA
ENDBRANCH  72  73
ENDBRANCH  51  65
BRANCH  52  77
ATOM     77  C   UNL A   1      35.952  33.251  31.410  1.00  0.00     0.058 A 
ATOM     78  C   UNL A   1      35.383  33.393  32.685  1.00  0.00     0.135 A 
ATOM     79  C   UNL A   1      35.250  33.947  30.385  1.00  0.00     0.135 A 
ATOM     80  F   UNL A   1      35.857  32.734  33.746  1.00  0.00    -0.206 F 
ATOM     81  C   UNL A   1      34.310  34.262  32.946  1.00  0.00     0.059 A 
ATOM     82  C   UNL A   1      34.223  34.858  30.627  1.00  0.00     0.059 A 
ATOM     83  F   UNL A   1      35.580  33.807  29.092  1.00  0.00    -0.206 F 
ATOM     84  C   UNL A   1      33.776  35.036  31.923  1.00  0.00     0.060 A 
BRANCH  84  85
ATOM     85  S   UNL A   1      32.613  36.367  32.282  1.00  0.00     0.124 S 
ATOM     86  O   UNL A   1      33.285  37.074  33.365  1.00  0.00    -0.237 OA
ATOM     87  O   UNL A   1      32.534  37.082  31.010  1.00  0.00    -0.237 OA
ATOM     88  O   UNL A   1      31.399  35.643  32.653  1.00  0.00    -0.744 OA
ENDBRANCH  84  85
ENDBRANCH  52  77
BRANCH  64  89
ATOM     89  C   UNL A   1      40.017  28.526  31.684  1.00  0.00     0.058 A 
ATOM     90  C   UNL A   1      39.588  27.805  32.812  1.00  0.00     0.135 A 
ATOM     91  C   UNL A   1      41.200  29.266  31.846  1.00  0.00     0.135 A 
ATOM     92  F   UNL A   1      38.471  27.063  32.746  1.00  0.00    -0.206 F 
ATOM     93  C   UNL A   1      40.290  27.824  34.023  1.00  0.00     0.059 A 
ATOM     94  C   UNL A   1      41.927  29.295  33.038  1.00  0.00     0.059 A 
ATOM     95  F   UNL A   1      41.682  29.992  30.839  1.00  0.00    -0.206 F 
ATOM     96  C   UNL A   1      41.459  28.574  34.128  1.00  0.00     0.060 A 
BRANCH  96  97
ATOM     97  S   UNL A   1      42.362  28.589  35.694  1.00  0.00     0.124 S 
ATOM     98  O   UNL A   1      43.542  29.383  35.368  1.00  0.00    -0.237 OA
ATOM     99  O   UNL A   1      41.404  29.222  36.594  1.00  0.00    -0.237 OA
ATOM    100  O   UNL A   1      42.622  27.175  35.957  1.00  0.00    -0.744 OA
ENDBRANCH  96  97
ENDBRANCH  64  89
ENDBRANCH  38  39
ENDBRANCH  31  33
ENDBRANCH  30  31
ENDBRANCH  29  30
ENDBRANCH  28  29
ENDBRANCH  27  28
ENDBRANCH  26  27
ENDBRANCH  25  26
ENDBRANCH  24  25
ENDBRANCH  23  24
ENDBRANCH   1  23
TORSDOF 30
ENDMDL
MODEL 2
REMARK VINA RESULT:      -7.0      6.290     13.001
REMARK SMILES CCN(CCOC)C(=O)c1cccn1CC(=O)OCCOCCOCCOCCOC(=O)c1ccc(-c2c3nc(c(-c4c(F)cc(S(=O)(=O)[O-])cc4F)c4ccc([nH]4)c(-c4c(F)cc(S(=O)(=O)[O-])cc4F)c4nc(c(-c5c(F)cc(S(=O)(=O)[O-])cc5F)c5ccc2[nH]5)C=C4)C=C3)cc1
REMARK SMILES IDX 22 1 21 2 20 3 19 4 18 5 16 6 17 7 15 8 14 9 10 10 11 11
REMARK SMILES IDX 12 12 13 13 8 14 9 15 3 16 2 17 1 18 4 19 5 20 6 21 7 22
REMARK SMILES IDX 23 23 24 24 25 25 26 26 27 27 28 28 29 29 30 30 31 31 32 32
REMARK SMILES IDX 33 33 34 34 98 35 35 36 97 37 36 38 37 39 38 40 91 41 39 42
REMARK SMILES IDX 96 43 90 44 92 45 40 46 95 47 89 48 88 49 41 51 75 52 54 53
REMARK SMILES IDX 74 54 55 55 58 56 73 57 93 58 56 59 57 60 72 62 94 63 59 64
REMARK SMILES IDX 42 65 43 66 52 67 44 68 45 69 51 70 53 71 46 72 47 73 48 74
REMARK SMILES IDX 49 75 50 76 76 77 77 78 86 79 78 80 79 81 85 82 87 83 80 84
REMARK SMILES IDX 81 85 82 86 83 87 84 88 60 89 61 90 70 91 62 92 63 93 69 94
REMARK SMILES IDX 71 95 64 96 65 97 66 98 67 99 68 100
REMARK H PARENT 92 50 58 61
REMARK Flexibility Score: inf
ROOT
ATOM      1  C   UNL A   1      33.050  27.232  26.024  1.00  0.00     0.188 C 
ENDROOT
BRANCH   1   2
ATOM      2  O   UNL A   1      33.480  25.871  26.111  1.00  0.00    -0.376 OA
BRANCH   2   3
ATOM      3  C   UNL A   1      34.287  25.353  25.072  1.00  0.00     0.202 C 
BRANCH   3   4
ATOM      4  C   UNL A   1      33.821  25.742  23.663  1.00  0.00     0.261 C 
BRANCH   4   5
ATOM      5  O   UNL A   1      33.084  24.702  22.994  1.00  0.00    -0.462 OA
BRANCH   5   6
ATOM      6  C   UNL A   1      31.790  24.978  22.690  1.00  0.00     0.326 C 
ATOM      7  O   UNL A   1      31.435  25.945  22.016  1.00  0.00    -0.250 OA
BRANCH   6   8
ATOM      8  C   UNL A   1      30.796  23.963  23.206  1.00  0.00     0.244 C 
BRANCH   8   9
ATOM      9  N   UNL A   1      30.975  23.478  24.580  1.00  0.00    -0.332 N 
ATOM     10  C   UNL A   1      31.671  22.338  24.995  1.00  0.00     0.107 A 
ATOM     11  C   UNL A   1      31.495  22.301  26.375  1.00  0.00     0.033 A 
ATOM     12  C   UNL A   1      30.818  23.464  26.801  1.00  0.00     0.020 A 
ATOM     13  C   UNL A   1      30.551  24.196  25.677  1.00  0.00     0.087 A 
BRANCH  10  14
ATOM     14  C   UNL A   1      32.448  21.508  24.069  1.00  0.00     0.270 C 
ATOM     15  O   UNL A   1      32.005  21.321  22.931  1.00  0.00    -0.267 OA
BRANCH  14  16
ATOM     16  N   UNL A   1      33.685  20.928  24.395  1.00  0.00    -0.335 N 
BRANCH  16  17
ATOM     17  C   UNL A   1      34.817  21.841  24.595  1.00  0.00     0.116 C 
ATOM     18  C   UNL A   1      35.307  21.910  26.036  1.00  0.00     0.027 C 
ENDBRANCH  16  17
BRANCH  16  19
ATOM     19  C   UNL A   1      33.968  19.507  24.640  1.00  0.00     0.148 C 
BRANCH  19  20
ATOM     20  C   UNL A   1      32.853  18.782  25.427  1.00  0.00     0.181 C 
BRANCH  20  21
ATOM     21  O   UNL A   1      32.045  17.950  24.597  1.00  0.00    -0.383 OA
ATOM     22  C   UNL A   1      32.620  17.661  23.331  1.00  0.00     0.194 C 
ENDBRANCH  20  21
ENDBRANCH  19  20
ENDBRANCH  16  19
ENDBRANCH  14  16
ENDBRANCH  10  14
ENDBRANCH   8   9
ENDBRANCH   6   8
ENDBRANCH   5   6
ENDBRANCH   4   5
ENDBRANCH   3   4
ENDBRANCH   2   3
ENDBRANCH   1   2
BRANCH   1  23
ATOM     23  C   UNL A   1      31.607  27.608  25.620  1.00  0.00     0.188 C 
BRANCH  23  24
ATOM     24  O   UNL A   1      31.364  29.015  25.598  1.00  0.00    -0.377 OA
BRANCH  24  25
ATOM     25  C   UNL A   1      31.823  29.699  26.760  1.00  0.00     0.188 C 
BRANCH  25  26
ATOM     26  C   UNL A   1      31.617  31.215  26.664  1.00  0.00     0.188 C 
BRANCH  26  27
ATOM     27  O   UNL A   1      32.797  31.951  26.986  1.00  0.00    -0.376 OA
BRANCH  27  28
ATOM     28  C   UNL A   1      32.638  33.215  27.613  1.00  0.00     0.202 C 
BRANCH  28  29
ATOM     29  C   UNL A   1      33.819  33.576  28.525  1.00  0.00     0.261 C 
BRANCH  29  30
ATOM     30  O   UNL A   1      35.099  33.202  28.013  1.00  0.00    -0.460 OA
BRANCH  30  31
ATOM     31  C   UNL A   1      35.560  32.047  28.525  1.00  0.00     0.338 C 
ATOM     32  O   UNL A   1      35.182  30.914  28.287  1.00  0.00    -0.246 OA
BRANCH  31  33
ATOM     33  C   UNL A   1      36.630  32.297  29.476  1.00  0.00     0.060 A 
ATOM     34  C   UNL A   1      37.709  33.054  29.004  1.00  0.00     0.016 A 
ATOM     35  C   UNL A   1      36.724  31.412  30.550  1.00  0.00     0.016 A 
ATOM     36  C   UNL A   1      38.965  32.764  29.487  1.00  0.00     0.010 A 
ATOM     37  C   UNL A   1      37.985  31.091  30.995  1.00  0.00     0.010 A 
ATOM     38  C   UNL A   1      39.094  31.712  30.398  1.00  0.00    -0.014 A 
BRANCH  38  39
ATOM     39  C   UNL A   1      40.437  31.193  30.674  1.00  0.00     0.031 A 
ATOM     40  C   UNL A   1      40.719  29.904  29.937  1.00  0.00     0.074 A 
ATOM     41  C   UNL A   1      41.187  31.936  31.542  1.00  0.00     0.049 A 
ATOM     42  N   UNL A   1      41.554  28.962  30.237  1.00  0.00    -0.248 NA
ATOM     43  C   UNL A   1      39.891  29.553  28.751  1.00  0.00     0.031 C 
ATOM     44  C   UNL A   1      40.701  33.156  32.222  1.00  0.00     0.029 A 
ATOM     45  N   UNL A   1      42.476  31.846  32.028  1.00  0.00    -0.354 N 
ATOM     46  C   UNL A   1      41.512  28.039  29.182  1.00  0.00     0.074 A 
ATOM     47  C   UNL A   1      40.372  28.366  28.381  1.00  0.00     0.031 C 
ATOM     48  C   UNL A   1      41.639  33.649  33.054  1.00  0.00     0.029 A 
ATOM     49  C   UNL A   1      42.833  32.833  32.983  1.00  0.00     0.049 A 
ATOM     50  H   UNL A   1      43.103  31.148  31.731  1.00  0.00     0.167 HD
ATOM     51  C   UNL A   1      42.515  27.160  28.926  1.00  0.00     0.037 A 
ATOM     52  C   UNL A   1      43.998  32.980  33.685  1.00  0.00     0.037 A 
ATOM     53  C   UNL A   1      43.595  27.337  29.841  1.00  0.00     0.049 A 
ATOM     54  C   UNL A   1      44.952  32.016  33.098  1.00  0.00     0.074 A 
ATOM     55  C   UNL A   1      43.752  27.026  31.164  1.00  0.00     0.029 A 
ATOM     56  N   UNL A   1      44.577  28.231  29.472  1.00  0.00    -0.354 N 
ATOM     57  N   UNL A   1      45.442  32.089  31.894  1.00  0.00    -0.248 NA
ATOM     58  C   UNL A   1      45.337  30.832  33.876  1.00  0.00     0.031 C 
ATOM     59  C   UNL A   1      44.609  28.029  31.664  1.00  0.00     0.029 A 
ATOM     60  C   UNL A   1      45.029  28.853  30.612  1.00  0.00     0.049 A 
ATOM     61  H   UNL A   1      44.899  28.395  28.556  1.00  0.00     0.167 HD
ATOM     62  C   UNL A   1      45.898  30.812  31.667  1.00  0.00     0.074 A 
ATOM     63  C   UNL A   1      46.067  30.197  32.965  1.00  0.00     0.031 C 
ATOM     64  C   UNL A   1      45.581  30.192  30.500  1.00  0.00     0.037 A 
BRANCH  51  65
ATOM     65  C   UNL A   1      42.741  26.282  27.740  1.00  0.00     0.058 A 
ATOM     66  C   UNL A   1      42.698  24.887  27.942  1.00  0.00     0.135 A 
ATOM     67  C   UNL A   1      43.307  26.735  26.540  1.00  0.00     0.135 A 
ATOM     68  F   UNL A   1      42.129  24.372  29.046  1.00  0.00    -0.206 F 
ATOM     69  C   UNL A   1      43.297  23.995  27.063  1.00  0.00     0.059 A 
ATOM     70  C   UNL A   1      43.879  25.855  25.623  1.00  0.00     0.059 A 
ATOM     71  F   UNL A   1      43.402  28.044  26.270  1.00  0.00    -0.206 F 
ATOM     72  C   UNL A   1      43.922  24.494  25.926  1.00  0.00     0.060 A 
BRANCH  72  73
ATOM     73  S   UNL A   1      44.845  23.350  24.881  1.00  0.00     0.124 S 
ATOM     74  O   UNL A   1      43.792  22.826  24.019  1.00  0.00    -0.237 OA
ATOM     75  O   UNL A   1      45.814  24.230  24.233  1.00  0.00    -0.237 OA
ATOM     76  O   UNL A   1      45.412  22.407  25.839  1.00  0.00    -0.744 OA
ENDBRANCH  72  73
ENDBRANCH  51  65
BRANCH  52  77
ATOM     77  C   UNL A   1      44.470  33.762  34.899  1.00  0.00     0.058 A 
ATOM     78  C   UNL A   1      43.939  33.677  36.195  1.00  0.00     0.135 A 
ATOM     79  C   UNL A   1      45.672  34.522  34.818  1.00  0.00     0.135 A 
ATOM     80  F   UNL A   1      42.768  33.082  36.440  1.00  0.00    -0.206 F 
ATOM     81  C   UNL A   1      44.611  34.169  37.327  1.00  0.00     0.059 A 
ATOM     82  C   UNL A   1      46.386  34.968  35.929  1.00  0.00     0.059 A 
ATOM     83  F   UNL A   1      46.236  34.815  33.637  1.00  0.00    -0.206 F 
ATOM     84  C   UNL A   1      45.862  34.759  37.191  1.00  0.00     0.060 A 
BRANCH  84  85
ATOM     85  S   UNL A   1      46.874  35.124  38.639  1.00  0.00     0.124 S 
ATOM     86  O   UNL A   1      48.190  35.326  38.047  1.00  0.00    -0.237 OA
ATOM     87  O   UNL A   1      46.236  36.316  39.191  1.00  0.00    -0.237 OA
ATOM     88  O   UNL A   1      46.722  33.918  39.450  1.00  0.00    -0.744 OA
ENDBRANCH  84  85
ENDBRANCH  52  77
BRANCH  64  89
ATOM     89  C   UNL A   1      45.424  31.136  29.321  1.00  0.00     0.058 A 
ATOM     90  C   UNL A   1      44.145  31.447  28.827  1.00  0.00     0.135 A 
ATOM     91  C   UNL A   1      46.504  31.671  28.599  1.00  0.00     0.135 A 
ATOM     92  F   UNL A   1      43.053  30.985  29.457  1.00  0.00    -0.206 F 
ATOM     93  C   UNL A   1      43.955  32.235  27.685  1.00  0.00     0.059 A 
ATOM     94  C   UNL A   1      46.345  32.469  27.464  1.00  0.00     0.059 A 
ATOM     95  F   UNL A   1      47.755  31.424  28.981  1.00  0.00    -0.206 F 
ATOM     96  C   UNL A   1      45.063  32.742  27.008  1.00  0.00     0.060 A 
BRANCH  96  97
ATOM     97  S   UNL A   1      44.810  33.764  25.539  1.00  0.00     0.124 S 
ATOM     98  O   UNL A   1      44.553  32.768  24.505  1.00  0.00    -0.237 OA
ATOM     99  O   UNL A   1      43.664  34.580  25.928  1.00  0.00    -0.237 OA
ATOM    100  O   UNL A   1      46.071  34.489  25.400  1.00  0.00    -0.744 OA
ENDBRANCH  96  97
ENDBRANCH  64  89
ENDBRANCH  38  39
ENDBRANCH  31  33
ENDBRANCH  30  31
ENDBRANCH  29  30
ENDBRANCH  28  29
ENDBRANCH  27  28
ENDBRANCH  26  27
ENDBRANCH  25  26
ENDBRANCH  24  25
ENDBRANCH  23  24
ENDBRANCH   1  23
TORSDOF 30
ENDMDL
MODEL 3
REMARK VINA RESULT:      -6.7      6.547     13.444
REMARK SMILES CCN(CCOC)C(=O)c1cccn1CC(=O)OCCOCCOCCOCCOC(=O)c1ccc(-c2c3nc(c(-c4c(F)cc(S(=O)(=O)[O-])cc4F)c4ccc([nH]4)c(-c4c(F)cc(S(=O)(=O)[O-])cc4F)c4nc(c(-c5c(F)cc(S(=O)(=O)[O-])cc5F)c5ccc2[nH]5)C=C4)C=C3)cc1
REMARK SMILES IDX 22 1 21 2 20 3 19 4 18 5 16 6 17 7 15 8 14 9 10 10 11 11
REMARK SMILES IDX 12 12 13 13 8 14 9 15 3 16 2 17 1 18 4 19 5 20 6 21 7 22
REMARK SMILES IDX 23 23 24 24 25 25 26 26 27 27 28 28 29 29 30 30 31 31 32 32
REMARK SMILES IDX 33 33 34 34 98 35 35 36 97 37 36 38 37 39 38 40 91 41 39 42
REMARK SMILES IDX 96 43 90 44 92 45 40 46 95 47 89 48 88 49 41 51 75 52 54 53
REMARK SMILES IDX 74 54 55 55 58 56 73 57 93 58 56 59 57 60 72 62 94 63 59 64
REMARK SMILES IDX 42 65 43 66 52 67 44 68 45 69 51 70 53 71 46 72 47 73 48 74
REMARK SMILES IDX 49 75 50 76 76 77 77 78 86 79 78 80 79 81 85 82 87 83 80 84
REMARK SMILES IDX 81 85 82 86 83 87 84 88 60 89 61 90 70 91 62 92 63 93 69 94
REMARK SMILES IDX 71 95 64 96 65 97 66 98 67 99 68 100
REMARK H PARENT 92 50 58 61
REMARK Flexibility Score: inf
ROOT
ATOM      1  C   UNL A   1      33.226  27.155  26.031  1.00  0.00     0.188 C 
ENDROOT
BRANCH   1   2
ATOM      2  O   UNL A   1      33.509  25.754  26.024  1.00  0.00    -0.376 OA
BRANCH   2   3
ATOM      3  C   UNL A   1      34.343  25.242  25.003  1.00  0.00     0.202 C 
BRANCH   3   4
ATOM      4  C   UNL A   1      33.963  25.707  23.591  1.00  0.00     0.261 C 
BRANCH   4   5
ATOM      5  O   UNL A   1      33.188  24.741  22.856  1.00  0.00    -0.462 OA
BRANCH   5   6
ATOM      6  C   UNL A   1      31.880  25.043  22.656  1.00  0.00     0.326 C 
ATOM      7  O   UNL A   1      31.490  26.068  22.098  1.00  0.00    -0.250 OA
BRANCH   6   8
ATOM      8  C   UNL A   1      30.913  23.983  23.133  1.00  0.00     0.244 C 
BRANCH   8   9
ATOM      9  N   UNL A   1      31.021  23.546  24.530  1.00  0.00    -0.332 N 
ATOM     10  C   UNL A   1      31.660  22.401  25.015  1.00  0.00     0.107 A 
ATOM     11  C   UNL A   1      31.430  22.424  26.388  1.00  0.00     0.033 A 
ATOM     12  C   UNL A   1      30.778  23.626  26.742  1.00  0.00     0.020 A 
ATOM     13  C   UNL A   1      30.581  24.322  25.581  1.00  0.00     0.087 A 
BRANCH  10  14
ATOM     14  C   UNL A   1      32.442  21.510  24.154  1.00  0.00     0.270 C 
ATOM     15  O   UNL A   1      32.125  21.411  22.964  1.00  0.00    -0.267 OA
BRANCH  14  16
ATOM     16  N   UNL A   1      33.552  20.773  24.600  1.00  0.00    -0.335 N 
BRANCH  16  17
ATOM     17  C   UNL A   1      34.831  21.488  24.696  1.00  0.00     0.116 C 
ATOM     18  C   UNL A   1      35.278  21.764  26.126  1.00  0.00     0.027 C 
ENDBRANCH  16  17
BRANCH  16  19
ATOM     19  C   UNL A   1      33.571  19.378  25.062  1.00  0.00     0.148 C 
BRANCH  19  20
ATOM     20  C   UNL A   1      34.784  18.573  24.546  1.00  0.00     0.181 C 
BRANCH  20  21
ATOM     21  O   UNL A   1      34.476  17.200  24.316  1.00  0.00    -0.383 OA
ATOM     22  C   UNL A   1      33.550  16.982  23.262  1.00  0.00     0.194 C 
ENDBRANCH  20  21
ENDBRANCH  19  20
ENDBRANCH  16  19
ENDBRANCH  14  16
ENDBRANCH  10  14
ENDBRANCH   8   9
ENDBRANCH   6   8
ENDBRANCH   5   6
ENDBRANCH   4   5
ENDBRANCH   3   4
ENDBRANCH   2   3
ENDBRANCH   1   2
BRANCH   1  23
ATOM     23  C   UNL A   1      31.840  27.710  25.631  1.00  0.00     0.188 C 
BRANCH  23  24
ATOM     24  O   UNL A   1      31.736  29.130  25.741  1.00  0.00    -0.377 OA
BRANCH  24  25
ATOM     25  C   UNL A   1      32.086  29.637  27.025  1.00  0.00     0.188 C 
BRANCH  25  26
ATOM     26  C   UNL A   1      32.872  30.951  26.939  1.00  0.00     0.188 C 
BRANCH  26  27
ATOM     27  O   UNL A   1      34.014  30.966  27.795  1.00  0.00    -0.376 OA
BRANCH  27  28
ATOM     28  C   UNL A   1      34.415  32.213  28.342  1.00  0.00     0.202 C 
BRANCH  28  29
ATOM     29  C   UNL A   1      35.124  32.066  29.695  1.00  0.00     0.261 C 
BRANCH  29  30
ATOM     30  O   UNL A   1      36.542  31.907  29.608  1.00  0.00    -0.460 OA
BRANCH  30  31
ATOM     31  C   UNL A   1      36.973  30.716  30.060  1.00  0.00     0.338 C 
ATOM     32  O   UNL A   1      36.487  29.617  29.867  1.00  0.00    -0.246 OA
BRANCH  31  33
ATOM     33  C   UNL A   1      38.163  30.878  30.879  1.00  0.00     0.060 A 
ATOM     34  C   UNL A   1      39.218  31.590  30.298  1.00  0.00     0.016 A 
ATOM     35  C   UNL A   1      38.334  29.955  31.911  1.00  0.00     0.016 A 
ATOM     36  C   UNL A   1      40.504  31.217  30.615  1.00  0.00     0.010 A 
ATOM     37  C   UNL A   1      39.620  29.552  32.190  1.00  0.00     0.010 A 
ATOM     38  C   UNL A   1      40.682  30.131  31.477  1.00  0.00    -0.014 A 
BRANCH  38  39
ATOM     39  C   UNL A   1      42.017  29.532  31.573  1.00  0.00     0.031 A 
ATOM     40  C   UNL A   1      42.187  28.354  30.642  1.00  0.00     0.074 A 
ATOM     41  C   UNL A   1      42.859  30.115  32.478  1.00  0.00     0.049 A 
ATOM     42  N   UNL A   1      42.997  27.350  30.740  1.00  0.00    -0.248 NA
ATOM     43  C   UNL A   1      41.262  28.207  29.485  1.00  0.00     0.031 C 
ATOM     44  C   UNL A   1      42.477  31.240  33.359  1.00  0.00     0.029 A 
ATOM     45  N   UNL A   1      44.173  29.912  32.846  1.00  0.00    -0.354 N 
ATOM     46  C   UNL A   1      42.839  26.592  29.572  1.00  0.00     0.074 A 
ATOM     47  C   UNL A   1      41.661  27.070  28.915  1.00  0.00     0.031 C 
ATOM     48  C   UNL A   1      43.493  31.575  34.178  1.00  0.00     0.029 A 
ATOM     49  C   UNL A   1      44.641  30.737  33.901  1.00  0.00     0.049 A 
ATOM     50  H   UNL A   1      44.746  29.242  32.407  1.00  0.00     0.167 HD
ATOM     51  C   UNL A   1      43.781  25.725  29.118  1.00  0.00     0.037 A 
ATOM     52  C   UNL A   1      45.859  30.740  34.526  1.00  0.00     0.037 A 
ATOM     53  C   UNL A   1      44.930  25.730  29.963  1.00  0.00     0.049 A 
ATOM     54  C   UNL A   1      46.724  29.839  33.737  1.00  0.00     0.074 A 
ATOM     55  C   UNL A   1      45.166  25.225  31.214  1.00  0.00     0.029 A 
ATOM     56  N   UNL A   1      45.923  26.633  29.651  1.00  0.00    -0.354 N 
ATOM     57  N   UNL A   1      47.130  30.068  32.522  1.00  0.00    -0.248 NA
ATOM     58  C   UNL A   1      47.109  28.543  34.308  1.00  0.00     0.031 C 
ATOM     59  C   UNL A   1      46.101  26.116  31.783  1.00  0.00     0.029 A 
ATOM     60  C   UNL A   1      46.482  27.068  30.830  1.00  0.00     0.049 A 
ATOM     61  H   UNL A   1      46.186  26.916  28.745  1.00  0.00     0.167 HD
ATOM     62  C   UNL A   1      47.512  28.822  32.081  1.00  0.00     0.074 A 
ATOM     63  C   UNL A   1      47.744  28.021  33.262  1.00  0.00     0.031 C 
ATOM     64  C   UNL A   1      47.085  28.389  30.866  1.00  0.00     0.037 A 
BRANCH  51  65
ATOM     65  C   UNL A   1      43.883  25.020  27.806  1.00  0.00     0.058 A 
ATOM     66  C   UNL A   1      43.917  23.610  27.822  1.00  0.00     0.135 A 
ATOM     67  C   UNL A   1      44.271  25.653  26.617  1.00  0.00     0.135 A 
ATOM     68  F   UNL A   1      43.515  22.928  28.909  1.00  0.00    -0.206 F 
ATOM     69  C   UNL A   1      44.428  22.872  26.764  1.00  0.00     0.059 A 
ATOM     70  C   UNL A   1      44.752  24.929  25.527  1.00  0.00     0.059 A 
ATOM     71  F   UNL A   1      44.283  26.989  26.516  1.00  0.00    -0.206 F 
ATOM     72  C   UNL A   1      44.882  23.545  25.635  1.00  0.00     0.060 A 
BRANCH  72  73
ATOM     73  S   UNL A   1      45.702  22.596  24.340  1.00  0.00     0.124 S 
ATOM     74  O   UNL A   1      46.545  23.613  23.721  1.00  0.00    -0.237 OA
ATOM     75  O   UNL A   1      46.407  21.569  25.103  1.00  0.00    -0.237 OA
ATOM     76  O   UNL A   1      44.592  22.109  23.529  1.00  0.00    -0.744 OA
ENDBRANCH  72  73
ENDBRANCH  51  65
BRANCH  52  77
ATOM     77  C   UNL A   1      46.450  31.322  35.798  1.00  0.00     0.058 A 
ATOM     78  C   UNL A   1      46.415  30.732  37.071  1.00  0.00     0.135 A 
ATOM     79  C   UNL A   1      47.288  32.472  35.719  1.00  0.00     0.135 A 
ATOM     80  F   UNL A   1      45.611  29.702  37.349  1.00  0.00    -0.206 F 
ATOM     81  C   UNL A   1      47.245  31.150  38.126  1.00  0.00     0.059 A 
ATOM     82  C   UNL A   1      48.161  32.868  36.730  1.00  0.00     0.059 A 
ATOM     83  F   UNL A   1      47.329  33.232  34.614  1.00  0.00    -0.206 F 
ATOM     84  C   UNL A   1      48.158  32.179  37.928  1.00  0.00     0.060 A 
BRANCH  84  85
ATOM     85  S   UNL A   1      49.432  32.533  39.155  1.00  0.00     0.124 S 
ATOM     86  O   UNL A   1      48.778  32.135  40.396  1.00  0.00    -0.237 OA
ATOM     87  O   UNL A   1      50.543  31.688  38.724  1.00  0.00    -0.237 OA
ATOM     88  O   UNL A   1      49.652  33.967  38.986  1.00  0.00    -0.744 OA
ENDBRANCH  84  85
ENDBRANCH  52  77
BRANCH  64  89
ATOM     89  C   UNL A   1      46.887  29.498  29.848  1.00  0.00     0.058 A 
ATOM     90  C   UNL A   1      45.592  29.880  29.457  1.00  0.00     0.135 A 
ATOM     91  C   UNL A   1      47.941  30.135  29.171  1.00  0.00     0.135 A 
ATOM     92  F   UNL A   1      44.523  29.330  30.055  1.00  0.00    -0.206 F 
ATOM     93  C   UNL A   1      45.362  30.830  28.454  1.00  0.00     0.059 A 
ATOM     94  C   UNL A   1      47.743  31.093  28.175  1.00  0.00     0.059 A 
ATOM     95  F   UNL A   1      49.205  29.833  29.462  1.00  0.00    -0.206 F 
ATOM     96  C   UNL A   1      46.446  31.432  27.817  1.00  0.00     0.060 A 
BRANCH  96  97
ATOM     97  S   UNL A   1      46.141  32.662  26.527  1.00  0.00     0.124 S 
ATOM     98  O   UNL A   1      47.491  33.100  26.188  1.00  0.00    -0.237 OA
ATOM     99  O   UNL A   1      45.458  31.873  25.508  1.00  0.00    -0.237 OA
ATOM    100  O   UNL A   1      45.315  33.665  27.195  1.00  0.00    -0.744 OA
ENDBRANCH  96  97
ENDBRANCH  64  89
ENDBRANCH  38  39
ENDBRANCH  31  33
ENDBRANCH  30  31
ENDBRANCH  29  30
ENDBRANCH  28  29
ENDBRANCH  27  28
ENDBRANCH  26  27
ENDBRANCH  25  26
ENDBRANCH  24  25
ENDBRANCH  23  24
ENDBRANCH   1  23
TORSDOF 30
ENDMDL
