MODEL 1
REMARK VINA RESULT:      -8.9      0.000      0.000
REMARK SMILES CCN(C(=O)Nc1cc(OC)ccc1F)[C@H](C)CC(=O)OCCOCCOCCOCCOC(=O)c1ccc(-c2c3nc(c(-c4c(F)cc(S(=O)(=O)[O-])cc4F)c4ccc([nH]4)c(-c4c(F)cc(S(=O)(=O)[O-])cc4F)c4nc(c(-c5c(F)cc(S(=O)(=O)[O-])cc5F)c5ccc2[nH]5)C=C4)C=C3)cc1
REMARK SMILES IDX 26 1 25 2 24 3 23 4 22 5 21 6 19 7 20 8 18 9 16 10 17 11
REMARK SMILES IDX 3 12 2 13 1 14 4 15 5 16 6 17 7 19 8 20 14 21 9 22 13 23
REMARK SMILES IDX 15 24 12 25 10 26 11 27 27 28 28 29 29 30 30 31 31 32 32 33
REMARK SMILES IDX 33 34 34 35 35 36 36 37 37 38 101 39 38 40 100 41 39 42
REMARK SMILES IDX 40 43 41 44 94 45 42 46 99 47 93 48 95 49 43 50 98 51 92 52
REMARK SMILES IDX 91 53 44 55 78 56 57 57 77 58 58 59 61 60 76 61 96 62 59 63
REMARK SMILES IDX 60 64 75 66 97 67 62 68 45 69 46 70 55 71 47 72 48 73 54 74
REMARK SMILES IDX 56 75 49 76 50 77 51 78 52 79 53 80 79 81 80 82 89 83 81 84
REMARK SMILES IDX 82 85 88 86 90 87 83 88 84 89 85 90 86 91 87 92 63 93 64 94
REMARK SMILES IDX 73 95 65 96 66 97 72 98 74 99 67 100 68 101 69 102 70 103
REMARK SMILES IDX 71 104
REMARK H PARENT 6 18 95 54 61 65
REMARK Flexibility Score: inf
ROOT
ATOM      1  C   UNL A   1      33.362  31.325  27.592  1.00  0.00     0.188 C 
ENDROOT
BRANCH   1   2
ATOM      2  C   UNL A   1      33.643  29.876  27.190  1.00  0.00     0.188 C 
BRANCH   2   3
ATOM      3  O   UNL A   1      32.662  29.135  26.498  1.00  0.00    -0.376 OA
BRANCH   3   4
ATOM      4  C   UNL A   1      31.659  29.788  25.732  1.00  0.00     0.202 C 
BRANCH   4   5
ATOM      5  C   UNL A   1      31.184  29.334  24.337  1.00  0.00     0.261 C 
BRANCH   5   6
ATOM      6  O   UNL A   1      30.678  27.993  24.209  1.00  0.00    -0.463 OA
BRANCH   6   7
ATOM      7  C   UNL A   1      30.612  27.508  22.952  1.00  0.00     0.307 C 
ATOM      8  O   UNL A   1      30.214  28.161  21.989  1.00  0.00    -0.252 OA
BRANCH   7   9
ATOM      9  C   UNL A   1      31.115  26.096  22.751  1.00  0.00     0.147 C 
BRANCH   9  10
ATOM     10  C   UNL A   1      30.962  24.971  23.797  1.00  0.00     0.094 C 
ATOM     11  C   UNL A   1      30.679  23.574  23.235  1.00  0.00     0.032 C 
BRANCH  10  12
ATOM     12  N   UNL A   1      32.141  24.960  24.731  1.00  0.00    -0.322 N 
BRANCH  12  13
ATOM     13  C   UNL A   1      33.459  25.298  24.159  1.00  0.00     0.118 C 
ATOM     14  C   UNL A   1      34.189  24.219  23.375  1.00  0.00     0.027 C 
ENDBRANCH  12  13
BRANCH  12  15
ATOM     15  C   UNL A   1      31.892  24.615  26.057  1.00  0.00     0.322 C 
ATOM     16  O   UNL A   1      31.394  25.402  26.866  1.00  0.00    -0.248 OA
ATOM     17  N   UNL A   1      32.028  23.344  26.510  1.00  0.00    -0.305 N 
ATOM     18  H   UNL A   1      31.374  23.095  27.201  1.00  0.00     0.171 HD
BRANCH  17  19
ATOM     19  C   UNL A   1      32.922  22.321  26.180  1.00  0.00     0.082 A 
ATOM     20  C   UNL A   1      32.418  21.268  25.416  1.00  0.00     0.075 A 
ATOM     21  C   UNL A   1      34.283  22.354  26.493  1.00  0.00     0.147 A 
ATOM     22  C   UNL A   1      33.288  20.349  24.828  1.00  0.00     0.121 A 
ATOM     23  C   UNL A   1      35.154  21.427  25.936  1.00  0.00     0.045 A 
ATOM     24  F   UNL A   1      34.783  23.311  27.286  1.00  0.00    -0.205 F 
ATOM     25  C   UNL A   1      34.661  20.441  25.076  1.00  0.00     0.049 A 
BRANCH  22  26
ATOM     26  O   UNL A   1      32.675  19.442  24.008  1.00  0.00    -0.497 OA
ATOM     27  C   UNL A   1      32.214  19.921  22.753  1.00  0.00     0.278 C 
ENDBRANCH  22  26
ENDBRANCH  17  19
ENDBRANCH  12  15
ENDBRANCH  10  12
ENDBRANCH   9  10
ENDBRANCH   7   9
ENDBRANCH   6   7
ENDBRANCH   5   6
ENDBRANCH   4   5
ENDBRANCH   3   4
ENDBRANCH   2   3
ENDBRANCH   1   2
BRANCH   1  28
ATOM     28  O   UNL A   1      34.467  32.192  27.735  1.00  0.00    -0.377 OA
BRANCH  28  29
ATOM     29  C   UNL A   1      34.696  32.848  28.975  1.00  0.00     0.188 C 
BRANCH  29  30
ATOM     30  C   UNL A   1      35.176  34.311  29.000  1.00  0.00     0.188 C 
BRANCH  30  31
ATOM     31  O   UNL A   1      34.319  35.223  28.330  1.00  0.00    -0.376 OA
BRANCH  31  32
ATOM     32  C   UNL A   1      32.996  35.393  28.815  1.00  0.00     0.202 C 
BRANCH  32  33
ATOM     33  C   UNL A   1      32.803  36.189  30.116  1.00  0.00     0.261 C 
BRANCH  33  34
ATOM     34  O   UNL A   1      32.469  35.432  31.291  1.00  0.00    -0.460 OA
BRANCH  34  35
ATOM     35  C   UNL A   1      33.038  35.792  32.463  1.00  0.00     0.338 C 
ATOM     36  O   UNL A   1      32.574  36.525  33.310  1.00  0.00    -0.246 OA
BRANCH  35  37
ATOM     37  C   UNL A   1      34.264  34.982  32.634  1.00  0.00     0.060 A 
ATOM     38  C   UNL A   1      34.173  33.744  33.284  1.00  0.00     0.016 A 
ATOM     39  C   UNL A   1      35.496  35.453  32.176  1.00  0.00     0.016 A 
ATOM     40  C   UNL A   1      35.325  32.993  33.518  1.00  0.00     0.010 A 
ATOM     41  C   UNL A   1      36.651  34.708  32.429  1.00  0.00     0.010 A 
ATOM     42  C   UNL A   1      36.575  33.494  33.135  1.00  0.00    -0.014 A 
BRANCH  42  43
ATOM     43  C   UNL A   1      37.813  32.852  33.641  1.00  0.00     0.031 A 
ATOM     44  C   UNL A   1      38.411  31.725  32.842  1.00  0.00     0.074 A 
ATOM     45  C   UNL A   1      38.410  33.272  34.772  1.00  0.00     0.049 A 
ATOM     46  N   UNL A   1      39.445  30.974  33.113  1.00  0.00    -0.248 NA
ATOM     47  C   UNL A   1      37.752  31.402  31.565  1.00  0.00     0.031 C 
ATOM     48  C   UNL A   1      37.955  34.385  35.602  1.00  0.00     0.029 A 
ATOM     49  N   UNL A   1      39.528  32.804  35.418  1.00  0.00    -0.354 N 
ATOM     50  C   UNL A   1      39.557  30.087  32.048  1.00  0.00     0.074 A 
ATOM     51  C   UNL A   1      38.468  30.371  31.140  1.00  0.00     0.031 C 
ATOM     52  C   UNL A   1      38.781  34.506  36.656  1.00  0.00     0.029 A 
ATOM     53  C   UNL A   1      39.799  33.459  36.595  1.00  0.00     0.049 A 
ATOM     54  H   UNL A   1      40.083  32.069  35.069  1.00  0.00     0.167 HD
ATOM     55  C   UNL A   1      40.490  29.128  31.842  1.00  0.00     0.037 A 
ATOM     56  C   UNL A   1      40.745  33.222  37.529  1.00  0.00     0.037 A 
ATOM     57  C   UNL A   1      41.575  28.856  32.747  1.00  0.00     0.049 A 
ATOM     58  C   UNL A   1      41.728  32.098  37.316  1.00  0.00     0.074 A 
ATOM     59  C   UNL A   1      42.582  27.915  32.618  1.00  0.00     0.029 A 
ATOM     60  N   UNL A   1      41.794  29.515  33.948  1.00  0.00    -0.354 N 
ATOM     61  N   UNL A   1      41.830  31.273  36.301  1.00  0.00    -0.248 NA
ATOM     62  C   UNL A   1      42.723  31.869  38.375  1.00  0.00     0.031 C 
ATOM     63  C   UNL A   1      43.373  27.964  33.769  1.00  0.00     0.029 A 
ATOM     64  C   UNL A   1      42.902  28.981  34.584  1.00  0.00     0.049 A 
ATOM     65  H   UNL A   1      41.244  30.253  34.295  1.00  0.00     0.167 HD
ATOM     66  C   UNL A   1      42.913  30.446  36.586  1.00  0.00     0.074 A 
ATOM     67  C   UNL A   1      43.441  30.878  37.862  1.00  0.00     0.031 C 
ATOM     68  C   UNL A   1      43.424  29.424  35.854  1.00  0.00     0.037 A 
BRANCH  55  69
ATOM     69  C   UNL A   1      40.378  28.287  30.600  1.00  0.00     0.058 A 
ATOM     70  C   UNL A   1      39.453  27.232  30.541  1.00  0.00     0.135 A 
ATOM     71  C   UNL A   1      41.232  28.472  29.501  1.00  0.00     0.135 A 
ATOM     72  F   UNL A   1      38.606  27.016  31.559  1.00  0.00    -0.206 F 
ATOM     73  C   UNL A   1      39.397  26.374  29.448  1.00  0.00     0.059 A 
ATOM     74  C   UNL A   1      41.172  27.643  28.384  1.00  0.00     0.059 A 
ATOM     75  F   UNL A   1      42.117  29.481  29.495  1.00  0.00    -0.206 F 
ATOM     76  C   UNL A   1      40.263  26.585  28.376  1.00  0.00     0.060 A 
BRANCH  76  77
ATOM     77  S   UNL A   1      40.166  25.469  26.960  1.00  0.00     0.124 S 
ATOM     78  O   UNL A   1      40.722  26.291  25.891  1.00  0.00    -0.237 OA
ATOM     79  O   UNL A   1      40.992  24.349  27.399  1.00  0.00    -0.237 OA
ATOM     80  O   UNL A   1      38.739  25.180  26.854  1.00  0.00    -0.744 OA
ENDBRANCH  76  77
ENDBRANCH  55  69
BRANCH  56  81
ATOM     81  C   UNL A   1      40.800  34.065  38.755  1.00  0.00     0.058 A 
ATOM     82  C   UNL A   1      40.033  33.750  39.888  1.00  0.00     0.135 A 
ATOM     83  C   UNL A   1      41.604  35.213  38.813  1.00  0.00     0.135 A 
ATOM     84  F   UNL A   1      39.246  32.663  39.888  1.00  0.00    -0.206 F 
ATOM     85  C   UNL A   1      40.033  34.560  41.019  1.00  0.00     0.059 A 
ATOM     86  C   UNL A   1      41.645  36.024  39.945  1.00  0.00     0.059 A 
ATOM     87  F   UNL A   1      42.372  35.546  37.764  1.00  0.00    -0.206 F 
ATOM     88  C   UNL A   1      40.841  35.698  41.035  1.00  0.00     0.060 A 
BRANCH  88  89
ATOM     89  S   UNL A   1      40.811  36.745  42.506  1.00  0.00     0.124 S 
ATOM     90  O   UNL A   1      41.100  38.057  41.937  1.00  0.00    -0.237 OA
ATOM     91  O   UNL A   1      39.450  36.548  42.994  1.00  0.00    -0.237 OA
ATOM     92  O   UNL A   1      41.864  36.179  43.345  1.00  0.00    -0.744 OA
ENDBRANCH  88  89
ENDBRANCH  56  81
BRANCH  68  93
ATOM     93  C   UNL A   1      44.633  28.705  36.389  1.00  0.00     0.058 A 
ATOM     94  C   UNL A   1      44.483  27.542  37.165  1.00  0.00     0.135 A 
ATOM     95  C   UNL A   1      45.930  29.216  36.224  1.00  0.00     0.135 A 
ATOM     96  F   UNL A   1      43.264  27.014  37.363  1.00  0.00    -0.206 F 
ATOM     97  C   UNL A   1      45.569  26.928  37.778  1.00  0.00     0.059 A 
ATOM     98  C   UNL A   1      47.037  28.599  36.803  1.00  0.00     0.059 A 
ATOM     99  F   UNL A   1      46.132  30.319  35.487  1.00  0.00    -0.206 F 
ATOM    100  C   UNL A   1      46.843  27.466  37.593  1.00  0.00     0.060 A 
BRANCH 100 101
ATOM    101  S   UNL A   1      48.242  26.654  38.395  1.00  0.00     0.124 S 
ATOM    102  O   UNL A   1      48.728  25.778  37.335  1.00  0.00    -0.237 OA
ATOM    103  O   UNL A   1      49.103  27.785  38.729  1.00  0.00    -0.237 OA
ATOM    104  O   UNL A   1      47.634  25.979  39.538  1.00  0.00    -0.744 OA
ENDBRANCH 100 101
ENDBRANCH  68  93
ENDBRANCH  42  43
ENDBRANCH  35  37
ENDBRANCH  34  35
ENDBRANCH  33  34
ENDBRANCH  32  33
ENDBRANCH  31  32
ENDBRANCH  30  31
ENDBRANCH  29  30
ENDBRANCH  28  29
ENDBRANCH   1  28
TORSDOF 29
ENDMDL
MODEL 2
REMARK VINA RESULT:      -6.2      9.121     16.303
REMARK SMILES CCN(C(=O)Nc1cc(OC)ccc1F)[C@H](C)CC(=O)OCCOCCOCCOCCOC(=O)c1ccc(-c2c3nc(c(-c4c(F)cc(S(=O)(=O)[O-])cc4F)c4ccc([nH]4)c(-c4c(F)cc(S(=O)(=O)[O-])cc4F)c4nc(c(-c5c(F)cc(S(=O)(=O)[O-])cc5F)c5ccc2[nH]5)C=C4)C=C3)cc1
REMARK SMILES IDX 26 1 25 2 24 3 23 4 22 5 21 6 19 7 20 8 18 9 16 10 17 11
REMARK SMILES IDX 3 12 2 13 1 14 4 15 5 16 6 17 7 19 8 20 14 21 9 22 13 23
REMARK SMILES IDX 15 24 12 25 10 26 11 27 27 28 28 29 29 30 30 31 31 32 32 33
REMARK SMILES IDX 33 34 34 35 35 36 36 37 37 38 101 39 38 40 100 41 39 42
REMARK SMILES IDX 40 43 41 44 94 45 42 46 99 47 93 48 95 49 43 50 98 51 92 52
REMARK SMILES IDX 91 53 44 55 78 56 57 57 77 58 58 59 61 60 76 61 96 62 59 63
REMARK SMILES IDX 60 64 75 66 97 67 62 68 45 69 46 70 55 71 47 72 48 73 54 74
REMARK SMILES IDX 56 75 49 76 50 77 51 78 52 79 53 80 79 81 80 82 89 83 81 84
REMARK SMILES IDX 82 85 88 86 90 87 83 88 84 89 85 90 86 91 87 92 63 93 64 94
REMARK SMILES IDX 73 95 65 96 66 97 72 98 74 99 67 100 68 101 69 102 70 103
REMARK SMILES IDX 71 104
REMARK H PARENT 6 18 95 54 61 65
REMARK Flexibility Score: inf
ROOT
ATOM      1  C   UNL A   1      47.152  39.455  31.159  1.00  0.00     0.188 C 
ENDROOT
BRANCH   1   2
ATOM      2  C   UNL A   1      47.439  39.233  32.646  1.00  0.00     0.188 C 
BRANCH   2   3
ATOM      3  O   UNL A   1      46.422  39.447  33.598  1.00  0.00    -0.376 OA
BRANCH   3   4
ATOM      4  C   UNL A   1      46.203  40.735  34.157  1.00  0.00     0.202 C 
BRANCH   4   5
ATOM      5  C   UNL A   1      46.840  42.040  33.637  1.00  0.00     0.261 C 
BRANCH   5   6
ATOM      6  O   UNL A   1      46.160  42.738  32.578  1.00  0.00    -0.463 OA
BRANCH   6   7
ATOM      7  C   UNL A   1      46.937  43.156  31.558  1.00  0.00     0.307 C 
ATOM      8  O   UNL A   1      48.125  43.451  31.682  1.00  0.00    -0.252 OA
BRANCH   7   9
ATOM      9  C   UNL A   1      46.286  43.200  30.193  1.00  0.00     0.147 C 
BRANCH   9  10
ATOM     10  C   UNL A   1      45.747  41.955  29.457  1.00  0.00     0.094 C 
ATOM     11  C   UNL A   1      44.247  41.687  29.615  1.00  0.00     0.032 C 
BRANCH  10  12
ATOM     12  N   UNL A   1      46.151  41.988  28.009  1.00  0.00    -0.322 N 
BRANCH  12  13
ATOM     13  C   UNL A   1      46.465  43.307  27.424  1.00  0.00     0.118 C 
ATOM     14  C   UNL A   1      45.351  44.339  27.362  1.00  0.00     0.027 C 
ENDBRANCH  12  13
BRANCH  12  15
ATOM     15  C   UNL A   1      46.178  40.770  27.334  1.00  0.00     0.322 C 
ATOM     16  O   UNL A   1      47.199  40.083  27.245  1.00  0.00    -0.248 OA
ATOM     17  N   UNL A   1      45.051  40.178  26.867  1.00  0.00    -0.305 N 
ATOM     18  H   UNL A   1      45.069  39.196  26.914  1.00  0.00     0.171 HD
BRANCH  17  19
ATOM     19  C   UNL A   1      43.870  40.700  26.333  1.00  0.00     0.082 A 
ATOM     20  C   UNL A   1      44.003  41.610  25.283  1.00  0.00     0.075 A 
ATOM     21  C   UNL A   1      42.595  40.289  26.729  1.00  0.00     0.147 A 
ATOM     22  C   UNL A   1      42.888  41.976  24.527  1.00  0.00     0.121 A 
ATOM     23  C   UNL A   1      41.476  40.670  26.000  1.00  0.00     0.045 A 
ATOM     24  F   UNL A   1      42.431  39.474  27.780  1.00  0.00    -0.205 F 
ATOM     25  C   UNL A   1      41.626  41.490  24.877  1.00  0.00     0.049 A 
BRANCH  22  26
ATOM     26  O   UNL A   1      43.176  42.778  23.456  1.00  0.00    -0.497 OA
ATOM     27  C   UNL A   1      42.243  42.776  22.385  1.00  0.00     0.278 C 
ENDBRANCH  22  26
ENDBRANCH  17  19
ENDBRANCH  12  15
ENDBRANCH  10  12
ENDBRANCH   9  10
ENDBRANCH   7   9
ENDBRANCH   6   7
ENDBRANCH   5   6
ENDBRANCH   4   5
ENDBRANCH   3   4
ENDBRANCH   2   3
ENDBRANCH   1   2
BRANCH   1  28
ATOM     28  O   UNL A   1      48.243  39.400  30.265  1.00  0.00    -0.377 OA
BRANCH  28  29
ATOM     29  C   UNL A   1      49.147  40.493  30.182  1.00  0.00     0.188 C 
BRANCH  29  30
ATOM     30  C   UNL A   1      50.631  40.300  30.543  1.00  0.00     0.188 C 
BRANCH  30  31
ATOM     31  O   UNL A   1      51.475  40.020  29.437  1.00  0.00    -0.376 OA
BRANCH  31  32
ATOM     32  C   UNL A   1      50.993  39.161  28.415  1.00  0.00     0.202 C 
BRANCH  32  33
ATOM     33  C   UNL A   1      51.049  37.646  28.665  1.00  0.00     0.261 C 
BRANCH  33  34
ATOM     34  O   UNL A   1      49.804  36.998  28.977  1.00  0.00    -0.460 OA
BRANCH  34  35
ATOM     35  C   UNL A   1      49.732  36.269  30.113  1.00  0.00     0.338 C 
ATOM     36  O   UNL A   1      50.156  36.573  31.207  1.00  0.00    -0.246 OA
BRANCH  35  37
ATOM     37  C   UNL A   1      48.872  35.098  29.840  1.00  0.00     0.060 A 
ATOM     38  C   UNL A   1      48.741  34.110  30.825  1.00  0.00     0.016 A 
ATOM     39  C   UNL A   1      48.218  34.966  28.614  1.00  0.00     0.016 A 
ATOM     40  C   UNL A   1      47.991  32.962  30.566  1.00  0.00     0.010 A 
ATOM     41  C   UNL A   1      47.483  33.807  28.349  1.00  0.00     0.010 A 
ATOM     42  C   UNL A   1      47.399  32.783  29.310  1.00  0.00    -0.014 A 
BRANCH  42  43
ATOM     43  C   UNL A   1      46.861  31.453  28.932  1.00  0.00     0.031 A 
ATOM     44  C   UNL A   1      45.447  31.116  29.323  1.00  0.00     0.074 A 
ATOM     45  C   UNL A   1      47.600  30.570  28.234  1.00  0.00     0.049 A 
ATOM     46  N   UNL A   1      44.784  30.002  29.159  1.00  0.00    -0.248 NA
ATOM     47  C   UNL A   1      44.678  32.181  29.989  1.00  0.00     0.031 C 
ATOM     48  C   UNL A   1      48.961  30.801  27.756  1.00  0.00     0.029 A 
ATOM     49  N   UNL A   1      47.307  29.296  27.815  1.00  0.00    -0.354 N 
ATOM     50  C   UNL A   1      43.526  30.228  29.706  1.00  0.00     0.074 A 
ATOM     51  C   UNL A   1      43.526  31.573  30.235  1.00  0.00     0.031 C 
ATOM     52  C   UNL A   1      49.390  29.699  27.116  1.00  0.00     0.029 A 
ATOM     53  C   UNL A   1      48.350  28.672  27.173  1.00  0.00     0.049 A 
ATOM     54  H   UNL A   1      46.431  28.870  27.959  1.00  0.00     0.167 HD
ATOM     55  C   UNL A   1      42.464  29.390  29.755  1.00  0.00     0.037 A 
ATOM     56  C   UNL A   1      48.462  27.410  26.709  1.00  0.00     0.037 A 
ATOM     57  C   UNL A   1      42.470  28.054  29.220  1.00  0.00     0.049 A 
ATOM     58  C   UNL A   1      47.292  26.468  26.843  1.00  0.00     0.074 A 
ATOM     59  C   UNL A   1      41.437  27.132  29.206  1.00  0.00     0.029 A 
ATOM     60  N   UNL A   1      43.558  27.445  28.612  1.00  0.00    -0.354 N 
ATOM     61  N   UNL A   1      46.104  26.695  27.353  1.00  0.00    -0.248 NA
ATOM     62  C   UNL A   1      47.474  25.098  26.341  1.00  0.00     0.031 C 
ATOM     63  C   UNL A   1      41.919  25.947  28.645  1.00  0.00     0.029 A 
ATOM     64  C   UNL A   1      43.231  26.150  28.247  1.00  0.00     0.049 A 
ATOM     65  H   UNL A   1      44.432  27.871  28.462  1.00  0.00     0.167 HD
ATOM     66  C   UNL A   1      45.391  25.507  27.211  1.00  0.00     0.074 A 
ATOM     67  C   UNL A   1      46.276  24.568  26.556  1.00  0.00     0.031 C 
ATOM     68  C   UNL A   1      44.119  25.224  27.587  1.00  0.00     0.037 A 
BRANCH  55  69
ATOM     69  C   UNL A   1      41.207  29.878  30.421  1.00  0.00     0.058 A 
ATOM     70  C   UNL A   1      41.071  29.806  31.816  1.00  0.00     0.135 A 
ATOM     71  C   UNL A   1      40.110  30.347  29.679  1.00  0.00     0.135 A 
ATOM     72  F   UNL A   1      42.091  29.376  32.575  1.00  0.00    -0.206 F 
ATOM     73  C   UNL A   1      39.884  30.155  32.451  1.00  0.00     0.059 A 
ATOM     74  C   UNL A   1      38.923  30.729  30.297  1.00  0.00     0.059 A 
ATOM     75  F   UNL A   1      40.196  30.461  28.345  1.00  0.00    -0.206 F 
ATOM     76  C   UNL A   1      38.814  30.611  31.682  1.00  0.00     0.060 A 
BRANCH  76  77
ATOM     77  S   UNL A   1      37.285  31.072  32.526  1.00  0.00     0.124 S 
ATOM     78  O   UNL A   1      36.577  31.807  31.483  1.00  0.00    -0.237 OA
ATOM     79  O   UNL A   1      36.728  29.769  32.878  1.00  0.00    -0.237 OA
ATOM     80  O   UNL A   1      37.749  31.871  33.655  1.00  0.00    -0.744 OA
ENDBRANCH  76  77
ENDBRANCH  55  69
BRANCH  56  81
ATOM     81  C   UNL A   1      49.736  26.963  26.081  1.00  0.00     0.058 A 
ATOM     82  C   UNL A   1      50.739  26.339  26.839  1.00  0.00     0.135 A 
ATOM     83  C   UNL A   1      49.985  27.169  24.716  1.00  0.00     0.135 A 
ATOM     84  F   UNL A   1      50.554  26.116  28.149  1.00  0.00    -0.206 F 
ATOM     85  C   UNL A   1      51.956  25.967  26.276  1.00  0.00     0.059 A 
ATOM     86  C   UNL A   1      51.183  26.779  24.122  1.00  0.00     0.059 A 
ATOM     87  F   UNL A   1      49.050  27.744  23.944  1.00  0.00    -0.206 F 
ATOM     88  C   UNL A   1      52.169  26.195  24.916  1.00  0.00     0.060 A 
BRANCH  88  89
ATOM     89  S   UNL A   1      53.762  25.722  24.210  1.00  0.00     0.124 S 
ATOM     90  O   UNL A   1      53.451  25.685  22.785  1.00  0.00    -0.237 OA
ATOM     91  O   UNL A   1      54.625  26.816  24.645  1.00  0.00    -0.237 OA
ATOM     92  O   UNL A   1      54.034  24.427  24.827  1.00  0.00    -0.744 OA
ENDBRANCH  88  89
ENDBRANCH  56  81
BRANCH  68  93
ATOM     93  C   UNL A   1      43.580  23.851  27.284  1.00  0.00     0.058 A 
ATOM     94  C   UNL A   1      43.179  23.518  25.979  1.00  0.00     0.135 A 
ATOM     95  C   UNL A   1      43.363  22.903  28.296  1.00  0.00     0.135 A 
ATOM     96  F   UNL A   1      43.354  24.390  24.974  1.00  0.00    -0.206 F 
ATOM     97  C   UNL A   1      42.561  22.306  25.693  1.00  0.00     0.059 A 
ATOM     98  C   UNL A   1      42.775  21.670  28.027  1.00  0.00     0.059 A 
ATOM     99  F   UNL A   1      43.734  23.167  29.559  1.00  0.00    -0.206 F 
ATOM    100  C   UNL A   1      42.360  21.389  26.725  1.00  0.00     0.060 A 
BRANCH 100 101
ATOM    101  S   UNL A   1      41.558  19.819  26.334  1.00  0.00     0.124 S 
ATOM    102  O   UNL A   1      42.171  19.479  25.055  1.00  0.00    -0.237 OA
ATOM    103  O   UNL A   1      41.948  18.984  27.467  1.00  0.00    -0.237 OA
ATOM    104  O   UNL A   1      40.141  20.166  26.279  1.00  0.00    -0.744 OA
ENDBRANCH 100 101
ENDBRANCH  68  93
ENDBRANCH  42  43
ENDBRANCH  35  37
ENDBRANCH  34  35
ENDBRANCH  33  34
ENDBRANCH  32  33
ENDBRANCH  31  32
ENDBRANCH  30  31
ENDBRANCH  29  30
ENDBRANCH  28  29
ENDBRANCH   1  28
TORSDOF 29
ENDMDL
MODEL 3
REMARK VINA RESULT:      -6.1      8.697     14.788
REMARK SMILES CCN(C(=O)Nc1cc(OC)ccc1F)[C@H](C)CC(=O)OCCOCCOCCOCCOC(=O)c1ccc(-c2c3nc(c(-c4c(F)cc(S(=O)(=O)[O-])cc4F)c4ccc([nH]4)c(-c4c(F)cc(S(=O)(=O)[O-])cc4F)c4nc(c(-c5c(F)cc(S(=O)(=O)[O-])cc5F)c5ccc2[nH]5)C=C4)C=C3)cc1
REMARK SMILES IDX 26 1 25 2 24 3 23 4 22 5 21 6 19 7 20 8 18 9 16 10 17 11
REMARK SMILES IDX 3 12 2 13 1 14 4 15 5 16 6 17 7 19 8 20 14 21 9 22 13 23
REMARK SMILES IDX 15 24 12 25 10 26 11 27 27 28 28 29 29 30 30 31 31 32 32 33
REMARK SMILES IDX 33 34 34 35 35 36 36 37 37 38 101 39 38 40 100 41 39 42
REMARK SMILES IDX 40 43 41 44 94 45 42 46 99 47 93 48 95 49 43 50 98 51 92 52
REMARK SMILES IDX 91 53 44 55 78 56 57 57 77 58 58 59 61 60 76 61 96 62 59 63
REMARK SMILES IDX 60 64 75 66 97 67 62 68 45 69 46 70 55 71 47 72 48 73 54 74
REMARK SMILES IDX 56 75 49 76 50 77 51 78 52 79 53 80 79 81 80 82 89 83 81 84
REMARK SMILES IDX 82 85 88 86 90 87 83 88 84 89 85 90 86 91 87 92 63 93 64 94
REMARK SMILES IDX 73 95 65 96 66 97 72 98 74 99 67 100 68 101 69 102 70 103
REMARK SMILES IDX 71 104
REMARK H PARENT 6 18 95 54 61 65
REMARK Flexibility Score: inf
ROOT
ATOM      1  C   UNL A   1      43.033  34.926  36.367  1.00  0.00     0.188 C 
ENDROOT
BRANCH   1   2
ATOM      2  C   UNL A   1      44.512  34.899  35.975  1.00  0.00     0.188 C 
BRANCH   2   3
ATOM      3  O   UNL A   1      45.013  35.843  35.056  1.00  0.00    -0.376 OA
BRANCH   3   4
ATOM      4  C   UNL A   1      45.061  37.225  35.381  1.00  0.00     0.202 C 
BRANCH   4   5
ATOM      5  C   UNL A   1      44.508  38.357  34.491  1.00  0.00     0.261 C 
BRANCH   5   6
ATOM      6  O   UNL A   1      44.186  39.608  35.128  1.00  0.00    -0.463 OA
BRANCH   6   7
ATOM      7  C   UNL A   1      44.342  40.711  34.367  1.00  0.00     0.307 C 
ATOM      8  O   UNL A   1      44.551  40.680  33.155  1.00  0.00    -0.252 OA
BRANCH   7   9
ATOM      9  C   UNL A   1      44.193  42.039  35.075  1.00  0.00     0.147 C 
BRANCH   9  10
ATOM     10  C   UNL A   1      45.383  42.911  35.528  1.00  0.00     0.094 C 
ATOM     11  C   UNL A   1      46.494  42.178  36.286  1.00  0.00     0.032 C 
BRANCH  10  12
ATOM     12  N   UNL A   1      45.932  43.692  34.366  1.00  0.00    -0.322 N 
BRANCH  12  13
ATOM     13  C   UNL A   1      47.125  43.147  33.689  1.00  0.00     0.118 C 
ATOM     14  C   UNL A   1      48.365  44.024  33.619  1.00  0.00     0.027 C 
ENDBRANCH  12  13
BRANCH  12  15
ATOM     15  C   UNL A   1      45.279  44.877  34.037  1.00  0.00     0.322 C 
ATOM     16  O   UNL A   1      45.329  45.883  34.749  1.00  0.00    -0.248 OA
ATOM     17  N   UNL A   1      44.679  45.060  32.835  1.00  0.00    -0.305 N 
ATOM     18  H   UNL A   1      44.738  45.982  32.497  1.00  0.00     0.171 HD
BRANCH  17  19
ATOM     19  C   UNL A   1      43.992  44.187  31.986  1.00  0.00     0.082 A 
ATOM     20  C   UNL A   1      44.694  43.704  30.881  1.00  0.00     0.075 A 
ATOM     21  C   UNL A   1      42.702  43.716  32.241  1.00  0.00     0.147 A 
ATOM     22  C   UNL A   1      44.183  42.640  30.136  1.00  0.00     0.121 A 
ATOM     23  C   UNL A   1      42.172  42.677  31.488  1.00  0.00     0.045 A 
ATOM     24  F   UNL A   1      41.976  44.215  33.251  1.00  0.00    -0.205 F 
ATOM     25  C   UNL A   1      42.927  42.115  30.454  1.00  0.00     0.049 A 
BRANCH  22  26
ATOM     26  O   UNL A   1      45.024  42.185  29.158  1.00  0.00    -0.497 OA
ATOM     27  C   UNL A   1      46.411  42.436  29.337  1.00  0.00     0.278 C 
ENDBRANCH  22  26
ENDBRANCH  17  19
ENDBRANCH  12  15
ENDBRANCH  10  12
ENDBRANCH   9  10
ENDBRANCH   7   9
ENDBRANCH   6   7
ENDBRANCH   5   6
ENDBRANCH   4   5
ENDBRANCH   3   4
ENDBRANCH   2   3
ENDBRANCH   1   2
BRANCH   1  28
ATOM     28  O   UNL A   1      42.161  35.711  35.582  1.00  0.00    -0.377 OA
BRANCH  28  29
ATOM     29  C   UNL A   1      40.846  35.248  35.306  1.00  0.00     0.188 C 
BRANCH  29  30
ATOM     30  C   UNL A   1      39.659  35.731  36.158  1.00  0.00     0.188 C 
BRANCH  30  31
ATOM     31  O   UNL A   1      40.012  36.604  37.220  1.00  0.00    -0.376 OA
BRANCH  31  32
ATOM     32  C   UNL A   1      39.761  36.187  38.553  1.00  0.00     0.202 C 
BRANCH  32  33
ATOM     33  C   UNL A   1      39.883  34.688  38.873  1.00  0.00     0.261 C 
BRANCH  33  34
ATOM     34  O   UNL A   1      41.211  34.139  38.889  1.00  0.00    -0.460 OA
BRANCH  34  35
ATOM     35  C   UNL A   1      41.358  32.839  39.229  1.00  0.00     0.338 C 
ATOM     36  O   UNL A   1      41.025  32.310  40.268  1.00  0.00    -0.246 OA
BRANCH  35  37
ATOM     37  C   UNL A   1      41.835  32.114  38.032  1.00  0.00     0.060 A 
ATOM     38  C   UNL A   1      43.207  31.875  37.886  1.00  0.00     0.016 A 
ATOM     39  C   UNL A   1      40.934  31.693  37.051  1.00  0.00     0.016 A 
ATOM     40  C   UNL A   1      43.688  31.254  36.733  1.00  0.00     0.010 A 
ATOM     41  C   UNL A   1      41.421  31.089  35.888  1.00  0.00     0.010 A 
ATOM     42  C   UNL A   1      42.803  30.902  35.708  1.00  0.00    -0.014 A 
BRANCH  42  43
ATOM     43  C   UNL A   1      43.332  30.522  34.374  1.00  0.00     0.031 A 
ATOM     44  C   UNL A   1      43.855  29.123  34.186  1.00  0.00     0.074 A 
ATOM     45  C   UNL A   1      43.327  31.389  33.345  1.00  0.00     0.049 A 
ATOM     46  N   UNL A   1      44.420  28.583  33.138  1.00  0.00    -0.248 NA
ATOM     47  C   UNL A   1      43.723  28.211  35.335  1.00  0.00     0.031 C 
ATOM     48  C   UNL A   1      42.800  32.751  33.391  1.00  0.00     0.029 A 
ATOM     49  N   UNL A   1      43.788  31.249  32.059  1.00  0.00    -0.354 N 
ATOM     50  C   UNL A   1      44.717  27.275  33.502  1.00  0.00     0.074 A 
ATOM     51  C   UNL A   1      44.299  27.109  34.876  1.00  0.00     0.031 C 
ATOM     52  C   UNL A   1      42.979  33.327  32.189  1.00  0.00     0.029 A 
ATOM     53  C   UNL A   1      43.665  32.389  31.301  1.00  0.00     0.049 A 
ATOM     54  H   UNL A   1      44.170  30.410  31.712  1.00  0.00     0.167 HD
ATOM     55  C   UNL A   1      45.279  26.297  32.754  1.00  0.00     0.037 A 
ATOM     56  C   UNL A   1      44.081  32.653  30.045  1.00  0.00     0.037 A 
ATOM     57  C   UNL A   1      45.687  26.468  31.384  1.00  0.00     0.049 A 
ATOM     58  C   UNL A   1      44.776  31.572  29.255  1.00  0.00     0.074 A 
ATOM     59  C   UNL A   1      46.252  25.532  30.536  1.00  0.00     0.029 A 
ATOM     60  N   UNL A   1      45.580  27.649  30.664  1.00  0.00    -0.354 N 
ATOM     61  N   UNL A   1      45.043  30.336  29.606  1.00  0.00    -0.248 NA
ATOM     62  C   UNL A   1      45.229  31.919  27.899  1.00  0.00     0.031 C 
ATOM     63  C   UNL A   1      46.543  26.163  29.323  1.00  0.00     0.029 A 
ATOM     64  C   UNL A   1      46.097  27.474  29.392  1.00  0.00     0.049 A 
ATOM     65  H   UNL A   1      45.194  28.487  31.007  1.00  0.00     0.167 HD
ATOM     66  C   UNL A   1      45.670  29.752  28.508  1.00  0.00     0.074 A 
ATOM     67  C   UNL A   1      45.732  30.766  27.477  1.00  0.00     0.031 C 
ATOM     68  C   UNL A   1      46.148  28.490  28.369  1.00  0.00     0.037 A 
BRANCH  55  69
ATOM     69  C   UNL A   1      45.507  24.956  33.396  1.00  0.00     0.058 A 
ATOM     70  C   UNL A   1      44.494  23.984  33.384  1.00  0.00     0.135 A 
ATOM     71  C   UNL A   1      46.692  24.658  34.087  1.00  0.00     0.135 A 
ATOM     72  F   UNL A   1      43.344  24.212  32.730  1.00  0.00    -0.206 F 
ATOM     73  C   UNL A   1      44.637  22.775  34.056  1.00  0.00     0.059 A 
ATOM     74  C   UNL A   1      46.869  23.442  34.741  1.00  0.00     0.059 A 
ATOM     75  F   UNL A   1      47.703  25.542  34.108  1.00  0.00    -0.206 F 
ATOM     76  C   UNL A   1      45.827  22.515  34.736  1.00  0.00     0.060 A 
BRANCH  76  77
ATOM     77  S   UNL A   1      45.999  20.934  35.592  1.00  0.00     0.124 S 
ATOM     78  O   UNL A   1      45.715  21.309  36.973  1.00  0.00    -0.237 OA
ATOM     79  O   UNL A   1      44.985  20.119  34.930  1.00  0.00    -0.237 OA
ATOM     80  O   UNL A   1      47.379  20.549  35.315  1.00  0.00    -0.744 OA
ENDBRANCH  76  77
ENDBRANCH  55  69
BRANCH  56  81
ATOM     81  C   UNL A   1      43.858  34.004  29.461  1.00  0.00     0.058 A 
ATOM     82  C   UNL A   1      44.914  34.918  29.318  1.00  0.00     0.135 A 
ATOM     83  C   UNL A   1      42.581  34.418  29.052  1.00  0.00     0.135 A 
ATOM     84  F   UNL A   1      46.156  34.574  29.693  1.00  0.00    -0.206 F 
ATOM     85  C   UNL A   1      44.709  36.202  28.826  1.00  0.00     0.059 A 
ATOM     86  C   UNL A   1      42.354  35.688  28.528  1.00  0.00     0.059 A 
ATOM     87  F   UNL A   1      41.541  33.575  29.149  1.00  0.00    -0.206 F 
ATOM     88  C   UNL A   1      43.423  36.579  28.437  1.00  0.00     0.060 A 
BRANCH  88  89
ATOM     89  S   UNL A   1      43.175  38.257  27.818  1.00  0.00     0.124 S 
ATOM     90  O   UNL A   1      43.215  39.033  29.054  1.00  0.00    -0.237 OA
ATOM     91  O   UNL A   1      44.316  38.424  26.924  1.00  0.00    -0.237 OA
ATOM     92  O   UNL A   1      41.872  38.187  27.163  1.00  0.00    -0.744 OA
ENDBRANCH  88  89
ENDBRANCH  56  81
BRANCH  68  93
ATOM     93  C   UNL A   1      46.763  28.107  27.049  1.00  0.00     0.058 A 
ATOM     94  C   UNL A   1      48.132  28.322  26.815  1.00  0.00     0.135 A 
ATOM     95  C   UNL A   1      45.986  27.627  25.984  1.00  0.00     0.135 A 
ATOM     96  F   UNL A   1      48.921  28.788  27.796  1.00  0.00    -0.206 F 
ATOM     97  C   UNL A   1      48.702  28.097  25.567  1.00  0.00     0.059 A 
ATOM     98  C   UNL A   1      46.542  27.365  24.734  1.00  0.00     0.059 A 
ATOM     99  F   UNL A   1      44.674  27.398  26.154  1.00  0.00    -0.206 F 
ATOM    100  C   UNL A   1      47.898  27.621  24.531  1.00  0.00     0.060 A 
BRANCH 100 101
ATOM    101  S   UNL A   1      48.658  27.334  22.918  1.00  0.00     0.124 S 
ATOM    102  O   UNL A   1      47.919  28.262  22.069  1.00  0.00    -0.237 OA
ATOM    103  O   UNL A   1      50.054  27.679  23.171  1.00  0.00    -0.237 OA
ATOM    104  O   UNL A   1      48.404  25.918  22.670  1.00  0.00    -0.744 OA
ENDBRANCH 100 101
ENDBRANCH  68  93
ENDBRANCH  42  43
ENDBRANCH  35  37
ENDBRANCH  34  35
ENDBRANCH  33  34
ENDBRANCH  32  33
ENDBRANCH  31  32
ENDBRANCH  30  31
ENDBRANCH  29  30
ENDBRANCH  28  29
ENDBRANCH   1  28
TORSDOF 29
ENDMDL
