MODEL 1
REMARK VINA RESULT:      -9.0      0.000      0.000
REMARK SMILES Cc1cc(C)c(C#N)c(NC[C@H](CC(C)C)C(=O)OCCOCCOCCOCCOC(=O)c2ccc(-c3c4nc(c(-c5c(F)cc(S(=O)(=O)[O-])cc5F)c5ccc([nH]5)c(-c5c(F)cc(S(=O)(=O)[O-])cc5F)c5nc(c(-c6c(F)cc(S(=O)(=O)[O-])cc6F)c6ccc3[nH]6)C=C5)C=C4)cc2)n1
REMARK SMILES IDX 24 1 23 2 22 3 21 4 20 5 19 6 17 7 18 8 12 9 11 10 10 11
REMARK SMILES IDX 9 13 1 14 2 15 3 16 100 17 4 18 5 19 6 20 7 21 8 22 13 23
REMARK SMILES IDX 14 24 15 25 16 26 25 27 26 28 27 29 28 30 29 31 30 32 31 33
REMARK SMILES IDX 32 34 33 35 34 36 35 37 99 38 36 39 98 40 37 41 38 42 39 43
REMARK SMILES IDX 92 44 40 45 97 46 91 47 93 48 41 49 96 50 90 51 89 52 42 54
REMARK SMILES IDX 76 55 55 56 75 57 56 58 59 59 74 60 94 61 57 62 58 63 73 65
REMARK SMILES IDX 95 66 60 67 43 68 44 69 53 70 45 71 46 72 52 73 54 74 47 75
REMARK SMILES IDX 48 76 49 77 50 78 51 79 77 80 78 81 87 82 79 83 80 84 86 85
REMARK SMILES IDX 88 86 81 87 82 88 83 89 84 90 85 91 61 92 62 93 71 94 63 95
REMARK SMILES IDX 64 96 70 97 72 98 65 99 66 100 67 101 68 102 69 103
REMARK H PARENT 10 12 93 53 59 64
REMARK Flexibility Score: inf
ROOT
ATOM      1  C   UNL A   1      38.520  21.540  25.706  1.00  0.00     0.188 C 
ENDROOT
BRANCH   1   2
ATOM      2  C   UNL A   1      37.467  21.032  24.710  1.00  0.00     0.188 C 
BRANCH   2   3
ATOM      3  O   UNL A   1      36.205  20.725  25.244  1.00  0.00    -0.376 OA
BRANCH   3   4
ATOM      4  C   UNL A   1      35.421  21.644  25.978  1.00  0.00     0.202 C 
BRANCH   4   5
ATOM      5  C   UNL A   1      35.090  23.077  25.525  1.00  0.00     0.261 C 
BRANCH   5   6
ATOM      6  O   UNL A   1      34.210  23.846  26.354  1.00  0.00    -0.463 OA
BRANCH   6   7
ATOM      7  C   UNL A   1      33.864  25.069  25.880  1.00  0.00     0.310 C 
ATOM      8  O   UNL A   1      34.412  25.590  24.911  1.00  0.00    -0.252 OA
BRANCH   7   9
ATOM      9  C   UNL A   1      32.631  25.704  26.544  1.00  0.00     0.118 C 
BRANCH   9  10
ATOM     10  C   UNL A   1      31.398  24.862  26.219  1.00  0.00     0.129 C 
BRANCH  10  11
ATOM     11  N   UNL A   1      31.350  24.497  24.830  1.00  0.00    -0.368 N 
ATOM     12  H   UNL A   1      31.270  23.531  24.664  1.00  0.00     0.162 HD
BRANCH  11  13
ATOM     13  C   UNL A   1      31.398  25.265  23.708  1.00  0.00     0.144 A 
ATOM     14  C   UNL A   1      29.640  28.454  23.148  1.00  0.00     0.067 C 
ATOM     15  C   UNL A   1      30.483  27.248  22.863  1.00  0.00     0.040 A 
ATOM     16  C   UNL A   1      31.074  27.054  21.626  1.00  0.00     0.028 A 
ATOM     17  N   UNL A   1      30.634  26.368  23.876  1.00  0.00    -0.235 NA
ATOM     18  C   UNL A   1      31.873  25.927  21.432  1.00  0.00    -0.028 A 
ATOM     19  C   UNL A   1      32.489  25.671  20.083  1.00  0.00     0.046 C 
ATOM     20  C   UNL A   1      32.072  25.032  22.507  1.00  0.00     0.097 A 
BRANCH  20  21
ATOM     21  C   UNL A   1      32.950  23.922  22.291  1.00  0.00     0.103 C 
ATOM     22  N   UNL A   1      33.667  23.039  22.034  1.00  0.00    -0.192 NA
ENDBRANCH  20  21
ENDBRANCH  11  13
ENDBRANCH  10  11
ENDBRANCH   9  10
BRANCH   9  23
ATOM     23  C   UNL A   1      32.291  27.218  26.567  1.00  0.00     0.020 C 
BRANCH  23  24
ATOM     24  C   UNL A   1      33.333  28.295  26.247  1.00  0.00    -0.017 C 
ATOM     25  C   UNL A   1      33.197  28.818  24.825  1.00  0.00     0.007 C 
ATOM     26  C   UNL A   1      33.186  29.444  27.257  1.00  0.00     0.007 C 
ENDBRANCH  23  24
ENDBRANCH   9  23
ENDBRANCH   7   9
ENDBRANCH   6   7
ENDBRANCH   5   6
ENDBRANCH   4   5
ENDBRANCH   3   4
ENDBRANCH   2   3
ENDBRANCH   1   2
BRANCH   1  27
ATOM     27  O   UNL A   1      39.895  21.218  25.658  1.00  0.00    -0.377 OA
BRANCH  27  28
ATOM     28  C   UNL A   1      40.372  20.106  26.386  1.00  0.00     0.188 C 
BRANCH  28  29
ATOM     29  C   UNL A   1      41.899  19.952  26.333  1.00  0.00     0.188 C 
BRANCH  29  30
ATOM     30  O   UNL A   1      42.720  20.971  25.784  1.00  0.00    -0.376 OA
BRANCH  30  31
ATOM     31  C   UNL A   1      42.825  22.252  26.378  1.00  0.00     0.202 C 
BRANCH  31  32
ATOM     32  C   UNL A   1      44.144  23.052  26.467  1.00  0.00     0.261 C 
BRANCH  32  33
ATOM     33  O   UNL A   1      44.111  24.367  27.026  1.00  0.00    -0.460 OA
BRANCH  33  34
ATOM     34  C   UNL A   1      43.529  25.305  26.250  1.00  0.00     0.338 C 
ATOM     35  O   UNL A   1      43.568  25.378  25.035  1.00  0.00    -0.246 OA
BRANCH  34  36
ATOM     36  C   UNL A   1      42.683  26.172  27.096  1.00  0.00     0.060 A 
ATOM     37  C   UNL A   1      42.995  27.536  27.159  1.00  0.00     0.016 A 
ATOM     38  C   UNL A   1      41.658  25.642  27.885  1.00  0.00     0.016 A 
ATOM     39  C   UNL A   1      42.337  28.362  28.057  1.00  0.00     0.010 A 
ATOM     40  C   UNL A   1      41.018  26.468  28.815  1.00  0.00     0.010 A 
ATOM     41  C   UNL A   1      41.403  27.816  28.944  1.00  0.00    -0.014 A 
BRANCH  41  42
ATOM     42  C   UNL A   1      41.060  28.601  30.153  1.00  0.00     0.031 A 
ATOM     43  C   UNL A   1      41.931  28.442  31.373  1.00  0.00     0.074 A 
ATOM     44  C   UNL A   1      40.078  29.518  30.127  1.00  0.00     0.049 A 
ATOM     45  N   UNL A   1      41.868  29.057  32.525  1.00  0.00    -0.248 NA
ATOM     46  C   UNL A   1      43.020  27.457  31.277  1.00  0.00     0.031 C 
ATOM     47  C   UNL A   1      39.227  29.809  28.975  1.00  0.00     0.029 A 
ATOM     48  N   UNL A   1      39.646  30.385  31.096  1.00  0.00    -0.354 N 
ATOM     49  C   UNL A   1      42.896  28.520  33.295  1.00  0.00     0.074 A 
ATOM     50  C   UNL A   1      43.541  27.506  32.494  1.00  0.00     0.031 C 
ATOM     51  C   UNL A   1      38.378  30.799  29.301  1.00  0.00     0.029 A 
ATOM     52  C   UNL A   1      38.603  31.184  30.693  1.00  0.00     0.049 A 
ATOM     53  H   UNL A   1      40.045  30.432  31.995  1.00  0.00     0.167 HD
ATOM     54  C   UNL A   1      43.272  28.852  34.554  1.00  0.00     0.037 A 
ATOM     55  C   UNL A   1      37.906  32.110  31.379  1.00  0.00     0.037 A 
ATOM     56  C   UNL A   1      42.618  29.867  35.339  1.00  0.00     0.049 A 
ATOM     57  C   UNL A   1      38.288  32.402  32.807  1.00  0.00     0.074 A 
ATOM     58  C   UNL A   1      42.923  30.293  36.618  1.00  0.00     0.029 A 
ATOM     59  N   UNL A   1      41.519  30.605  34.922  1.00  0.00    -0.354 N 
ATOM     60  N   UNL A   1      39.266  31.897  33.524  1.00  0.00    -0.248 NA
ATOM     61  C   UNL A   1      37.475  33.398  33.519  1.00  0.00     0.031 C 
ATOM     62  C   UNL A   1      41.960  31.231  37.006  1.00  0.00     0.029 A 
ATOM     63  C   UNL A   1      41.109  31.457  35.935  1.00  0.00     0.049 A 
ATOM     64  H   UNL A   1      41.093  30.534  34.038  1.00  0.00     0.167 HD
ATOM     65  C   UNL A   1      39.213  32.546  34.754  1.00  0.00     0.074 A 
ATOM     66  C   UNL A   1      38.111  33.485  34.678  1.00  0.00     0.031 C 
ATOM     67  C   UNL A   1      40.009  32.389  35.843  1.00  0.00     0.037 A 
BRANCH  54  68
ATOM     68  C   UNL A   1      44.398  28.065  35.174  1.00  0.00     0.058 A 
ATOM     69  C   UNL A   1      44.184  26.873  35.887  1.00  0.00     0.135 A 
ATOM     70  C   UNL A   1      45.722  28.520  35.055  1.00  0.00     0.135 A 
ATOM     71  F   UNL A   1      42.939  26.395  36.050  1.00  0.00    -0.206 F 
ATOM     72  C   UNL A   1      45.232  26.189  36.497  1.00  0.00     0.059 A 
ATOM     73  C   UNL A   1      46.790  27.830  35.622  1.00  0.00     0.059 A 
ATOM     74  F   UNL A   1      45.991  29.652  34.387  1.00  0.00    -0.206 F 
ATOM     75  C   UNL A   1      46.532  26.677  36.361  1.00  0.00     0.060 A 
BRANCH  75  76
ATOM     76  S   UNL A   1      47.879  25.792  37.173  1.00  0.00     0.124 S 
ATOM     77  O   UNL A   1      48.888  25.767  36.119  1.00  0.00    -0.237 OA
ATOM     78  O   UNL A   1      48.174  26.655  38.313  1.00  0.00    -0.237 OA
ATOM     79  O   UNL A   1      47.289  24.499  37.505  1.00  0.00    -0.744 OA
ENDBRANCH  75  76
ENDBRANCH  54  68
BRANCH  55  80
ATOM     80  C   UNL A   1      36.789  32.841  30.721  1.00  0.00     0.058 A 
ATOM     81  C   UNL A   1      35.453  32.572  31.053  1.00  0.00     0.135 A 
ATOM     82  C   UNL A   1      37.034  33.828  29.753  1.00  0.00     0.135 A 
ATOM     83  F   UNL A   1      35.165  31.630  31.966  1.00  0.00    -0.206 F 
ATOM     84  C   UNL A   1      34.400  33.244  30.442  1.00  0.00     0.059 A 
ATOM     85  C   UNL A   1      35.999  34.534  29.150  1.00  0.00     0.059 A 
ATOM     86  F   UNL A   1      38.294  34.131  29.403  1.00  0.00    -0.206 F 
ATOM     87  C   UNL A   1      34.684  34.230  29.497  1.00  0.00     0.060 A 
BRANCH  87  88
ATOM     88  S   UNL A   1      33.309  35.137  28.756  1.00  0.00     0.124 S 
ATOM     89  O   UNL A   1      34.006  36.199  28.039  1.00  0.00    -0.237 OA
ATOM     90  O   UNL A   1      32.682  34.112  27.928  1.00  0.00    -0.237 OA
ATOM     91  O   UNL A   1      32.525  35.565  29.911  1.00  0.00    -0.744 OA
ENDBRANCH  87  88
ENDBRANCH  55  80
BRANCH  67  92
ATOM     92  C   UNL A   1      39.757  33.294  37.022  1.00  0.00     0.058 A 
ATOM     93  C   UNL A   1      38.869  32.954  38.055  1.00  0.00     0.135 A 
ATOM     94  C   UNL A   1      40.442  34.518  37.130  1.00  0.00     0.135 A 
ATOM     95  F   UNL A   1      38.186  31.800  38.007  1.00  0.00    -0.206 F 
ATOM     96  C   UNL A   1      38.632  33.814  39.123  1.00  0.00     0.059 A 
ATOM     97  C   UNL A   1      40.253  35.372  38.210  1.00  0.00     0.059 A 
ATOM     98  F   UNL A   1      41.316  34.889  36.181  1.00  0.00    -0.206 F 
ATOM     99  C   UNL A   1      39.329  35.022  39.192  1.00  0.00     0.060 A 
BRANCH  99 100
ATOM    100  S   UNL A   1      39.014  36.125  40.584  1.00  0.00     0.124 S 
ATOM    101  O   UNL A   1      37.797  35.550  41.147  1.00  0.00    -0.237 OA
ATOM    102  O   UNL A   1      40.222  35.964  41.387  1.00  0.00    -0.237 OA
ATOM    103  O   UNL A   1      38.857  37.433  39.954  1.00  0.00    -0.744 OA
ENDBRANCH  99 100
ENDBRANCH  67  92
ENDBRANCH  41  42
ENDBRANCH  34  36
ENDBRANCH  33  34
ENDBRANCH  32  33
ENDBRANCH  31  32
ENDBRANCH  30  31
ENDBRANCH  29  30
ENDBRANCH  28  29
ENDBRANCH  27  28
ENDBRANCH   1  27
TORSDOF 29
ENDMDL
MODEL 2
REMARK VINA RESULT:      -8.3      1.922      3.281
REMARK SMILES Cc1cc(C)c(C#N)c(NC[C@H](CC(C)C)C(=O)OCCOCCOCCOCCOC(=O)c2ccc(-c3c4nc(c(-c5c(F)cc(S(=O)(=O)[O-])cc5F)c5ccc([nH]5)c(-c5c(F)cc(S(=O)(=O)[O-])cc5F)c5nc(c(-c6c(F)cc(S(=O)(=O)[O-])cc6F)c6ccc3[nH]6)C=C5)C=C4)cc2)n1
REMARK SMILES IDX 24 1 23 2 22 3 21 4 20 5 19 6 17 7 18 8 12 9 11 10 10 11
REMARK SMILES IDX 9 13 1 14 2 15 3 16 100 17 4 18 5 19 6 20 7 21 8 22 13 23
REMARK SMILES IDX 14 24 15 25 16 26 25 27 26 28 27 29 28 30 29 31 30 32 31 33
REMARK SMILES IDX 32 34 33 35 34 36 35 37 99 38 36 39 98 40 37 41 38 42 39 43
REMARK SMILES IDX 92 44 40 45 97 46 91 47 93 48 41 49 96 50 90 51 89 52 42 54
REMARK SMILES IDX 76 55 55 56 75 57 56 58 59 59 74 60 94 61 57 62 58 63 73 65
REMARK SMILES IDX 95 66 60 67 43 68 44 69 53 70 45 71 46 72 52 73 54 74 47 75
REMARK SMILES IDX 48 76 49 77 50 78 51 79 77 80 78 81 87 82 79 83 80 84 86 85
REMARK SMILES IDX 88 86 81 87 82 88 83 89 84 90 85 91 61 92 62 93 71 94 63 95
REMARK SMILES IDX 64 96 70 97 72 98 65 99 66 100 67 101 68 102 69 103
REMARK H PARENT 10 12 93 53 59 64
REMARK Flexibility Score: inf
ROOT
ATOM      1  C   UNL A   1      38.964  22.720  26.433  1.00  0.00     0.188 C 
ENDROOT
BRANCH   1   2
ATOM      2  C   UNL A   1      37.656  22.376  25.703  1.00  0.00     0.188 C 
BRANCH   2   3
ATOM      3  O   UNL A   1      36.574  23.240  25.933  1.00  0.00    -0.376 OA
BRANCH   3   4
ATOM      4  C   UNL A   1      35.655  23.629  24.931  1.00  0.00     0.202 C 
BRANCH   4   5
ATOM      5  C   UNL A   1      35.854  23.406  23.421  1.00  0.00     0.261 C 
BRANCH   5   6
ATOM      6  O   UNL A   1      34.679  23.261  22.614  1.00  0.00    -0.463 OA
BRANCH   6   7
ATOM      7  C   UNL A   1      33.746  24.237  22.740  1.00  0.00     0.310 C 
ATOM      8  O   UNL A   1      33.868  25.348  22.228  1.00  0.00    -0.252 OA
BRANCH   7   9
ATOM      9  C   UNL A   1      32.446  23.814  23.442  1.00  0.00     0.118 C 
BRANCH   9  10
ATOM     10  C   UNL A   1      31.802  22.671  22.659  1.00  0.00     0.129 C 
BRANCH  10  11
ATOM     11  N   UNL A   1      32.543  21.448  22.792  1.00  0.00    -0.368 N 
ATOM     12  H   UNL A   1      32.990  21.148  21.967  1.00  0.00     0.162 HD
BRANCH  11  13
ATOM     13  C   UNL A   1      32.731  20.636  23.867  1.00  0.00     0.144 A 
ATOM     14  C   UNL A   1      33.493  21.690  27.314  1.00  0.00     0.067 C 
ATOM     15  C   UNL A   1      33.257  20.784  26.144  1.00  0.00     0.040 A 
ATOM     16  C   UNL A   1      33.322  19.406  26.272  1.00  0.00     0.028 A 
ATOM     17  N   UNL A   1      32.979  21.383  24.967  1.00  0.00    -0.235 NA
ATOM     18  C   UNL A   1      33.062  18.615  25.152  1.00  0.00    -0.028 A 
ATOM     19  C   UNL A   1      33.170  17.117  25.256  1.00  0.00     0.046 C 
ATOM     20  C   UNL A   1      32.721  19.240  23.932  1.00  0.00     0.097 A 
BRANCH  20  21
ATOM     21  C   UNL A   1      32.398  18.395  22.823  1.00  0.00     0.103 C 
ATOM     22  N   UNL A   1      32.057  17.700  21.950  1.00  0.00    -0.192 NA
ENDBRANCH  20  21
ENDBRANCH  11  13
ENDBRANCH  10  11
ENDBRANCH   9  10
BRANCH   9  23
ATOM     23  C   UNL A   1      31.373  24.774  24.022  1.00  0.00     0.020 C 
BRANCH  23  24
ATOM     24  C   UNL A   1      31.032  24.812  25.516  1.00  0.00    -0.017 C 
ATOM     25  C   UNL A   1      32.260  25.075  26.376  1.00  0.00     0.007 C 
ATOM     26  C   UNL A   1      29.969  25.895  25.756  1.00  0.00     0.007 C 
ENDBRANCH  23  24
ENDBRANCH   9  23
ENDBRANCH   7   9
ENDBRANCH   6   7
ENDBRANCH   5   6
ENDBRANCH   4   5
ENDBRANCH   3   4
ENDBRANCH   2   3
ENDBRANCH   1   2
BRANCH   1  27
ATOM     27  O   UNL A   1      40.235  22.203  26.094  1.00  0.00    -0.377 OA
BRANCH  27  28
ATOM     28  C   UNL A   1      40.555  20.871  26.436  1.00  0.00     0.188 C 
BRANCH  28  29
ATOM     29  C   UNL A   1      42.005  20.488  26.104  1.00  0.00     0.188 C 
BRANCH  29  30
ATOM     30  O   UNL A   1      42.914  21.443  25.582  1.00  0.00    -0.376 OA
BRANCH  30  31
ATOM     31  C   UNL A   1      43.399  22.522  26.361  1.00  0.00     0.202 C 
BRANCH  31  32
ATOM     32  C   UNL A   1      44.834  23.085  26.251  1.00  0.00     0.261 C 
BRANCH  32  33
ATOM     33  O   UNL A   1      45.293  23.990  27.257  1.00  0.00    -0.460 OA
BRANCH  33  34
ATOM     34  C   UNL A   1      45.344  25.286  26.881  1.00  0.00     0.338 C 
ATOM     35  O   UNL A   1      45.968  25.753  25.945  1.00  0.00    -0.246 OA
BRANCH  34  36
ATOM     36  C   UNL A   1      44.386  26.060  27.696  1.00  0.00     0.060 A 
ATOM     37  C   UNL A   1      44.294  27.439  27.470  1.00  0.00     0.016 A 
ATOM     38  C   UNL A   1      43.655  25.461  28.726  1.00  0.00     0.016 A 
ATOM     39  C   UNL A   1      43.532  28.236  28.311  1.00  0.00     0.010 A 
ATOM     40  C   UNL A   1      42.914  26.269  29.594  1.00  0.00     0.010 A 
ATOM     41  C   UNL A   1      42.904  27.665  29.423  1.00  0.00    -0.014 A 
BRANCH  41  42
ATOM     42  C   UNL A   1      42.489  28.571  30.520  1.00  0.00     0.031 A 
ATOM     43  C   UNL A   1      43.402  28.711  31.710  1.00  0.00     0.074 A 
ATOM     44  C   UNL A   1      41.392  29.340  30.404  1.00  0.00     0.049 A 
ATOM     45  N   UNL A   1      43.286  29.478  32.762  1.00  0.00    -0.248 NA
ATOM     46  C   UNL A   1      44.612  27.872  31.710  1.00  0.00     0.031 C 
ATOM     47  C   UNL A   1      40.481  29.343  29.261  1.00  0.00     0.029 A 
ATOM     48  N   UNL A   1      40.871  30.279  31.256  1.00  0.00    -0.354 N 
ATOM     49  C   UNL A   1      44.395  29.200  33.556  1.00  0.00     0.074 A 
ATOM     50  C   UNL A   1      45.151  28.169  32.882  1.00  0.00     0.031 C 
ATOM     51  C   UNL A   1      39.515  30.253  29.478  1.00  0.00     0.029 A 
ATOM     52  C   UNL A   1      39.721  30.867  30.788  1.00  0.00     0.049 A 
ATOM     53  H   UNL A   1      41.282  30.511  32.120  1.00  0.00     0.167 HD
ATOM     54  C   UNL A   1      44.754  29.761  34.735  1.00  0.00     0.037 A 
ATOM     55  C   UNL A   1      38.923  31.787  31.363  1.00  0.00     0.037 A 
ATOM     56  C   UNL A   1      43.990  30.789  35.393  1.00  0.00     0.049 A 
ATOM     57  C   UNL A   1      39.297  32.336  32.715  1.00  0.00     0.074 A 
ATOM     58  C   UNL A   1      44.266  31.438  36.583  1.00  0.00     0.029 A 
ATOM     59  N   UNL A   1      42.791  31.309  34.923  1.00  0.00    -0.354 N 
ATOM     60  N   UNL A   1      40.351  32.075  33.454  1.00  0.00    -0.248 NA
ATOM     61  C   UNL A   1      38.376  33.314  33.310  1.00  0.00     0.031 C 
ATOM     62  C   UNL A   1      43.196  32.291  36.872  1.00  0.00     0.029 A 
ATOM     63  C   UNL A   1      42.296  32.243  35.819  1.00  0.00     0.049 A 
ATOM     64  H   UNL A   1      42.358  31.052  34.078  1.00  0.00     0.167 HD
ATOM     65  C   UNL A   1      40.243  32.889  34.577  1.00  0.00     0.074 A 
ATOM     66  C   UNL A   1      39.023  33.655  34.415  1.00  0.00     0.031 C 
ATOM     67  C   UNL A   1      41.079  33.000  35.642  1.00  0.00     0.037 A 
BRANCH  54  68
ATOM     68  C   UNL A   1      45.991  29.228  35.413  1.00  0.00     0.058 A 
ATOM     69  C   UNL A   1      47.267  29.776  35.196  1.00  0.00     0.135 A 
ATOM     70  C   UNL A   1      45.896  28.139  36.295  1.00  0.00     0.135 A 
ATOM     71  F   UNL A   1      47.426  30.809  34.351  1.00  0.00    -0.206 F 
ATOM     72  C   UNL A   1      48.405  29.236  35.791  1.00  0.00     0.059 A 
ATOM     73  C   UNL A   1      47.014  27.608  36.932  1.00  0.00     0.059 A 
ATOM     74  F   UNL A   1      44.705  27.570  36.541  1.00  0.00    -0.206 F 
ATOM     75  C   UNL A   1      48.268  28.150  36.656  1.00  0.00     0.060 A 
BRANCH  75  76
ATOM     76  S   UNL A   1      49.751  27.448  37.404  1.00  0.00     0.124 S 
ATOM     77  O   UNL A   1      50.567  28.640  37.611  1.00  0.00    -0.237 OA
ATOM     78  O   UNL A   1      49.223  26.824  38.614  1.00  0.00    -0.237 OA
ATOM     79  O   UNL A   1      50.242  26.522  36.389  1.00  0.00    -0.744 OA
ENDBRANCH  75  76
ENDBRANCH  54  68
BRANCH  55  80
ATOM     80  C   UNL A   1      37.702  32.261  30.656  1.00  0.00     0.058 A 
ATOM     81  C   UNL A   1      37.740  33.389  29.822  1.00  0.00     0.135 A 
ATOM     82  C   UNL A   1      36.475  31.594  30.794  1.00  0.00     0.135 A 
ATOM     83  F   UNL A   1      38.887  34.069  29.665  1.00  0.00    -0.206 F 
ATOM     84  C   UNL A   1      36.605  33.845  29.160  1.00  0.00     0.059 A 
ATOM     85  C   UNL A   1      35.333  32.013  30.118  1.00  0.00     0.059 A 
ATOM     86  F   UNL A   1      36.383  30.505  31.574  1.00  0.00    -0.206 F 
ATOM     87  C   UNL A   1      35.407  33.145  29.309  1.00  0.00     0.060 A 
BRANCH  87  88
ATOM     88  S   UNL A   1      33.957  33.713  28.395  1.00  0.00     0.124 S 
ATOM     89  O   UNL A   1      33.209  34.413  29.433  1.00  0.00    -0.237 OA
ATOM     90  O   UNL A   1      34.558  34.551  27.363  1.00  0.00    -0.237 OA
ATOM     91  O   UNL A   1      33.355  32.473  27.912  1.00  0.00    -0.744 OA
ENDBRANCH  87  88
ENDBRANCH  55  80
BRANCH  67  92
ATOM     92  C   UNL A   1      40.737  34.031  36.687  1.00  0.00     0.058 A 
ATOM     93  C   UNL A   1      39.940  33.733  37.804  1.00  0.00     0.135 A 
ATOM     94  C   UNL A   1      41.241  35.339  36.577  1.00  0.00     0.135 A 
ATOM     95  F   UNL A   1      39.430  32.503  37.962  1.00  0.00    -0.206 F 
ATOM     96  C   UNL A   1      39.616  34.706  38.746  1.00  0.00     0.059 A 
ATOM     97  C   UNL A   1      40.965  36.315  37.529  1.00  0.00     0.059 A 
ATOM     98  F   UNL A   1      42.022  35.679  35.539  1.00  0.00    -0.206 F 
ATOM     99  C   UNL A   1      40.133  35.994  38.599  1.00  0.00     0.060 A 
BRANCH  99 100
ATOM    100  S   UNL A   1      39.707  37.243  39.829  1.00  0.00     0.124 S 
ATOM    101  O   UNL A   1      38.550  37.883  39.211  1.00  0.00    -0.237 OA
ATOM    102  O   UNL A   1      39.427  36.433  41.011  1.00  0.00    -0.237 OA
ATOM    103  O   UNL A   1      40.910  38.066  39.911  1.00  0.00    -0.744 OA
ENDBRANCH  99 100
ENDBRANCH  67  92
ENDBRANCH  41  42
ENDBRANCH  34  36
ENDBRANCH  33  34
ENDBRANCH  32  33
ENDBRANCH  31  32
ENDBRANCH  30  31
ENDBRANCH  29  30
ENDBRANCH  28  29
ENDBRANCH  27  28
ENDBRANCH   1  27
TORSDOF 29
ENDMDL
MODEL 3
REMARK VINA RESULT:      -7.6      4.611     12.283
REMARK SMILES Cc1cc(C)c(C#N)c(NC[C@H](CC(C)C)C(=O)OCCOCCOCCOCCOC(=O)c2ccc(-c3c4nc(c(-c5c(F)cc(S(=O)(=O)[O-])cc5F)c5ccc([nH]5)c(-c5c(F)cc(S(=O)(=O)[O-])cc5F)c5nc(c(-c6c(F)cc(S(=O)(=O)[O-])cc6F)c6ccc3[nH]6)C=C5)C=C4)cc2)n1
REMARK SMILES IDX 24 1 23 2 22 3 21 4 20 5 19 6 17 7 18 8 12 9 11 10 10 11
REMARK SMILES IDX 9 13 1 14 2 15 3 16 100 17 4 18 5 19 6 20 7 21 8 22 13 23
REMARK SMILES IDX 14 24 15 25 16 26 25 27 26 28 27 29 28 30 29 31 30 32 31 33
REMARK SMILES IDX 32 34 33 35 34 36 35 37 99 38 36 39 98 40 37 41 38 42 39 43
REMARK SMILES IDX 92 44 40 45 97 46 91 47 93 48 41 49 96 50 90 51 89 52 42 54
REMARK SMILES IDX 76 55 55 56 75 57 56 58 59 59 74 60 94 61 57 62 58 63 73 65
REMARK SMILES IDX 95 66 60 67 43 68 44 69 53 70 45 71 46 72 52 73 54 74 47 75
REMARK SMILES IDX 48 76 49 77 50 78 51 79 77 80 78 81 87 82 79 83 80 84 86 85
REMARK SMILES IDX 88 86 81 87 82 88 83 89 84 90 85 91 61 92 62 93 71 94 63 95
REMARK SMILES IDX 64 96 70 97 72 98 65 99 66 100 67 101 68 102 69 103
REMARK H PARENT 10 12 93 53 59 64
REMARK Flexibility Score: inf
ROOT
ATOM      1  C   UNL A   1      38.618  34.291  30.957  1.00  0.00     0.188 C 
ENDROOT
BRANCH   1   2
ATOM      2  C   UNL A   1      39.542  34.584  29.765  1.00  0.00     0.188 C 
BRANCH   2   3
ATOM      3  O   UNL A   1      40.889  34.220  29.922  1.00  0.00    -0.376 OA
BRANCH   3   4
ATOM      4  C   UNL A   1      41.563  34.228  31.165  1.00  0.00     0.202 C 
BRANCH   4   5
ATOM      5  C   UNL A   1      42.584  35.291  31.607  1.00  0.00     0.261 C 
BRANCH   5   6
ATOM      6  O   UNL A   1      43.971  34.936  31.561  1.00  0.00    -0.463 OA
BRANCH   6   7
ATOM      7  C   UNL A   1      44.732  35.622  30.671  1.00  0.00     0.310 C 
ATOM      8  O   UNL A   1      45.881  35.983  30.914  1.00  0.00    -0.252 OA
BRANCH   7   9
ATOM      9  C   UNL A   1      44.114  35.791  29.274  1.00  0.00     0.118 C 
BRANCH   9  10
ATOM     10  C   UNL A   1      44.604  34.660  28.370  1.00  0.00     0.129 C 
BRANCH  10  11
ATOM     11  N   UNL A   1      44.612  33.396  29.053  1.00  0.00    -0.368 N 
ATOM     12  H   UNL A   1      43.775  33.179  29.524  1.00  0.00     0.162 HD
BRANCH  11  13
ATOM     13  C   UNL A   1      45.583  32.449  29.157  1.00  0.00     0.144 A 
ATOM     14  C   UNL A   1      47.307  31.394  32.237  1.00  0.00     0.067 C 
ATOM     15  C   UNL A   1      46.967  31.483  30.780  1.00  0.00     0.040 A 
ATOM     16  C   UNL A   1      47.647  30.738  29.832  1.00  0.00     0.028 A 
ATOM     17  N   UNL A   1      45.967  32.327  30.448  1.00  0.00    -0.235 NA
ATOM     18  C   UNL A   1      47.263  30.842  28.494  1.00  0.00    -0.028 A 
ATOM     19  C   UNL A   1      48.016  30.075  27.440  1.00  0.00     0.046 C 
ATOM     20  C   UNL A   1      46.183  31.685  28.152  1.00  0.00     0.097 A 
BRANCH  20  21
ATOM     21  C   UNL A   1      45.776  31.717  26.780  1.00  0.00     0.103 C 
ATOM     22  N   UNL A   1      45.399  31.810  25.680  1.00  0.00    -0.192 NA
ENDBRANCH  20  21
ENDBRANCH  11  13
ENDBRANCH  10  11
ENDBRANCH   9  10
BRANCH   9  23
ATOM     23  C   UNL A   1      43.990  37.124  28.491  1.00  0.00     0.020 C 
BRANCH  23  24
ATOM     24  C   UNL A   1      43.216  37.229  27.172  1.00  0.00    -0.017 C 
ATOM     25  C   UNL A   1      41.890  36.484  27.227  1.00  0.00     0.007 C 
ATOM     26  C   UNL A   1      42.983  38.713  26.849  1.00  0.00     0.007 C 
ENDBRANCH  23  24
ENDBRANCH   9  23
ENDBRANCH   7   9
ENDBRANCH   6   7
ENDBRANCH   5   6
ENDBRANCH   4   5
ENDBRANCH   3   4
ENDBRANCH   2   3
ENDBRANCH   1   2
BRANCH   1  27
ATOM     27  O   UNL A   1      37.576  33.336  30.952  1.00  0.00    -0.377 OA
BRANCH  27  28
ATOM     28  C   UNL A   1      36.284  33.724  30.536  1.00  0.00     0.188 C 
BRANCH  28  29
ATOM     29  C   UNL A   1      36.114  33.742  29.009  1.00  0.00     0.188 C 
BRANCH  29  30
ATOM     30  O   UNL A   1      34.910  34.197  28.411  1.00  0.00    -0.376 OA
BRANCH  30  31
ATOM     31  C   UNL A   1      33.862  33.310  28.063  1.00  0.00     0.202 C 
BRANCH  31  32
ATOM     32  C   UNL A   1      33.963  31.773  28.185  1.00  0.00     0.261 C 
BRANCH  32  33
ATOM     33  O   UNL A   1      34.869  31.076  27.326  1.00  0.00    -0.460 OA
BRANCH  33  34
ATOM     34  C   UNL A   1      35.186  29.825  27.723  1.00  0.00     0.338 C 
ATOM     35  O   UNL A   1      34.671  28.786  27.350  1.00  0.00    -0.246 OA
BRANCH  34  36
ATOM     36  C   UNL A   1      36.386  29.884  28.584  1.00  0.00     0.060 A 
ATOM     37  C   UNL A   1      37.513  30.556  28.096  1.00  0.00     0.016 A 
ATOM     38  C   UNL A   1      36.434  29.214  29.809  1.00  0.00     0.016 A 
ATOM     39  C   UNL A   1      38.712  30.504  28.790  1.00  0.00     0.010 A 
ATOM     40  C   UNL A   1      37.653  29.134  30.493  1.00  0.00     0.010 A 
ATOM     41  C   UNL A   1      38.807  29.727  29.949  1.00  0.00    -0.014 A 
BRANCH  41  42
ATOM     42  C   UNL A   1      40.161  29.334  30.406  1.00  0.00     0.031 A 
ATOM     43  C   UNL A   1      40.710  29.988  31.647  1.00  0.00     0.074 A 
ATOM     44  C   UNL A   1      40.831  28.336  29.803  1.00  0.00     0.049 A 
ATOM     45  N   UNL A   1      41.838  29.773  32.271  1.00  0.00    -0.248 NA
ATOM     46  C   UNL A   1      39.869  31.024  32.269  1.00  0.00     0.031 C 
ATOM     47  C   UNL A   1      40.359  27.582  28.644  1.00  0.00     0.029 A 
ATOM     48  N   UNL A   1      42.047  27.778  30.099  1.00  0.00    -0.354 N 
ATOM     49  C   UNL A   1      41.849  30.658  33.346  1.00  0.00     0.074 A 
ATOM     50  C   UNL A   1      40.635  31.437  33.266  1.00  0.00     0.031 C 
ATOM     51  C   UNL A   1      41.273  26.647  28.332  1.00  0.00     0.029 A 
ATOM     52  C   UNL A   1      42.408  26.763  29.246  1.00  0.00     0.049 A 
ATOM     53  H   UNL A   1      42.609  28.075  30.851  1.00  0.00     0.167 HD
ATOM     54  C   UNL A   1      42.785  30.801  34.315  1.00  0.00     0.037 A 
ATOM     55  C   UNL A   1      43.533  26.023  29.206  1.00  0.00     0.037 A 
ATOM     56  C   UNL A   1      43.990  30.015  34.380  1.00  0.00     0.049 A 
ATOM     57  C   UNL A   1      44.599  26.258  30.244  1.00  0.00     0.074 A 
ATOM     58  C   UNL A   1      45.000  30.065  35.323  1.00  0.00     0.029 A 
ATOM     59  N   UNL A   1      44.355  29.045  33.456  1.00  0.00    -0.354 N 
ATOM     60  N   UNL A   1      44.598  27.089  31.261  1.00  0.00    -0.248 NA
ATOM     61  C   UNL A   1      45.818  25.446  30.135  1.00  0.00     0.031 C 
ATOM     62  C   UNL A   1      46.011  29.184  34.927  1.00  0.00     0.029 A 
ATOM     63  C   UNL A   1      45.592  28.517  33.786  1.00  0.00     0.049 A 
ATOM     64  H   UNL A   1      43.813  28.772  32.681  1.00  0.00     0.167 HD
ATOM     65  C   UNL A   1      45.793  26.868  31.938  1.00  0.00     0.074 A 
ATOM     66  C   UNL A   1      46.487  25.820  31.217  1.00  0.00     0.031 C 
ATOM     67  C   UNL A   1      46.270  27.470  33.058  1.00  0.00     0.037 A 
BRANCH  54  68
ATOM     68  C   UNL A   1      42.567  31.885  35.339  1.00  0.00     0.058 A 
ATOM     69  C   UNL A   1      41.752  31.704  36.469  1.00  0.00     0.135 A 
ATOM     70  C   UNL A   1      43.186  33.137  35.181  1.00  0.00     0.135 A 
ATOM     71  F   UNL A   1      41.119  30.535  36.668  1.00  0.00    -0.206 F 
ATOM     72  C   UNL A   1      41.521  32.736  37.376  1.00  0.00     0.059 A 
ATOM     73  C   UNL A   1      43.003  34.169  36.096  1.00  0.00     0.059 A 
ATOM     74  F   UNL A   1      43.975  33.372  34.121  1.00  0.00    -0.206 F 
ATOM     75  C   UNL A   1      42.150  33.965  37.179  1.00  0.00     0.060 A 
BRANCH  75  76
ATOM     76  S   UNL A   1      41.828  35.299  38.351  1.00  0.00     0.124 S 
ATOM     77  O   UNL A   1      43.164  35.554  38.879  1.00  0.00    -0.237 OA
ATOM     78  O   UNL A   1      41.278  36.342  37.490  1.00  0.00    -0.237 OA
ATOM     79  O   UNL A   1      40.884  34.707  39.294  1.00  0.00    -0.744 OA
ENDBRANCH  75  76
ENDBRANCH  54  68
BRANCH  55  80
ATOM     80  C   UNL A   1      43.702  24.980  28.158  1.00  0.00     0.058 A 
ATOM     81  C   UNL A   1      44.411  25.248  26.978  1.00  0.00     0.135 A 
ATOM     82  C   UNL A   1      43.165  23.693  28.317  1.00  0.00     0.135 A 
ATOM     83  F   UNL A   1      44.936  26.467  26.772  1.00  0.00    -0.206 F 
ATOM     84  C   UNL A   1      44.572  24.285  25.988  1.00  0.00     0.059 A 
ATOM     85  C   UNL A   1      43.339  22.703  27.355  1.00  0.00     0.059 A 
ATOM     86  F   UNL A   1      42.484  23.380  29.430  1.00  0.00    -0.206 F 
ATOM     87  C   UNL A   1      44.039  23.011  26.190  1.00  0.00     0.060 A 
BRANCH  87  88
ATOM     88  S   UNL A   1      44.307  21.751  24.925  1.00  0.00     0.124 S 
ATOM     89  O   UNL A   1      45.733  21.483  25.071  1.00  0.00    -0.237 OA
ATOM     90  O   UNL A   1      43.408  20.688  25.361  1.00  0.00    -0.237 OA
ATOM     91  O   UNL A   1      43.916  22.425  23.690  1.00  0.00    -0.744 OA
ENDBRANCH  87  88
ENDBRANCH  55  80
BRANCH  67  92
ATOM     92  C   UNL A   1      47.579  26.967  33.611  1.00  0.00     0.058 A 
ATOM     93  C   UNL A   1      47.645  25.957  34.585  1.00  0.00     0.135 A 
ATOM     94  C   UNL A   1      48.794  27.492  33.135  1.00  0.00     0.135 A 
ATOM     95  F   UNL A   1      46.519  25.418  35.078  1.00  0.00    -0.206 F 
ATOM     96  C   UNL A   1      48.863  25.522  35.100  1.00  0.00     0.059 A 
ATOM     97  C   UNL A   1      50.023  27.041  33.605  1.00  0.00     0.059 A 
ATOM     98  F   UNL A   1      48.795  28.448  32.193  1.00  0.00    -0.206 F 
ATOM     99  C   UNL A   1      50.046  26.071  34.604  1.00  0.00     0.060 A 
BRANCH  99 100
ATOM    100  S   UNL A   1      51.617  25.496  35.280  1.00  0.00     0.124 S 
ATOM    101  O   UNL A   1      51.173  24.516  36.266  1.00  0.00    -0.237 OA
ATOM    102  O   UNL A   1      52.282  24.950  34.099  1.00  0.00    -0.237 OA
ATOM    103  O   UNL A   1      52.218  26.708  35.826  1.00  0.00    -0.744 OA
ENDBRANCH  99 100
ENDBRANCH  67  92
ENDBRANCH  41  42
ENDBRANCH  34  36
ENDBRANCH  33  34
ENDBRANCH  32  33
ENDBRANCH  31  32
ENDBRANCH  30  31
ENDBRANCH  29  30
ENDBRANCH  28  29
ENDBRANCH  27  28
ENDBRANCH   1  27
TORSDOF 29
ENDMDL
