MODEL 1
REMARK VINA RESULT:     -10.4      0.000      0.000
REMARK SMILES Cc1n[nH]c2c1[C@@]1(C(=O)N([C@@H](C)C(=O)OCCOCCOCCOCCOC(=O)c3ccc(-c4c5nc(c(-c6c(F)cc(S(=O)(=O)[O-])cc6F)c6ccc([nH]6)c(-c6c(F)cc(S(=O)(=O)[O-])cc6F)c6nc(c(-c7c(F)cc(S(=O)(=O)[O-])cc7F)c7ccc4[nH]7)C=C6)C=C5)cc3)c3ccccc31)C(C#N)=C(N)O2
REMARK SMILES IDX 22 1 21 2 20 3 19 4 18 5 17 6 16 7 15 8 13 9 14 10 11 11
REMARK SMILES IDX 12 12 10 13 1 14 2 15 3 16 6 17 4 18 5 19 7 20 107 22 8 23
REMARK SMILES IDX 101 24 102 25 105 26 9 27 96 28 100 29 97 30 99 31 98 32
REMARK SMILES IDX 103 33 104 34 106 35 23 38 24 39 25 40 26 41 27 42 28 43
REMARK SMILES IDX 29 44 30 45 31 46 95 47 32 48 94 49 33 50 34 51 35 52 88 53
REMARK SMILES IDX 36 54 93 55 87 56 89 57 37 58 92 59 86 60 85 61 38 63 72 64
REMARK SMILES IDX 51 65 71 66 52 67 55 68 70 69 90 70 53 71 54 72 69 74 91 75
REMARK SMILES IDX 56 76 39 77 40 78 49 79 41 80 42 81 48 82 50 83 43 84 44 85
REMARK SMILES IDX 45 86 46 87 47 88 73 89 74 90 83 91 75 92 76 93 82 94 84 95
REMARK SMILES IDX 77 96 78 97 79 98 80 99 81 100 57 101 58 102 67 103 59 104
REMARK SMILES IDX 60 105 66 106 68 107 61 108 62 109 63 110 64 111 65 112
REMARK H PARENT 4 21 106 36 106 37 89 62 55 73
REMARK Flexibility Score: inf
ROOT
ATOM      1  C   UNL A   1      33.001  33.283  27.614  1.00  0.00     0.188 C 
ENDROOT
BRANCH   1   2
ATOM      2  O   UNL A   1      33.809  32.134  27.662  1.00  0.00    -0.377 OA
BRANCH   2   3
ATOM      3  C   UNL A   1      33.298  30.837  27.603  1.00  0.00     0.188 C 
BRANCH   3   4
ATOM      4  C   UNL A   1      33.993  29.824  26.695  1.00  0.00     0.188 C 
BRANCH   4   5
ATOM      5  O   UNL A   1      33.392  29.301  25.518  1.00  0.00    -0.376 OA
BRANCH   5   6
ATOM      6  C   UNL A   1      32.049  29.650  25.217  1.00  0.00     0.202 C 
BRANCH   6   7
ATOM      7  C   UNL A   1      31.484  28.917  23.984  1.00  0.00     0.261 C 
BRANCH   7   8
ATOM      8  O   UNL A   1      32.418  28.059  23.293  1.00  0.00    -0.462 OA
BRANCH   8   9
ATOM      9  C   UNL A   1      31.868  27.195  22.416  1.00  0.00     0.329 C 
ATOM     10  O   UNL A   1      30.756  27.324  21.904  1.00  0.00    -0.250 OA
BRANCH   9  11
ATOM     11  C   UNL A   1      32.718  25.948  22.114  1.00  0.00     0.197 C 
ATOM     12  C   UNL A   1      32.502  25.608  20.637  1.00  0.00     0.044 C 
BRANCH  11  13
ATOM     13  N   UNL A   1      32.766  24.729  22.975  1.00  0.00    -0.297 N 
ATOM     14  C   UNL A   1      35.146  25.475  25.597  1.00  0.00     0.069 C 
ATOM     15  C   UNL A   1      35.334  24.016  25.776  1.00  0.00     0.068 A 
ATOM     16  N   UNL A   1      36.286  23.584  26.620  1.00  0.00    -0.177 NA
ATOM     17  C   UNL A   1      34.630  22.933  25.181  1.00  0.00     0.063 A 
ATOM     18  N   UNL A   1      36.247  22.246  26.504  1.00  0.00    -0.246 N 
ATOM     19  C   UNL A   1      35.247  21.819  25.695  1.00  0.00     0.222 A 
ATOM     20  C   UNL A   1      33.504  22.773  24.191  1.00  0.00     0.149 C 
ATOM     21  H   UNL A   1      36.876  21.641  26.959  1.00  0.00     0.193 HD
ATOM     22  O   UNL A   1      34.981  20.542  25.459  1.00  0.00    -0.422 OA
ATOM     23  C   UNL A   1      33.736  23.701  22.934  1.00  0.00     0.248 C 
ATOM     24  C   UNL A   1      32.300  23.421  24.832  1.00  0.00     0.002 A 
ATOM     25  C   UNL A   1      33.264  21.273  23.925  1.00  0.00     0.114 C 
ATOM     26  C   UNL A   1      33.962  20.277  24.533  1.00  0.00     0.208 C 
ATOM     27  O   UNL A   1      34.646  23.579  22.129  1.00  0.00    -0.273 OA
ATOM     28  C   UNL A   1      31.902  24.536  24.084  1.00  0.00     0.050 A 
ATOM     29  C   UNL A   1      31.598  23.013  25.964  1.00  0.00     0.008 A 
ATOM     30  C   UNL A   1      30.780  25.259  24.462  1.00  0.00     0.027 A 
ATOM     31  C   UNL A   1      30.467  23.732  26.339  1.00  0.00     0.001 A 
ATOM     32  C   UNL A   1      30.059  24.844  25.589  1.00  0.00     0.002 A 
BRANCH  25  33
ATOM     33  C   UNL A   1      32.266  20.890  22.844  1.00  0.00     0.102 C 
ATOM     34  N   UNL A   1      31.439  20.572  21.948  1.00  0.00    -0.193 NA
ENDBRANCH  25  33
BRANCH  26  35
ATOM     35  N   UNL A   1      33.776  18.940  24.331  1.00  0.00    -0.369 N 
ATOM     36  H   UNL A   1      33.371  18.621  23.491  1.00  0.00     0.159 HD
ATOM     37  H   UNL A   1      34.046  18.294  25.024  1.00  0.00     0.159 HD
ENDBRANCH  26  35
ENDBRANCH  11  13
ENDBRANCH   9  11
ENDBRANCH   8   9
ENDBRANCH   7   8
ENDBRANCH   6   7
ENDBRANCH   5   6
ENDBRANCH   4   5
ENDBRANCH   3   4
ENDBRANCH   2   3
ENDBRANCH   1   2
BRANCH   1  38
ATOM     38  C   UNL A   1      33.236  34.585  28.412  1.00  0.00     0.188 C 
BRANCH  38  39
ATOM     39  O   UNL A   1      33.994  34.709  29.604  1.00  0.00    -0.376 OA
BRANCH  39  40
ATOM     40  C   UNL A   1      33.646  35.574  30.682  1.00  0.00     0.202 C 
BRANCH  40  41
ATOM     41  C   UNL A   1      34.093  35.432  32.167  1.00  0.00     0.261 C 
BRANCH  41  42
ATOM     42  O   UNL A   1      35.072  34.423  32.425  1.00  0.00    -0.460 OA
BRANCH  42  43
ATOM     43  C   UNL A   1      34.699  33.124  32.443  1.00  0.00     0.338 C 
ATOM     44  O   UNL A   1      33.611  32.682  32.695  1.00  0.00    -0.246 OA
BRANCH  43  45
ATOM     45  C   UNL A   1      35.791  32.402  31.728  1.00  0.00     0.060 A 
ATOM     46  C   UNL A   1      35.919  31.007  31.728  1.00  0.00     0.016 A 
ATOM     47  C   UNL A   1      36.866  33.211  31.348  1.00  0.00     0.016 A 
ATOM     48  C   UNL A   1      37.172  30.436  31.488  1.00  0.00     0.010 A 
ATOM     49  C   UNL A   1      38.116  32.642  31.142  1.00  0.00     0.010 A 
ATOM     50  C   UNL A   1      38.290  31.262  31.280  1.00  0.00    -0.014 A 
BRANCH  50  51
ATOM     51  C   UNL A   1      39.615  30.657  31.058  1.00  0.00     0.031 A 
ATOM     52  C   UNL A   1      40.389  30.455  32.320  1.00  0.00     0.074 A 
ATOM     53  C   UNL A   1      40.021  30.097  29.892  1.00  0.00     0.049 A 
ATOM     54  N   UNL A   1      41.606  30.789  32.604  1.00  0.00    -0.248 NA
ATOM     55  C   UNL A   1      39.650  29.873  33.457  1.00  0.00     0.031 C 
ATOM     56  C   UNL A   1      39.238  29.925  28.665  1.00  0.00     0.029 A 
ATOM     57  N   UNL A   1      41.181  29.431  29.587  1.00  0.00    -0.354 N 
ATOM     58  C   UNL A   1      41.844  30.293  33.886  1.00  0.00     0.074 A 
ATOM     59  C   UNL A   1      40.572  29.879  34.415  1.00  0.00     0.031 C 
ATOM     60  C   UNL A   1      39.847  29.040  27.851  1.00  0.00     0.029 A 
ATOM     61  C   UNL A   1      41.075  28.593  28.476  1.00  0.00     0.049 A 
ATOM     62  H   UNL A   1      42.011  29.535  30.104  1.00  0.00     0.167 HD
ATOM     63  C   UNL A   1      43.095  30.050  34.364  1.00  0.00     0.037 A 
ATOM     64  C   UNL A   1      41.844  27.513  28.161  1.00  0.00     0.037 A 
ATOM     65  C   UNL A   1      44.105  30.751  33.624  1.00  0.00     0.049 A 
ATOM     66  C   UNL A   1      43.113  27.635  28.925  1.00  0.00     0.074 A 
ATOM     67  C   UNL A   1      44.345  32.084  33.350  1.00  0.00     0.029 A 
ATOM     68  N   UNL A   1      44.876  30.047  32.732  1.00  0.00    -0.354 N 
ATOM     69  N   UNL A   1      44.007  28.563  28.718  1.00  0.00    -0.248 NA
ATOM     70  C   UNL A   1      43.152  27.009  30.240  1.00  0.00     0.031 C 
ATOM     71  C   UNL A   1      44.812  32.101  32.004  1.00  0.00     0.029 A 
ATOM     72  C   UNL A   1      44.891  30.778  31.571  1.00  0.00     0.049 A 
ATOM     73  H   UNL A   1      45.329  29.187  32.893  1.00  0.00     0.167 HD
ATOM     74  C   UNL A   1      44.420  28.941  29.986  1.00  0.00     0.074 A 
ATOM     75  C   UNL A   1      43.900  27.908  30.882  1.00  0.00     0.031 C 
ATOM     76  C   UNL A   1      44.905  30.191  30.249  1.00  0.00     0.037 A 
BRANCH  63  77
ATOM     77  C   UNL A   1      43.407  28.924  35.312  1.00  0.00     0.058 A 
ATOM     78  C   UNL A   1      44.095  29.180  36.513  1.00  0.00     0.135 A 
ATOM     79  C   UNL A   1      43.283  27.563  34.951  1.00  0.00     0.135 A 
ATOM     80  F   UNL A   1      44.291  30.440  36.931  1.00  0.00    -0.206 F 
ATOM     81  C   UNL A   1      44.658  28.158  37.277  1.00  0.00     0.059 A 
ATOM     82  C   UNL A   1      43.786  26.526  35.725  1.00  0.00     0.059 A 
ATOM     83  F   UNL A   1      42.753  27.187  33.779  1.00  0.00    -0.206 F 
ATOM     84  C   UNL A   1      44.507  26.834  36.867  1.00  0.00     0.060 A 
BRANCH  84  85
ATOM     85  S   UNL A   1      45.324  25.523  37.794  1.00  0.00     0.124 S 
ATOM     86  O   UNL A   1      45.097  25.953  39.168  1.00  0.00    -0.237 OA
ATOM     87  O   UNL A   1      44.584  24.342  37.361  1.00  0.00    -0.237 OA
ATOM     88  O   UNL A   1      46.706  25.593  37.329  1.00  0.00    -0.744 OA
ENDBRANCH  84  85
ENDBRANCH  63  77
BRANCH  64  89
ATOM     89  C   UNL A   1      41.361  26.209  27.595  1.00  0.00     0.058 A 
ATOM     90  C   UNL A   1      42.104  25.484  26.643  1.00  0.00     0.135 A 
ATOM     91  C   UNL A   1      40.269  25.515  28.164  1.00  0.00     0.135 A 
ATOM     92  F   UNL A   1      43.181  26.039  26.065  1.00  0.00    -0.206 F 
ATOM     93  C   UNL A   1      41.804  24.153  26.306  1.00  0.00     0.059 A 
ATOM     94  C   UNL A   1      39.939  24.204  27.828  1.00  0.00     0.059 A 
ATOM     95  F   UNL A   1      39.532  26.053  29.145  1.00  0.00    -0.206 F 
ATOM     96  C   UNL A   1      40.725  23.516  26.919  1.00  0.00     0.060 A 
BRANCH  96  97
ATOM     97  S   UNL A   1      40.422  21.754  26.631  1.00  0.00     0.124 S 
ATOM     98  O   UNL A   1      40.638  21.187  27.957  1.00  0.00    -0.237 OA
ATOM     99  O   UNL A   1      39.045  21.755  26.151  1.00  0.00    -0.237 OA
ATOM    100  O   UNL A   1      41.427  21.397  25.632  1.00  0.00    -0.744 OA
ENDBRANCH  96  97
ENDBRANCH  64  89
BRANCH  76 101
ATOM    101  C   UNL A   1      45.250  31.115  29.109  1.00  0.00     0.058 A 
ATOM    102  C   UNL A   1      44.317  31.873  28.379  1.00  0.00     0.135 A 
ATOM    103  C   UNL A   1      46.609  31.384  28.872  1.00  0.00     0.135 A 
ATOM    104  F   UNL A   1      42.999  31.762  28.609  1.00  0.00    -0.206 F 
ATOM    105  C   UNL A   1      44.720  32.826  27.441  1.00  0.00     0.059 A 
ATOM    106  C   UNL A   1      47.031  32.359  27.972  1.00  0.00     0.059 A 
ATOM    107  F   UNL A   1      47.555  30.731  29.568  1.00  0.00    -0.206 F 
ATOM    108  C   UNL A   1      46.079  33.074  27.254  1.00  0.00     0.060 A 
BRANCH 108 109
ATOM    109  S   UNL A   1      46.585  34.370  26.103  1.00  0.00     0.124 S 
ATOM    110  O   UNL A   1      46.546  35.562  26.945  1.00  0.00    -0.237 OA
ATOM    111  O   UNL A   1      47.913  33.924  25.690  1.00  0.00    -0.237 OA
ATOM    112  O   UNL A   1      45.566  34.317  25.057  1.00  0.00    -0.744 OA
ENDBRANCH 108 109
ENDBRANCH  76 101
ENDBRANCH  50  51
ENDBRANCH  43  45
ENDBRANCH  42  43
ENDBRANCH  41  42
ENDBRANCH  40  41
ENDBRANCH  39  40
ENDBRANCH  38  39
ENDBRANCH   1  38
TORSDOF 26
ENDMDL
MODEL 2
REMARK VINA RESULT:      -9.0      8.778     15.833
REMARK SMILES Cc1n[nH]c2c1[C@@]1(C(=O)N([C@@H](C)C(=O)OCCOCCOCCOCCOC(=O)c3ccc(-c4c5nc(c(-c6c(F)cc(S(=O)(=O)[O-])cc6F)c6ccc([nH]6)c(-c6c(F)cc(S(=O)(=O)[O-])cc6F)c6nc(c(-c7c(F)cc(S(=O)(=O)[O-])cc7F)c7ccc4[nH]7)C=C6)C=C5)cc3)c3ccccc31)C(C#N)=C(N)O2
REMARK SMILES IDX 22 1 21 2 20 3 19 4 18 5 17 6 16 7 15 8 13 9 14 10 11 11
REMARK SMILES IDX 12 12 10 13 1 14 2 15 3 16 6 17 4 18 5 19 7 20 107 22 8 23
REMARK SMILES IDX 101 24 102 25 105 26 9 27 96 28 100 29 97 30 99 31 98 32
REMARK SMILES IDX 103 33 104 34 106 35 23 38 24 39 25 40 26 41 27 42 28 43
REMARK SMILES IDX 29 44 30 45 31 46 95 47 32 48 94 49 33 50 34 51 35 52 88 53
REMARK SMILES IDX 36 54 93 55 87 56 89 57 37 58 92 59 86 60 85 61 38 63 72 64
REMARK SMILES IDX 51 65 71 66 52 67 55 68 70 69 90 70 53 71 54 72 69 74 91 75
REMARK SMILES IDX 56 76 39 77 40 78 49 79 41 80 42 81 48 82 50 83 43 84 44 85
REMARK SMILES IDX 45 86 46 87 47 88 73 89 74 90 83 91 75 92 76 93 82 94 84 95
REMARK SMILES IDX 77 96 78 97 79 98 80 99 81 100 57 101 58 102 67 103 59 104
REMARK SMILES IDX 60 105 66 106 68 107 61 108 62 109 63 110 64 111 65 112
REMARK H PARENT 4 21 106 36 106 37 89 62 55 73
REMARK Flexibility Score: inf
ROOT
ATOM      1  C   UNL A   1      43.827  40.849  30.058  1.00  0.00     0.188 C 
ENDROOT
BRANCH   1   2
ATOM      2  O   UNL A   1      43.936  39.754  29.185  1.00  0.00    -0.377 OA
BRANCH   2   3
ATOM      3  C   UNL A   1      42.853  38.949  28.829  1.00  0.00     0.188 C 
BRANCH   3   4
ATOM      4  C   UNL A   1      42.717  38.519  27.369  1.00  0.00     0.188 C 
BRANCH   4   5
ATOM      5  O   UNL A   1      42.991  39.389  26.278  1.00  0.00    -0.376 OA
BRANCH   5   6
ATOM      6  C   UNL A   1      42.374  40.668  26.245  1.00  0.00     0.202 C 
BRANCH   6   7
ATOM      7  C   UNL A   1      42.945  41.599  25.157  1.00  0.00     0.261 C 
BRANCH   7   8
ATOM      8  O   UNL A   1      41.995  42.040  24.163  1.00  0.00    -0.462 OA
BRANCH   8   9
ATOM      9  C   UNL A   1      42.525  42.381  22.970  1.00  0.00     0.329 C 
ATOM     10  O   UNL A   1      42.613  41.631  21.999  1.00  0.00    -0.250 OA
BRANCH   9  11
ATOM     11  C   UNL A   1      43.095  43.810  22.898  1.00  0.00     0.197 C 
ATOM     12  C   UNL A   1      41.925  44.769  23.124  1.00  0.00     0.044 C 
BRANCH  11  13
ATOM     13  N   UNL A   1      44.028  44.294  21.838  1.00  0.00    -0.297 N 
ATOM     14  C   UNL A   1      46.306  41.553  21.211  1.00  0.00     0.069 C 
ATOM     15  C   UNL A   1      47.277  42.542  20.686  1.00  0.00     0.068 A 
ATOM     16  N   UNL A   1      48.512  42.128  20.359  1.00  0.00    -0.177 NA
ATOM     17  C   UNL A   1      47.111  43.933  20.446  1.00  0.00     0.063 A 
ATOM     18  N   UNL A   1      49.151  43.251  19.993  1.00  0.00    -0.246 N 
ATOM     19  C   UNL A   1      48.341  44.337  19.987  1.00  0.00     0.222 A 
ATOM     20  C   UNL A   1      46.006  44.946  20.606  1.00  0.00     0.149 C 
ATOM     21  H   UNL A   1      50.106  43.282  19.754  1.00  0.00     0.193 HD
ATOM     22  O   UNL A   1      48.731  45.549  19.620  1.00  0.00    -0.422 OA
ATOM     23  C   UNL A   1      45.331  44.809  22.029  1.00  0.00     0.248 C 
ATOM     24  C   UNL A   1      44.893  44.486  19.695  1.00  0.00     0.002 A 
ATOM     25  C   UNL A   1      46.525  46.341  20.204  1.00  0.00     0.114 C 
ATOM     26  C   UNL A   1      47.785  46.576  19.750  1.00  0.00     0.208 C 
ATOM     27  O   UNL A   1      45.885  45.038  23.093  1.00  0.00    -0.273 OA
ATOM     28  C   UNL A   1      43.767  44.137  20.452  1.00  0.00     0.050 A 
ATOM     29  C   UNL A   1      44.881  44.433  18.302  1.00  0.00     0.008 A 
ATOM     30  C   UNL A   1      42.604  43.731  19.816  1.00  0.00     0.027 A 
ATOM     31  C   UNL A   1      43.710  44.035  17.664  1.00  0.00     0.001 A 
ATOM     32  C   UNL A   1      42.579  43.691  18.416  1.00  0.00     0.002 A 
BRANCH  25  33
ATOM     33  C   UNL A   1      45.612  47.536  20.429  1.00  0.00     0.102 C 
ATOM     34  N   UNL A   1      44.856  48.527  20.616  1.00  0.00    -0.193 NA
ENDBRANCH  25  33
BRANCH  26  35
ATOM     35  N   UNL A   1      48.281  47.792  19.378  1.00  0.00    -0.369 N 
ATOM     36  H   UNL A   1      48.271  48.544  20.014  1.00  0.00     0.159 HD
ATOM     37  H   UNL A   1      48.649  47.918  18.473  1.00  0.00     0.159 HD
ENDBRANCH  26  35
ENDBRANCH  11  13
ENDBRANCH   9  11
ENDBRANCH   8   9
ENDBRANCH   7   8
ENDBRANCH   6   7
ENDBRANCH   5   6
ENDBRANCH   4   5
ENDBRANCH   3   4
ENDBRANCH   2   3
ENDBRANCH   1   2
BRANCH   1  38
ATOM     38  C   UNL A   1      44.569  41.007  31.404  1.00  0.00     0.188 C 
BRANCH  38  39
ATOM     39  O   UNL A   1      44.598  42.172  32.210  1.00  0.00    -0.376 OA
BRANCH  39  40
ATOM     40  C   UNL A   1      43.929  42.290  33.463  1.00  0.00     0.202 C 
BRANCH  40  41
ATOM     41  C   UNL A   1      43.282  41.136  34.283  1.00  0.00     0.261 C 
BRANCH  41  42
ATOM     42  O   UNL A   1      44.170  40.406  35.132  1.00  0.00    -0.460 OA
BRANCH  42  43
ATOM     43  C   UNL A   1      45.132  39.632  34.580  1.00  0.00     0.338 C 
ATOM     44  O   UNL A   1      46.308  39.868  34.514  1.00  0.00    -0.246 OA
BRANCH  43  45
ATOM     45  C   UNL A   1      44.500  38.291  34.421  1.00  0.00     0.060 A 
ATOM     46  C   UNL A   1      43.975  37.827  33.208  1.00  0.00     0.016 A 
ATOM     47  C   UNL A   1      44.156  37.668  35.625  1.00  0.00     0.016 A 
ATOM     48  C   UNL A   1      42.992  36.833  33.224  1.00  0.00     0.010 A 
ATOM     49  C   UNL A   1      43.157  36.703  35.640  1.00  0.00     0.010 A 
ATOM     50  C   UNL A   1      42.522  36.333  34.450  1.00  0.00    -0.014 A 
BRANCH  50  51
ATOM     51  C   UNL A   1      41.464  35.308  34.465  1.00  0.00     0.031 A 
ATOM     52  C   UNL A   1      41.788  34.115  33.626  1.00  0.00     0.074 A 
ATOM     53  C   UNL A   1      40.418  35.293  35.327  1.00  0.00     0.049 A 
ATOM     54  N   UNL A   1      41.076  33.523  32.723  1.00  0.00    -0.248 NA
ATOM     55  C   UNL A   1      43.152  33.568  33.763  1.00  0.00     0.031 C 
ATOM     56  C   UNL A   1      40.155  36.224  36.428  1.00  0.00     0.029 A 
ATOM     57  N   UNL A   1      39.426  34.359  35.499  1.00  0.00    -0.354 N 
ATOM     58  C   UNL A   1      41.827  32.421  32.313  1.00  0.00     0.074 A 
ATOM     59  C   UNL A   1      43.144  32.583  32.869  1.00  0.00     0.031 C 
ATOM     60  C   UNL A   1      39.231  35.703  37.261  1.00  0.00     0.029 A 
ATOM     61  C   UNL A   1      38.811  34.414  36.751  1.00  0.00     0.049 A 
ATOM     62  H   UNL A   1      39.173  33.711  34.804  1.00  0.00     0.167 HD
ATOM     63  C   UNL A   1      41.272  31.328  31.721  1.00  0.00     0.037 A 
ATOM     64  C   UNL A   1      38.131  33.425  37.397  1.00  0.00     0.037 A 
ATOM     65  C   UNL A   1      39.975  31.606  31.173  1.00  0.00     0.049 A 
ATOM     66  C   UNL A   1      37.729  32.423  36.376  1.00  0.00     0.074 A 
ATOM     67  C   UNL A   1      39.501  32.499  30.232  1.00  0.00     0.029 A 
ATOM     68  N   UNL A   1      38.866  31.155  31.846  1.00  0.00    -0.354 N 
ATOM     69  N   UNL A   1      36.863  32.651  35.426  1.00  0.00    -0.248 NA
ATOM     70  C   UNL A   1      38.657  31.328  36.128  1.00  0.00     0.031 C 
ATOM     71  C   UNL A   1      38.238  32.924  30.736  1.00  0.00     0.029 A 
ATOM     72  C   UNL A   1      37.996  32.215  31.912  1.00  0.00     0.049 A 
ATOM     73  H   UNL A   1      38.722  30.251  32.209  1.00  0.00     0.167 HD
ATOM     74  C   UNL A   1      37.403  32.041  34.304  1.00  0.00     0.074 A 
ATOM     75  C   UNL A   1      38.481  31.193  34.812  1.00  0.00     0.031 C 
ATOM     76  C   UNL A   1      37.128  32.476  33.039  1.00  0.00     0.037 A 
BRANCH  63  77
ATOM     77  C   UNL A   1      41.793  29.931  31.924  1.00  0.00     0.058 A 
ATOM     78  C   UNL A   1      41.947  29.414  33.223  1.00  0.00     0.135 A 
ATOM     79  C   UNL A   1      42.394  29.180  30.887  1.00  0.00     0.135 A 
ATOM     80  F   UNL A   1      41.438  30.066  34.281  1.00  0.00    -0.206 F 
ATOM     81  C   UNL A   1      42.684  28.258  33.480  1.00  0.00     0.059 A 
ATOM     82  C   UNL A   1      43.083  27.996  31.113  1.00  0.00     0.059 A 
ATOM     83  F   UNL A   1      42.420  29.617  29.621  1.00  0.00    -0.206 F 
ATOM     84  C   UNL A   1      43.257  27.562  32.417  1.00  0.00     0.060 A 
BRANCH  84  85
ATOM     85  S   UNL A   1      44.298  26.131  32.755  1.00  0.00     0.124 S 
ATOM     86  O   UNL A   1      44.143  25.362  31.526  1.00  0.00    -0.237 OA
ATOM     87  O   UNL A   1      45.602  26.750  32.964  1.00  0.00    -0.237 OA
ATOM     88  O   UNL A   1      43.690  25.547  33.947  1.00  0.00    -0.744 OA
ENDBRANCH  84  85
ENDBRANCH  63  77
BRANCH  64  89
ATOM     89  C   UNL A   1      38.202  33.106  38.862  1.00  0.00     0.058 A 
ATOM     90  C   UNL A   1      37.071  32.699  39.596  1.00  0.00     0.135 A 
ATOM     91  C   UNL A   1      39.439  32.949  39.526  1.00  0.00     0.135 A 
ATOM     92  F   UNL A   1      35.849  32.775  39.046  1.00  0.00    -0.206 F 
ATOM     93  C   UNL A   1      37.166  32.146  40.885  1.00  0.00     0.059 A 
ATOM     94  C   UNL A   1      39.556  32.425  40.811  1.00  0.00     0.059 A 
ATOM     95  F   UNL A   1      40.602  33.213  38.913  1.00  0.00    -0.206 F 
ATOM     96  C   UNL A   1      38.419  31.998  41.478  1.00  0.00     0.060 A 
BRANCH  96  97
ATOM     97  S   UNL A   1      38.584  31.134  43.060  1.00  0.00     0.124 S 
ATOM     98  O   UNL A   1      38.951  29.787  42.635  1.00  0.00    -0.237 OA
ATOM     99  O   UNL A   1      39.630  31.903  43.722  1.00  0.00    -0.237 OA
ATOM    100  O   UNL A   1      37.254  31.257  43.653  1.00  0.00    -0.744 OA
ENDBRANCH  96  97
ENDBRANCH  64  89
BRANCH  76 101
ATOM    101  C   UNL A   1      36.018  33.471  32.814  1.00  0.00     0.058 A 
ATOM    102  C   UNL A   1      36.065  34.825  33.190  1.00  0.00     0.135 A 
ATOM    103  C   UNL A   1      34.934  33.072  32.012  1.00  0.00     0.135 A 
ATOM    104  F   UNL A   1      37.111  35.322  33.867  1.00  0.00    -0.206 F 
ATOM    105  C   UNL A   1      35.067  35.726  32.812  1.00  0.00     0.059 A 
ATOM    106  C   UNL A   1      33.952  33.964  31.589  1.00  0.00     0.059 A 
ATOM    107  F   UNL A   1      34.850  31.803  31.577  1.00  0.00    -0.206 F 
ATOM    108  C   UNL A   1      34.022  35.291  31.998  1.00  0.00     0.060 A 
BRANCH 108 109
ATOM    109  S   UNL A   1      32.786  36.485  31.442  1.00  0.00     0.124 S 
ATOM    110  O   UNL A   1      32.744  36.238  30.005  1.00  0.00    -0.237 OA
ATOM    111  O   UNL A   1      31.599  36.084  32.194  1.00  0.00    -0.237 OA
ATOM    112  O   UNL A   1      33.354  37.773  31.833  1.00  0.00    -0.744 OA
ENDBRANCH 108 109
ENDBRANCH  76 101
ENDBRANCH  50  51
ENDBRANCH  43  45
ENDBRANCH  42  43
ENDBRANCH  41  42
ENDBRANCH  40  41
ENDBRANCH  39  40
ENDBRANCH  38  39
ENDBRANCH   1  38
TORSDOF 26
ENDMDL
MODEL 3
REMARK VINA RESULT:      -8.8      3.878      9.265
REMARK SMILES Cc1n[nH]c2c1[C@@]1(C(=O)N([C@@H](C)C(=O)OCCOCCOCCOCCOC(=O)c3ccc(-c4c5nc(c(-c6c(F)cc(S(=O)(=O)[O-])cc6F)c6ccc([nH]6)c(-c6c(F)cc(S(=O)(=O)[O-])cc6F)c6nc(c(-c7c(F)cc(S(=O)(=O)[O-])cc7F)c7ccc4[nH]7)C=C6)C=C5)cc3)c3ccccc31)C(C#N)=C(N)O2
REMARK SMILES IDX 22 1 21 2 20 3 19 4 18 5 17 6 16 7 15 8 13 9 14 10 11 11
REMARK SMILES IDX 12 12 10 13 1 14 2 15 3 16 6 17 4 18 5 19 7 20 107 22 8 23
REMARK SMILES IDX 101 24 102 25 105 26 9 27 96 28 100 29 97 30 99 31 98 32
REMARK SMILES IDX 103 33 104 34 106 35 23 38 24 39 25 40 26 41 27 42 28 43
REMARK SMILES IDX 29 44 30 45 31 46 95 47 32 48 94 49 33 50 34 51 35 52 88 53
REMARK SMILES IDX 36 54 93 55 87 56 89 57 37 58 92 59 86 60 85 61 38 63 72 64
REMARK SMILES IDX 51 65 71 66 52 67 55 68 70 69 90 70 53 71 54 72 69 74 91 75
REMARK SMILES IDX 56 76 39 77 40 78 49 79 41 80 42 81 48 82 50 83 43 84 44 85
REMARK SMILES IDX 45 86 46 87 47 88 73 89 74 90 83 91 75 92 76 93 82 94 84 95
REMARK SMILES IDX 77 96 78 97 79 98 80 99 81 100 57 101 58 102 67 103 59 104
REMARK SMILES IDX 60 105 66 106 68 107 61 108 62 109 63 110 64 111 65 112
REMARK H PARENT 4 21 106 36 106 37 89 62 55 73
REMARK Flexibility Score: inf
ROOT
ATOM      1  C   UNL A   1      34.766  23.906  24.629  1.00  0.00     0.188 C 
ENDROOT
BRANCH   1   2
ATOM      2  O   UNL A   1      33.774  24.832  24.263  1.00  0.00    -0.377 OA
BRANCH   2   3
ATOM      3  C   UNL A   1      33.974  26.213  24.281  1.00  0.00     0.188 C 
BRANCH   3   4
ATOM      4  C   UNL A   1      32.750  27.122  24.384  1.00  0.00     0.188 C 
BRANCH   4   5
ATOM      5  O   UNL A   1      32.504  27.964  25.502  1.00  0.00    -0.376 OA
BRANCH   5   6
ATOM      6  C   UNL A   1      33.145  29.229  25.567  1.00  0.00     0.202 C 
BRANCH   6   7
ATOM      7  C   UNL A   1      33.437  29.699  27.006  1.00  0.00     0.261 C 
BRANCH   7   8
ATOM      8  O   UNL A   1      34.581  30.568  27.151  1.00  0.00    -0.462 OA
BRANCH   8   9
ATOM      9  C   UNL A   1      35.326  30.361  28.257  1.00  0.00     0.329 C 
ATOM     10  O   UNL A   1      35.659  29.257  28.684  1.00  0.00    -0.250 OA
BRANCH   9  11
ATOM     11  C   UNL A   1      35.710  31.637  29.028  1.00  0.00     0.197 C 
ATOM     12  C   UNL A   1      36.205  32.651  27.994  1.00  0.00     0.044 C 
BRANCH  11  13
ATOM     13  N   UNL A   1      36.529  31.655  30.276  1.00  0.00    -0.297 N 
ATOM     14  C   UNL A   1      38.511  34.678  30.106  1.00  0.00     0.069 C 
ATOM     15  C   UNL A   1      39.471  34.045  31.040  1.00  0.00     0.068 A 
ATOM     16  N   UNL A   1      40.622  34.681  31.316  1.00  0.00    -0.177 NA
ATOM     17  C   UNL A   1      39.373  32.813  31.741  1.00  0.00     0.063 A 
ATOM     18  N   UNL A   1      41.285  33.831  32.118  1.00  0.00    -0.246 N 
ATOM     19  C   UNL A   1      40.558  32.731  32.431  1.00  0.00     0.222 A 
ATOM     20  C   UNL A   1      38.371  31.691  31.845  1.00  0.00     0.149 C 
ATOM     21  H   UNL A   1      42.200  33.991  32.443  1.00  0.00     0.193 HD
ATOM     22  O   UNL A   1      40.980  31.771  33.240  1.00  0.00    -0.422 OA
ATOM     23  C   UNL A   1      37.879  31.253  30.408  1.00  0.00     0.248 C 
ATOM     24  C   UNL A   1      37.120  32.310  32.421  1.00  0.00     0.002 A 
ATOM     25  C   UNL A   1      38.929  30.586  32.765  1.00  0.00     0.114 C 
ATOM     26  C   UNL A   1      40.133  30.664  33.393  1.00  0.00     0.208 C 
ATOM     27  O   UNL A   1      38.580  30.734  29.554  1.00  0.00    -0.273 OA
ATOM     28  C   UNL A   1      36.081  32.250  31.483  1.00  0.00     0.050 A 
ATOM     29  C   UNL A   1      36.923  32.839  33.695  1.00  0.00     0.008 A 
ATOM     30  C   UNL A   1      34.819  32.719  31.817  1.00  0.00     0.027 A 
ATOM     31  C   UNL A   1      35.655  33.301  34.034  1.00  0.00     0.001 A 
ATOM     32  C   UNL A   1      34.610  33.236  33.103  1.00  0.00     0.002 A 
BRANCH  25  33
ATOM     33  C   UNL A   1      38.139  29.294  32.892  1.00  0.00     0.102 C 
ATOM     34  N   UNL A   1      37.484  28.223  32.998  1.00  0.00    -0.193 NA
ENDBRANCH  25  33
BRANCH  26  35
ATOM     35  N   UNL A   1      40.660  29.714  34.219  1.00  0.00    -0.369 N 
ATOM     36  H   UNL A   1      40.490  28.760  34.043  1.00  0.00     0.159 HD
ATOM     37  H   UNL A   1      41.209  29.982  34.992  1.00  0.00     0.159 HD
ENDBRANCH  26  35
ENDBRANCH  11  13
ENDBRANCH   9  11
ENDBRANCH   8   9
ENDBRANCH   7   8
ENDBRANCH   6   7
ENDBRANCH   5   6
ENDBRANCH   4   5
ENDBRANCH   3   4
ENDBRANCH   2   3
ENDBRANCH   1   2
BRANCH   1  38
ATOM     38  C   UNL A   1      35.718  23.172  23.658  1.00  0.00     0.188 C 
BRANCH  38  39
ATOM     39  O   UNL A   1      36.989  22.635  23.981  1.00  0.00    -0.376 OA
BRANCH  39  40
ATOM     40  C   UNL A   1      37.189  21.556  24.891  1.00  0.00     0.202 C 
BRANCH  40  41
ATOM     41  C   UNL A   1      38.292  21.457  25.985  1.00  0.00     0.261 C 
BRANCH  41  42
ATOM     42  O   UNL A   1      39.632  21.665  25.533  1.00  0.00    -0.460 OA
BRANCH  42  43
ATOM     43  C   UNL A   1      40.659  21.127  26.229  1.00  0.00     0.338 C 
ATOM     44  O   UNL A   1      41.197  20.071  26.034  1.00  0.00    -0.246 OA
BRANCH  43  45
ATOM     45  C   UNL A   1      41.220  22.260  27.021  1.00  0.00     0.060 A 
ATOM     46  C   UNL A   1      41.004  23.606  26.699  1.00  0.00     0.016 A 
ATOM     47  C   UNL A   1      42.249  21.898  27.896  1.00  0.00     0.016 A 
ATOM     48  C   UNL A   1      41.916  24.569  27.141  1.00  0.00     0.010 A 
ATOM     49  C   UNL A   1      43.170  22.853  28.307  1.00  0.00     0.010 A 
ATOM     50  C   UNL A   1      43.049  24.177  27.874  1.00  0.00    -0.014 A 
BRANCH  50  51
ATOM     51  C   UNL A   1      44.024  25.191  28.312  1.00  0.00     0.031 A 
ATOM     52  C   UNL A   1      44.139  25.294  29.798  1.00  0.00     0.074 A 
ATOM     53  C   UNL A   1      44.920  25.800  27.497  1.00  0.00     0.049 A 
ATOM     54  N   UNL A   1      44.092  26.339  30.559  1.00  0.00    -0.248 NA
ATOM     55  C   UNL A   1      44.228  24.021  30.539  1.00  0.00     0.031 C 
ATOM     56  C   UNL A   1      45.144  25.548  26.071  1.00  0.00     0.029 A 
ATOM     57  N   UNL A   1      45.926  26.685  27.793  1.00  0.00    -0.354 N 
ATOM     58  C   UNL A   1      44.333  25.876  31.852  1.00  0.00     0.074 A 
ATOM     59  C   UNL A   1      44.257  24.440  31.801  1.00  0.00     0.031 C 
ATOM     60  C   UNL A   1      46.321  26.084  25.688  1.00  0.00     0.029 A 
ATOM     61  C   UNL A   1      46.931  26.740  26.826  1.00  0.00     0.049 A 
ATOM     62  H   UNL A   1      45.937  27.230  28.612  1.00  0.00     0.167 HD
ATOM     63  C   UNL A   1      44.792  26.678  32.851  1.00  0.00     0.037 A 
ATOM     64  C   UNL A   1      48.222  27.152  26.978  1.00  0.00     0.037 A 
ATOM     65  C   UNL A   1      44.576  28.069  32.574  1.00  0.00     0.049 A 
ATOM     66  C   UNL A   1      48.280  27.983  28.209  1.00  0.00     0.074 A 
ATOM     67  C   UNL A   1      43.455  28.836  32.319  1.00  0.00     0.029 A 
ATOM     68  N   UNL A   1      45.645  28.836  32.177  1.00  0.00    -0.354 N 
ATOM     69  N   UNL A   1      47.700  29.145  28.337  1.00  0.00    -0.248 NA
ATOM     70  C   UNL A   1      48.580  27.292  29.455  1.00  0.00     0.031 C 
ATOM     71  C   UNL A   1      43.868  29.764  31.320  1.00  0.00     0.029 A 
ATOM     72  C   UNL A   1      45.225  29.549  31.082  1.00  0.00     0.049 A 
ATOM     73  H   UNL A   1      46.536  28.868  32.596  1.00  0.00     0.167 HD
ATOM     74  C   UNL A   1      47.172  29.135  29.619  1.00  0.00     0.074 A 
ATOM     75  C   UNL A   1      47.797  27.990  30.280  1.00  0.00     0.031 C 
ATOM     76  C   UNL A   1      46.075  29.874  29.959  1.00  0.00     0.037 A 
BRANCH  63  77
ATOM     77  C   UNL A   1      45.718  26.193  33.934  1.00  0.00     0.058 A 
ATOM     78  C   UNL A   1      46.940  25.583  33.599  1.00  0.00     0.135 A 
ATOM     79  C   UNL A   1      45.318  26.072  35.285  1.00  0.00     0.135 A 
ATOM     80  F   UNL A   1      47.396  25.617  32.337  1.00  0.00    -0.206 F 
ATOM     81  C   UNL A   1      47.691  24.865  34.531  1.00  0.00     0.059 A 
ATOM     82  C   UNL A   1      46.077  25.411  36.242  1.00  0.00     0.059 A 
ATOM     83  F   UNL A   1      44.124  26.506  35.712  1.00  0.00    -0.206 F 
ATOM     84  C   UNL A   1      47.244  24.777  35.848  1.00  0.00     0.060 A 
BRANCH  84  85
ATOM     85  S   UNL A   1      48.155  23.762  37.025  1.00  0.00     0.124 S 
ATOM     86  O   UNL A   1      47.089  23.328  37.920  1.00  0.00    -0.237 OA
ATOM     87  O   UNL A   1      48.723  22.735  36.160  1.00  0.00    -0.237 OA
ATOM     88  O   UNL A   1      49.120  24.696  37.597  1.00  0.00    -0.744 OA
ENDBRANCH  84  85
ENDBRANCH  63  77
BRANCH  64  89
ATOM     89  C   UNL A   1      49.438  26.514  26.372  1.00  0.00     0.058 A 
ATOM     90  C   UNL A   1      50.221  27.166  25.401  1.00  0.00     0.135 A 
ATOM     91  C   UNL A   1      50.008  25.342  26.919  1.00  0.00     0.135 A 
ATOM     92  F   UNL A   1      49.787  28.306  24.841  1.00  0.00    -0.206 F 
ATOM     93  C   UNL A   1      51.494  26.705  25.023  1.00  0.00     0.059 A 
ATOM     94  C   UNL A   1      51.257  24.853  26.544  1.00  0.00     0.059 A 
ATOM     95  F   UNL A   1      49.412  24.672  27.915  1.00  0.00    -0.206 F 
ATOM     96  C   UNL A   1      52.011  25.553  25.616  1.00  0.00     0.060 A 
BRANCH  96  97
ATOM     97  S   UNL A   1      53.712  25.036  25.275  1.00  0.00     0.124 S 
ATOM     98  O   UNL A   1      53.907  25.510  23.910  1.00  0.00    -0.237 OA
ATOM     99  O   UNL A   1      54.459  25.740  26.311  1.00  0.00    -0.237 OA
ATOM    100  O   UNL A   1      53.661  23.583  25.426  1.00  0.00    -0.744 OA
ENDBRANCH  96  97
ENDBRANCH  64  89
BRANCH  76 101
ATOM    101  C   UNL A   1      45.560  30.927  29.011  1.00  0.00     0.058 A 
ATOM    102  C   UNL A   1      45.882  32.295  29.079  1.00  0.00     0.135 A 
ATOM    103  C   UNL A   1      44.858  30.497  27.871  1.00  0.00     0.135 A 
ATOM    104  F   UNL A   1      46.637  32.782  30.075  1.00  0.00    -0.206 F 
ATOM    105  C   UNL A   1      45.496  33.189  28.078  1.00  0.00     0.059 A 
ATOM    106  C   UNL A   1      44.502  31.365  26.842  1.00  0.00     0.059 A 
ATOM    107  F   UNL A   1      44.559  29.196  27.718  1.00  0.00    -0.206 F 
ATOM    108  C   UNL A   1      44.820  32.713  26.955  1.00  0.00     0.060 A 
BRANCH 108 109
ATOM    109  S   UNL A   1      44.406  33.864  25.626  1.00  0.00     0.124 S 
ATOM    110  O   UNL A   1      43.534  33.056  24.780  1.00  0.00    -0.237 OA
ATOM    111  O   UNL A   1      43.760  34.959  26.346  1.00  0.00    -0.237 OA
ATOM    112  O   UNL A   1      45.704  34.194  25.041  1.00  0.00    -0.744 OA
ENDBRANCH 108 109
ENDBRANCH  76 101
ENDBRANCH  50  51
ENDBRANCH  43  45
ENDBRANCH  42  43
ENDBRANCH  41  42
ENDBRANCH  40  41
ENDBRANCH  39  40
ENDBRANCH  38  39
ENDBRANCH   1  38
TORSDOF 26
ENDMDL
