MODEL 1
REMARK VINA RESULT:      -5.7      0.000      0.000
REMARK SMILES C#CC[C@@]1(C(=O)OCCOCCOCCOCCOC(=O)c2ccc(-c3c4nc(c(-c5c(F)cc(S(=O)(=O)[O-])cc5F)c5ccc([nH]5)c(-c5c(F)cc(S(=O)(=O)[O-])cc5F)c5nc(c(-c6c(F)cc(S(=O)(=O)[O-])cc6F)c6ccc3[nH]6)C=C5)C=C4)cc2)CCCN1C(=O)OC(C)(C)C
REMARK SMILES IDX 13 1 12 2 11 3 10 4 9 5 8 6 7 7 5 8 6 9 4 10 88 11 91 12
REMARK SMILES IDX 89 13 90 14 3 15 2 16 1 17 92 18 93 19 94 20 95 21 96 22
REMARK SMILES IDX 97 23 98 24 14 25 15 26 16 27 17 28 18 29 19 30 20 31 21 32
REMARK SMILES IDX 22 33 23 34 87 35 24 36 86 37 25 38 26 39 27 40 80 41 28 42
REMARK SMILES IDX 85 43 79 44 81 45 29 46 84 47 78 48 77 49 30 51 64 52 43 53
REMARK SMILES IDX 63 54 44 55 47 56 62 57 82 58 45 59 46 60 61 62 83 63 48 64
REMARK SMILES IDX 31 65 32 66 41 67 33 68 34 69 40 70 42 71 35 72 36 73 37 74
REMARK SMILES IDX 38 75 39 76 65 77 66 78 75 79 67 80 68 81 74 82 76 83 69 84
REMARK SMILES IDX 70 85 71 86 72 87 73 88 49 89 50 90 59 91 51 92 52 93 58 94
REMARK SMILES IDX 60 95 53 96 54 97 55 98 56 99 57 100
REMARK H PARENT 81 50 47 61
REMARK Flexibility Score: inf
ROOT
ATOM      1  O   UNL A   1      38.315  33.196  30.423  1.00  0.00    -0.377 OA
ENDROOT
BRANCH   1   2
ATOM      2  C   UNL A   1      38.820  31.941  30.856  1.00  0.00     0.188 C 
BRANCH   2   3
ATOM      3  C   UNL A   1      38.082  30.604  30.661  1.00  0.00     0.188 C 
BRANCH   3   4
ATOM      4  O   UNL A   1      38.210  30.024  29.381  1.00  0.00    -0.376 OA
BRANCH   4   5
ATOM      5  C   UNL A   1      39.256  29.106  29.160  1.00  0.00     0.202 C 
BRANCH   5   6
ATOM      6  C   UNL A   1      40.250  28.897  30.301  1.00  0.00     0.261 C 
BRANCH   6   7
ATOM      7  O   UNL A   1      41.624  29.202  30.042  1.00  0.00    -0.461 OA
BRANCH   7   8
ATOM      8  C   UNL A   1      42.387  28.130  29.747  1.00  0.00     0.333 C 
ATOM      9  O   UNL A   1      42.568  27.209  30.546  1.00  0.00    -0.249 OA
BRANCH   8  10
ATOM     10  C   UNL A   1      43.099  28.202  28.375  1.00  0.00     0.154 C 
ATOM     11  C   UNL A   1      42.880  29.666  27.877  1.00  0.00     0.044 C 
ATOM     12  N   UNL A   1      42.175  27.436  27.473  1.00  0.00    -0.291 N 
ATOM     13  C   UNL A   1      42.542  29.515  26.400  1.00  0.00     0.025 C 
ATOM     14  C   UNL A   1      41.737  28.228  26.343  1.00  0.00     0.124 C 
BRANCH  10  15
ATOM     15  C   UNL A   1      44.601  27.841  28.098  1.00  0.00     0.130 C 
BRANCH  15  16
ATOM     16  C   UNL A   1      45.043  26.418  28.390  1.00  0.00    -0.104 C 
ATOM     17  C   UNL A   1      45.423  25.195  28.641  1.00  0.00     0.004 C 
ENDBRANCH  15  16
ENDBRANCH  10  15
BRANCH  12  18
ATOM     18  C   UNL A   1      41.589  26.192  27.691  1.00  0.00     0.411 C 
ATOM     19  O   UNL A   1      40.603  26.073  28.410  1.00  0.00    -0.224 OA
BRANCH  18  20
ATOM     20  O   UNL A   1      42.258  25.134  27.135  1.00  0.00    -0.444 OA
BRANCH  20  21
ATOM     21  C   UNL A   1      41.637  23.799  27.115  1.00  0.00     0.106 C 
ATOM     22  C   UNL A   1      41.913  23.053  28.433  1.00  0.00     0.056 C 
ATOM     23  C   UNL A   1      40.139  23.870  26.801  1.00  0.00     0.056 C 
ATOM     24  C   UNL A   1      42.282  22.984  25.969  1.00  0.00     0.056 C 
ENDBRANCH  20  21
ENDBRANCH  18  20
ENDBRANCH  12  18
ENDBRANCH   8  10
ENDBRANCH   7   8
ENDBRANCH   6   7
ENDBRANCH   5   6
ENDBRANCH   4   5
ENDBRANCH   3   4
ENDBRANCH   2   3
ENDBRANCH   1   2
BRANCH   1  25
ATOM     25  C   UNL A   1      38.452  34.353  31.237  1.00  0.00     0.188 C 
BRANCH  25  26
ATOM     26  C   UNL A   1      38.623  34.013  32.720  1.00  0.00     0.188 C 
BRANCH  26  27
ATOM     27  O   UNL A   1      37.807  34.834  33.541  1.00  0.00    -0.376 OA
BRANCH  27  28
ATOM     28  C   UNL A   1      36.708  34.216  34.201  1.00  0.00     0.202 C 
BRANCH  28  29
ATOM     29  C   UNL A   1      36.777  33.698  35.658  1.00  0.00     0.261 C 
BRANCH  29  30
ATOM     30  O   UNL A   1      38.037  33.235  36.179  1.00  0.00    -0.460 OA
BRANCH  30  31
ATOM     31  C   UNL A   1      38.131  31.968  36.622  1.00  0.00     0.338 C 
ATOM     32  O   UNL A   1      37.359  31.397  37.381  1.00  0.00    -0.246 OA
BRANCH  31  33
ATOM     33  C   UNL A   1      39.243  31.307  35.899  1.00  0.00     0.060 A 
ATOM     34  C   UNL A   1      40.557  31.455  36.364  1.00  0.00     0.016 A 
ATOM     35  C   UNL A   1      38.989  30.580  34.735  1.00  0.00     0.016 A 
ATOM     36  C   UNL A   1      41.627  30.935  35.629  1.00  0.00     0.010 A 
ATOM     37  C   UNL A   1      40.062  30.074  33.991  1.00  0.00     0.010 A 
ATOM     38  C   UNL A   1      41.388  30.293  34.408  1.00  0.00    -0.014 A 
BRANCH  38  39
ATOM     39  C   UNL A   1      42.506  30.071  33.452  1.00  0.00     0.031 A 
ATOM     40  C   UNL A   1      43.264  28.770  33.541  1.00  0.00     0.074 A 
ATOM     41  C   UNL A   1      42.841  30.981  32.519  1.00  0.00     0.049 A 
ATOM     42  N   UNL A   1      44.329  28.378  32.892  1.00  0.00    -0.248 NA
ATOM     43  C   UNL A   1      42.749  27.780  34.503  1.00  0.00     0.031 C 
ATOM     44  C   UNL A   1      42.157  32.251  32.290  1.00  0.00     0.029 A 
ATOM     45  N   UNL A   1      43.861  30.976  31.597  1.00  0.00    -0.354 N 
ATOM     46  C   UNL A   1      44.621  27.108  33.376  1.00  0.00     0.074 A 
ATOM     47  C   UNL A   1      43.640  26.806  34.395  1.00  0.00     0.031 C 
ATOM     48  C   UNL A   1      42.788  32.913  31.303  1.00  0.00     0.029 A 
ATOM     49  C   UNL A   1      43.942  32.133  30.858  1.00  0.00     0.049 A 
ATOM     50  H   UNL A   1      44.474  30.216  31.477  1.00  0.00     0.167 HD
ATOM     51  C   UNL A   1      45.613  26.264  33.002  1.00  0.00     0.037 A 
ATOM     52  C   UNL A   1      44.860  32.527  29.951  1.00  0.00     0.037 A 
ATOM     53  C   UNL A   1      46.586  26.568  31.987  1.00  0.00     0.049 A 
ATOM     54  C   UNL A   1      46.005  31.605  29.606  1.00  0.00     0.074 A 
ATOM     55  C   UNL A   1      47.624  25.777  31.527  1.00  0.00     0.029 A 
ATOM     56  N   UNL A   1      46.649  27.759  31.280  1.00  0.00    -0.354 N 
ATOM     57  N   UNL A   1      46.265  30.402  30.062  1.00  0.00    -0.248 NA
ATOM     58  C   UNL A   1      46.980  32.092  28.618  1.00  0.00     0.031 C 
ATOM     59  C   UNL A   1      48.349  26.512  30.585  1.00  0.00     0.029 A 
ATOM     60  C   UNL A   1      47.723  27.736  30.406  1.00  0.00     0.049 A 
ATOM     61  H   UNL A   1      46.022  28.512  31.384  1.00  0.00     0.167 HD
ATOM     62  C   UNL A   1      47.409  29.976  29.391  1.00  0.00     0.074 A 
ATOM     63  C   UNL A   1      47.787  31.047  28.493  1.00  0.00     0.031 C 
ATOM     64  C   UNL A   1      48.081  28.802  29.503  1.00  0.00     0.037 A 
BRANCH  51  65
ATOM     65  C   UNL A   1      45.714  24.945  33.720  1.00  0.00     0.058 A 
ATOM     66  C   UNL A   1      45.009  23.808  33.293  1.00  0.00     0.135 A 
ATOM     67  C   UNL A   1      46.555  24.808  34.838  1.00  0.00     0.135 A 
ATOM     68  F   UNL A   1      44.176  23.884  32.242  1.00  0.00    -0.206 F 
ATOM     69  C   UNL A   1      45.111  22.593  33.963  1.00  0.00     0.059 A 
ATOM     70  C   UNL A   1      46.698  23.595  35.503  1.00  0.00     0.059 A 
ATOM     71  F   UNL A   1      47.252  25.862  35.292  1.00  0.00    -0.206 F 
ATOM     72  C   UNL A   1      45.961  22.496  35.066  1.00  0.00     0.060 A 
BRANCH  72  73
ATOM     73  S   UNL A   1      46.086  20.911  35.921  1.00  0.00     0.124 S 
ATOM     74  O   UNL A   1      45.249  20.058  35.080  1.00  0.00    -0.237 OA
ATOM     75  O   UNL A   1      47.519  20.642  35.866  1.00  0.00    -0.237 OA
ATOM     76  O   UNL A   1      45.555  21.196  37.250  1.00  0.00    -0.744 OA
ENDBRANCH  72  73
ENDBRANCH  51  65
BRANCH  52  77
ATOM     77  C   UNL A   1      44.750  33.867  29.311  1.00  0.00     0.058 A 
ATOM     78  C   UNL A   1      44.190  34.019  28.034  1.00  0.00     0.135 A 
ATOM     79  C   UNL A   1      45.214  35.024  29.960  1.00  0.00     0.135 A 
ATOM     80  F   UNL A   1      43.748  32.944  27.364  1.00  0.00    -0.206 F 
ATOM     81  C   UNL A   1      44.103  35.264  27.417  1.00  0.00     0.059 A 
ATOM     82  C   UNL A   1      45.110  36.283  29.377  1.00  0.00     0.059 A 
ATOM     83  F   UNL A   1      45.755  34.936  31.185  1.00  0.00    -0.206 F 
ATOM     84  C   UNL A   1      44.562  36.391  28.101  1.00  0.00     0.060 A 
BRANCH  84  85
ATOM     85  S   UNL A   1      44.393  38.008  27.312  1.00  0.00     0.124 S 
ATOM     86  O   UNL A   1      44.347  38.896  28.468  1.00  0.00    -0.237 OA
ATOM     87  O   UNL A   1      45.604  38.077  26.500  1.00  0.00    -0.237 OA
ATOM     88  O   UNL A   1      43.148  37.886  26.559  1.00  0.00    -0.744 OA
ENDBRANCH  84  85
ENDBRANCH  52  77
BRANCH  64  89
ATOM     89  C   UNL A   1      49.264  28.579  28.598  1.00  0.00     0.058 A 
ATOM     90  C   UNL A   1      50.576  28.880  28.994  1.00  0.00     0.135 A 
ATOM     91  C   UNL A   1      49.084  27.987  27.335  1.00  0.00     0.135 A 
ATOM     92  F   UNL A   1      50.808  29.451  30.187  1.00  0.00    -0.206 F 
ATOM     93  C   UNL A   1      51.664  28.625  28.163  1.00  0.00     0.059 A 
ATOM     94  C   UNL A   1      50.158  27.693  26.503  1.00  0.00     0.059 A 
ATOM     95  F   UNL A   1      47.852  27.665  26.908  1.00  0.00    -0.206 F 
ATOM     96  C   UNL A   1      51.445  28.026  26.921  1.00  0.00     0.060 A 
BRANCH  96  97
ATOM     97  S   UNL A   1      52.869  27.665  25.872  1.00  0.00     0.124 S 
ATOM     98  O   UNL A   1      52.245  26.951  24.763  1.00  0.00    -0.237 OA
ATOM     99  O   UNL A   1      53.375  28.999  25.562  1.00  0.00    -0.237 OA
ATOM    100  O   UNL A   1      53.731  26.858  26.731  1.00  0.00    -0.744 OA
ENDBRANCH  96  97
ENDBRANCH  64  89
ENDBRANCH  38  39
ENDBRANCH  31  33
ENDBRANCH  30  31
ENDBRANCH  29  30
ENDBRANCH  28  29
ENDBRANCH  27  28
ENDBRANCH  26  27
ENDBRANCH  25  26
ENDBRANCH   1  25
TORSDOF 28
ENDMDL
MODEL 2
REMARK VINA RESULT:      -5.2      5.725     12.946
REMARK SMILES C#CC[C@@]1(C(=O)OCCOCCOCCOCCOC(=O)c2ccc(-c3c4nc(c(-c5c(F)cc(S(=O)(=O)[O-])cc5F)c5ccc([nH]5)c(-c5c(F)cc(S(=O)(=O)[O-])cc5F)c5nc(c(-c6c(F)cc(S(=O)(=O)[O-])cc6F)c6ccc3[nH]6)C=C5)C=C4)cc2)CCCN1C(=O)OC(C)(C)C
REMARK SMILES IDX 13 1 12 2 11 3 10 4 9 5 8 6 7 7 5 8 6 9 4 10 88 11 91 12
REMARK SMILES IDX 89 13 90 14 3 15 2 16 1 17 92 18 93 19 94 20 95 21 96 22
REMARK SMILES IDX 97 23 98 24 14 25 15 26 16 27 17 28 18 29 19 30 20 31 21 32
REMARK SMILES IDX 22 33 23 34 87 35 24 36 86 37 25 38 26 39 27 40 80 41 28 42
REMARK SMILES IDX 85 43 79 44 81 45 29 46 84 47 78 48 77 49 30 51 64 52 43 53
REMARK SMILES IDX 63 54 44 55 47 56 62 57 82 58 45 59 46 60 61 62 83 63 48 64
REMARK SMILES IDX 31 65 32 66 41 67 33 68 34 69 40 70 42 71 35 72 36 73 37 74
REMARK SMILES IDX 38 75 39 76 65 77 66 78 75 79 67 80 68 81 74 82 76 83 69 84
REMARK SMILES IDX 70 85 71 86 72 87 73 88 49 89 50 90 59 91 51 92 52 93 58 94
REMARK SMILES IDX 60 95 53 96 54 97 55 98 56 99 57 100
REMARK H PARENT 81 50 47 61
REMARK Flexibility Score: inf
ROOT
ATOM      1  O   UNL A   1      47.775  41.723  28.392  1.00  0.00    -0.377 OA
ENDROOT
BRANCH   1   2
ATOM      2  C   UNL A   1      47.028  40.536  28.166  1.00  0.00     0.188 C 
BRANCH   2   3
ATOM      3  C   UNL A   1      47.343  39.520  27.054  1.00  0.00     0.188 C 
BRANCH   3   4
ATOM      4  O   UNL A   1      47.703  40.077  25.809  1.00  0.00    -0.376 OA
BRANCH   4   5
ATOM      5  C   UNL A   1      46.727  40.142  24.794  1.00  0.00     0.202 C 
BRANCH   5   6
ATOM      6  C   UNL A   1      46.837  41.295  23.798  1.00  0.00     0.261 C 
BRANCH   6   7
ATOM      7  O   UNL A   1      45.638  42.013  23.487  1.00  0.00    -0.461 OA
BRANCH   7   8
ATOM      8  C   UNL A   1      45.439  42.221  22.170  1.00  0.00     0.333 C 
ATOM      9  O   UNL A   1      46.063  41.607  21.302  1.00  0.00    -0.249 OA
BRANCH   8  10
ATOM     10  C   UNL A   1      44.448  43.363  21.839  1.00  0.00     0.154 C 
ATOM     11  C   UNL A   1      43.304  42.686  21.021  1.00  0.00     0.044 C 
ATOM     12  N   UNL A   1      45.165  44.137  20.771  1.00  0.00    -0.291 N 
ATOM     13  C   UNL A   1      43.018  43.666  19.890  1.00  0.00     0.025 C 
ATOM     14  C   UNL A   1      44.384  44.241  19.557  1.00  0.00     0.124 C 
BRANCH  10  15
ATOM     15  C   UNL A   1      43.765  44.319  22.880  1.00  0.00     0.130 C 
BRANCH  15  16
ATOM     16  C   UNL A   1      44.621  44.829  24.027  1.00  0.00    -0.104 C 
ATOM     17  C   UNL A   1      45.355  45.268  25.012  1.00  0.00     0.004 C 
ENDBRANCH  15  16
ENDBRANCH  10  15
BRANCH  12  18
ATOM     18  C   UNL A   1      46.487  44.576  20.762  1.00  0.00     0.411 C 
ATOM     19  O   UNL A   1      47.065  44.867  21.803  1.00  0.00    -0.224 OA
BRANCH  18  20
ATOM     20  O   UNL A   1      47.027  44.751  19.516  1.00  0.00    -0.444 OA
BRANCH  20  21
ATOM     21  C   UNL A   1      47.547  46.069  19.117  1.00  0.00     0.106 C 
ATOM     22  C   UNL A   1      46.726  47.195  19.771  1.00  0.00     0.056 C 
ATOM     23  C   UNL A   1      49.044  46.207  19.415  1.00  0.00     0.056 C 
ATOM     24  C   UNL A   1      47.396  46.205  17.585  1.00  0.00     0.056 C 
ENDBRANCH  20  21
ENDBRANCH  18  20
ENDBRANCH  12  18
ENDBRANCH   8  10
ENDBRANCH   7   8
ENDBRANCH   6   7
ENDBRANCH   5   6
ENDBRANCH   4   5
ENDBRANCH   3   4
ENDBRANCH   2   3
ENDBRANCH   1   2
BRANCH   1  25
ATOM     25  C   UNL A   1      48.566  41.871  29.563  1.00  0.00     0.188 C 
BRANCH  25  26
ATOM     26  C   UNL A   1      49.542  40.710  29.765  1.00  0.00     0.188 C 
BRANCH  26  27
ATOM     27  O   UNL A   1      48.888  39.565  30.291  1.00  0.00    -0.376 OA
BRANCH  27  28
ATOM     28  C   UNL A   1      49.695  38.440  30.617  1.00  0.00     0.202 C 
BRANCH  28  29
ATOM     29  C   UNL A   1      49.115  37.032  30.897  1.00  0.00     0.261 C 
BRANCH  29  30
ATOM     30  O   UNL A   1      47.739  36.909  31.306  1.00  0.00    -0.460 OA
BRANCH  30  31
ATOM     31  C   UNL A   1      46.792  36.765  30.362  1.00  0.00     0.338 C 
ATOM     32  O   UNL A   1      46.110  37.651  29.864  1.00  0.00    -0.246 OA
BRANCH  31  33
ATOM     33  C   UNL A   1      46.821  35.361  29.891  1.00  0.00     0.060 A 
ATOM     34  C   UNL A   1      46.611  35.080  28.534  1.00  0.00     0.016 A 
ATOM     35  C   UNL A   1      47.010  34.318  30.801  1.00  0.00     0.016 A 
ATOM     36  C   UNL A   1      46.522  33.755  28.094  1.00  0.00     0.010 A 
ATOM     37  C   UNL A   1      46.902  32.993  30.363  1.00  0.00     0.010 A 
ATOM     38  C   UNL A   1      46.607  32.706  29.016  1.00  0.00    -0.014 A 
BRANCH  38  39
ATOM     39  C   UNL A   1      46.151  31.342  28.639  1.00  0.00     0.031 A 
ATOM     40  C   UNL A   1      44.696  31.002  28.841  1.00  0.00     0.074 A 
ATOM     41  C   UNL A   1      46.988  30.426  28.119  1.00  0.00     0.049 A 
ATOM     42  N   UNL A   1      44.075  29.863  28.681  1.00  0.00    -0.248 NA
ATOM     43  C   UNL A   1      43.826  32.102  29.293  1.00  0.00     0.031 C 
ATOM     44  C   UNL A   1      48.402  30.642  27.822  1.00  0.00     0.029 A 
ATOM     45  N   UNL A   1      46.766  29.117  27.763  1.00  0.00    -0.354 N 
ATOM     46  C   UNL A   1      42.749  30.103  29.027  1.00  0.00     0.074 A 
ATOM     47  C   UNL A   1      42.661  31.488  29.435  1.00  0.00     0.031 C 
ATOM     48  C   UNL A   1      48.927  29.498  27.345  1.00  0.00     0.029 A 
ATOM     49  C   UNL A   1      47.897  28.460  27.341  1.00  0.00     0.049 A 
ATOM     50  H   UNL A   1      45.880  28.691  27.806  1.00  0.00     0.167 HD
ATOM     51  C   UNL A   1      41.697  29.250  29.002  1.00  0.00     0.037 A 
ATOM     52  C   UNL A   1      48.086  27.163  27.019  1.00  0.00     0.037 A 
ATOM     53  C   UNL A   1      41.789  27.873  28.594  1.00  0.00     0.049 A 
ATOM     54  C   UNL A   1      46.917  26.208  27.074  1.00  0.00     0.074 A 
ATOM     55  C   UNL A   1      40.780  26.928  28.523  1.00  0.00     0.029 A 
ATOM     56  N   UNL A   1      42.957  27.239  28.198  1.00  0.00    -0.354 N 
ATOM     57  N   UNL A   1      45.666  26.448  27.393  1.00  0.00    -0.248 NA
ATOM     58  C   UNL A   1      47.183  24.805  26.722  1.00  0.00     0.031 C 
ATOM     59  C   UNL A   1      41.349  25.710  28.141  1.00  0.00     0.029 A 
ATOM     60  C   UNL A   1      42.700  25.911  27.906  1.00  0.00     0.049 A 
ATOM     61  H   UNL A   1      43.840  27.671  28.134  1.00  0.00     0.167 HD
ATOM     62  C   UNL A   1      44.993  25.238  27.243  1.00  0.00     0.074 A 
ATOM     63  C   UNL A   1      45.973  24.269  26.800  1.00  0.00     0.031 C 
ATOM     64  C   UNL A   1      43.681  24.957  27.448  1.00  0.00     0.037 A 
BRANCH  51  65
ATOM     65  C   UNL A   1      40.362  29.774  29.460  1.00  0.00     0.058 A 
ATOM     66  C   UNL A   1      39.309  30.014  28.564  1.00  0.00     0.135 A 
ATOM     67  C   UNL A   1      40.124  30.011  30.825  1.00  0.00     0.135 A 
ATOM     68  F   UNL A   1      39.485  29.823  27.246  1.00  0.00    -0.206 F 
ATOM     69  C   UNL A   1      38.078  30.497  28.998  1.00  0.00     0.059 A 
ATOM     70  C   UNL A   1      38.892  30.463  31.285  1.00  0.00     0.059 A 
ATOM     71  F   UNL A   1      41.096  29.801  31.727  1.00  0.00    -0.206 F 
ATOM     72  C   UNL A   1      37.879  30.717  30.362  1.00  0.00     0.060 A 
BRANCH  72  73
ATOM     73  S   UNL A   1      36.275  31.338  30.910  1.00  0.00     0.124 S 
ATOM     74  O   UNL A   1      35.468  31.166  29.705  1.00  0.00    -0.237 OA
ATOM     75  O   UNL A   1      35.957  30.443  32.017  1.00  0.00    -0.237 OA
ATOM     76  O   UNL A   1      36.554  32.721  31.284  1.00  0.00    -0.744 OA
ENDBRANCH  72  73
ENDBRANCH  51  65
BRANCH  52  77
ATOM     77  C   UNL A   1      49.439  26.678  26.628  1.00  0.00     0.058 A 
ATOM     78  C   UNL A   1      49.761  26.424  25.287  1.00  0.00     0.135 A 
ATOM     79  C   UNL A   1      50.435  26.449  27.592  1.00  0.00     0.135 A 
ATOM     80  F   UNL A   1      48.840  26.610  24.330  1.00  0.00    -0.206 F 
ATOM     81  C   UNL A   1      51.015  25.950  24.914  1.00  0.00     0.059 A 
ATOM     82  C   UNL A   1      51.706  26.004  27.241  1.00  0.00     0.059 A 
ATOM     83  F   UNL A   1      50.182  26.679  28.889  1.00  0.00    -0.206 F 
ATOM     84  C   UNL A   1      51.983  25.748  25.899  1.00  0.00     0.060 A 
BRANCH  84  85
ATOM     85  S   UNL A   1      53.624  25.185  25.396  1.00  0.00     0.124 S 
ATOM     86  O   UNL A   1      53.402  23.757  25.212  1.00  0.00    -0.237 OA
ATOM     87  O   UNL A   1      53.851  25.960  24.180  1.00  0.00    -0.237 OA
ATOM     88  O   UNL A   1      54.468  25.553  26.530  1.00  0.00    -0.744 OA
ENDBRANCH  84  85
ENDBRANCH  52  77
BRANCH  64  89
ATOM     89  C   UNL A   1      43.204  23.561  27.144  1.00  0.00     0.058 A 
ATOM     90  C   UNL A   1      42.839  23.162  25.849  1.00  0.00     0.135 A 
ATOM     91  C   UNL A   1      43.179  22.588  28.158  1.00  0.00     0.135 A 
ATOM     92  F   UNL A   1      42.839  24.050  24.842  1.00  0.00    -0.206 F 
ATOM     93  C   UNL A   1      42.443  21.855  25.575  1.00  0.00     0.059 A 
ATOM     94  C   UNL A   1      42.820  21.269  27.900  1.00  0.00     0.059 A 
ATOM     95  F   UNL A   1      43.532  22.909  29.414  1.00  0.00    -0.206 F 
ATOM     96  C   UNL A   1      42.442  20.914  26.607  1.00  0.00     0.060 A 
BRANCH  96  97
ATOM     97  S   UNL A   1      41.966  19.215  26.227  1.00  0.00     0.124 S 
ATOM     98  O   UNL A   1      42.285  18.533  27.478  1.00  0.00    -0.237 OA
ATOM     99  O   UNL A   1      40.545  19.349  25.923  1.00  0.00    -0.237 OA
ATOM    100  O   UNL A   1      42.815  18.868  25.091  1.00  0.00    -0.744 OA
ENDBRANCH  96  97
ENDBRANCH  64  89
ENDBRANCH  38  39
ENDBRANCH  31  33
ENDBRANCH  30  31
ENDBRANCH  29  30
ENDBRANCH  28  29
ENDBRANCH  27  28
ENDBRANCH  26  27
ENDBRANCH  25  26
ENDBRANCH   1  25
TORSDOF 28
ENDMDL
MODEL 3
REMARK VINA RESULT:      -5.2      5.283     10.770
REMARK SMILES C#CC[C@@]1(C(=O)OCCOCCOCCOCCOC(=O)c2ccc(-c3c4nc(c(-c5c(F)cc(S(=O)(=O)[O-])cc5F)c5ccc([nH]5)c(-c5c(F)cc(S(=O)(=O)[O-])cc5F)c5nc(c(-c6c(F)cc(S(=O)(=O)[O-])cc6F)c6ccc3[nH]6)C=C5)C=C4)cc2)CCCN1C(=O)OC(C)(C)C
REMARK SMILES IDX 13 1 12 2 11 3 10 4 9 5 8 6 7 7 5 8 6 9 4 10 88 11 91 12
REMARK SMILES IDX 89 13 90 14 3 15 2 16 1 17 92 18 93 19 94 20 95 21 96 22
REMARK SMILES IDX 97 23 98 24 14 25 15 26 16 27 17 28 18 29 19 30 20 31 21 32
REMARK SMILES IDX 22 33 23 34 87 35 24 36 86 37 25 38 26 39 27 40 80 41 28 42
REMARK SMILES IDX 85 43 79 44 81 45 29 46 84 47 78 48 77 49 30 51 64 52 43 53
REMARK SMILES IDX 63 54 44 55 47 56 62 57 82 58 45 59 46 60 61 62 83 63 48 64
REMARK SMILES IDX 31 65 32 66 41 67 33 68 34 69 40 70 42 71 35 72 36 73 37 74
REMARK SMILES IDX 38 75 39 76 65 77 66 78 75 79 67 80 68 81 74 82 76 83 69 84
REMARK SMILES IDX 70 85 71 86 72 87 73 88 49 89 50 90 59 91 51 92 52 93 58 94
REMARK SMILES IDX 60 95 53 96 54 97 55 98 56 99 57 100
REMARK H PARENT 81 50 47 61
REMARK Flexibility Score: inf
ROOT
ATOM      1  O   UNL A   1      36.693  32.025  28.622  1.00  0.00    -0.377 OA
ENDROOT
BRANCH   1   2
ATOM      2  C   UNL A   1      35.557  32.310  27.817  1.00  0.00     0.188 C 
BRANCH   2   3
ATOM      3  C   UNL A   1      34.170  31.678  28.031  1.00  0.00     0.188 C 
BRANCH   3   4
ATOM      4  O   UNL A   1      34.150  30.268  28.086  1.00  0.00    -0.376 OA
BRANCH   4   5
ATOM      5  C   UNL A   1      34.835  29.547  27.087  1.00  0.00     0.202 C 
BRANCH   5   6
ATOM      6  C   UNL A   1      34.016  29.071  25.888  1.00  0.00     0.261 C 
BRANCH   6   7
ATOM      7  O   UNL A   1      33.931  27.660  25.666  1.00  0.00    -0.461 OA
BRANCH   7   8
ATOM      8  C   UNL A   1      32.774  27.101  26.073  1.00  0.00     0.333 C 
ATOM      9  O   UNL A   1      32.394  27.148  27.245  1.00  0.00    -0.249 OA
BRANCH   8  10
ATOM     10  C   UNL A   1      32.020  26.307  24.979  1.00  0.00     0.154 C 
ATOM     11  C   UNL A   1      30.509  26.437  25.350  1.00  0.00     0.044 C 
ATOM     12  N   UNL A   1      32.298  24.878  25.344  1.00  0.00    -0.291 N 
ATOM     13  C   UNL A   1      29.945  25.039  25.129  1.00  0.00     0.025 C 
ATOM     14  C   UNL A   1      31.080  24.121  25.549  1.00  0.00     0.124 C 
BRANCH  10  15
ATOM     15  C   UNL A   1      32.136  26.536  23.431  1.00  0.00     0.130 C 
BRANCH  15  16
ATOM     16  C   UNL A   1      31.369  27.706  22.839  1.00  0.00    -0.104 C 
ATOM     17  C   UNL A   1      30.712  28.712  22.330  1.00  0.00     0.004 C 
ENDBRANCH  15  16
ENDBRANCH  10  15
BRANCH  12  18
ATOM     18  C   UNL A   1      33.518  24.289  25.666  1.00  0.00     0.411 C 
ATOM     19  O   UNL A   1      33.736  23.860  26.794  1.00  0.00    -0.224 OA
BRANCH  18  20
ATOM     20  O   UNL A   1      34.459  24.331  24.672  1.00  0.00    -0.444 OA
BRANCH  20  21
ATOM     21  C   UNL A   1      34.665  23.160  23.804  1.00  0.00     0.106 C 
ATOM     22  C   UNL A   1      36.116  23.113  23.294  1.00  0.00     0.056 C 
ATOM     23  C   UNL A   1      34.260  21.856  24.498  1.00  0.00     0.056 C 
ATOM     24  C   UNL A   1      33.739  23.302  22.574  1.00  0.00     0.056 C 
ENDBRANCH  20  21
ENDBRANCH  18  20
ENDBRANCH  12  18
ENDBRANCH   8  10
ENDBRANCH   7   8
ENDBRANCH   6   7
ENDBRANCH   5   6
ENDBRANCH   4   5
ENDBRANCH   3   4
ENDBRANCH   2   3
ENDBRANCH   1   2
BRANCH   1  25
ATOM     25  C   UNL A   1      36.657  32.233  30.026  1.00  0.00     0.188 C 
BRANCH  25  26
ATOM     26  C   UNL A   1      36.995  30.967  30.818  1.00  0.00     0.188 C 
BRANCH  26  27
ATOM     27  O   UNL A   1      37.301  29.880  29.958  1.00  0.00    -0.376 OA
BRANCH  27  28
ATOM     28  C   UNL A   1      37.825  28.699  30.554  1.00  0.00     0.202 C 
BRANCH  28  29
ATOM     29  C   UNL A   1      38.821  27.757  29.834  1.00  0.00     0.261 C 
BRANCH  29  30
ATOM     30  O   UNL A   1      39.944  28.325  29.134  1.00  0.00    -0.460 OA
BRANCH  30  31
ATOM     31  C   UNL A   1      40.741  27.512  28.418  1.00  0.00     0.338 C 
ATOM     32  O   UNL A   1      40.658  27.269  27.221  1.00  0.00    -0.246 OA
BRANCH  31  33
ATOM     33  C   UNL A   1      41.861  27.081  29.287  1.00  0.00     0.060 A 
ATOM     34  C   UNL A   1      42.170  27.819  30.437  1.00  0.00     0.016 A 
ATOM     35  C   UNL A   1      42.633  25.971  28.938  1.00  0.00     0.016 A 
ATOM     36  C   UNL A   1      43.293  27.491  31.204  1.00  0.00     0.010 A 
ATOM     37  C   UNL A   1      43.767  25.655  29.695  1.00  0.00     0.010 A 
ATOM     38  C   UNL A   1      44.131  26.444  30.802  1.00  0.00    -0.014 A 
BRANCH  38  39
ATOM     39  C   UNL A   1      45.499  26.322  31.374  1.00  0.00     0.031 A 
ATOM     40  C   UNL A   1      46.591  27.176  30.781  1.00  0.00     0.074 A 
ATOM     41  C   UNL A   1      45.775  25.493  32.396  1.00  0.00     0.049 A 
ATOM     42  N   UNL A   1      47.874  27.186  31.036  1.00  0.00    -0.248 NA
ATOM     43  C   UNL A   1      46.175  28.147  29.755  1.00  0.00     0.031 C 
ATOM     44  C   UNL A   1      44.803  24.655  33.095  1.00  0.00     0.029 A 
ATOM     45  N   UNL A   1      46.970  25.209  33.015  1.00  0.00    -0.354 N 
ATOM     46  C   UNL A   1      48.419  28.148  30.193  1.00  0.00     0.074 A 
ATOM     47  C   UNL A   1      47.334  28.680  29.397  1.00  0.00     0.031 C 
ATOM     48  C   UNL A   1      45.443  23.936  34.035  1.00  0.00     0.029 A 
ATOM     49  C   UNL A   1      46.874  24.233  33.979  1.00  0.00     0.049 A 
ATOM     50  H   UNL A   1      47.813  25.663  32.789  1.00  0.00     0.167 HD
ATOM     51  C   UNL A   1      49.706  28.558  30.093  1.00  0.00     0.037 A 
ATOM     52  C   UNL A   1      47.836  23.628  34.707  1.00  0.00     0.037 A 
ATOM     53  C   UNL A   1      50.782  28.028  30.888  1.00  0.00     0.049 A 
ATOM     54  C   UNL A   1      49.276  24.043  34.525  1.00  0.00     0.074 A 
ATOM     55  C   UNL A   1      52.120  28.384  30.871  1.00  0.00     0.029 A 
ATOM     56  N   UNL A   1      50.649  27.024  31.835  1.00  0.00    -0.354 N 
ATOM     57  N   UNL A   1      49.779  24.961  33.732  1.00  0.00    -0.248 NA
ATOM     58  C   UNL A   1      50.281  23.343  35.339  1.00  0.00     0.031 C 
ATOM     59  C   UNL A   1      52.803  27.554  31.764  1.00  0.00     0.029 A 
ATOM     60  C   UNL A   1      51.882  26.729  32.390  1.00  0.00     0.049 A 
ATOM     61  H   UNL A   1      49.801  26.585  32.077  1.00  0.00     0.167 HD
ATOM     62  C   UNL A   1      51.150  24.973  33.980  1.00  0.00     0.074 A 
ATOM     63  C   UNL A   1      51.396  23.975  35.000  1.00  0.00     0.031 C 
ATOM     64  C   UNL A   1      52.115  25.744  33.418  1.00  0.00     0.037 A 
BRANCH  51  65
ATOM     65  C   UNL A   1      50.027  29.610  29.064  1.00  0.00     0.058 A 
ATOM     66  C   UNL A   1      50.500  29.280  27.784  1.00  0.00     0.135 A 
ATOM     67  C   UNL A   1      49.828  30.971  29.355  1.00  0.00     0.135 A 
ATOM     68  F   UNL A   1      50.727  27.998  27.457  1.00  0.00    -0.206 F 
ATOM     69  C   UNL A   1      50.792  30.260  26.840  1.00  0.00     0.059 A 
ATOM     70  C   UNL A   1      50.082  31.965  28.417  1.00  0.00     0.059 A 
ATOM     71  F   UNL A   1      49.380  31.345  30.564  1.00  0.00    -0.206 F 
ATOM     72  C   UNL A   1      50.577  31.601  27.166  1.00  0.00     0.060 A 
BRANCH  72  73
ATOM     73  S   UNL A   1      50.955  32.859  25.928  1.00  0.00     0.124 S 
ATOM     74  O   UNL A   1      49.732  33.658  25.941  1.00  0.00    -0.237 OA
ATOM     75  O   UNL A   1      52.137  33.503  26.491  1.00  0.00    -0.237 OA
ATOM     76  O   UNL A   1      51.184  32.085  24.713  1.00  0.00    -0.744 OA
ENDBRANCH  72  73
ENDBRANCH  51  65
BRANCH  52  77
ATOM     77  C   UNL A   1      47.477  22.551  35.671  1.00  0.00     0.058 A 
ATOM     78  C   UNL A   1      47.024  22.853  36.964  1.00  0.00     0.135 A 
ATOM     79  C   UNL A   1      47.590  21.195  35.321  1.00  0.00     0.135 A 
ATOM     80  F   UNL A   1      46.914  24.132  37.354  1.00  0.00    -0.206 F 
ATOM     81  C   UNL A   1      46.707  21.853  37.879  1.00  0.00     0.059 A 
ATOM     82  C   UNL A   1      47.250  20.178  36.208  1.00  0.00     0.059 A 
ATOM     83  F   UNL A   1      48.014  20.850  34.096  1.00  0.00    -0.206 F 
ATOM     84  C   UNL A   1      46.819  20.518  37.489  1.00  0.00     0.060 A 
BRANCH  84  85
ATOM     85  S   UNL A   1      46.352  19.231  38.668  1.00  0.00     0.124 S 
ATOM     86  O   UNL A   1      45.442  18.417  37.870  1.00  0.00    -0.237 OA
ATOM     87  O   UNL A   1      47.643  18.626  38.983  1.00  0.00    -0.237 OA
ATOM     88  O   UNL A   1      45.737  19.981  39.759  1.00  0.00    -0.744 OA
ENDBRANCH  84  85
ENDBRANCH  52  77
BRANCH  64  89
ATOM     89  C   UNL A   1      53.524  25.590  33.927  1.00  0.00     0.058 A 
ATOM     90  C   UNL A   1      53.996  26.291  35.046  1.00  0.00     0.135 A 
ATOM     91  C   UNL A   1      54.396  24.669  33.320  1.00  0.00     0.135 A 
ATOM     92  F   UNL A   1      53.209  27.187  35.664  1.00  0.00    -0.206 F 
ATOM     93  C   UNL A   1      55.287  26.104  35.532  1.00  0.00     0.059 A 
ATOM     94  C   UNL A   1      55.678  24.441  33.807  1.00  0.00     0.059 A 
ATOM     95  F   UNL A   1      53.995  23.959  32.252  1.00  0.00    -0.206 F 
ATOM     96  C   UNL A   1      56.120  25.172  34.909  1.00  0.00     0.060 A 
BRANCH  96  97
ATOM     97  S   UNL A   1      57.777  24.911  35.574  1.00  0.00     0.124 S 
ATOM     98  O   UNL A   1      57.516  23.960  36.650  1.00  0.00    -0.237 OA
ATOM     99  O   UNL A   1      58.497  24.380  34.421  1.00  0.00    -0.237 OA
ATOM    100  O   UNL A   1      58.188  26.245  36.002  1.00  0.00    -0.744 OA
ENDBRANCH  96  97
ENDBRANCH  64  89
ENDBRANCH  38  39
ENDBRANCH  31  33
ENDBRANCH  30  31
ENDBRANCH  29  30
ENDBRANCH  28  29
ENDBRANCH  27  28
ENDBRANCH  26  27
ENDBRANCH  25  26
ENDBRANCH   1  25
TORSDOF 28
ENDMDL
