MODEL 1
REMARK VINA RESULT:      -7.4      0.000      0.000
REMARK SMILES O=C(OCCOCCOCCOCCOC(=O)c1ccc(-c2c3nc(c(-c4c(F)cc(S(=O)(=O)[O-])cc4F)c4ccc([nH]4)c(-c4c(F)cc(S(=O)(=O)[O-])cc4F)c4nc(c(-c5c(F)cc(S(=O)(=O)[O-])cc5F)c5ccc2[nH]5)C=C4)C=C3)cc1)C1=Cc2cc(Cl)cc(C#Cc3ccccc3)c2O[C@@H]1C(F)(F)F
REMARK SMILES IDX 10 1 9 2 8 3 7 4 6 5 5 6 4 7 3 8 2 9 1 10 84 11 85 12 102 13
REMARK SMILES IDX 86 14 101 15 87 16 100 17 88 18 91 19 89 20 90 21 103 22
REMARK SMILES IDX 104 23 105 24 106 25 92 26 93 27 94 28 95 29 99 30 96 31
REMARK SMILES IDX 98 32 97 33 11 34 12 35 13 36 14 37 15 38 16 39 17 40 18 41
REMARK SMILES IDX 19 42 83 43 20 44 82 45 21 46 22 47 23 48 76 49 24 50 81 51
REMARK SMILES IDX 75 52 77 53 25 54 80 55 74 56 73 57 26 59 60 60 39 61 59 62
REMARK SMILES IDX 40 63 43 64 58 65 78 66 41 67 42 68 57 70 79 71 44 72 27 73
REMARK SMILES IDX 28 74 37 75 29 76 30 77 36 78 38 79 31 80 32 81 33 82 34 83
REMARK SMILES IDX 35 84 61 85 62 86 71 87 63 88 64 89 70 90 72 91 65 92 66 93
REMARK SMILES IDX 67 94 68 95 69 96 45 97 46 98 55 99 47 100 48 101 54 102
REMARK SMILES IDX 56 103 49 104 50 105 51 106 52 107 53 108
REMARK H PARENT 77 58 43 69
REMARK Flexibility Score: inf
ROOT
ATOM      1  C   UNL A   1      51.988  35.859  26.818  1.00  0.00     0.188 C 
ENDROOT
BRANCH   1   2
ATOM      2  O   UNL A   1      51.679  35.642  25.442  1.00  0.00    -0.377 OA
BRANCH   2   3
ATOM      3  C   UNL A   1      50.837  34.538  25.130  1.00  0.00     0.188 C 
BRANCH   3   4
ATOM      4  C   UNL A   1      49.671  34.307  26.091  1.00  0.00     0.188 C 
BRANCH   4   5
ATOM      5  O   UNL A   1      48.631  35.255  26.007  1.00  0.00    -0.376 OA
BRANCH   5   6
ATOM      6  C   UNL A   1      47.469  34.923  25.280  1.00  0.00     0.202 C 
BRANCH   6   7
ATOM      7  C   UNL A   1      46.280  34.342  26.044  1.00  0.00     0.261 C 
BRANCH   7   8
ATOM      8  O   UNL A   1      45.426  35.330  26.652  1.00  0.00    -0.460 OA
BRANCH   8   9
ATOM      9  C   UNL A   1      44.134  34.973  26.903  1.00  0.00     0.338 C 
ATOM     10  O   UNL A   1      43.362  34.640  26.017  1.00  0.00    -0.246 OA
BRANCH   9  11
ATOM     11  C   UNL A   1      43.699  35.219  28.315  1.00  0.00     0.087 C 
ATOM     12  C   UNL A   1      44.653  35.623  29.175  1.00  0.00     0.027 C 
ATOM     13  C   UNL A   1      42.332  35.811  28.459  1.00  0.00     0.316 C 
ATOM     14  C   UNL A   1      44.533  37.016  29.633  1.00  0.00     0.020 A 
ATOM     15  O   UNL A   1      42.376  37.255  28.655  1.00  0.00    -0.474 OA
ATOM     16  C   UNL A   1      45.415  37.592  30.538  1.00  0.00     0.032 A 
ATOM     17  C   UNL A   1      43.590  37.830  28.994  1.00  0.00     0.143 A 
ATOM     18  C   UNL A   1      45.406  38.980  30.695  1.00  0.00     0.043 A 
ATOM     19  C   UNL A   1      43.815  39.223  28.886  1.00  0.00     0.069 A 
ATOM     20  Cl  UNL A   1      46.335  39.694  31.953  1.00  0.00    -0.084 Cl
ATOM     21  C   UNL A   1      44.690  39.795  29.811  1.00  0.00     0.041 A 
BRANCH  13  22
ATOM     22  C   UNL A   1      41.449  34.965  29.389  1.00  0.00     0.430 C 
ATOM     23  F   UNL A   1      40.147  34.996  29.021  1.00  0.00    -0.167 F 
ATOM     24  F   UNL A   1      41.821  33.653  29.318  1.00  0.00    -0.167 F 
ATOM     25  F   UNL A   1      41.527  35.320  30.687  1.00  0.00    -0.167 F 
ENDBRANCH  13  22
BRANCH  19  26
ATOM     26  C   UNL A   1      43.415  40.053  27.737  1.00  0.00    -0.058 C 
ATOM     27  C   UNL A   1      43.168  40.659  26.721  1.00  0.00    -0.062 C 
BRANCH  27  28
ATOM     28  C   UNL A   1      42.870  41.476  25.540  1.00  0.00     0.025 A 
ATOM     29  C   UNL A   1      41.732  41.368  24.732  1.00  0.00     0.017 A 
ATOM     30  C   UNL A   1      43.771  42.475  25.204  1.00  0.00     0.017 A 
ATOM     31  C   UNL A   1      41.535  42.239  23.632  1.00  0.00     0.001 A 
ATOM     32  C   UNL A   1      43.632  43.280  24.065  1.00  0.00     0.001 A 
ATOM     33  C   UNL A   1      42.496  43.185  23.288  1.00  0.00     0.000 A 
ENDBRANCH  27  28
ENDBRANCH  19  26
ENDBRANCH   9  11
ENDBRANCH   8   9
ENDBRANCH   7   8
ENDBRANCH   6   7
ENDBRANCH   5   6
ENDBRANCH   4   5
ENDBRANCH   3   4
ENDBRANCH   2   3
ENDBRANCH   1   2
BRANCH   1  34
ATOM     34  C   UNL A   1      52.634  37.223  27.121  1.00  0.00     0.188 C 
BRANCH  34  35
ATOM     35  O   UNL A   1      51.680  38.269  27.235  1.00  0.00    -0.376 OA
BRANCH  35  36
ATOM     36  C   UNL A   1      50.456  37.937  27.886  1.00  0.00     0.202 C 
BRANCH  36  37
ATOM     37  C   UNL A   1      50.357  38.224  29.397  1.00  0.00     0.261 C 
BRANCH  37  38
ATOM     38  O   UNL A   1      49.684  37.211  30.186  1.00  0.00    -0.460 OA
BRANCH  38  39
ATOM     39  C   UNL A   1      50.363  36.087  30.514  1.00  0.00     0.338 C 
ATOM     40  O   UNL A   1      51.471  36.043  31.019  1.00  0.00    -0.246 OA
BRANCH  39  41
ATOM     41  C   UNL A   1      49.472  34.895  30.367  1.00  0.00     0.060 A 
ATOM     42  C   UNL A   1      49.674  33.786  31.206  1.00  0.00     0.016 A 
ATOM     43  C   UNL A   1      48.440  34.854  29.435  1.00  0.00     0.016 A 
ATOM     44  C   UNL A   1      48.902  32.612  31.071  1.00  0.00     0.010 A 
ATOM     45  C   UNL A   1      47.669  33.686  29.311  1.00  0.00     0.010 A 
ATOM     46  C   UNL A   1      47.909  32.522  30.091  1.00  0.00    -0.014 A 
BRANCH  46  47
ATOM     47  C   UNL A   1      47.188  31.236  29.746  1.00  0.00     0.031 A 
ATOM     48  C   UNL A   1      47.826  30.354  28.690  1.00  0.00     0.074 A 
ATOM     49  C   UNL A   1      45.973  30.859  30.222  1.00  0.00     0.049 A 
ATOM     50  N   UNL A   1      47.359  29.281  28.104  1.00  0.00    -0.248 NA
ATOM     51  C   UNL A   1      49.170  30.747  28.228  1.00  0.00     0.031 C 
ATOM     52  C   UNL A   1      45.196  31.511  31.274  1.00  0.00     0.029 A 
ATOM     53  N   UNL A   1      45.119  29.858  29.795  1.00  0.00    -0.354 N 
ATOM     54  C   UNL A   1      48.369  28.855  27.250  1.00  0.00     0.074 A 
ATOM     55  C   UNL A   1      49.392  29.875  27.260  1.00  0.00     0.031 C 
ATOM     56  C   UNL A   1      43.931  31.052  31.260  1.00  0.00     0.029 A 
ATOM     57  C   UNL A   1      43.834  29.962  30.299  1.00  0.00     0.049 A 
ATOM     58  H   UNL A   1      45.399  29.137  29.187  1.00  0.00     0.167 HD
ATOM     59  C   UNL A   1      48.502  27.675  26.599  1.00  0.00     0.037 A 
ATOM     60  C   UNL A   1      42.714  29.246  30.056  1.00  0.00     0.037 A 
ATOM     61  C   UNL A   1      47.512  26.635  26.598  1.00  0.00     0.049 A 
ATOM     62  C   UNL A   1      42.824  27.977  29.249  1.00  0.00     0.074 A 
ATOM     63  C   UNL A   1      47.592  25.370  26.041  1.00  0.00     0.029 A 
ATOM     64  N   UNL A   1      46.259  26.739  27.177  1.00  0.00    -0.354 N 
ATOM     65  N   UNL A   1      43.851  27.513  28.580  1.00  0.00    -0.248 NA
ATOM     66  C   UNL A   1      41.656  27.083  29.250  1.00  0.00     0.031 C 
ATOM     67  C   UNL A   1      46.367  24.727  26.242  1.00  0.00     0.029 A 
ATOM     68  C   UNL A   1      45.545  25.570  26.971  1.00  0.00     0.049 A 
ATOM     69  H   UNL A   1      45.924  27.527  27.663  1.00  0.00     0.167 HD
ATOM     70  C   UNL A   1      43.481  26.241  28.153  1.00  0.00     0.074 A 
ATOM     71  C   UNL A   1      42.134  26.015  28.629  1.00  0.00     0.031 C 
ATOM     72  C   UNL A   1      44.207  25.335  27.451  1.00  0.00     0.037 A 
BRANCH  59  73
ATOM     73  C   UNL A   1      49.816  27.424  25.911  1.00  0.00     0.058 A 
ATOM     74  C   UNL A   1      49.958  27.640  24.527  1.00  0.00     0.135 A 
ATOM     75  C   UNL A   1      50.942  26.987  26.623  1.00  0.00     0.135 A 
ATOM     76  F   UNL A   1      48.907  28.044  23.793  1.00  0.00    -0.206 F 
ATOM     77  C   UNL A   1      51.153  27.390  23.869  1.00  0.00     0.059 A 
ATOM     78  C   UNL A   1      52.161  26.766  25.989  1.00  0.00     0.059 A 
ATOM     79  F   UNL A   1      50.863  26.765  27.944  1.00  0.00    -0.206 F 
ATOM     80  C   UNL A   1      52.252  26.956  24.610  1.00  0.00     0.060 A 
BRANCH  80  81
ATOM     81  S   UNL A   1      53.802  26.658  23.737  1.00  0.00     0.124 S 
ATOM     82  O   UNL A   1      54.289  28.020  23.536  1.00  0.00    -0.237 OA
ATOM     83  O   UNL A   1      54.549  25.854  24.698  1.00  0.00    -0.237 OA
ATOM     84  O   UNL A   1      53.381  25.958  22.527  1.00  0.00    -0.744 OA
ENDBRANCH  80  81
ENDBRANCH  59  73
BRANCH  60  85
ATOM     85  C   UNL A   1      41.404  29.616  30.675  1.00  0.00     0.058 A 
ATOM     86  C   UNL A   1      41.140  29.353  32.029  1.00  0.00     0.135 A 
ATOM     87  C   UNL A   1      40.366  30.176  29.912  1.00  0.00     0.135 A 
ATOM     88  F   UNL A   1      42.091  28.802  32.798  1.00  0.00    -0.206 F 
ATOM     89  C   UNL A   1      39.891  29.595  32.595  1.00  0.00     0.059 A 
ATOM     90  C   UNL A   1      39.112  30.448  30.462  1.00  0.00     0.059 A 
ATOM     91  F   UNL A   1      40.560  30.451  28.613  1.00  0.00    -0.206 F 
ATOM     92  C   UNL A   1      38.881  30.142  31.803  1.00  0.00     0.060 A 
BRANCH  92  93
ATOM     93  S   UNL A   1      37.273  30.468  32.565  1.00  0.00     0.124 S 
ATOM     94  O   UNL A   1      36.717  31.476  31.669  1.00  0.00    -0.237 OA
ATOM     95  O   UNL A   1      36.642  29.153  32.514  1.00  0.00    -0.237 OA
ATOM     96  O   UNL A   1      37.622  30.936  33.903  1.00  0.00    -0.744 OA
ENDBRANCH  92  93
ENDBRANCH  60  85
BRANCH  72  97
ATOM     97  C   UNL A   1      43.586  23.987  27.197  1.00  0.00     0.058 A 
ATOM     98  C   UNL A   1      42.933  23.683  25.993  1.00  0.00     0.135 A 
ATOM     99  C   UNL A   1      43.669  22.975  28.169  1.00  0.00     0.135 A 
ATOM    100  F   UNL A   1      42.824  24.613  25.030  1.00  0.00    -0.206 F 
ATOM    101  C   UNL A   1      42.343  22.441  25.779  1.00  0.00     0.059 A 
ATOM    102  C   UNL A   1      43.120  21.715  27.962  1.00  0.00     0.059 A 
ATOM    103  F   UNL A   1      44.295  23.204  29.335  1.00  0.00    -0.206 F 
ATOM    104  C   UNL A   1      42.440  21.464  26.771  1.00  0.00     0.060 A 
BRANCH 104 105
ATOM    105  S   UNL A   1      41.675  19.856  26.477  1.00  0.00     0.124 S 
ATOM    106  O   UNL A   1      42.320  19.447  25.234  1.00  0.00    -0.237 OA
ATOM    107  O   UNL A   1      42.059  19.106  27.668  1.00  0.00    -0.237 OA
ATOM    108  O   UNL A   1      40.252  20.171  26.373  1.00  0.00    -0.744 OA
ENDBRANCH 104 105
ENDBRANCH  72  97
ENDBRANCH  46  47
ENDBRANCH  39  41
ENDBRANCH  38  39
ENDBRANCH  37  38
ENDBRANCH  36  37
ENDBRANCH  35  36
ENDBRANCH  34  35
ENDBRANCH   1  34
TORSDOF 26
ENDMDL
MODEL 2
REMARK VINA RESULT:      -6.9      4.716     10.636
REMARK SMILES O=C(OCCOCCOCCOCCOC(=O)c1ccc(-c2c3nc(c(-c4c(F)cc(S(=O)(=O)[O-])cc4F)c4ccc([nH]4)c(-c4c(F)cc(S(=O)(=O)[O-])cc4F)c4nc(c(-c5c(F)cc(S(=O)(=O)[O-])cc5F)c5ccc2[nH]5)C=C4)C=C3)cc1)C1=Cc2cc(Cl)cc(C#Cc3ccccc3)c2O[C@@H]1C(F)(F)F
REMARK SMILES IDX 10 1 9 2 8 3 7 4 6 5 5 6 4 7 3 8 2 9 1 10 84 11 85 12 102 13
REMARK SMILES IDX 86 14 101 15 87 16 100 17 88 18 91 19 89 20 90 21 103 22
REMARK SMILES IDX 104 23 105 24 106 25 92 26 93 27 94 28 95 29 99 30 96 31
REMARK SMILES IDX 98 32 97 33 11 34 12 35 13 36 14 37 15 38 16 39 17 40 18 41
REMARK SMILES IDX 19 42 83 43 20 44 82 45 21 46 22 47 23 48 76 49 24 50 81 51
REMARK SMILES IDX 75 52 77 53 25 54 80 55 74 56 73 57 26 59 60 60 39 61 59 62
REMARK SMILES IDX 40 63 43 64 58 65 78 66 41 67 42 68 57 70 79 71 44 72 27 73
REMARK SMILES IDX 28 74 37 75 29 76 30 77 36 78 38 79 31 80 32 81 33 82 34 83
REMARK SMILES IDX 35 84 61 85 62 86 71 87 63 88 64 89 70 90 72 91 65 92 66 93
REMARK SMILES IDX 67 94 68 95 69 96 45 97 46 98 55 99 47 100 48 101 54 102
REMARK SMILES IDX 56 103 49 104 50 105 51 106 52 107 53 108
REMARK H PARENT 77 58 43 69
REMARK Flexibility Score: inf
ROOT
ATOM      1  C   UNL A   1      37.229  33.620  35.148  1.00  0.00     0.188 C 
ENDROOT
BRANCH   1   2
ATOM      2  O   UNL A   1      37.450  32.486  35.986  1.00  0.00    -0.377 OA
BRANCH   2   3
ATOM      3  C   UNL A   1      38.608  32.504  36.813  1.00  0.00     0.188 C 
BRANCH   3   4
ATOM      4  C   UNL A   1      39.818  31.747  36.268  1.00  0.00     0.188 C 
BRANCH   4   5
ATOM      5  O   UNL A   1      40.822  31.462  37.215  1.00  0.00    -0.376 OA
BRANCH   5   6
ATOM      6  C   UNL A   1      41.906  32.355  37.342  1.00  0.00     0.202 C 
BRANCH   6   7
ATOM      7  C   UNL A   1      43.081  31.943  38.229  1.00  0.00     0.261 C 
BRANCH   7   8
ATOM      8  O   UNL A   1      43.217  32.722  39.432  1.00  0.00    -0.460 OA
BRANCH   8   9
ATOM      9  C   UNL A   1      42.260  32.568  40.391  1.00  0.00     0.338 C 
ATOM     10  O   UNL A   1      41.853  31.470  40.740  1.00  0.00    -0.246 OA
BRANCH   9  11
ATOM     11  C   UNL A   1      41.619  33.851  40.824  1.00  0.00     0.087 C 
ATOM     12  C   UNL A   1      42.447  34.810  41.282  1.00  0.00     0.027 C 
ATOM     13  C   UNL A   1      40.444  34.277  40.002  1.00  0.00     0.316 C 
ATOM     14  C   UNL A   1      42.587  35.985  40.409  1.00  0.00     0.020 A 
ATOM     15  O   UNL A   1      40.805  35.273  39.000  1.00  0.00    -0.474 OA
ATOM     16  C   UNL A   1      43.380  37.079  40.734  1.00  0.00     0.032 A 
ATOM     17  C   UNL A   1      42.028  35.912  39.127  1.00  0.00     0.143 A 
ATOM     18  C   UNL A   1      43.685  38.008  39.738  1.00  0.00     0.043 A 
ATOM     19  C   UNL A   1      42.610  36.634  38.058  1.00  0.00     0.069 A 
ATOM     20  Cl  UNL A   1      44.484  39.469  40.162  1.00  0.00    -0.084 Cl
ATOM     21  C   UNL A   1      43.391  37.741  38.396  1.00  0.00     0.041 A 
BRANCH  13  22
ATOM     22  C   UNL A   1      39.207  34.526  40.879  1.00  0.00     0.430 C 
ATOM     23  F   UNL A   1      39.480  35.339  41.926  1.00  0.00    -0.167 F 
ATOM     24  F   UNL A   1      38.244  35.169  40.154  1.00  0.00    -0.167 F 
ATOM     25  F   UNL A   1      38.643  33.399  41.358  1.00  0.00    -0.167 F 
ENDBRANCH  13  22
BRANCH  19  26
ATOM     26  C   UNL A   1      42.674  36.167  36.663  1.00  0.00    -0.058 C 
ATOM     27  C   UNL A   1      42.822  35.701  35.558  1.00  0.00    -0.062 C 
BRANCH  27  28
ATOM     28  C   UNL A   1      42.991  35.226  34.180  1.00  0.00     0.025 A 
ATOM     29  C   UNL A   1      42.000  35.198  33.193  1.00  0.00     0.017 A 
ATOM     30  C   UNL A   1      44.254  34.799  33.798  1.00  0.00     0.017 A 
ATOM     31  C   UNL A   1      42.291  34.747  31.882  1.00  0.00     0.001 A 
ATOM     32  C   UNL A   1      44.530  34.265  32.532  1.00  0.00     0.001 A 
ATOM     33  C   UNL A   1      43.554  34.263  31.556  1.00  0.00     0.000 A 
ENDBRANCH  27  28
ENDBRANCH  19  26
ENDBRANCH   9  11
ENDBRANCH   8   9
ENDBRANCH   7   8
ENDBRANCH   6   7
ENDBRANCH   5   6
ENDBRANCH   4   5
ENDBRANCH   3   4
ENDBRANCH   2   3
ENDBRANCH   1   2
BRANCH   1  34
ATOM     34  C   UNL A   1      38.303  33.832  34.065  1.00  0.00     0.188 C 
BRANCH  34  35
ATOM     35  O   UNL A   1      37.874  34.708  33.032  1.00  0.00    -0.376 OA
BRANCH  35  36
ATOM     36  C   UNL A   1      36.477  34.705  32.743  1.00  0.00     0.202 C 
BRANCH  36  37
ATOM     37  C   UNL A   1      36.033  34.093  31.400  1.00  0.00     0.261 C 
BRANCH  37  38
ATOM     38  O   UNL A   1      37.045  33.336  30.691  1.00  0.00    -0.460 OA
BRANCH  38  39
ATOM     39  C   UNL A   1      36.709  32.132  30.172  1.00  0.00     0.338 C 
ATOM     40  O   UNL A   1      35.596  31.796  29.806  1.00  0.00    -0.246 OA
BRANCH  39  41
ATOM     41  C   UNL A   1      37.944  31.330  29.908  1.00  0.00     0.060 A 
ATOM     42  C   UNL A   1      38.934  31.255  30.903  1.00  0.00     0.016 A 
ATOM     43  C   UNL A   1      38.138  30.644  28.713  1.00  0.00     0.016 A 
ATOM     44  C   UNL A   1      40.144  30.563  30.685  1.00  0.00     0.010 A 
ATOM     45  C   UNL A   1      39.342  29.950  28.505  1.00  0.00     0.010 A 
ATOM     46  C   UNL A   1      40.392  29.930  29.464  1.00  0.00    -0.014 A 
BRANCH  46  47
ATOM     47  C   UNL A   1      41.737  29.352  29.078  1.00  0.00     0.031 A 
ATOM     48  C   UNL A   1      42.839  30.341  28.749  1.00  0.00     0.074 A 
ATOM     49  C   UNL A   1      42.009  28.033  28.901  1.00  0.00     0.049 A 
ATOM     50  N   UNL A   1      44.033  30.128  28.255  1.00  0.00    -0.248 NA
ATOM     51  C   UNL A   1      42.546  31.763  29.003  1.00  0.00     0.031 C 
ATOM     52  C   UNL A   1      41.134  26.903  29.203  1.00  0.00     0.029 A 
ATOM     53  N   UNL A   1      43.102  27.418  28.315  1.00  0.00    -0.354 N 
ATOM     54  C   UNL A   1      44.636  31.378  28.190  1.00  0.00     0.074 A 
ATOM     55  C   UNL A   1      43.625  32.355  28.521  1.00  0.00     0.031 C 
ATOM     56  C   UNL A   1      41.607  25.788  28.617  1.00  0.00     0.029 A 
ATOM     57  C   UNL A   1      42.902  26.081  28.018  1.00  0.00     0.049 A 
ATOM     58  H   UNL A   1      43.944  27.889  28.125  1.00  0.00     0.167 HD
ATOM     59  C   UNL A   1      45.937  31.694  27.987  1.00  0.00     0.037 A 
ATOM     60  C   UNL A   1      43.678  25.179  27.379  1.00  0.00     0.037 A 
ATOM     61  C   UNL A   1      46.965  30.738  27.686  1.00  0.00     0.049 A 
ATOM     62  C   UNL A   1      45.104  25.546  27.056  1.00  0.00     0.074 A 
ATOM     63  C   UNL A   1      48.326  30.950  27.550  1.00  0.00     0.029 A 
ATOM     64  N   UNL A   1      46.746  29.388  27.467  1.00  0.00    -0.354 N 
ATOM     65  N   UNL A   1      45.699  26.710  27.159  1.00  0.00    -0.248 NA
ATOM     66  C   UNL A   1      45.994  24.455  26.629  1.00  0.00     0.031 C 
ATOM     67  C   UNL A   1      48.924  29.735  27.201  1.00  0.00     0.029 A 
ATOM     68  C   UNL A   1      47.944  28.757  27.173  1.00  0.00     0.049 A 
ATOM     69  H   UNL A   1      45.870  28.942  27.514  1.00  0.00     0.167 HD
ATOM     70  C   UNL A   1      47.044  26.473  26.890  1.00  0.00     0.074 A 
ATOM     71  C   UNL A   1      47.172  25.060  26.610  1.00  0.00     0.031 C 
ATOM     72  C   UNL A   1      48.080  27.348  26.902  1.00  0.00     0.037 A 
BRANCH  59  73
ATOM     73  C   UNL A   1      46.323  33.135  28.182  1.00  0.00     0.058 A 
ATOM     74  C   UNL A   1      46.318  34.034  27.099  1.00  0.00     0.135 A 
ATOM     75  C   UNL A   1      46.683  33.631  29.442  1.00  0.00     0.135 A 
ATOM     76  F   UNL A   1      45.996  33.609  25.866  1.00  0.00    -0.206 F 
ATOM     77  C   UNL A   1      46.695  35.361  27.251  1.00  0.00     0.059 A 
ATOM     78  C   UNL A   1      47.029  34.967  29.625  1.00  0.00     0.059 A 
ATOM     79  F   UNL A   1      46.706  32.817  30.509  1.00  0.00    -0.206 F 
ATOM     80  C   UNL A   1      47.047  35.819  28.521  1.00  0.00     0.060 A 
BRANCH  80  81
ATOM     81  S   UNL A   1      47.514  37.552  28.699  1.00  0.00     0.124 S 
ATOM     82  O   UNL A   1      48.969  37.472  28.612  1.00  0.00    -0.237 OA
ATOM     83  O   UNL A   1      46.845  38.172  27.559  1.00  0.00    -0.237 OA
ATOM     84  O   UNL A   1      46.982  37.914  30.009  1.00  0.00    -0.744 OA
ENDBRANCH  80  81
ENDBRANCH  59  73
BRANCH  60  85
ATOM     85  C   UNL A   1      43.193  23.791  27.105  1.00  0.00     0.058 A 
ATOM     86  C   UNL A   1      43.339  22.769  28.055  1.00  0.00     0.135 A 
ATOM     87  C   UNL A   1      42.637  23.442  25.862  1.00  0.00     0.135 A 
ATOM     88  F   UNL A   1      43.881  23.044  29.252  1.00  0.00    -0.206 F 
ATOM     89  C   UNL A   1      42.989  21.450  27.778  1.00  0.00     0.059 A 
ATOM     90  C   UNL A   1      42.257  22.131  25.568  1.00  0.00     0.059 A 
ATOM     91  F   UNL A   1      42.471  24.376  24.914  1.00  0.00    -0.206 F 
ATOM     92  C   UNL A   1      42.450  21.139  26.529  1.00  0.00     0.060 A 
BRANCH  92  93
ATOM     93  S   UNL A   1      41.981  19.423  26.198  1.00  0.00     0.124 S 
ATOM     94  O   UNL A   1      40.583  19.565  25.810  1.00  0.00    -0.237 OA
ATOM     95  O   UNL A   1      42.906  19.059  25.128  1.00  0.00    -0.237 OA
ATOM     96  O   UNL A   1      42.218  18.756  27.475  1.00  0.00    -0.744 OA
ENDBRANCH  92  93
ENDBRANCH  60  85
BRANCH  72  97
ATOM     97  C   UNL A   1      49.460  26.801  26.659  1.00  0.00     0.058 A 
ATOM     98  C   UNL A   1      50.268  26.326  27.705  1.00  0.00     0.135 A 
ATOM     99  C   UNL A   1      49.974  26.729  25.353  1.00  0.00     0.135 A 
ATOM    100  F   UNL A   1      49.828  26.372  28.972  1.00  0.00    -0.206 F 
ATOM    101  C   UNL A   1      51.552  25.844  27.470  1.00  0.00     0.059 A 
ATOM    102  C   UNL A   1      51.240  26.215  25.091  1.00  0.00     0.059 A 
ATOM    103  F   UNL A   1      49.241  27.154  24.311  1.00  0.00    -0.206 F 
ATOM    104  C   UNL A   1      52.029  25.794  26.160  1.00  0.00     0.060 A 
BRANCH 104 105
ATOM    105  S   UNL A   1      53.695  25.161  25.871  1.00  0.00     0.124 S 
ATOM    106  O   UNL A   1      53.418  23.793  25.445  1.00  0.00    -0.237 OA
ATOM    107  O   UNL A   1      54.195  26.059  24.835  1.00  0.00    -0.237 OA
ATOM    108  O   UNL A   1      54.340  25.295  27.174  1.00  0.00    -0.744 OA
ENDBRANCH 104 105
ENDBRANCH  72  97
ENDBRANCH  46  47
ENDBRANCH  39  41
ENDBRANCH  38  39
ENDBRANCH  37  38
ENDBRANCH  36  37
ENDBRANCH  35  36
ENDBRANCH  34  35
ENDBRANCH   1  34
TORSDOF 26
ENDMDL
MODEL 3
REMARK VINA RESULT:      -6.8      4.863     12.075
REMARK SMILES O=C(OCCOCCOCCOCCOC(=O)c1ccc(-c2c3nc(c(-c4c(F)cc(S(=O)(=O)[O-])cc4F)c4ccc([nH]4)c(-c4c(F)cc(S(=O)(=O)[O-])cc4F)c4nc(c(-c5c(F)cc(S(=O)(=O)[O-])cc5F)c5ccc2[nH]5)C=C4)C=C3)cc1)C1=Cc2cc(Cl)cc(C#Cc3ccccc3)c2O[C@@H]1C(F)(F)F
REMARK SMILES IDX 10 1 9 2 8 3 7 4 6 5 5 6 4 7 3 8 2 9 1 10 84 11 85 12 102 13
REMARK SMILES IDX 86 14 101 15 87 16 100 17 88 18 91 19 89 20 90 21 103 22
REMARK SMILES IDX 104 23 105 24 106 25 92 26 93 27 94 28 95 29 99 30 96 31
REMARK SMILES IDX 98 32 97 33 11 34 12 35 13 36 14 37 15 38 16 39 17 40 18 41
REMARK SMILES IDX 19 42 83 43 20 44 82 45 21 46 22 47 23 48 76 49 24 50 81 51
REMARK SMILES IDX 75 52 77 53 25 54 80 55 74 56 73 57 26 59 60 60 39 61 59 62
REMARK SMILES IDX 40 63 43 64 58 65 78 66 41 67 42 68 57 70 79 71 44 72 27 73
REMARK SMILES IDX 28 74 37 75 29 76 30 77 36 78 38 79 31 80 32 81 33 82 34 83
REMARK SMILES IDX 35 84 61 85 62 86 71 87 63 88 64 89 70 90 72 91 65 92 66 93
REMARK SMILES IDX 67 94 68 95 69 96 45 97 46 98 55 99 47 100 48 101 54 102
REMARK SMILES IDX 56 103 49 104 50 105 51 106 52 107 53 108
REMARK H PARENT 77 58 43 69
REMARK Flexibility Score: inf
ROOT
ATOM      1  C   UNL A   1      35.969  33.679  34.845  1.00  0.00     0.188 C 
ENDROOT
BRANCH   1   2
ATOM      2  O   UNL A   1      36.776  32.899  35.726  1.00  0.00    -0.377 OA
BRANCH   2   3
ATOM      3  C   UNL A   1      37.875  32.200  35.154  1.00  0.00     0.188 C 
BRANCH   3   4
ATOM      4  C   UNL A   1      38.681  31.333  36.121  1.00  0.00     0.188 C 
BRANCH   4   5
ATOM      5  O   UNL A   1      39.679  32.014  36.845  1.00  0.00    -0.376 OA
BRANCH   5   6
ATOM      6  C   UNL A   1      39.291  32.859  37.904  1.00  0.00     0.202 C 
BRANCH   6   7
ATOM      7  C   UNL A   1      39.456  34.368  37.721  1.00  0.00     0.261 C 
BRANCH   7   8
ATOM      8  O   UNL A   1      40.682  34.899  38.257  1.00  0.00    -0.460 OA
BRANCH   8   9
ATOM      9  C   UNL A   1      41.685  35.175  37.375  1.00  0.00     0.338 C 
ATOM     10  O   UNL A   1      41.508  35.187  36.166  1.00  0.00    -0.246 OA
BRANCH   9  11
ATOM     11  C   UNL A   1      43.042  35.259  38.002  1.00  0.00     0.087 C 
ATOM     12  C   UNL A   1      43.165  34.737  39.238  1.00  0.00     0.027 C 
ATOM     13  C   UNL A   1      44.187  35.086  37.054  1.00  0.00     0.316 C 
ATOM     14  C   UNL A   1      43.969  33.509  39.321  1.00  0.00     0.020 A 
ATOM     15  O   UNL A   1      44.714  33.727  37.070  1.00  0.00    -0.474 OA
ATOM     16  C   UNL A   1      44.221  32.849  40.517  1.00  0.00     0.032 A 
ATOM     17  C   UNL A   1      44.348  32.899  38.118  1.00  0.00     0.143 A 
ATOM     18  C   UNL A   1      44.738  31.553  40.474  1.00  0.00     0.043 A 
ATOM     19  C   UNL A   1      44.528  31.496  38.062  1.00  0.00     0.069 A 
ATOM     20  Cl  UNL A   1      45.250  30.799  41.931  1.00  0.00    -0.084 Cl
ATOM     21  C   UNL A   1      44.797  30.845  39.268  1.00  0.00     0.041 A 
BRANCH  13  22
ATOM     22  C   UNL A   1      45.171  36.263  37.142  1.00  0.00     0.430 C 
ATOM     23  F   UNL A   1      44.633  37.329  37.778  1.00  0.00    -0.167 F 
ATOM     24  F   UNL A   1      46.261  35.903  37.881  1.00  0.00    -0.167 F 
ATOM     25  F   UNL A   1      45.633  36.678  35.946  1.00  0.00    -0.167 F 
ENDBRANCH  13  22
BRANCH  19  26
ATOM     26  C   UNL A   1      44.201  30.651  36.901  1.00  0.00    -0.058 C 
ATOM     27  C   UNL A   1      44.064  29.949  35.927  1.00  0.00    -0.062 C 
BRANCH  27  28
ATOM     28  C   UNL A   1      43.822  29.152  34.720  1.00  0.00     0.025 A 
ATOM     29  C   UNL A   1      44.793  28.475  33.974  1.00  0.00     0.017 A 
ATOM     30  C   UNL A   1      42.511  29.019  34.289  1.00  0.00     0.017 A 
ATOM     31  C   UNL A   1      44.434  27.706  32.840  1.00  0.00     0.001 A 
ATOM     32  C   UNL A   1      42.156  28.338  33.117  1.00  0.00     0.001 A 
ATOM     33  C   UNL A   1      43.116  27.652  32.400  1.00  0.00     0.000 A 
ENDBRANCH  27  28
ENDBRANCH  19  26
ENDBRANCH   9  11
ENDBRANCH   8   9
ENDBRANCH   7   8
ENDBRANCH   6   7
ENDBRANCH   5   6
ENDBRANCH   4   5
ENDBRANCH   3   4
ENDBRANCH   2   3
ENDBRANCH   1   2
BRANCH   1  34
ATOM     34  C   UNL A   1      36.762  34.537  33.842  1.00  0.00     0.188 C 
BRANCH  34  35
ATOM     35  O   UNL A   1      35.923  35.325  33.011  1.00  0.00    -0.376 OA
BRANCH  35  36
ATOM     36  C   UNL A   1      34.520  35.106  33.142  1.00  0.00     0.202 C 
BRANCH  36  37
ATOM     37  C   UNL A   1      33.723  34.828  31.852  1.00  0.00     0.261 C 
BRANCH  37  38
ATOM     38  O   UNL A   1      34.511  34.713  30.640  1.00  0.00    -0.460 OA
BRANCH  38  39
ATOM     39  C   UNL A   1      34.470  33.550  29.949  1.00  0.00     0.338 C 
ATOM     40  O   UNL A   1      33.537  33.153  29.273  1.00  0.00    -0.246 OA
BRANCH  39  41
ATOM     41  C   UNL A   1      35.821  32.910  29.953  1.00  0.00     0.060 A 
ATOM     42  C   UNL A   1      36.288  32.309  31.134  1.00  0.00     0.016 A 
ATOM     43  C   UNL A   1      36.627  32.877  28.819  1.00  0.00     0.016 A 
ATOM     44  C   UNL A   1      37.579  31.743  31.212  1.00  0.00     0.010 A 
ATOM     45  C   UNL A   1      37.908  32.305  28.899  1.00  0.00     0.010 A 
ATOM     46  C   UNL A   1      38.434  31.766  30.106  1.00  0.00    -0.014 A 
BRANCH  46  47
ATOM     47  C   UNL A   1      39.894  31.374  30.169  1.00  0.00     0.031 A 
ATOM     48  C   UNL A   1      40.894  32.489  30.412  1.00  0.00     0.074 A 
ATOM     49  C   UNL A   1      40.391  30.134  29.923  1.00  0.00     0.049 A 
ATOM     50  N   UNL A   1      42.202  32.462  30.370  1.00  0.00    -0.248 NA
ATOM     51  C   UNL A   1      40.336  33.815  30.736  1.00  0.00     0.031 C 
ATOM     52  C   UNL A   1      39.630  28.904  29.719  1.00  0.00     0.029 A 
ATOM     53  N   UNL A   1      41.693  29.722  29.703  1.00  0.00    -0.354 N 
ATOM     54  C   UNL A   1      42.610  33.746  30.708  1.00  0.00     0.074 A 
ATOM     55  C   UNL A   1      41.423  34.566  30.774  1.00  0.00     0.031 C 
ATOM     56  C   UNL A   1      40.429  27.953  29.200  1.00  0.00     0.029 A 
ATOM     57  C   UNL A   1      41.798  28.449  29.170  1.00  0.00     0.049 A 
ATOM     58  H   UNL A   1      42.475  30.283  29.906  1.00  0.00     0.167 HD
ATOM     59  C   UNL A   1      43.842  34.194  31.047  1.00  0.00     0.037 A 
ATOM     60  C   UNL A   1      42.865  27.739  28.744  1.00  0.00     0.037 A 
ATOM     61  C   UNL A   1      45.032  33.391  31.017  1.00  0.00     0.049 A 
ATOM     62  C   UNL A   1      44.249  28.269  29.026  1.00  0.00     0.074 A 
ATOM     63  C   UNL A   1      46.311  33.729  31.425  1.00  0.00     0.029 A 
ATOM     64  N   UNL A   1      45.093  32.089  30.547  1.00  0.00    -0.354 N 
ATOM     65  N   UNL A   1      44.602  29.438  29.503  1.00  0.00    -0.248 NA
ATOM     66  C   UNL A   1      45.373  27.345  28.811  1.00  0.00     0.031 C 
ATOM     67  C   UNL A   1      47.155  32.647  31.157  1.00  0.00     0.029 A 
ATOM     68  C   UNL A   1      46.392  31.617  30.632  1.00  0.00     0.049 A 
ATOM     69  H   UNL A   1      44.327  31.576  30.203  1.00  0.00     0.167 HD
ATOM     70  C   UNL A   1      45.975  29.359  29.721  1.00  0.00     0.074 A 
ATOM     71  C   UNL A   1      46.387  28.033  29.314  1.00  0.00     0.031 C 
ATOM     72  C   UNL A   1      46.809  30.295  30.237  1.00  0.00     0.037 A 
BRANCH  59  73
ATOM     73  C   UNL A   1      43.933  35.602  31.570  1.00  0.00     0.058 A 
ATOM     74  C   UNL A   1      44.231  36.673  30.706  1.00  0.00     0.135 A 
ATOM     75  C   UNL A   1      43.708  35.895  32.922  1.00  0.00     0.135 A 
ATOM     76  F   UNL A   1      44.471  36.447  29.404  1.00  0.00    -0.206 F 
ATOM     77  C   UNL A   1      44.344  37.975  31.172  1.00  0.00     0.059 A 
ATOM     78  C   UNL A   1      43.779  37.199  33.403  1.00  0.00     0.059 A 
ATOM     79  F   UNL A   1      43.421  34.912  33.789  1.00  0.00    -0.206 F 
ATOM     80  C   UNL A   1      44.113  38.229  32.524  1.00  0.00     0.060 A 
BRANCH  80  81
ATOM     81  S   UNL A   1      44.245  39.932  33.103  1.00  0.00     0.124 S 
ATOM     82  O   UNL A   1      42.861  40.225  33.463  1.00  0.00    -0.237 OA
ATOM     83  O   UNL A   1      45.177  39.808  34.219  1.00  0.00    -0.237 OA
ATOM     84  O   UNL A   1      44.755  40.648  31.937  1.00  0.00    -0.744 OA
ENDBRANCH  80  81
ENDBRANCH  59  73
BRANCH  60  85
ATOM     85  C   UNL A   1      42.705  26.391  28.119  1.00  0.00     0.058 A 
ATOM     86  C   UNL A   1      42.316  26.253  26.777  1.00  0.00     0.135 A 
ATOM     87  C   UNL A   1      42.868  25.213  28.867  1.00  0.00     0.135 A 
ATOM     88  F   UNL A   1      42.128  27.346  26.022  1.00  0.00    -0.206 F 
ATOM     89  C   UNL A   1      42.061  25.007  26.209  1.00  0.00     0.059 A 
ATOM     90  C   UNL A   1      42.640  23.951  28.314  1.00  0.00     0.059 A 
ATOM     91  F   UNL A   1      43.239  25.281  30.155  1.00  0.00    -0.206 F 
ATOM     92  C   UNL A   1      42.224  23.860  26.986  1.00  0.00     0.060 A 
BRANCH  92  93
ATOM     93  S   UNL A   1      41.908  22.251  26.222  1.00  0.00     0.124 S 
ATOM     94  O   UNL A   1      42.417  21.334  27.235  1.00  0.00    -0.237 OA
ATOM     95  O   UNL A   1      40.458  22.276  26.054  1.00  0.00    -0.237 OA
ATOM     96  O   UNL A   1      42.676  22.310  24.981  1.00  0.00    -0.744 OA
ENDBRANCH  92  93
ENDBRANCH  60  85
BRANCH  72  97
ATOM     97  C   UNL A   1      48.248  29.910  30.448  1.00  0.00     0.058 A 
ATOM     98  C   UNL A   1      48.692  29.313  31.638  1.00  0.00     0.135 A 
ATOM     99  C   UNL A   1      49.194  30.121  29.430  1.00  0.00     0.135 A 
ATOM    100  F   UNL A   1      47.831  29.089  32.644  1.00  0.00    -0.206 F 
ATOM    101  C   UNL A   1      50.030  28.982  31.831  1.00  0.00     0.059 A 
ATOM    102  C   UNL A   1      50.529  29.763  29.587  1.00  0.00     0.059 A 
ATOM    103  F   UNL A   1      48.825  30.674  28.265  1.00  0.00    -0.206 F 
ATOM    104  C   UNL A   1      50.941  29.213  30.799  1.00  0.00     0.060 A 
BRANCH 104 105
ATOM    105  S   UNL A   1      52.672  28.773  31.062  1.00  0.00     0.124 S 
ATOM    106  O   UNL A   1      53.332  29.536  30.008  1.00  0.00    -0.237 OA
ATOM    107  O   UNL A   1      52.908  29.239  32.425  1.00  0.00    -0.237 OA
ATOM    108  O   UNL A   1      52.684  27.323  30.891  1.00  0.00    -0.744 OA
ENDBRANCH 104 105
ENDBRANCH  72  97
ENDBRANCH  46  47
ENDBRANCH  39  41
ENDBRANCH  38  39
ENDBRANCH  37  38
ENDBRANCH  36  37
ENDBRANCH  35  36
ENDBRANCH  34  35
ENDBRANCH   1  34
TORSDOF 26
ENDMDL
