MODEL 1
REMARK VINA RESULT:      -9.8      0.000      0.000
REMARK SMILES O=C(OCCOCCOCCOCCOC(=O)[C@H]1CC(=O)N(Cc2ccc3cc[nH]c3c2)C1)c1ccc(-c2c3nc(c(-c4c(F)cc(S(=O)(=O)[O-])cc4F)c4ccc([nH]4)c(-c4c(F)cc(S(=O)(=O)[O-])cc4F)c4nc(c(-c5c(F)cc(S(=O)(=O)[O-])cc5F)c5ccc2[nH]5)C=C4)C=C3)cc1
REMARK SMILES IDX 8 1 7 2 6 3 5 4 4 5 3 6 2 7 1 8 34 9 35 10 99 11 36 12 98 13
REMARK SMILES IDX 37 14 38 15 39 16 92 17 40 18 97 19 91 20 93 21 41 22 96 23
REMARK SMILES IDX 90 24 89 25 42 27 76 28 55 29 75 30 56 31 59 32 74 33 94 34
REMARK SMILES IDX 57 35 58 36 73 38 95 39 60 40 43 41 44 42 53 43 45 44 46 45
REMARK SMILES IDX 52 46 54 47 47 48 48 49 49 50 50 51 51 52 77 53 78 54 87 55
REMARK SMILES IDX 79 56 80 57 86 58 88 59 81 60 82 61 83 62 84 63 85 64 61 65
REMARK SMILES IDX 62 66 71 67 63 68 64 69 70 70 72 71 65 72 66 73 67 74 68 75
REMARK SMILES IDX 69 76 9 77 10 78 11 79 12 80 13 81 14 82 15 83 16 84 17 85
REMARK SMILES IDX 18 86 19 87 33 88 20 89 22 90 21 91 23 92 24 93 25 94 32 95
REMARK SMILES IDX 26 96 31 97 27 98 30 99 28 100 29 101
REMARK H PARENT 93 26 59 37 30 102
REMARK Flexibility Score: inf
ROOT
ATOM      1  C   UNL A   1      44.889  20.810  25.322  1.00  0.00     0.188 C 
ENDROOT
BRANCH   1   2
ATOM      2  C   UNL A   1      46.001  21.783  24.945  1.00  0.00     0.188 C 
BRANCH   2   3
ATOM      3  O   UNL A   1      46.340  22.656  26.019  1.00  0.00    -0.376 OA
BRANCH   3   4
ATOM      4  C   UNL A   1      45.267  23.098  26.853  1.00  0.00     0.202 C 
BRANCH   4   5
ATOM      5  C   UNL A   1      44.804  24.530  26.599  1.00  0.00     0.261 C 
BRANCH   5   6
ATOM      6  O   UNL A   1      43.435  24.622  26.186  1.00  0.00    -0.460 OA
BRANCH   6   7
ATOM      7  C   UNL A   1      42.668  25.730  26.036  1.00  0.00     0.338 C 
ATOM      8  O   UNL A   1      42.270  25.999  24.901  1.00  0.00    -0.246 OA
BRANCH   7   9
ATOM      9  C   UNL A   1      42.288  26.668  27.141  1.00  0.00     0.060 A 
ATOM     10  C   UNL A   1      42.709  27.992  27.276  1.00  0.00     0.016 A 
ATOM     11  C   UNL A   1      41.367  26.182  28.085  1.00  0.00     0.016 A 
ATOM     12  C   UNL A   1      42.273  28.804  28.306  1.00  0.00     0.010 A 
ATOM     13  C   UNL A   1      40.930  26.983  29.143  1.00  0.00     0.010 A 
ATOM     14  C   UNL A   1      41.414  28.288  29.265  1.00  0.00    -0.014 A 
BRANCH  14  15
ATOM     15  C   UNL A   1      41.285  29.061  30.506  1.00  0.00     0.031 A 
ATOM     16  C   UNL A   1      40.112  29.986  30.605  1.00  0.00     0.074 A 
ATOM     17  C   UNL A   1      42.075  28.782  31.556  1.00  0.00     0.049 A 
ATOM     18  N   UNL A   1      39.786  30.813  31.556  1.00  0.00    -0.248 NA
ATOM     19  C   UNL A   1      39.163  29.961  29.475  1.00  0.00     0.031 C 
ATOM     20  C   UNL A   1      43.113  27.746  31.580  1.00  0.00     0.029 A 
ATOM     21  N   UNL A   1      42.104  29.315  32.813  1.00  0.00    -0.354 N 
ATOM     22  C   UNL A   1      38.624  31.438  31.120  1.00  0.00     0.074 A 
ATOM     23  C   UNL A   1      38.299  30.900  29.821  1.00  0.00     0.031 C 
ATOM     24  C   UNL A   1      43.674  27.718  32.800  1.00  0.00     0.029 A 
ATOM     25  C   UNL A   1      43.089  28.781  33.609  1.00  0.00     0.049 A 
ATOM     26  H   UNL A   1      41.481  30.012  33.119  1.00  0.00     0.167 HD
ATOM     27  C   UNL A   1      37.907  32.390  31.756  1.00  0.00     0.037 A 
ATOM     28  C   UNL A   1      43.491  29.159  34.837  1.00  0.00     0.037 A 
ATOM     29  C   UNL A   1      38.279  32.890  33.051  1.00  0.00     0.049 A 
ATOM     30  C   UNL A   1      42.761  30.310  35.476  1.00  0.00     0.074 A 
ATOM     31  C   UNL A   1      37.700  33.902  33.790  1.00  0.00     0.029 A 
ATOM     32  N   UNL A   1      39.348  32.402  33.797  1.00  0.00    -0.354 N 
ATOM     33  N   UNL A   1      41.721  30.976  35.025  1.00  0.00    -0.248 NA
ATOM     34  C   UNL A   1      43.261  30.774  36.773  1.00  0.00     0.031 C 
ATOM     35  C   UNL A   1      38.456  34.065  34.955  1.00  0.00     0.029 A 
ATOM     36  C   UNL A   1      39.464  33.108  34.977  1.00  0.00     0.049 A 
ATOM     37  H   UNL A   1      39.935  31.661  33.523  1.00  0.00     0.167 HD
ATOM     38  C   UNL A   1      41.425  31.926  35.993  1.00  0.00     0.074 A 
ATOM     39  C   UNL A   1      42.393  31.736  37.060  1.00  0.00     0.031 C 
ATOM     40  C   UNL A   1      40.448  32.869  36.008  1.00  0.00     0.037 A 
BRANCH  27  41
ATOM     41  C   UNL A   1      36.752  32.993  31.006  1.00  0.00     0.058 A 
ATOM     42  C   UNL A   1      36.929  33.823  29.886  1.00  0.00     0.135 A 
ATOM     43  C   UNL A   1      35.442  32.797  31.470  1.00  0.00     0.135 A 
ATOM     44  F   UNL A   1      38.163  34.080  29.422  1.00  0.00    -0.206 F 
ATOM     45  C   UNL A   1      35.854  34.469  29.281  1.00  0.00     0.059 A 
ATOM     46  C   UNL A   1      34.349  33.407  30.862  1.00  0.00     0.059 A 
ATOM     47  F   UNL A   1      35.213  32.030  32.548  1.00  0.00    -0.206 F 
ATOM     48  C   UNL A   1      34.567  34.259  29.782  1.00  0.00     0.060 A 
BRANCH  48  49
ATOM     49  S   UNL A   1      33.186  35.127  29.009  1.00  0.00     0.124 S 
ATOM     50  O   UNL A   1      32.799  34.186  27.962  1.00  0.00    -0.237 OA
ATOM     51  O   UNL A   1      32.245  35.262  30.116  1.00  0.00    -0.237 OA
ATOM     52  O   UNL A   1      33.784  36.374  28.542  1.00  0.00    -0.744 OA
ENDBRANCH  48  49
ENDBRANCH  27  41
BRANCH  28  53
ATOM     53  C   UNL A   1      44.648  28.487  35.488  1.00  0.00     0.058 A 
ATOM     54  C   UNL A   1      44.469  27.425  36.385  1.00  0.00     0.135 A 
ATOM     55  C   UNL A   1      45.968  28.881  35.205  1.00  0.00     0.135 A 
ATOM     56  F   UNL A   1      43.231  27.013  36.697  1.00  0.00    -0.206 F 
ATOM     57  C   UNL A   1      45.551  26.782  36.981  1.00  0.00     0.059 A 
ATOM     58  C   UNL A   1      47.067  28.235  35.766  1.00  0.00     0.059 A 
ATOM     59  F   UNL A   1      46.203  29.887  34.349  1.00  0.00    -0.206 F 
ATOM     60  C   UNL A   1      46.847  27.190  36.660  1.00  0.00     0.060 A 
BRANCH  60  61
ATOM     61  S   UNL A   1      48.242  26.314  37.402  1.00  0.00     0.124 S 
ATOM     62  O   UNL A   1      47.631  25.042  37.768  1.00  0.00    -0.237 OA
ATOM     63  O   UNL A   1      49.196  26.271  36.299  1.00  0.00    -0.237 OA
ATOM     64  O   UNL A   1      48.625  27.175  38.519  1.00  0.00    -0.744 OA
ENDBRANCH  60  61
ENDBRANCH  28  53
BRANCH  40  65
ATOM     65  C   UNL A   1      40.359  33.730  37.234  1.00  0.00     0.058 A 
ATOM     66  C   UNL A   1      41.101  34.912  37.362  1.00  0.00     0.135 A 
ATOM     67  C   UNL A   1      39.457  33.398  38.258  1.00  0.00     0.135 A 
ATOM     68  F   UNL A   1      41.981  35.266  36.413  1.00  0.00    -0.206 F 
ATOM     69  C   UNL A   1      40.969  35.728  38.479  1.00  0.00     0.059 A 
ATOM     70  C   UNL A   1      39.282  34.217  39.364  1.00  0.00     0.059 A 
ATOM     71  F   UNL A   1      38.714  32.282  38.171  1.00  0.00    -0.206 F 
ATOM     72  C   UNL A   1      40.052  35.374  39.470  1.00  0.00     0.060 A 
BRANCH  72  73
ATOM     73  S   UNL A   1      39.854  36.468  40.890  1.00  0.00     0.124 S 
ATOM     74  O   UNL A   1      40.976  37.385  40.711  1.00  0.00    -0.237 OA
ATOM     75  O   UNL A   1      38.528  37.034  40.664  1.00  0.00    -0.237 OA
ATOM     76  O   UNL A   1      39.958  35.565  42.033  1.00  0.00    -0.744 OA
ENDBRANCH  72  73
ENDBRANCH  40  65
ENDBRANCH  14  15
ENDBRANCH   7   9
ENDBRANCH   6   7
ENDBRANCH   5   6
ENDBRANCH   4   5
ENDBRANCH   3   4
ENDBRANCH   2   3
ENDBRANCH   1   2
BRANCH   1  77
ATOM     77  O   UNL A   1      45.167  19.444  25.038  1.00  0.00    -0.377 OA
BRANCH  77  78
ATOM     78  C   UNL A   1      44.057  18.553  25.100  1.00  0.00     0.188 C 
BRANCH  78  79
ATOM     79  C   UNL A   1      42.890  18.843  26.071  1.00  0.00     0.188 C 
BRANCH  79  80
ATOM     80  O   UNL A   1      41.987  19.839  25.629  1.00  0.00    -0.376 OA
BRANCH  80  81
ATOM     81  C   UNL A   1      40.623  19.570  25.943  1.00  0.00     0.202 C 
BRANCH  81  82
ATOM     82  C   UNL A   1      39.822  20.773  26.485  1.00  0.00     0.261 C 
BRANCH  82  83
ATOM     83  O   UNL A   1      39.044  21.516  25.499  1.00  0.00    -0.463 OA
BRANCH  83  84
ATOM     84  C   UNL A   1      38.423  22.645  25.898  1.00  0.00     0.311 C 
ATOM     85  O   UNL A   1      38.991  23.531  26.527  1.00  0.00    -0.252 OA
BRANCH  84  86
ATOM     86  C   UNL A   1      36.983  22.814  25.415  1.00  0.00     0.128 C 
ATOM     87  C   UNL A   1      36.338  21.466  25.070  1.00  0.00     0.117 C 
ATOM     88  C   UNL A   1      35.883  23.524  26.209  1.00  0.00     0.135 C 
ATOM     89  C   UNL A   1      34.892  21.821  24.904  1.00  0.00     0.223 C 
ATOM     90  N   UNL A   1      34.662  22.996  25.599  1.00  0.00    -0.337 N 
ATOM     91  O   UNL A   1      34.071  21.158  24.280  1.00  0.00    -0.275 OA
BRANCH  90  92
ATOM     92  C   UNL A   1      33.390  23.696  25.517  1.00  0.00     0.155 C 
BRANCH  92  93
ATOM     93  C   UNL A   1      33.438  25.152  25.109  1.00  0.00    -0.026 A 
ATOM     94  C   UNL A   1      33.528  25.503  23.758  1.00  0.00     0.006 A 
ATOM     95  C   UNL A   1      33.264  26.165  26.077  1.00  0.00     0.032 A 
ATOM     96  C   UNL A   1      33.418  26.838  23.342  1.00  0.00     0.010 A 
ATOM     97  C   UNL A   1      33.136  27.494  25.642  1.00  0.00     0.046 A 
ATOM     98  C   UNL A   1      33.203  27.850  24.295  1.00  0.00    -0.001 A 
ATOM     99  N   UNL A   1      32.917  28.655  26.354  1.00  0.00    -0.361 N 
ATOM    100  C   UNL A   1      33.015  29.258  24.221  1.00  0.00     0.028 A 
ATOM    101  C   UNL A   1      32.834  29.727  25.503  1.00  0.00     0.083 A 
ATOM    102  H   UNL A   1      32.832  28.707  27.333  1.00  0.00     0.166 HD
ENDBRANCH  92  93
ENDBRANCH  90  92
ENDBRANCH  84  86
ENDBRANCH  83  84
ENDBRANCH  82  83
ENDBRANCH  81  82
ENDBRANCH  80  81
ENDBRANCH  79  80
ENDBRANCH  78  79
ENDBRANCH  77  78
ENDBRANCH   1  77
TORSDOF 25
ENDMDL
MODEL 2
REMARK VINA RESULT:      -9.6      1.378      1.955
REMARK SMILES O=C(OCCOCCOCCOCCOC(=O)[C@H]1CC(=O)N(Cc2ccc3cc[nH]c3c2)C1)c1ccc(-c2c3nc(c(-c4c(F)cc(S(=O)(=O)[O-])cc4F)c4ccc([nH]4)c(-c4c(F)cc(S(=O)(=O)[O-])cc4F)c4nc(c(-c5c(F)cc(S(=O)(=O)[O-])cc5F)c5ccc2[nH]5)C=C4)C=C3)cc1
REMARK SMILES IDX 8 1 7 2 6 3 5 4 4 5 3 6 2 7 1 8 34 9 35 10 99 11 36 12 98 13
REMARK SMILES IDX 37 14 38 15 39 16 92 17 40 18 97 19 91 20 93 21 41 22 96 23
REMARK SMILES IDX 90 24 89 25 42 27 76 28 55 29 75 30 56 31 59 32 74 33 94 34
REMARK SMILES IDX 57 35 58 36 73 38 95 39 60 40 43 41 44 42 53 43 45 44 46 45
REMARK SMILES IDX 52 46 54 47 47 48 48 49 49 50 50 51 51 52 77 53 78 54 87 55
REMARK SMILES IDX 79 56 80 57 86 58 88 59 81 60 82 61 83 62 84 63 85 64 61 65
REMARK SMILES IDX 62 66 71 67 63 68 64 69 70 70 72 71 65 72 66 73 67 74 68 75
REMARK SMILES IDX 69 76 9 77 10 78 11 79 12 80 13 81 14 82 15 83 16 84 17 85
REMARK SMILES IDX 18 86 19 87 33 88 20 89 22 90 21 91 23 92 24 93 25 94 32 95
REMARK SMILES IDX 26 96 31 97 27 98 30 99 28 100 29 101
REMARK H PARENT 93 26 59 37 30 102
REMARK Flexibility Score: inf
ROOT
ATOM      1  C   UNL A   1      44.434  23.969  28.402  1.00  0.00     0.188 C 
ENDROOT
BRANCH   1   2
ATOM      2  C   UNL A   1      45.236  23.647  27.146  1.00  0.00     0.188 C 
BRANCH   2   3
ATOM      3  O   UNL A   1      46.255  24.611  26.895  1.00  0.00    -0.376 OA
BRANCH   3   4
ATOM      4  C   UNL A   1      45.832  25.965  26.726  1.00  0.00     0.202 C 
BRANCH   4   5
ATOM      5  C   UNL A   1      45.645  26.404  25.275  1.00  0.00     0.261 C 
BRANCH   5   6
ATOM      6  O   UNL A   1      44.318  26.860  24.984  1.00  0.00    -0.460 OA
BRANCH   6   7
ATOM      7  C   UNL A   1      43.166  26.595  25.650  1.00  0.00     0.338 C 
ATOM      8  O   UNL A   1      42.484  25.648  25.255  1.00  0.00    -0.246 OA
BRANCH   7   9
ATOM      9  C   UNL A   1      42.646  27.383  26.814  1.00  0.00     0.060 A 
ATOM     10  C   UNL A   1      42.831  28.750  27.030  1.00  0.00     0.016 A 
ATOM     11  C   UNL A   1      41.840  26.686  27.731  1.00  0.00     0.016 A 
ATOM     12  C   UNL A   1      42.277  29.408  28.112  1.00  0.00     0.010 A 
ATOM     13  C   UNL A   1      41.286  27.331  28.839  1.00  0.00     0.010 A 
ATOM     14  C   UNL A   1      41.537  28.691  29.040  1.00  0.00    -0.014 A 
BRANCH  14  15
ATOM     15  C   UNL A   1      41.295  29.352  30.329  1.00  0.00     0.031 A 
ATOM     16  C   UNL A   1      40.083  30.226  30.420  1.00  0.00     0.074 A 
ATOM     17  C   UNL A   1      42.023  29.011  31.405  1.00  0.00     0.049 A 
ATOM     18  N   UNL A   1      39.661  30.959  31.410  1.00  0.00    -0.248 NA
ATOM     19  C   UNL A   1      39.214  30.265  29.228  1.00  0.00     0.031 C 
ATOM     20  C   UNL A   1      43.096  28.013  31.417  1.00  0.00     0.029 A 
ATOM     21  N   UNL A   1      41.947  29.438  32.701  1.00  0.00    -0.354 N 
ATOM     22  C   UNL A   1      38.508  31.579  30.946  1.00  0.00     0.074 A 
ATOM     23  C   UNL A   1      38.292  31.142  29.589  1.00  0.00     0.031 C 
ATOM     24  C   UNL A   1      43.575  27.901  32.667  1.00  0.00     0.029 A 
ATOM     25  C   UNL A   1      42.896  28.872  33.517  1.00  0.00     0.049 A 
ATOM     26  H   UNL A   1      41.278  30.085  33.018  1.00  0.00     0.167 HD
ATOM     27  C   UNL A   1      37.714  32.450  31.607  1.00  0.00     0.037 A 
ATOM     28  C   UNL A   1      43.199  29.157  34.797  1.00  0.00     0.037 A 
ATOM     29  C   UNL A   1      37.977  32.851  32.960  1.00  0.00     0.049 A 
ATOM     30  C   UNL A   1      42.383  30.226  35.475  1.00  0.00     0.074 A 
ATOM     31  C   UNL A   1      37.311  33.777  33.738  1.00  0.00     0.029 A 
ATOM     32  N   UNL A   1      39.013  32.337  33.737  1.00  0.00    -0.354 N 
ATOM     33  N   UNL A   1      41.351  30.893  35.008  1.00  0.00    -0.248 NA
ATOM     34  C   UNL A   1      42.777  30.595  36.837  1.00  0.00     0.031 C 
ATOM     35  C   UNL A   1      37.981  33.866  34.962  1.00  0.00     0.029 A 
ATOM     36  C   UNL A   1      39.022  32.945  34.977  1.00  0.00     0.049 A 
ATOM     37  H   UNL A   1      39.646  31.642  33.446  1.00  0.00     0.167 HD
ATOM     38  C   UNL A   1      40.954  31.747  36.028  1.00  0.00     0.074 A 
ATOM     39  C   UNL A   1      41.855  31.501  37.140  1.00  0.00     0.031 C 
ATOM     40  C   UNL A   1      39.942  32.653  36.051  1.00  0.00     0.037 A 
BRANCH  27  41
ATOM     41  C   UNL A   1      36.589  33.076  30.829  1.00  0.00     0.058 A 
ATOM     42  C   UNL A   1      36.807  34.024  29.816  1.00  0.00     0.135 A 
ATOM     43  C   UNL A   1      35.259  32.774  31.163  1.00  0.00     0.135 A 
ATOM     44  F   UNL A   1      38.057  34.382  29.481  1.00  0.00    -0.206 F 
ATOM     45  C   UNL A   1      35.749  34.680  29.192  1.00  0.00     0.059 A 
ATOM     46  C   UNL A   1      34.186  33.395  30.533  1.00  0.00     0.059 A 
ATOM     47  F   UNL A   1      34.990  31.891  32.137  1.00  0.00    -0.206 F 
ATOM     48  C   UNL A   1      34.440  34.363  29.563  1.00  0.00     0.060 A 
BRANCH  48  49
ATOM     49  S   UNL A   1      33.079  35.244  28.772  1.00  0.00     0.124 S 
ATOM     50  O   UNL A   1      32.520  34.204  27.912  1.00  0.00    -0.237 OA
ATOM     51  O   UNL A   1      32.255  35.632  29.912  1.00  0.00    -0.237 OA
ATOM     52  O   UNL A   1      33.741  36.343  28.077  1.00  0.00    -0.744 OA
ENDBRANCH  48  49
ENDBRANCH  27  41
BRANCH  28  53
ATOM     53  C   UNL A   1      44.335  28.472  35.471  1.00  0.00     0.058 A 
ATOM     54  C   UNL A   1      45.632  29.003  35.439  1.00  0.00     0.135 A 
ATOM     55  C   UNL A   1      44.141  27.278  36.187  1.00  0.00     0.135 A 
ATOM     56  F   UNL A   1      45.877  30.136  34.765  1.00  0.00    -0.206 F 
ATOM     57  C   UNL A   1      46.695  28.375  36.086  1.00  0.00     0.059 A 
ATOM     58  C   UNL A   1      45.179  26.647  36.866  1.00  0.00     0.059 A 
ATOM     59  F   UNL A   1      42.919  26.727  36.259  1.00  0.00    -0.206 F 
ATOM     60  C   UNL A   1      46.457  27.200  36.802  1.00  0.00     0.060 A 
BRANCH  60  61
ATOM     61  S   UNL A   1      47.832  26.423  37.678  1.00  0.00     0.124 S 
ATOM     62  O   UNL A   1      48.165  27.441  38.667  1.00  0.00    -0.237 OA
ATOM     63  O   UNL A   1      47.216  25.206  38.195  1.00  0.00    -0.237 OA
ATOM     64  O   UNL A   1      48.827  26.216  36.628  1.00  0.00    -0.744 OA
ENDBRANCH  60  61
ENDBRANCH  28  53
BRANCH  40  65
ATOM     65  C   UNL A   1      39.738  33.404  37.334  1.00  0.00     0.058 A 
ATOM     66  C   UNL A   1      40.414  34.601  37.605  1.00  0.00     0.135 A 
ATOM     67  C   UNL A   1      38.792  32.949  38.267  1.00  0.00     0.135 A 
ATOM     68  F   UNL A   1      41.332  35.071  36.746  1.00  0.00    -0.206 F 
ATOM     69  C   UNL A   1      40.175  35.315  38.773  1.00  0.00     0.059 A 
ATOM     70  C   UNL A   1      38.511  33.665  39.423  1.00  0.00     0.059 A 
ATOM     71  F   UNL A   1      38.110  31.814  38.043  1.00  0.00    -0.206 F 
ATOM     72  C   UNL A   1      39.216  34.841  39.671  1.00  0.00     0.060 A 
BRANCH  72  73
ATOM     73  S   UNL A   1      38.881  35.804  41.158  1.00  0.00     0.124 S 
ATOM     74  O   UNL A   1      39.946  35.351  42.047  1.00  0.00    -0.237 OA
ATOM     75  O   UNL A   1      38.997  37.175  40.674  1.00  0.00    -0.237 OA
ATOM     76  O   UNL A   1      37.531  35.390  41.534  1.00  0.00    -0.744 OA
ENDBRANCH  72  73
ENDBRANCH  40  65
ENDBRANCH  14  15
ENDBRANCH   7   9
ENDBRANCH   6   7
ENDBRANCH   5   6
ENDBRANCH   4   5
ENDBRANCH   3   4
ENDBRANCH   2   3
ENDBRANCH   1   2
BRANCH   1  77
ATOM     77  O   UNL A   1      43.037  23.721  28.302  1.00  0.00    -0.377 OA
BRANCH  77  78
ATOM     78  C   UNL A   1      42.637  22.780  27.311  1.00  0.00     0.188 C 
BRANCH  78  79
ATOM     79  C   UNL A   1      41.626  21.666  27.670  1.00  0.00     0.188 C 
BRANCH  79  80
ATOM     80  O   UNL A   1      40.270  22.007  27.453  1.00  0.00    -0.376 OA
BRANCH  80  81
ATOM     81  C   UNL A   1      39.883  22.014  26.081  1.00  0.00     0.202 C 
BRANCH  81  82
ATOM     82  C   UNL A   1      38.632  21.173  25.746  1.00  0.00     0.261 C 
BRANCH  82  83
ATOM     83  O   UNL A   1      37.713  21.758  24.775  1.00  0.00    -0.463 OA
BRANCH  83  84
ATOM     84  C   UNL A   1      36.454  22.029  25.175  1.00  0.00     0.311 C 
ATOM     85  O   UNL A   1      36.006  21.668  26.258  1.00  0.00    -0.252 OA
BRANCH  84  86
ATOM     86  C   UNL A   1      35.642  22.924  24.240  1.00  0.00     0.128 C 
ATOM     87  C   UNL A   1      34.376  22.220  23.737  1.00  0.00     0.117 C 
ATOM     88  C   UNL A   1      35.131  24.320  24.608  1.00  0.00     0.135 C 
ATOM     89  C   UNL A   1      33.607  23.334  23.094  1.00  0.00     0.223 C 
ATOM     90  N   UNL A   1      34.049  24.525  23.644  1.00  0.00    -0.337 N 
ATOM     91  O   UNL A   1      32.729  23.189  22.252  1.00  0.00    -0.275 OA
BRANCH  90  92
ATOM     92  C   UNL A   1      33.612  25.814  23.129  1.00  0.00     0.155 C 
BRANCH  92  93
ATOM     93  C   UNL A   1      33.008  26.777  24.126  1.00  0.00    -0.026 A 
ATOM     94  C   UNL A   1      31.810  26.461  24.775  1.00  0.00     0.006 A 
ATOM     95  C   UNL A   1      33.712  27.941  24.502  1.00  0.00     0.032 A 
ATOM     96  C   UNL A   1      31.309  27.260  25.813  1.00  0.00     0.010 A 
ATOM     97  C   UNL A   1      33.207  28.719  25.557  1.00  0.00     0.046 A 
ATOM     98  C   UNL A   1      32.025  28.400  26.223  1.00  0.00    -0.001 A 
ATOM     99  N   UNL A   1      33.706  29.861  26.149  1.00  0.00    -0.361 N 
ATOM    100  C   UNL A   1      31.831  29.381  27.235  1.00  0.00     0.028 A 
ATOM    101  C   UNL A   1      32.885  30.265  27.171  1.00  0.00     0.083 A 
ATOM    102  H   UNL A   1      34.533  30.320  25.877  1.00  0.00     0.166 HD
ENDBRANCH  92  93
ENDBRANCH  90  92
ENDBRANCH  84  86
ENDBRANCH  83  84
ENDBRANCH  82  83
ENDBRANCH  81  82
ENDBRANCH  80  81
ENDBRANCH  79  80
ENDBRANCH  78  79
ENDBRANCH  77  78
ENDBRANCH   1  77
TORSDOF 25
ENDMDL
MODEL 3
REMARK VINA RESULT:      -9.3      6.368     12.126
REMARK SMILES O=C(OCCOCCOCCOCCOC(=O)[C@H]1CC(=O)N(Cc2ccc3cc[nH]c3c2)C1)c1ccc(-c2c3nc(c(-c4c(F)cc(S(=O)(=O)[O-])cc4F)c4ccc([nH]4)c(-c4c(F)cc(S(=O)(=O)[O-])cc4F)c4nc(c(-c5c(F)cc(S(=O)(=O)[O-])cc5F)c5ccc2[nH]5)C=C4)C=C3)cc1
REMARK SMILES IDX 8 1 7 2 6 3 5 4 4 5 3 6 2 7 1 8 34 9 35 10 99 11 36 12 98 13
REMARK SMILES IDX 37 14 38 15 39 16 92 17 40 18 97 19 91 20 93 21 41 22 96 23
REMARK SMILES IDX 90 24 89 25 42 27 76 28 55 29 75 30 56 31 59 32 74 33 94 34
REMARK SMILES IDX 57 35 58 36 73 38 95 39 60 40 43 41 44 42 53 43 45 44 46 45
REMARK SMILES IDX 52 46 54 47 47 48 48 49 49 50 50 51 51 52 77 53 78 54 87 55
REMARK SMILES IDX 79 56 80 57 86 58 88 59 81 60 82 61 83 62 84 63 85 64 61 65
REMARK SMILES IDX 62 66 71 67 63 68 64 69 70 70 72 71 65 72 66 73 67 74 68 75
REMARK SMILES IDX 69 76 9 77 10 78 11 79 12 80 13 81 14 82 15 83 16 84 17 85
REMARK SMILES IDX 18 86 19 87 33 88 20 89 22 90 21 91 23 92 24 93 25 94 32 95
REMARK SMILES IDX 26 96 31 97 27 98 30 99 28 100 29 101
REMARK H PARENT 93 26 59 37 30 102
REMARK Flexibility Score: inf
ROOT
ATOM      1  C   UNL A   1      32.796  36.400  32.626  1.00  0.00     0.188 C 
ENDROOT
BRANCH   1   2
ATOM      2  C   UNL A   1      34.224  36.926  32.715  1.00  0.00     0.188 C 
BRANCH   2   3
ATOM      3  O   UNL A   1      35.126  35.953  33.235  1.00  0.00    -0.376 OA
BRANCH   3   4
ATOM      4  C   UNL A   1      34.552  34.878  33.981  1.00  0.00     0.202 C 
BRANCH   4   5
ATOM      5  C   UNL A   1      35.383  33.597  34.004  1.00  0.00     0.261 C 
BRANCH   5   6
ATOM      6  O   UNL A   1      36.299  33.531  35.105  1.00  0.00    -0.460 OA
BRANCH   6   7
ATOM      7  C   UNL A   1      37.393  32.744  35.250  1.00  0.00     0.338 C 
ATOM      8  O   UNL A   1      37.404  31.952  36.194  1.00  0.00    -0.246 OA
BRANCH   7   9
ATOM      9  C   UNL A   1      38.602  32.780  34.366  1.00  0.00     0.060 A 
ATOM     10  C   UNL A   1      39.881  32.335  34.704  1.00  0.00     0.016 A 
ATOM     11  C   UNL A   1      38.403  33.242  33.053  1.00  0.00     0.016 A 
ATOM     12  C   UNL A   1      40.934  32.365  33.809  1.00  0.00     0.010 A 
ATOM     13  C   UNL A   1      39.460  33.295  32.141  1.00  0.00     0.010 A 
ATOM     14  C   UNL A   1      40.734  32.883  32.538  1.00  0.00    -0.014 A 
BRANCH  14  15
ATOM     15  C   UNL A   1      41.943  33.225  31.778  1.00  0.00     0.031 A 
ATOM     16  C   UNL A   1      42.590  34.537  32.097  1.00  0.00     0.074 A 
ATOM     17  C   UNL A   1      42.526  32.304  30.994  1.00  0.00     0.049 A 
ATOM     18  N   UNL A   1      43.627  35.105  31.551  1.00  0.00    -0.248 NA
ATOM     19  C   UNL A   1      41.991  35.311  33.201  1.00  0.00     0.031 C 
ATOM     20  C   UNL A   1      42.042  30.933  30.799  1.00  0.00     0.029 A 
ATOM     21  N   UNL A   1      43.668  32.366  30.247  1.00  0.00    -0.354 N 
ATOM     22  C   UNL A   1      43.775  36.318  32.211  1.00  0.00     0.074 A 
ATOM     23  C   UNL A   1      42.726  36.410  33.197  1.00  0.00     0.031 C 
ATOM     24  C   UNL A   1      42.890  30.282  29.986  1.00  0.00     0.029 A 
ATOM     25  C   UNL A   1      43.924  31.212  29.547  1.00  0.00     0.049 A 
ATOM     26  H   UNL A   1      44.249  33.159  30.214  1.00  0.00     0.167 HD
ATOM     27  C   UNL A   1      44.707  37.271  31.992  1.00  0.00     0.037 A 
ATOM     28  C   UNL A   1      44.869  30.970  28.619  1.00  0.00     0.037 A 
ATOM     29  C   UNL A   1      45.730  37.126  30.995  1.00  0.00     0.049 A 
ATOM     30  C   UNL A   1      45.819  32.093  28.295  1.00  0.00     0.074 A 
ATOM     31  C   UNL A   1      46.697  38.030  30.604  1.00  0.00     0.029 A 
ATOM     32  N   UNL A   1      45.908  35.981  30.222  1.00  0.00    -0.354 N 
ATOM     33  N   UNL A   1      45.902  33.284  28.846  1.00  0.00    -0.248 NA
ATOM     34  C   UNL A   1      46.786  31.854  27.221  1.00  0.00     0.031 C 
ATOM     35  C   UNL A   1      47.420  37.455  29.553  1.00  0.00     0.029 A 
ATOM     36  C   UNL A   1      46.951  36.164  29.337  1.00  0.00     0.049 A 
ATOM     37  H   UNL A   1      45.369  35.161  30.296  1.00  0.00     0.167 HD
ATOM     38  C   UNL A   1      46.947  33.932  28.201  1.00  0.00     0.074 A 
ATOM     39  C   UNL A   1      47.471  32.991  27.227  1.00  0.00     0.031 C 
ATOM     40  C   UNL A   1      47.434  35.185  28.390  1.00  0.00     0.037 A 
BRANCH  27  41
ATOM     41  C   UNL A   1      44.569  38.554  32.765  1.00  0.00     0.058 A 
ATOM     42  C   UNL A   1      43.846  39.655  32.277  1.00  0.00     0.135 A 
ATOM     43  C   UNL A   1      45.243  38.706  33.987  1.00  0.00     0.135 A 
ATOM     44  F   UNL A   1      43.215  39.582  31.094  1.00  0.00    -0.206 F 
ATOM     45  C   UNL A   1      43.832  40.874  32.952  1.00  0.00     0.059 A 
ATOM     46  C   UNL A   1      45.218  39.905  34.694  1.00  0.00     0.059 A 
ATOM     47  F   UNL A   1      45.965  37.695  34.492  1.00  0.00    -0.206 F 
ATOM     48  C   UNL A   1      44.527  40.990  34.158  1.00  0.00     0.060 A 
BRANCH  48  49
ATOM     49  S   UNL A   1      44.528  42.583  35.006  1.00  0.00     0.124 S 
ATOM     50  O   UNL A   1      45.845  42.577  35.636  1.00  0.00    -0.237 OA
ATOM     51  O   UNL A   1      44.359  43.523  33.903  1.00  0.00    -0.237 OA
ATOM     52  O   UNL A   1      43.395  42.483  35.921  1.00  0.00    -0.744 OA
ENDBRANCH  48  49
ENDBRANCH  27  41
BRANCH  28  53
ATOM     53  C   UNL A   1      44.914  29.659  27.917  1.00  0.00     0.058 A 
ATOM     54  C   UNL A   1      44.146  29.416  26.769  1.00  0.00     0.135 A 
ATOM     55  C   UNL A   1      45.752  28.623  28.366  1.00  0.00     0.135 A 
ATOM     56  F   UNL A   1      43.323  30.367  26.300  1.00  0.00    -0.206 F 
ATOM     57  C   UNL A   1      44.201  28.198  26.097  1.00  0.00     0.059 A 
ATOM     58  C   UNL A   1      45.847  27.407  27.696  1.00  0.00     0.059 A 
ATOM     59  F   UNL A   1      46.517  28.800  29.455  1.00  0.00    -0.206 F 
ATOM     60  C   UNL A   1      45.059  27.201  26.565  1.00  0.00     0.060 A 
BRANCH  60  61
ATOM     61  S   UNL A   1      45.158  25.643  25.656  1.00  0.00     0.124 S 
ATOM     62  O   UNL A   1      46.138  25.965  24.625  1.00  0.00    -0.237 OA
ATOM     63  O   UNL A   1      45.601  24.714  26.690  1.00  0.00    -0.237 OA
ATOM     64  O   UNL A   1      43.791  25.440  25.184  1.00  0.00    -0.744 OA
ENDBRANCH  60  61
ENDBRANCH  28  53
BRANCH  40  65
ATOM     65  C   UNL A   1      48.616  35.584  27.556  1.00  0.00     0.058 A 
ATOM     66  C   UNL A   1      49.931  35.333  27.969  1.00  0.00     0.135 A 
ATOM     67  C   UNL A   1      48.415  36.156  26.289  1.00  0.00     0.135 A 
ATOM     68  F   UNL A   1      50.172  34.795  29.175  1.00  0.00    -0.206 F 
ATOM     69  C   UNL A   1      51.014  35.659  27.162  1.00  0.00     0.059 A 
ATOM     70  C   UNL A   1      49.481  36.455  25.452  1.00  0.00     0.059 A 
ATOM     71  F   UNL A   1      47.172  36.401  25.845  1.00  0.00    -0.206 F 
ATOM     72  C   UNL A   1      50.777  36.213  25.903  1.00  0.00     0.060 A 
BRANCH  72  73
ATOM     73  S   UNL A   1      52.190  36.584  24.846  1.00  0.00     0.124 S 
ATOM     74  O   UNL A   1      53.159  35.589  25.293  1.00  0.00    -0.237 OA
ATOM     75  O   UNL A   1      51.640  36.380  23.510  1.00  0.00    -0.237 OA
ATOM     76  O   UNL A   1      52.512  37.969  25.181  1.00  0.00    -0.744 OA
ENDBRANCH  72  73
ENDBRANCH  40  65
ENDBRANCH  14  15
ENDBRANCH   7   9
ENDBRANCH   6   7
ENDBRANCH   5   6
ENDBRANCH   4   5
ENDBRANCH   3   4
ENDBRANCH   2   3
ENDBRANCH   1   2
BRANCH   1  77
ATOM     77  O   UNL A   1      32.171  36.570  31.359  1.00  0.00    -0.377 OA
BRANCH  77  78
ATOM     78  C   UNL A   1      33.040  36.836  30.263  1.00  0.00     0.188 C 
BRANCH  78  79
ATOM     79  C   UNL A   1      33.345  35.723  29.234  1.00  0.00     0.188 C 
BRANCH  79  80
ATOM     80  O   UNL A   1      33.245  34.406  29.742  1.00  0.00    -0.376 OA
BRANCH  80  81
ATOM     81  C   UNL A   1      34.488  33.844  30.154  1.00  0.00     0.202 C 
BRANCH  81  82
ATOM     82  C   UNL A   1      34.783  32.429  29.611  1.00  0.00     0.261 C 
BRANCH  82  83
ATOM     83  O   UNL A   1      35.861  31.704  30.276  1.00  0.00    -0.463 OA
BRANCH  83  84
ATOM     84  C   UNL A   1      37.045  31.599  29.639  1.00  0.00     0.311 C 
ATOM     85  O   UNL A   1      37.387  32.360  28.740  1.00  0.00    -0.252 OA
BRANCH  84  86
ATOM     86  C   UNL A   1      37.999  30.538  30.185  1.00  0.00     0.128 C 
ATOM     87  C   UNL A   1      37.259  29.485  31.020  1.00  0.00     0.117 C 
ATOM     88  C   UNL A   1      38.935  29.689  29.321  1.00  0.00     0.135 C 
ATOM     89  C   UNL A   1      38.296  28.421  31.210  1.00  0.00     0.223 C 
ATOM     90  N   UNL A   1      39.228  28.552  30.194  1.00  0.00    -0.337 N 
ATOM     91  O   UNL A   1      38.285  27.577  32.098  1.00  0.00    -0.275 OA
BRANCH  90  92
ATOM     92  C   UNL A   1      40.451  27.765  30.172  1.00  0.00     0.155 C 
BRANCH  92  93
ATOM     93  C   UNL A   1      40.540  26.671  29.132  1.00  0.00    -0.026 A 
ATOM     94  C   UNL A   1      41.786  26.169  28.741  1.00  0.00     0.006 A 
ATOM     95  C   UNL A   1      39.365  26.062  28.643  1.00  0.00     0.032 A 
ATOM     96  C   UNL A   1      41.892  25.054  27.898  1.00  0.00     0.010 A 
ATOM     97  C   UNL A   1      39.489  24.933  27.815  1.00  0.00     0.046 A 
ATOM     98  C   UNL A   1      40.727  24.414  27.438  1.00  0.00    -0.001 A 
ATOM     99  N   UNL A   1      38.525  24.129  27.243  1.00  0.00    -0.361 N 
ATOM    100  C   UNL A   1      40.477  23.273  26.626  1.00  0.00     0.028 A 
ATOM    101  C   UNL A   1      39.112  23.117  26.528  1.00  0.00     0.083 A 
ATOM    102  H   UNL A   1      37.554  24.263  27.335  1.00  0.00     0.166 HD
ENDBRANCH  92  93
ENDBRANCH  90  92
ENDBRANCH  84  86
ENDBRANCH  83  84
ENDBRANCH  82  83
ENDBRANCH  81  82
ENDBRANCH  80  81
ENDBRANCH  79  80
ENDBRANCH  78  79
ENDBRANCH  77  78
ENDBRANCH   1  77
TORSDOF 25
ENDMDL
