MODEL 1
REMARK VINA RESULT:      -9.9      0.000      0.000
REMARK SMILES [NH3+][C@H]1C=C[C@@H](C(=O)N2CCC(CC(=O)OCCOCCOCCOCCOC(=O)c3ccc(-c4c5nc(c(-c6c(F)cc(S(=O)(=O)[O-])cc6F)c6ccc([nH]6)c(-c6c(F)cc(S(=O)(=O)[O-])cc6F)c6nc(c(-c7c(F)cc(S(=O)(=O)[O-])cc7F)c7ccc4[nH]7)C=C6)C=C5)cc3)CC2)C1
REMARK SMILES IDX 21 1 20 2 19 3 18 4 17 5 16 6 15 7 13 8 14 9 12 10 11 11
REMARK SMILES IDX 6 12 7 13 8 14 9 15 97 16 10 17 96 18 5 19 2 20 3 21 98 22
REMARK SMILES IDX 4 23 1 24 22 28 23 29 24 30 25 31 26 32 27 33 28 34 29 35
REMARK SMILES IDX 30 36 31 37 95 38 32 39 94 40 33 41 34 42 35 43 88 44 36 45
REMARK SMILES IDX 93 46 87 47 89 48 37 49 92 50 86 51 85 52 38 54 72 55 51 56
REMARK SMILES IDX 71 57 52 58 55 59 70 60 90 61 53 62 54 63 69 65 91 66 56 67
REMARK SMILES IDX 39 68 40 69 49 70 41 71 42 72 48 73 50 74 43 75 44 76 45 77
REMARK SMILES IDX 46 78 47 79 73 80 74 81 83 82 75 83 76 84 82 85 84 86 77 87
REMARK SMILES IDX 78 88 79 89 80 90 81 91 57 92 58 93 67 94 59 95 60 96 66 97
REMARK SMILES IDX 68 98 61 99 62 100 63 101 64 102 65 103
REMARK H PARENT 1 25 1 26 1 27 89 53 55 64
REMARK Flexibility Score: inf
ROOT
ATOM      1  O   UNL A   1      33.025  33.123  27.634  1.00  0.00    -0.377 OA
ENDROOT
BRANCH   1   2
ATOM      2  C   UNL A   1      33.959  32.074  27.814  1.00  0.00     0.188 C 
BRANCH   2   3
ATOM      3  C   UNL A   1      33.540  30.644  27.450  1.00  0.00     0.188 C 
BRANCH   3   4
ATOM      4  O   UNL A   1      33.171  30.404  26.114  1.00  0.00    -0.376 OA
BRANCH   4   5
ATOM      5  C   UNL A   1      32.082  29.550  25.794  1.00  0.00     0.202 C 
BRANCH   5   6
ATOM      6  C   UNL A   1      31.032  29.798  24.694  1.00  0.00     0.261 C 
BRANCH   6   7
ATOM      7  O   UNL A   1      31.252  29.209  23.404  1.00  0.00    -0.463 OA
BRANCH   7   8
ATOM      8  C   UNL A   1      30.165  28.658  22.820  1.00  0.00     0.306 C 
ATOM      9  O   UNL A   1      29.716  29.005  21.729  1.00  0.00    -0.252 OA
BRANCH   8  10
ATOM     10  C   UNL A   1      29.535  27.502  23.570  1.00  0.00     0.126 C 
BRANCH  10  11
ATOM     11  C   UNL A   1      30.267  26.177  23.808  1.00  0.00     0.003 C 
ATOM     12  C   UNL A   1      33.618  24.802  25.472  1.00  0.00     0.229 C 
ATOM     13  O   UNL A   1      34.281  25.771  25.091  1.00  0.00    -0.274 OA
ATOM     14  N   UNL A   1      32.388  24.513  24.901  1.00  0.00    -0.342 N 
ATOM     15  C   UNL A   1      32.256  24.690  23.457  1.00  0.00     0.120 C 
ATOM     16  C   UNL A   1      31.145  24.649  25.643  1.00  0.00     0.120 C 
ATOM     17  C   UNL A   1      31.617  26.037  23.098  1.00  0.00     0.026 C 
ATOM     18  C   UNL A   1      30.462  25.980  25.325  1.00  0.00     0.026 C 
BRANCH  12  19
ATOM     19  C   UNL A   1      34.248  23.781  26.440  1.00  0.00     0.107 C 
ATOM     20  C   UNL A   1      34.088  21.444  27.186  1.00  0.00     0.205 C 
ATOM     21  C   UNL A   1      35.126  21.616  26.135  1.00  0.00     0.033 C 
ATOM     22  C   UNL A   1      33.354  22.797  27.197  1.00  0.00     0.087 C 
ATOM     23  C   UNL A   1      35.223  22.885  25.729  1.00  0.00    -0.012 C 
BRANCH  20  24
ATOM     24  N   UNL A   1      33.209  20.331  26.868  1.00  0.00    -0.352 N 
ATOM     25  H   UNL A   1      33.703  19.665  26.275  1.00  0.00     0.345 HD
ATOM     26  H   UNL A   1      32.385  20.677  26.377  1.00  0.00     0.345 HD
ATOM     27  H   UNL A   1      32.919  19.869  27.731  1.00  0.00     0.345 HD
ENDBRANCH  20  24
ENDBRANCH  12  19
ENDBRANCH  10  11
ENDBRANCH   8  10
ENDBRANCH   7   8
ENDBRANCH   6   7
ENDBRANCH   5   6
ENDBRANCH   4   5
ENDBRANCH   3   4
ENDBRANCH   2   3
ENDBRANCH   1   2
BRANCH   1  28
ATOM     28  C   UNL A   1      33.099  34.299  28.437  1.00  0.00     0.188 C 
BRANCH  28  29
ATOM     29  C   UNL A   1      34.229  34.490  29.469  1.00  0.00     0.188 C 
BRANCH  29  30
ATOM     30  O   UNL A   1      33.997  33.884  30.729  1.00  0.00    -0.376 OA
BRANCH  30  31
ATOM     31  C   UNL A   1      35.065  33.850  31.663  1.00  0.00     0.202 C 
BRANCH  31  32
ATOM     32  C   UNL A   1      36.461  33.475  31.142  1.00  0.00     0.261 C 
BRANCH  32  33
ATOM     33  O   UNL A   1      36.558  32.248  30.399  1.00  0.00    -0.460 OA
BRANCH  33  34
ATOM     34  C   UNL A   1      36.736  31.096  31.085  1.00  0.00     0.338 C 
ATOM     35  O   UNL A   1      35.969  30.580  31.868  1.00  0.00    -0.246 OA
BRANCH  34  36
ATOM     36  C   UNL A   1      37.969  30.466  30.564  1.00  0.00     0.060 A 
ATOM     37  C   UNL A   1      38.858  29.857  31.460  1.00  0.00     0.016 A 
ATOM     38  C   UNL A   1      38.236  30.474  29.195  1.00  0.00     0.016 A 
ATOM     39  C   UNL A   1      40.033  29.270  30.985  1.00  0.00     0.010 A 
ATOM     40  C   UNL A   1      39.422  29.906  28.725  1.00  0.00     0.010 A 
ATOM     41  C   UNL A   1      40.338  29.322  29.619  1.00  0.00    -0.014 A 
BRANCH  41  42
ATOM     42  C   UNL A   1      41.682  28.921  29.135  1.00  0.00     0.031 A 
ATOM     43  C   UNL A   1      42.742  29.981  29.009  1.00  0.00     0.074 A 
ATOM     44  C   UNL A   1      41.952  27.648  28.795  1.00  0.00     0.049 A 
ATOM     45  N   UNL A   1      43.946  29.896  28.507  1.00  0.00    -0.248 NA
ATOM     46  C   UNL A   1      42.391  31.319  29.514  1.00  0.00     0.031 C 
ATOM     47  C   UNL A   1      41.022  26.526  28.914  1.00  0.00     0.029 A 
ATOM     48  N   UNL A   1      43.086  27.090  28.258  1.00  0.00    -0.354 N 
ATOM     49  C   UNL A   1      44.491  31.169  28.620  1.00  0.00     0.074 A 
ATOM     50  C   UNL A   1      43.479  32.013  29.217  1.00  0.00     0.031 C 
ATOM     51  C   UNL A   1      41.616  25.417  28.438  1.00  0.00     0.029 A 
ATOM     52  C   UNL A   1      42.950  25.759  27.943  1.00  0.00     0.049 A 
ATOM     53  H   UNL A   1      43.918  27.596  28.114  1.00  0.00     0.167 HD
ATOM     54  C   UNL A   1      45.726  31.594  28.260  1.00  0.00     0.037 A 
ATOM     55  C   UNL A   1      43.788  24.925  27.295  1.00  0.00     0.037 A 
ATOM     56  C   UNL A   1      46.724  30.747  27.661  1.00  0.00     0.049 A 
ATOM     57  C   UNL A   1      45.128  25.439  26.829  1.00  0.00     0.074 A 
ATOM     58  C   UNL A   1      48.013  31.075  27.281  1.00  0.00     0.029 A 
ATOM     59  N   UNL A   1      46.541  29.410  27.339  1.00  0.00    -0.354 N 
ATOM     60  N   UNL A   1      45.647  26.637  26.968  1.00  0.00    -0.248 NA
ATOM     61  C   UNL A   1      45.997  24.491  26.115  1.00  0.00     0.031 C 
ATOM     62  C   UNL A   1      48.586  29.956  26.671  1.00  0.00     0.029 A 
ATOM     63  C   UNL A   1      47.681  28.909  26.733  1.00  0.00     0.049 A 
ATOM     64  H   UNL A   1      45.721  28.893  27.516  1.00  0.00     0.167 HD
ATOM     65  C   UNL A   1      46.910  26.577  26.385  1.00  0.00     0.074 A 
ATOM     66  C   UNL A   1      47.082  25.223  25.903  1.00  0.00     0.031 C 
ATOM     67  C   UNL A   1      47.843  27.554  26.262  1.00  0.00     0.037 A 
BRANCH  54  68
ATOM     68  C   UNL A   1      46.053  33.049  28.469  1.00  0.00     0.058 A 
ATOM     69  C   UNL A   1      45.786  34.020  27.491  1.00  0.00     0.135 A 
ATOM     70  C   UNL A   1      46.616  33.480  29.681  1.00  0.00     0.135 A 
ATOM     71  F   UNL A   1      45.265  33.662  26.306  1.00  0.00    -0.206 F 
ATOM     72  C   UNL A   1      46.091  35.362  27.696  1.00  0.00     0.059 A 
ATOM     73  C   UNL A   1      46.899  34.821  29.920  1.00  0.00     0.059 A 
ATOM     74  F   UNL A   1      46.895  32.594  30.650  1.00  0.00    -0.206 F 
ATOM     75  C   UNL A   1      46.646  35.753  28.915  1.00  0.00     0.060 A 
BRANCH  75  76
ATOM     76  S   UNL A   1      47.034  37.497  29.165  1.00  0.00     0.124 S 
ATOM     77  O   UNL A   1      45.846  37.960  29.878  1.00  0.00    -0.237 OA
ATOM     78  O   UNL A   1      48.260  37.433  29.953  1.00  0.00    -0.237 OA
ATOM     79  O   UNL A   1      47.188  38.012  27.808  1.00  0.00    -0.744 OA
ENDBRANCH  75  76
ENDBRANCH  54  68
BRANCH  55  80
ATOM     80  C   UNL A   1      43.376  23.520  27.022  1.00  0.00     0.058 A 
ATOM     81  C   UNL A   1      43.465  22.530  28.012  1.00  0.00     0.135 A 
ATOM     82  C   UNL A   1      42.885  23.139  25.763  1.00  0.00     0.135 A 
ATOM     83  F   UNL A   1      43.943  22.838  29.227  1.00  0.00    -0.206 F 
ATOM     84  C   UNL A   1      43.092  21.213  27.762  1.00  0.00     0.059 A 
ATOM     85  C   UNL A   1      42.478  21.835  25.496  1.00  0.00     0.059 A 
ATOM     86  F   UNL A   1      42.776  24.047  24.780  1.00  0.00    -0.206 F 
ATOM     87  C   UNL A   1      42.594  20.876  26.502  1.00  0.00     0.060 A 
BRANCH  87  88
ATOM     88  S   UNL A   1      42.060  19.175  26.212  1.00  0.00     0.124 S 
ATOM     89  O   UNL A   1      40.680  19.368  25.783  1.00  0.00    -0.237 OA
ATOM     90  O   UNL A   1      42.994  18.736  25.180  1.00  0.00    -0.237 OA
ATOM     91  O   UNL A   1      42.234  18.541  27.516  1.00  0.00    -0.744 OA
ENDBRANCH  87  88
ENDBRANCH  55  80
BRANCH  67  92
ATOM     92  C   UNL A   1      49.155  27.198  25.613  1.00  0.00     0.058 A 
ATOM     93  C   UNL A   1      49.347  27.296  24.227  1.00  0.00     0.135 A 
ATOM     94  C   UNL A   1      50.260  26.833  26.401  1.00  0.00     0.135 A 
ATOM     95  F   UNL A   1      48.325  27.634  23.425  1.00  0.00    -0.206 F 
ATOM     96  C   UNL A   1      50.582  27.032  23.642  1.00  0.00     0.059 A 
ATOM     97  C   UNL A   1      51.512  26.595  25.843  1.00  0.00     0.059 A 
ATOM     98  F   UNL A   1      50.136  26.733  27.734  1.00  0.00    -0.206 F 
ATOM     99  C   UNL A   1      51.662  26.691  24.460  1.00  0.00     0.060 A 
BRANCH  99 100
ATOM    100  S   UNL A   1      53.272  26.407  23.693  1.00  0.00     0.124 S 
ATOM    101  O   UNL A   1      53.953  27.670  23.960  1.00  0.00    -0.237 OA
ATOM    102  O   UNL A   1      53.768  25.251  24.432  1.00  0.00    -0.237 OA
ATOM    103  O   UNL A   1      52.943  26.156  22.293  1.00  0.00    -0.744 OA
ENDBRANCH  99 100
ENDBRANCH  67  92
ENDBRANCH  41  42
ENDBRANCH  34  36
ENDBRANCH  33  34
ENDBRANCH  32  33
ENDBRANCH  31  32
ENDBRANCH  30  31
ENDBRANCH  29  30
ENDBRANCH  28  29
ENDBRANCH   1  28
TORSDOF 26
ENDMDL
MODEL 2
REMARK VINA RESULT:      -9.9      1.156      8.040
REMARK SMILES [NH3+][C@H]1C=C[C@@H](C(=O)N2CCC(CC(=O)OCCOCCOCCOCCOC(=O)c3ccc(-c4c5nc(c(-c6c(F)cc(S(=O)(=O)[O-])cc6F)c6ccc([nH]6)c(-c6c(F)cc(S(=O)(=O)[O-])cc6F)c6nc(c(-c7c(F)cc(S(=O)(=O)[O-])cc7F)c7ccc4[nH]7)C=C6)C=C5)cc3)CC2)C1
REMARK SMILES IDX 21 1 20 2 19 3 18 4 17 5 16 6 15 7 13 8 14 9 12 10 11 11
REMARK SMILES IDX 6 12 7 13 8 14 9 15 97 16 10 17 96 18 5 19 2 20 3 21 98 22
REMARK SMILES IDX 4 23 1 24 22 28 23 29 24 30 25 31 26 32 27 33 28 34 29 35
REMARK SMILES IDX 30 36 31 37 95 38 32 39 94 40 33 41 34 42 35 43 88 44 36 45
REMARK SMILES IDX 93 46 87 47 89 48 37 49 92 50 86 51 85 52 38 54 72 55 51 56
REMARK SMILES IDX 71 57 52 58 55 59 70 60 90 61 53 62 54 63 69 65 91 66 56 67
REMARK SMILES IDX 39 68 40 69 49 70 41 71 42 72 48 73 50 74 43 75 44 76 45 77
REMARK SMILES IDX 46 78 47 79 73 80 74 81 83 82 75 83 76 84 82 85 84 86 77 87
REMARK SMILES IDX 78 88 79 89 80 90 81 91 57 92 58 93 67 94 59 95 60 96 66 97
REMARK SMILES IDX 68 98 61 99 62 100 63 101 64 102 65 103
REMARK H PARENT 1 25 1 26 1 27 89 53 55 64
REMARK Flexibility Score: inf
ROOT
ATOM      1  O   UNL A   1      35.345  29.955  28.334  1.00  0.00    -0.377 OA
ENDROOT
BRANCH   1   2
ATOM      2  C   UNL A   1      34.511  29.098  27.575  1.00  0.00     0.188 C 
BRANCH   2   3
ATOM      3  C   UNL A   1      34.108  29.524  26.159  1.00  0.00     0.188 C 
BRANCH   3   4
ATOM      4  O   UNL A   1      33.042  30.435  26.041  1.00  0.00    -0.376 OA
BRANCH   4   5
ATOM      5  C   UNL A   1      31.736  29.998  25.697  1.00  0.00     0.202 C 
BRANCH   5   6
ATOM      6  C   UNL A   1      31.315  29.383  24.347  1.00  0.00     0.261 C 
BRANCH   6   7
ATOM      7  O   UNL A   1      29.916  29.348  24.029  1.00  0.00    -0.463 OA
BRANCH   7   8
ATOM      8  C   UNL A   1      29.562  28.491  23.044  1.00  0.00     0.306 C 
ATOM      9  O   UNL A   1      29.778  28.686  21.849  1.00  0.00    -0.252 OA
BRANCH   8  10
ATOM     10  C   UNL A   1      28.918  27.199  23.502  1.00  0.00     0.126 C 
BRANCH  10  11
ATOM     11  C   UNL A   1      29.733  25.944  23.834  1.00  0.00     0.003 C 
ATOM     12  C   UNL A   1      33.406  24.913  24.991  1.00  0.00     0.229 C 
ATOM     13  O   UNL A   1      33.938  25.784  24.299  1.00  0.00    -0.274 OA
ATOM     14  N   UNL A   1      32.095  24.521  24.759  1.00  0.00    -0.342 N 
ATOM     15  C   UNL A   1      31.662  24.410  23.367  1.00  0.00     0.120 C 
ATOM     16  C   UNL A   1      31.029  24.806  25.703  1.00  0.00     0.120 C 
ATOM     17  C   UNL A   1      30.912  25.661  22.896  1.00  0.00     0.026 C 
ATOM     18  C   UNL A   1      30.245  26.051  25.284  1.00  0.00     0.026 C 
BRANCH  12  19
ATOM     19  C   UNL A   1      34.260  24.101  25.985  1.00  0.00     0.107 C 
ATOM     20  C   UNL A   1      35.247  21.879  26.348  1.00  0.00     0.205 C 
ATOM     21  C   UNL A   1      36.222  22.820  25.736  1.00  0.00     0.033 C 
ATOM     22  C   UNL A   1      33.911  22.640  26.273  1.00  0.00     0.087 C 
ATOM     23  C   UNL A   1      35.694  24.033  25.542  1.00  0.00    -0.012 C 
BRANCH  20  24
ATOM     24  N   UNL A   1      35.217  20.620  25.622  1.00  0.00    -0.352 N 
ATOM     25  H   UNL A   1      35.695  20.730  24.728  1.00  0.00     0.345 HD
ATOM     26  H   UNL A   1      34.249  20.344  25.459  1.00  0.00     0.345 HD
ATOM     27  H   UNL A   1      35.686  19.899  26.171  1.00  0.00     0.345 HD
ENDBRANCH  20  24
ENDBRANCH  12  19
ENDBRANCH  10  11
ENDBRANCH   8  10
ENDBRANCH   7   8
ENDBRANCH   6   7
ENDBRANCH   5   6
ENDBRANCH   4   5
ENDBRANCH   3   4
ENDBRANCH   2   3
ENDBRANCH   1   2
BRANCH   1  28
ATOM     28  C   UNL A   1      35.606  31.284  27.890  1.00  0.00     0.188 C 
BRANCH  28  29
ATOM     29  C   UNL A   1      35.242  32.502  28.762  1.00  0.00     0.188 C 
BRANCH  29  30
ATOM     30  O   UNL A   1      34.515  32.199  29.940  1.00  0.00    -0.376 OA
BRANCH  30  31
ATOM     31  C   UNL A   1      34.872  32.869  31.140  1.00  0.00     0.202 C 
BRANCH  31  32
ATOM     32  C   UNL A   1      35.677  32.083  32.186  1.00  0.00     0.261 C 
BRANCH  32  33
ATOM     33  O   UNL A   1      36.986  31.643  31.786  1.00  0.00    -0.460 OA
BRANCH  33  34
ATOM     34  C   UNL A   1      37.153  30.339  31.466  1.00  0.00     0.338 C 
ATOM     35  O   UNL A   1      36.324  29.457  31.513  1.00  0.00    -0.246 OA
BRANCH  34  36
ATOM     36  C   UNL A   1      38.496  30.209  30.860  1.00  0.00     0.060 A 
ATOM     37  C   UNL A   1      38.650  30.415  29.483  1.00  0.00     0.016 A 
ATOM     38  C   UNL A   1      39.596  29.891  31.657  1.00  0.00     0.016 A 
ATOM     39  C   UNL A   1      39.910  30.283  28.895  1.00  0.00     0.010 A 
ATOM     40  C   UNL A   1      40.851  29.738  31.064  1.00  0.00     0.010 A 
ATOM     41  C   UNL A   1      41.010  29.909  29.676  1.00  0.00    -0.014 A 
BRANCH  41  42
ATOM     42  C   UNL A   1      42.293  29.532  29.033  1.00  0.00     0.031 A 
ATOM     43  C   UNL A   1      42.462  28.118  28.548  1.00  0.00     0.074 A 
ATOM     44  C   UNL A   1      43.296  30.419  28.898  1.00  0.00     0.049 A 
ATOM     45  N   UNL A   1      43.521  27.528  28.061  1.00  0.00    -0.248 NA
ATOM     46  C   UNL A   1      41.273  27.254  28.630  1.00  0.00     0.031 C 
ATOM     47  C   UNL A   1      43.237  31.826  29.290  1.00  0.00     0.029 A 
ATOM     48  N   UNL A   1      44.570  30.257  28.414  1.00  0.00    -0.354 N 
ATOM     49  C   UNL A   1      43.134  26.220  27.793  1.00  0.00     0.074 A 
ATOM     50  C   UNL A   1      41.749  26.098  28.193  1.00  0.00     0.031 C 
ATOM     51  C   UNL A   1      44.433  32.394  29.052  1.00  0.00     0.029 A 
ATOM     52  C   UNL A   1      45.352  31.381  28.534  1.00  0.00     0.049 A 
ATOM     53  H   UNL A   1      44.892  29.415  28.018  1.00  0.00     0.167 HD
ATOM     54  C   UNL A   1      43.868  25.214  27.260  1.00  0.00     0.037 A 
ATOM     55  C   UNL A   1      46.667  31.560  28.291  1.00  0.00     0.037 A 
ATOM     56  C   UNL A   1      45.247  25.345  26.870  1.00  0.00     0.049 A 
ATOM     57  C   UNL A   1      47.487  30.404  27.774  1.00  0.00     0.074 A 
ATOM     58  C   UNL A   1      46.072  24.393  26.299  1.00  0.00     0.029 A 
ATOM     59  N   UNL A   1      46.011  26.493  27.027  1.00  0.00    -0.354 N 
ATOM     60  N   UNL A   1      47.104  29.179  27.495  1.00  0.00    -0.248 NA
ATOM     61  C   UNL A   1      48.918  30.650  27.540  1.00  0.00     0.031 C 
ATOM     62  C   UNL A   1      47.350  24.944  26.170  1.00  0.00     0.029 A 
ATOM     63  C   UNL A   1      47.306  26.263  26.596  1.00  0.00     0.049 A 
ATOM     64  H   UNL A   1      45.680  27.347  27.390  1.00  0.00     0.167 HD
ATOM     65  C   UNL A   1      48.238  28.521  27.028  1.00  0.00     0.074 A 
ATOM     66  C   UNL A   1      49.319  29.484  27.051  1.00  0.00     0.031 C 
ATOM     67  C   UNL A   1      48.373  27.235  26.617  1.00  0.00     0.037 A 
BRANCH  54  68
ATOM     68  C   UNL A   1      43.203  23.873  27.103  1.00  0.00     0.058 A 
ATOM     69  C   UNL A   1      43.122  22.953  28.160  1.00  0.00     0.135 A 
ATOM     70  C   UNL A   1      42.613  23.515  25.879  1.00  0.00     0.135 A 
ATOM     71  F   UNL A   1      43.685  23.234  29.346  1.00  0.00    -0.206 F 
ATOM     72  C   UNL A   1      42.504  21.716  28.002  1.00  0.00     0.059 A 
ATOM     73  C   UNL A   1      41.962  22.298  25.709  1.00  0.00     0.059 A 
ATOM     74  F   UNL A   1      42.663  24.355  24.833  1.00  0.00    -0.206 F 
ATOM     75  C   UNL A   1      41.925  21.398  26.773  1.00  0.00     0.060 A 
BRANCH  75  76
ATOM     76  S   UNL A   1      41.126  19.791  26.587  1.00  0.00     0.124 S 
ATOM     77  O   UNL A   1      39.875  20.162  25.932  1.00  0.00    -0.237 OA
ATOM     78  O   UNL A   1      42.082  19.064  25.759  1.00  0.00    -0.237 OA
ATOM     79  O   UNL A   1      40.996  19.313  27.959  1.00  0.00    -0.744 OA
ENDBRANCH  75  76
ENDBRANCH  54  68
BRANCH  55  80
ATOM     80  C   UNL A   1      47.301  32.880  28.561  1.00  0.00     0.058 A 
ATOM     81  C   UNL A   1      47.815  33.196  29.827  1.00  0.00     0.135 A 
ATOM     82  C   UNL A   1      47.402  33.856  27.556  1.00  0.00     0.135 A 
ATOM     83  F   UNL A   1      47.728  32.305  30.826  1.00  0.00    -0.206 F 
ATOM     84  C   UNL A   1      48.399  34.431  30.091  1.00  0.00     0.059 A 
ATOM     85  C   UNL A   1      48.008  35.088  27.786  1.00  0.00     0.059 A 
ATOM     86  F   UNL A   1      46.929  33.605  26.325  1.00  0.00    -0.206 F 
ATOM     87  C   UNL A   1      48.496  35.369  29.061  1.00  0.00     0.060 A 
BRANCH  87  88
ATOM     88  S   UNL A   1      49.308  36.946  29.404  1.00  0.00     0.124 S 
ATOM     89  O   UNL A   1      48.171  37.855  29.469  1.00  0.00    -0.237 OA
ATOM     90  O   UNL A   1      49.979  36.671  30.671  1.00  0.00    -0.237 OA
ATOM     91  O   UNL A   1      50.196  37.123  28.258  1.00  0.00    -0.744 OA
ENDBRANCH  87  88
ENDBRANCH  55  80
BRANCH  67  92
ATOM     92  C   UNL A   1      49.724  26.791  26.119  1.00  0.00     0.058 A 
ATOM     93  C   UNL A   1      50.145  27.031  24.802  1.00  0.00     0.135 A 
ATOM     94  C   UNL A   1      50.642  26.191  26.998  1.00  0.00     0.135 A 
ATOM     95  F   UNL A   1      49.307  27.594  23.917  1.00  0.00    -0.206 F 
ATOM     96  C   UNL A   1      51.420  26.680  24.370  1.00  0.00     0.059 A 
ATOM     97  C   UNL A   1      51.932  25.861  26.598  1.00  0.00     0.059 A 
ATOM     98  F   UNL A   1      50.296  25.947  28.273  1.00  0.00    -0.206 F 
ATOM     99  C   UNL A   1      52.311  26.104  25.279  1.00  0.00     0.060 A 
BRANCH  99 100
ATOM    100  S   UNL A   1      53.981  25.706  24.719  1.00  0.00     0.124 S 
ATOM    101  O   UNL A   1      54.011  24.256  24.882  1.00  0.00    -0.237 OA
ATOM    102  O   UNL A   1      53.969  26.189  23.342  1.00  0.00    -0.237 OA
ATOM    103  O   UNL A   1      54.835  26.458  25.634  1.00  0.00    -0.744 OA
ENDBRANCH  99 100
ENDBRANCH  67  92
ENDBRANCH  41  42
ENDBRANCH  34  36
ENDBRANCH  33  34
ENDBRANCH  32  33
ENDBRANCH  31  32
ENDBRANCH  30  31
ENDBRANCH  29  30
ENDBRANCH  28  29
ENDBRANCH   1  28
TORSDOF 26
ENDMDL
MODEL 3
REMARK VINA RESULT:      -9.6      1.567      8.086
REMARK SMILES [NH3+][C@H]1C=C[C@@H](C(=O)N2CCC(CC(=O)OCCOCCOCCOCCOC(=O)c3ccc(-c4c5nc(c(-c6c(F)cc(S(=O)(=O)[O-])cc6F)c6ccc([nH]6)c(-c6c(F)cc(S(=O)(=O)[O-])cc6F)c6nc(c(-c7c(F)cc(S(=O)(=O)[O-])cc7F)c7ccc4[nH]7)C=C6)C=C5)cc3)CC2)C1
REMARK SMILES IDX 21 1 20 2 19 3 18 4 17 5 16 6 15 7 13 8 14 9 12 10 11 11
REMARK SMILES IDX 6 12 7 13 8 14 9 15 97 16 10 17 96 18 5 19 2 20 3 21 98 22
REMARK SMILES IDX 4 23 1 24 22 28 23 29 24 30 25 31 26 32 27 33 28 34 29 35
REMARK SMILES IDX 30 36 31 37 95 38 32 39 94 40 33 41 34 42 35 43 88 44 36 45
REMARK SMILES IDX 93 46 87 47 89 48 37 49 92 50 86 51 85 52 38 54 72 55 51 56
REMARK SMILES IDX 71 57 52 58 55 59 70 60 90 61 53 62 54 63 69 65 91 66 56 67
REMARK SMILES IDX 39 68 40 69 49 70 41 71 42 72 48 73 50 74 43 75 44 76 45 77
REMARK SMILES IDX 46 78 47 79 73 80 74 81 83 82 75 83 76 84 82 85 84 86 77 87
REMARK SMILES IDX 78 88 79 89 80 90 81 91 57 92 58 93 67 94 59 95 60 96 66 97
REMARK SMILES IDX 68 98 61 99 62 100 63 101 64 102 65 103
REMARK H PARENT 1 25 1 26 1 27 89 53 55 64
REMARK Flexibility Score: inf
ROOT
ATOM      1  O   UNL A   1      35.614  29.438  27.848  1.00  0.00    -0.377 OA
ENDROOT
BRANCH   1   2
ATOM      2  C   UNL A   1      34.424  29.159  27.134  1.00  0.00     0.188 C 
BRANCH   2   3
ATOM      3  C   UNL A   1      33.313  30.216  27.111  1.00  0.00     0.188 C 
BRANCH   3   4
ATOM      4  O   UNL A   1      31.986  29.752  27.043  1.00  0.00    -0.376 OA
BRANCH   4   5
ATOM      5  C   UNL A   1      31.544  28.944  25.963  1.00  0.00     0.202 C 
BRANCH   5   6
ATOM      6  C   UNL A   1      31.338  29.413  24.509  1.00  0.00     0.261 C 
BRANCH   6   7
ATOM      7  O   UNL A   1      30.007  29.389  23.973  1.00  0.00    -0.463 OA
BRANCH   7   8
ATOM      8  C   UNL A   1      29.772  28.446  23.033  1.00  0.00     0.306 C 
ATOM      9  O   UNL A   1      30.051  28.574  21.842  1.00  0.00    -0.252 OA
BRANCH   8  10
ATOM     10  C   UNL A   1      29.185  27.146  23.543  1.00  0.00     0.126 C 
BRANCH  10  11
ATOM     11  C   UNL A   1      30.035  25.891  23.771  1.00  0.00     0.003 C 
ATOM     12  C   UNL A   1      33.323  24.749  25.714  1.00  0.00     0.229 C 
ATOM     13  O   UNL A   1      33.907  25.810  25.482  1.00  0.00    -0.274 OA
ATOM     14  N   UNL A   1      32.203  24.378  24.985  1.00  0.00    -0.342 N 
ATOM     15  C   UNL A   1      32.209  24.660  23.551  1.00  0.00     0.120 C 
ATOM     16  C   UNL A   1      30.880  24.319  25.584  1.00  0.00     0.120 C 
ATOM     17  C   UNL A   1      31.462  25.955  23.215  1.00  0.00     0.026 C 
ATOM     18  C   UNL A   1      30.087  25.592  25.283  1.00  0.00     0.026 C 
BRANCH  12  19
ATOM     19  C   UNL A   1      33.958  23.723  26.675  1.00  0.00     0.107 C 
ATOM     20  C   UNL A   1      33.977  21.332  27.241  1.00  0.00     0.205 C 
ATOM     21  C   UNL A   1      35.091  21.688  26.324  1.00  0.00     0.033 C 
ATOM     22  C   UNL A   1      33.104  22.599  27.262  1.00  0.00     0.087 C 
ATOM     23  C   UNL A   1      35.091  22.988  26.016  1.00  0.00    -0.012 C 
BRANCH  20  24
ATOM     24  N   UNL A   1      33.259  20.164  26.756  1.00  0.00    -0.352 N 
ATOM     25  H   UNL A   1      32.790  20.391  25.880  1.00  0.00     0.345 HD
ATOM     26  H   UNL A   1      32.566  19.879  27.448  1.00  0.00     0.345 HD
ATOM     27  H   UNL A   1      33.917  19.400  26.601  1.00  0.00     0.345 HD
ENDBRANCH  20  24
ENDBRANCH  12  19
ENDBRANCH  10  11
ENDBRANCH   8  10
ENDBRANCH   7   8
ENDBRANCH   6   7
ENDBRANCH   5   6
ENDBRANCH   4   5
ENDBRANCH   3   4
ENDBRANCH   2   3
ENDBRANCH   1   2
BRANCH   1  28
ATOM     28  C   UNL A   1      36.232  30.719  27.747  1.00  0.00     0.188 C 
BRANCH  28  29
ATOM     29  C   UNL A   1      36.030  31.790  28.837  1.00  0.00     0.188 C 
BRANCH  29  30
ATOM     30  O   UNL A   1      35.314  31.354  29.980  1.00  0.00    -0.376 OA
BRANCH  30  31
ATOM     31  C   UNL A   1      35.092  32.284  31.028  1.00  0.00     0.202 C 
BRANCH  31  32
ATOM     32  C   UNL A   1      35.854  32.073  32.346  1.00  0.00     0.261 C 
BRANCH  32  33
ATOM     33  O   UNL A   1      37.221  31.645  32.233  1.00  0.00    -0.460 OA
BRANCH  33  34
ATOM     34  C   UNL A   1      37.472  30.318  32.141  1.00  0.00     0.338 C 
ATOM     35  O   UNL A   1      36.694  29.408  32.322  1.00  0.00    -0.246 OA
BRANCH  34  36
ATOM     36  C   UNL A   1      38.836  30.171  31.588  1.00  0.00     0.060 A 
ATOM     37  C   UNL A   1      39.108  30.645  30.298  1.00  0.00     0.016 A 
ATOM     38  C   UNL A   1      39.840  29.572  32.350  1.00  0.00     0.016 A 
ATOM     39  C   UNL A   1      40.388  30.502  29.758  1.00  0.00     0.010 A 
ATOM     40  C   UNL A   1      41.113  29.410  31.800  1.00  0.00     0.010 A 
ATOM     41  C   UNL A   1      41.388  29.851  30.493  1.00  0.00    -0.014 A 
BRANCH  41  42
ATOM     42  C   UNL A   1      42.671  29.479  29.847  1.00  0.00     0.031 A 
ATOM     43  C   UNL A   1      42.788  28.116  29.223  1.00  0.00     0.074 A 
ATOM     44  C   UNL A   1      43.717  30.324  29.832  1.00  0.00     0.049 A 
ATOM     45  N   UNL A   1      43.833  27.526  28.705  1.00  0.00    -0.248 NA
ATOM     46  C   UNL A   1      41.558  27.307  29.184  1.00  0.00     0.031 C 
ATOM     47  C   UNL A   1      43.712  31.685  30.365  1.00  0.00     0.029 A 
ATOM     48  N   UNL A   1      44.997  30.149  29.366  1.00  0.00    -0.354 N 
ATOM     49  C   UNL A   1      43.394  26.274  28.293  1.00  0.00     0.074 A 
ATOM     50  C   UNL A   1      41.993  26.180  28.642  1.00  0.00     0.031 C 
ATOM     51  C   UNL A   1      44.941  32.213  30.219  1.00  0.00     0.029 A 
ATOM     52  C   UNL A   1      45.827  31.215  29.622  1.00  0.00     0.049 A 
ATOM     53  H   UNL A   1      45.292  29.337  28.893  1.00  0.00     0.167 HD
ATOM     54  C   UNL A   1      44.095  25.292  27.677  1.00  0.00     0.037 A 
ATOM     55  C   UNL A   1      47.156  31.352  29.433  1.00  0.00     0.037 A 
ATOM     56  C   UNL A   1      45.490  25.394  27.339  1.00  0.00     0.049 A 
ATOM     57  C   UNL A   1      47.936  30.215  28.820  1.00  0.00     0.074 A 
ATOM     58  C   UNL A   1      46.287  24.465  26.694  1.00  0.00     0.029 A 
ATOM     59  N   UNL A   1      46.302  26.480  27.633  1.00  0.00    -0.354 N 
ATOM     60  N   UNL A   1      47.505  29.046  28.405  1.00  0.00    -0.248 NA
ATOM     61  C   UNL A   1      49.383  30.413  28.650  1.00  0.00     0.031 C 
ATOM     62  C   UNL A   1      47.593  24.963  26.655  1.00  0.00     0.029 A 
ATOM     63  C   UNL A   1      47.598  26.231  27.215  1.00  0.00     0.049 A 
ATOM     64  H   UNL A   1      46.000  27.308  28.075  1.00  0.00     0.167 HD
ATOM     65  C   UNL A   1      48.621  28.383  27.903  1.00  0.00     0.074 A 
ATOM     66  C   UNL A   1      49.744  29.285  28.053  1.00  0.00     0.031 C 
ATOM     67  C   UNL A   1      48.708  27.141  27.363  1.00  0.00     0.037 A 
BRANCH  54  68
ATOM     68  C   UNL A   1      43.374  24.009  27.364  1.00  0.00     0.058 A 
ATOM     69  C   UNL A   1      42.906  23.713  26.075  1.00  0.00     0.135 A 
ATOM     70  C   UNL A   1      43.175  23.046  28.368  1.00  0.00     0.135 A 
ATOM     71  F   UNL A   1      43.051  24.604  25.081  1.00  0.00    -0.206 F 
ATOM     72  C   UNL A   1      42.241  22.522  25.797  1.00  0.00     0.059 A 
ATOM     73  C   UNL A   1      42.542  21.835  28.106  1.00  0.00     0.059 A 
ATOM     74  F   UNL A   1      43.599  23.277  29.620  1.00  0.00    -0.206 F 
ATOM     75  C   UNL A   1      42.066  21.588  26.819  1.00  0.00     0.060 A 
BRANCH  75  76
ATOM     76  S   UNL A   1      41.205  20.049  26.441  1.00  0.00     0.124 S 
ATOM     77  O   UNL A   1      42.016  19.523  25.348  1.00  0.00    -0.237 OA
ATOM     78  O   UNL A   1      41.297  19.323  27.704  1.00  0.00    -0.237 OA
ATOM     79  O   UNL A   1      39.864  20.489  26.069  1.00  0.00    -0.744 OA
ENDBRANCH  75  76
ENDBRANCH  54  68
BRANCH  55  80
ATOM     80  C   UNL A   1      47.842  32.605  29.855  1.00  0.00     0.058 A 
ATOM     81  C   UNL A   1      48.350  32.755  31.154  1.00  0.00     0.135 A 
ATOM     82  C   UNL A   1      48.001  33.680  28.966  1.00  0.00     0.135 A 
ATOM     83  F   UNL A   1      48.208  31.764  32.047  1.00  0.00    -0.206 F 
ATOM     84  C   UNL A   1      48.982  33.925  31.559  1.00  0.00     0.059 A 
ATOM     85  C   UNL A   1      48.656  34.850  29.337  1.00  0.00     0.059 A 
ATOM     86  F   UNL A   1      47.537  33.588  27.709  1.00  0.00    -0.206 F 
ATOM     87  C   UNL A   1      49.137  34.967  30.641  1.00  0.00     0.060 A 
BRANCH  87  88
ATOM     88  S   UNL A   1      50.011  36.457  31.166  1.00  0.00     0.124 S 
ATOM     89  O   UNL A   1      51.124  36.492  30.225  1.00  0.00    -0.237 OA
ATOM     90  O   UNL A   1      48.991  37.485  30.987  1.00  0.00    -0.237 OA
ATOM     91  O   UNL A   1      50.365  36.169  32.553  1.00  0.00    -0.744 OA
ENDBRANCH  87  88
ENDBRANCH  55  80
BRANCH  67  92
ATOM     92  C   UNL A   1      50.051  26.685  26.858  1.00  0.00     0.058 A 
ATOM     93  C   UNL A   1      50.983  26.052  27.694  1.00  0.00     0.135 A 
ATOM     94  C   UNL A   1      50.376  26.808  25.496  1.00  0.00     0.135 A 
ATOM     95  F   UNL A   1      50.729  25.914  29.006  1.00  0.00    -0.206 F 
ATOM     96  C   UNL A   1      52.194  25.572  27.205  1.00  0.00     0.059 A 
ATOM     97  C   UNL A   1      51.565  26.307  24.977  1.00  0.00     0.059 A 
ATOM     98  F   UNL A   1      49.517  27.395  24.647  1.00  0.00    -0.206 F 
ATOM     99  C   UNL A   1      52.472  25.695  25.842  1.00  0.00     0.060 A 
BRANCH  99 100
ATOM    100  S   UNL A   1      54.022  25.015  25.210  1.00  0.00     0.124 S 
ATOM    101  O   UNL A   1      53.601  23.694  24.756  1.00  0.00    -0.237 OA
ATOM    102  O   UNL A   1      54.370  25.965  24.159  1.00  0.00    -0.237 OA
ATOM    103  O   UNL A   1      54.900  25.028  26.376  1.00  0.00    -0.744 OA
ENDBRANCH  99 100
ENDBRANCH  67  92
ENDBRANCH  41  42
ENDBRANCH  34  36
ENDBRANCH  33  34
ENDBRANCH  32  33
ENDBRANCH  31  32
ENDBRANCH  30  31
ENDBRANCH  29  30
ENDBRANCH  28  29
ENDBRANCH   1  28
TORSDOF 26
ENDMDL
