MODEL 1
REMARK VINA RESULT:      -7.8      0.000      0.000
REMARK SMILES O=C(CCc1nc(-c2ccccc2)c(-c2ccccc2)o1)OCCOCCOCCOCCOC(=O)c1ccc(-c2c3nc(c(-c4c(F)cc(S(=O)(=O)[O-])cc4F)c4ccc([nH]4)c(-c4c(F)cc(S(=O)(=O)[O-])cc4F)c4nc(c(-c5c(F)cc(S(=O)(=O)[O-])cc5F)c5ccc2[nH]5)C=C4)C=C3)cc1
REMARK SMILES IDX 28 1 27 2 26 3 25 4 24 5 23 6 22 7 2 8 1 9 3 10 4 11 5 12
REMARK SMILES IDX 6 13 21 14 7 15 14 16 8 17 9 18 13 19 10 20 12 21 11 22
REMARK SMILES IDX 15 23 16 24 20 25 17 26 19 27 18 28 29 29 30 30 31 31 32 32
REMARK SMILES IDX 33 33 34 34 35 35 36 36 37 37 38 38 102 39 39 40 101 41
REMARK SMILES IDX 40 42 41 43 42 44 95 45 43 46 100 47 94 48 96 49 44 50 99 51
REMARK SMILES IDX 93 52 92 53 45 55 79 56 58 57 78 58 59 59 62 60 77 61 97 62
REMARK SMILES IDX 60 63 61 64 76 66 98 67 63 68 46 69 47 70 56 71 48 72 49 73
REMARK SMILES IDX 55 74 57 75 50 76 51 77 52 78 53 79 54 80 80 81 81 82 90 83
REMARK SMILES IDX 82 84 83 85 89 86 91 87 84 88 85 89 86 90 87 91 88 92 64 93
REMARK SMILES IDX 65 94 74 95 66 96 67 97 73 98 75 99 68 100 69 101 70 102
REMARK SMILES IDX 71 103 72 104
REMARK H PARENT 96 54 62 65
REMARK Flexibility Score: inf
ROOT
ATOM      1  O   UNL A   1      34.322  37.049  32.320  1.00  0.00    -0.377 OA
ENDROOT
BRANCH   1   2
ATOM      2  C   UNL A   1      34.120  36.509  33.618  1.00  0.00     0.188 C 
BRANCH   2   3
ATOM      3  C   UNL A   1      34.791  35.143  33.818  1.00  0.00     0.188 C 
BRANCH   3   4
ATOM      4  O   UNL A   1      36.094  34.948  33.292  1.00  0.00    -0.376 OA
BRANCH   4   5
ATOM      5  C   UNL A   1      37.143  34.527  34.156  1.00  0.00     0.202 C 
BRANCH   5   6
ATOM      6  C   UNL A   1      37.110  33.121  34.752  1.00  0.00     0.261 C 
BRANCH   6   7
ATOM      7  O   UNL A   1      38.234  32.260  34.520  1.00  0.00    -0.463 OA
BRANCH   7   8
ATOM      8  C   UNL A   1      39.078  32.290  33.479  1.00  0.00     0.306 C 
ATOM      9  O   UNL A   1      38.757  32.900  32.458  1.00  0.00    -0.252 OA
BRANCH   8  10
ATOM     10  C   UNL A   1      40.353  31.495  33.512  1.00  0.00     0.132 C 
BRANCH  10  11
ATOM     11  C   UNL A   1      40.225  30.042  33.075  1.00  0.00     0.109 C 
BRANCH  11  12
ATOM     12  C   UNL A   1      41.509  29.300  32.928  1.00  0.00     0.196 A 
ATOM     13  N   UNL A   1      41.725  28.008  32.750  1.00  0.00    -0.213 NA
ATOM     14  O   UNL A   1      42.647  30.046  33.066  1.00  0.00    -0.440 OA
ATOM     15  C   UNL A   1      43.096  27.876  32.880  1.00  0.00     0.117 A 
ATOM     16  C   UNL A   1      43.663  29.130  33.013  1.00  0.00     0.162 A 
BRANCH  15  17
ATOM     17  C   UNL A   1      43.814  26.615  32.980  1.00  0.00     0.004 A 
ATOM     18  C   UNL A   1      44.224  26.124  34.234  1.00  0.00     0.010 A 
ATOM     19  C   UNL A   1      44.145  25.885  31.835  1.00  0.00     0.010 A 
ATOM     20  C   UNL A   1      45.002  24.967  34.336  1.00  0.00     0.001 A 
ATOM     21  C   UNL A   1      44.927  24.727  31.938  1.00  0.00     0.001 A 
ATOM     22  C   UNL A   1      45.366  24.278  33.184  1.00  0.00     0.000 A 
ENDBRANCH  15  17
BRANCH  16  23
ATOM     23  C   UNL A   1      45.007  29.641  33.176  1.00  0.00     0.020 A 
ATOM     24  C   UNL A   1      45.224  30.941  33.653  1.00  0.00     0.012 A 
ATOM     25  C   UNL A   1      46.102  28.808  32.923  1.00  0.00     0.012 A 
ATOM     26  C   UNL A   1      46.524  31.396  33.877  1.00  0.00     0.001 A 
ATOM     27  C   UNL A   1      47.400  29.271  33.135  1.00  0.00     0.001 A 
ATOM     28  C   UNL A   1      47.609  30.563  33.613  1.00  0.00     0.000 A 
ENDBRANCH  16  23
ENDBRANCH  11  12
ENDBRANCH  10  11
ENDBRANCH   8  10
ENDBRANCH   7   8
ENDBRANCH   6   7
ENDBRANCH   5   6
ENDBRANCH   4   5
ENDBRANCH   3   4
ENDBRANCH   2   3
ENDBRANCH   1   2
BRANCH   1  29
ATOM     29  C   UNL A   1      33.205  36.984  31.437  1.00  0.00     0.188 C 
BRANCH  29  30
ATOM     30  C   UNL A   1      32.944  35.641  30.715  1.00  0.00     0.188 C 
BRANCH  30  31
ATOM     31  O   UNL A   1      33.258  35.719  29.335  1.00  0.00    -0.376 OA
BRANCH  31  32
ATOM     32  C   UNL A   1      33.158  34.566  28.527  1.00  0.00     0.202 C 
BRANCH  32  33
ATOM     33  C   UNL A   1      34.403  33.697  28.278  1.00  0.00     0.261 C 
BRANCH  33  34
ATOM     34  O   UNL A   1      34.361  32.340  28.736  1.00  0.00    -0.460 OA
BRANCH  34  35
ATOM     35  C   UNL A   1      34.969  32.058  29.909  1.00  0.00     0.338 C 
ATOM     36  O   UNL A   1      34.532  32.302  31.022  1.00  0.00    -0.246 OA
BRANCH  35  37
ATOM     37  C   UNL A   1      36.137  31.181  29.633  1.00  0.00     0.060 A 
ATOM     38  C   UNL A   1      36.781  30.575  30.721  1.00  0.00     0.016 A 
ATOM     39  C   UNL A   1      36.581  30.928  28.329  1.00  0.00     0.016 A 
ATOM     40  C   UNL A   1      37.922  29.800  30.521  1.00  0.00     0.010 A 
ATOM     41  C   UNL A   1      37.738  30.165  28.128  1.00  0.00     0.010 A 
ATOM     42  C   UNL A   1      38.450  29.661  29.231  1.00  0.00    -0.014 A 
BRANCH  42  43
ATOM     43  C   UNL A   1      39.890  29.317  29.101  1.00  0.00     0.031 A 
ATOM     44  C   UNL A   1      40.887  30.396  29.450  1.00  0.00     0.074 A 
ATOM     45  C   UNL A   1      40.310  28.082  28.777  1.00  0.00     0.049 A 
ATOM     46  N   UNL A   1      42.193  30.353  29.471  1.00  0.00    -0.248 NA
ATOM     47  C   UNL A   1      40.327  31.706  29.832  1.00  0.00     0.031 C 
ATOM     48  C   UNL A   1      39.447  26.945  28.465  1.00  0.00     0.029 A 
ATOM     49  N   UNL A   1      41.583  27.580  28.664  1.00  0.00    -0.354 N 
ATOM     50  C   UNL A   1      42.605  31.624  29.860  1.00  0.00     0.074 A 
ATOM     51  C   UNL A   1      41.417  32.428  30.026  1.00  0.00     0.031 C 
ATOM     52  C   UNL A   1      40.218  25.875  28.196  1.00  0.00     0.029 A 
ATOM     53  C   UNL A   1      41.626  26.257  28.295  1.00  0.00     0.049 A 
ATOM     54  H   UNL A   1      42.391  28.117  28.833  1.00  0.00     0.167 HD
ATOM     55  C   UNL A   1      43.860  32.082  30.074  1.00  0.00     0.037 A 
ATOM     56  C   UNL A   1      42.685  25.455  28.058  1.00  0.00     0.037 A 
ATOM     57  C   UNL A   1      45.041  31.277  29.912  1.00  0.00     0.049 A 
ATOM     58  C   UNL A   1      44.080  26.002  28.247  1.00  0.00     0.074 A 
ATOM     59  C   UNL A   1      46.361  31.637  30.112  1.00  0.00     0.029 A 
ATOM     60  N   UNL A   1      45.043  29.953  29.502  1.00  0.00    -0.354 N 
ATOM     61  N   UNL A   1      44.456  27.199  28.633  1.00  0.00    -0.248 NA
ATOM     62  C   UNL A   1      45.196  25.083  27.980  1.00  0.00     0.031 C 
ATOM     63  C   UNL A   1      47.165  30.546  29.768  1.00  0.00     0.029 A 
ATOM     64  C   UNL A   1      46.342  29.484  29.422  1.00  0.00     0.049 A 
ATOM     65  H   UNL A   1      44.237  29.423  29.298  1.00  0.00     0.167 HD
ATOM     66  C   UNL A   1      45.846  27.162  28.699  1.00  0.00     0.074 A 
ATOM     67  C   UNL A   1      46.243  25.824  28.316  1.00  0.00     0.031 C 
ATOM     68  C   UNL A   1      46.716  28.142  29.053  1.00  0.00     0.037 A 
BRANCH  55  69
ATOM     69  C   UNL A   1      44.017  33.525  30.468  1.00  0.00     0.058 A 
ATOM     70  C   UNL A   1      43.731  33.979  31.766  1.00  0.00     0.135 A 
ATOM     71  C   UNL A   1      44.470  34.468  29.531  1.00  0.00     0.135 A 
ATOM     72  F   UNL A   1      43.269  33.127  32.696  1.00  0.00    -0.206 F 
ATOM     73  C   UNL A   1      43.861  35.321  32.113  1.00  0.00     0.059 A 
ATOM     74  C   UNL A   1      44.638  35.808  29.865  1.00  0.00     0.059 A 
ATOM     75  F   UNL A   1      44.749  34.091  28.274  1.00  0.00    -0.206 F 
ATOM     76  C   UNL A   1      44.317  36.228  31.154  1.00  0.00     0.060 A 
BRANCH  76  77
ATOM     77  S   UNL A   1      44.488  37.963  31.620  1.00  0.00     0.124 S 
ATOM     78  O   UNL A   1      43.490  38.595  30.762  1.00  0.00    -0.237 OA
ATOM     79  O   UNL A   1      44.173  37.935  33.044  1.00  0.00    -0.237 OA
ATOM     80  O   UNL A   1      45.878  38.268  31.294  1.00  0.00    -0.744 OA
ENDBRANCH  76  77
ENDBRANCH  55  69
BRANCH  56  81
ATOM     81  C   UNL A   1      42.476  24.044  27.626  1.00  0.00     0.058 A 
ATOM     82  C   UNL A   1      42.414  23.698  26.269  1.00  0.00     0.135 A 
ATOM     83  C   UNL A   1      42.318  23.014  28.568  1.00  0.00     0.135 A 
ATOM     84  F   UNL A   1      42.543  24.646  25.327  1.00  0.00    -0.206 F 
ATOM     85  C   UNL A   1      42.188  22.386  25.857  1.00  0.00     0.059 A 
ATOM     86  C   UNL A   1      42.121  21.692  28.182  1.00  0.00     0.059 A 
ATOM     87  F   UNL A   1      42.374  23.289  29.881  1.00  0.00    -0.206 F 
ATOM     88  C   UNL A   1      42.047  21.390  26.824  1.00  0.00     0.060 A 
BRANCH  88  89
ATOM     89  S   UNL A   1      41.810  19.683  26.280  1.00  0.00     0.124 S 
ATOM     90  O   UNL A   1      42.566  19.664  25.033  1.00  0.00    -0.237 OA
ATOM     91  O   UNL A   1      42.384  18.927  27.389  1.00  0.00    -0.237 OA
ATOM     92  O   UNL A   1      40.361  19.573  26.143  1.00  0.00    -0.744 OA
ENDBRANCH  88  89
ENDBRANCH  56  81
BRANCH  68  93
ATOM     93  C   UNL A   1      48.179  27.788  29.111  1.00  0.00     0.058 A 
ATOM     94  C   UNL A   1      48.728  27.040  30.164  1.00  0.00     0.135 A 
ATOM     95  C   UNL A   1      49.038  28.176  28.068  1.00  0.00     0.135 A 
ATOM     96  F   UNL A   1      47.953  26.640  31.184  1.00  0.00    -0.206 F 
ATOM     97  C   UNL A   1      50.083  26.726  30.203  1.00  0.00     0.059 A 
ATOM     98  C   UNL A   1      50.389  27.844  28.069  1.00  0.00     0.059 A 
ATOM     99  F   UNL A   1      48.564  28.877  27.026  1.00  0.00    -0.206 F 
ATOM    100  C   UNL A   1      50.907  27.136  29.152  1.00  0.00     0.060 A 
BRANCH 100 101
ATOM    101  S   UNL A   1      52.662  26.723  29.214  1.00  0.00     0.124 S 
ATOM    102  O   UNL A   1      52.801  25.860  28.046  1.00  0.00    -0.237 OA
ATOM    103  O   UNL A   1      53.296  28.034  29.113  1.00  0.00    -0.237 OA
ATOM    104  O   UNL A   1      52.811  26.060  30.505  1.00  0.00    -0.744 OA
ENDBRANCH 100 101
ENDBRANCH  68  93
ENDBRANCH  42  43
ENDBRANCH  35  37
ENDBRANCH  34  35
ENDBRANCH  33  34
ENDBRANCH  32  33
ENDBRANCH  31  32
ENDBRANCH  30  31
ENDBRANCH  29  30
ENDBRANCH   1  29
TORSDOF 27
ENDMDL
MODEL 2
REMARK VINA RESULT:      -6.7      1.106      2.041
REMARK SMILES O=C(CCc1nc(-c2ccccc2)c(-c2ccccc2)o1)OCCOCCOCCOCCOC(=O)c1ccc(-c2c3nc(c(-c4c(F)cc(S(=O)(=O)[O-])cc4F)c4ccc([nH]4)c(-c4c(F)cc(S(=O)(=O)[O-])cc4F)c4nc(c(-c5c(F)cc(S(=O)(=O)[O-])cc5F)c5ccc2[nH]5)C=C4)C=C3)cc1
REMARK SMILES IDX 28 1 27 2 26 3 25 4 24 5 23 6 22 7 2 8 1 9 3 10 4 11 5 12
REMARK SMILES IDX 6 13 21 14 7 15 14 16 8 17 9 18 13 19 10 20 12 21 11 22
REMARK SMILES IDX 15 23 16 24 20 25 17 26 19 27 18 28 29 29 30 30 31 31 32 32
REMARK SMILES IDX 33 33 34 34 35 35 36 36 37 37 38 38 102 39 39 40 101 41
REMARK SMILES IDX 40 42 41 43 42 44 95 45 43 46 100 47 94 48 96 49 44 50 99 51
REMARK SMILES IDX 93 52 92 53 45 55 79 56 58 57 78 58 59 59 62 60 77 61 97 62
REMARK SMILES IDX 60 63 61 64 76 66 98 67 63 68 46 69 47 70 56 71 48 72 49 73
REMARK SMILES IDX 55 74 57 75 50 76 51 77 52 78 53 79 54 80 80 81 81 82 90 83
REMARK SMILES IDX 82 84 83 85 89 86 91 87 84 88 85 89 86 90 87 91 88 92 64 93
REMARK SMILES IDX 65 94 74 95 66 96 67 97 73 98 75 99 68 100 69 101 70 102
REMARK SMILES IDX 71 103 72 104
REMARK H PARENT 96 54 62 65
REMARK Flexibility Score: inf
ROOT
ATOM      1  O   UNL A   1      34.274  37.094  32.166  1.00  0.00    -0.377 OA
ENDROOT
BRANCH   1   2
ATOM      2  C   UNL A   1      33.982  36.612  33.470  1.00  0.00     0.188 C 
BRANCH   2   3
ATOM      3  C   UNL A   1      34.705  35.300  33.808  1.00  0.00     0.188 C 
BRANCH   3   4
ATOM      4  O   UNL A   1      36.093  35.204  33.524  1.00  0.00    -0.376 OA
BRANCH   4   5
ATOM      5  C   UNL A   1      36.901  34.308  34.278  1.00  0.00     0.202 C 
BRANCH   5   6
ATOM      6  C   UNL A   1      36.928  32.825  33.910  1.00  0.00     0.261 C 
BRANCH   6   7
ATOM      7  O   UNL A   1      38.191  32.146  33.926  1.00  0.00    -0.463 OA
BRANCH   7   8
ATOM      8  C   UNL A   1      39.360  32.594  33.448  1.00  0.00     0.306 C 
ATOM      9  O   UNL A   1      39.368  33.543  32.663  1.00  0.00    -0.252 OA
BRANCH   8  10
ATOM     10  C   UNL A   1      40.639  31.876  33.774  1.00  0.00     0.132 C 
BRANCH  10  11
ATOM     11  C   UNL A   1      40.472  30.524  34.452  1.00  0.00     0.109 C 
BRANCH  11  12
ATOM     12  C   UNL A   1      41.641  29.605  34.351  1.00  0.00     0.196 A 
ATOM     13  N   UNL A   1      42.235  29.104  33.281  1.00  0.00    -0.213 NA
ATOM     14  O   UNL A   1      42.143  29.148  35.538  1.00  0.00    -0.440 OA
ATOM     15  C   UNL A   1      43.123  28.176  33.794  1.00  0.00     0.117 A 
ATOM     16  C   UNL A   1      43.108  28.247  35.175  1.00  0.00     0.162 A 
BRANCH  15  17
ATOM     17  C   UNL A   1      43.865  27.199  33.011  1.00  0.00     0.004 A 
ATOM     18  C   UNL A   1      43.630  25.821  33.181  1.00  0.00     0.010 A 
ATOM     19  C   UNL A   1      44.848  27.604  32.106  1.00  0.00     0.010 A 
ATOM     20  C   UNL A   1      44.406  24.871  32.511  1.00  0.00     0.001 A 
ATOM     21  C   UNL A   1      45.627  26.650  31.437  1.00  0.00     0.001 A 
ATOM     22  C   UNL A   1      45.415  25.287  31.650  1.00  0.00     0.000 A 
ENDBRANCH  15  17
BRANCH  16  23
ATOM     23  C   UNL A   1      43.793  27.561  36.249  1.00  0.00     0.020 A 
ATOM     24  C   UNL A   1      43.071  26.873  37.233  1.00  0.00     0.012 A 
ATOM     25  C   UNL A   1      45.192  27.525  36.269  1.00  0.00     0.012 A 
ATOM     26  C   UNL A   1      43.744  26.154  38.221  1.00  0.00     0.001 A 
ATOM     27  C   UNL A   1      45.862  26.817  37.266  1.00  0.00     0.001 A 
ATOM     28  C   UNL A   1      45.138  26.131  38.240  1.00  0.00     0.000 A 
ENDBRANCH  16  23
ENDBRANCH  11  12
ENDBRANCH  10  11
ENDBRANCH   8  10
ENDBRANCH   7   8
ENDBRANCH   6   7
ENDBRANCH   5   6
ENDBRANCH   4   5
ENDBRANCH   3   4
ENDBRANCH   2   3
ENDBRANCH   1   2
BRANCH   1  29
ATOM     29  C   UNL A   1      33.219  36.991  31.213  1.00  0.00     0.188 C 
BRANCH  29  30
ATOM     30  C   UNL A   1      32.924  35.590  30.625  1.00  0.00     0.188 C 
BRANCH  30  31
ATOM     31  O   UNL A   1      33.319  35.497  29.267  1.00  0.00    -0.376 OA
BRANCH  31  32
ATOM     32  C   UNL A   1      33.239  34.258  28.597  1.00  0.00     0.202 C 
BRANCH  32  33
ATOM     33  C   UNL A   1      34.485  33.362  28.495  1.00  0.00     0.261 C 
BRANCH  33  34
ATOM     34  O   UNL A   1      34.418  32.070  29.108  1.00  0.00    -0.460 OA
BRANCH  34  35
ATOM     35  C   UNL A   1      35.100  31.889  30.260  1.00  0.00     0.338 C 
ATOM     36  O   UNL A   1      34.717  32.195  31.378  1.00  0.00    -0.246 OA
BRANCH  35  37
ATOM     37  C   UNL A   1      36.282  31.032  29.977  1.00  0.00     0.060 A 
ATOM     38  C   UNL A   1      37.109  30.670  31.050  1.00  0.00     0.016 A 
ATOM     39  C   UNL A   1      36.564  30.563  28.688  1.00  0.00     0.016 A 
ATOM     40  C   UNL A   1      38.266  29.927  30.826  1.00  0.00     0.010 A 
ATOM     41  C   UNL A   1      37.736  29.832  28.459  1.00  0.00     0.010 A 
ATOM     42  C   UNL A   1      38.626  29.577  29.518  1.00  0.00    -0.014 A 
BRANCH  42  43
ATOM     43  C   UNL A   1      40.056  29.283  29.244  1.00  0.00     0.031 A 
ATOM     44  C   UNL A   1      41.045  30.396  29.496  1.00  0.00     0.074 A 
ATOM     45  C   UNL A   1      40.484  28.064  28.873  1.00  0.00     0.049 A 
ATOM     46  N   UNL A   1      42.347  30.399  29.386  1.00  0.00    -0.248 NA
ATOM     47  C   UNL A   1      40.481  31.685  29.939  1.00  0.00     0.031 C 
ATOM     48  C   UNL A   1      39.634  26.897  28.644  1.00  0.00     0.029 A 
ATOM     49  N   UNL A   1      41.756  27.607  28.631  1.00  0.00    -0.354 N 
ATOM     50  C   UNL A   1      42.752  31.683  29.738  1.00  0.00     0.074 A 
ATOM     51  C   UNL A   1      41.559  32.445  30.026  1.00  0.00     0.031 C 
ATOM     52  C   UNL A   1      40.411  25.856  28.294  1.00  0.00     0.029 A 
ATOM     53  C   UNL A   1      41.808  26.286  28.253  1.00  0.00     0.049 A 
ATOM     54  H   UNL A   1      42.557  28.172  28.721  1.00  0.00     0.167 HD
ATOM     55  C   UNL A   1      44.005  32.184  29.828  1.00  0.00     0.037 A 
ATOM     56  C   UNL A   1      42.865  25.522  27.907  1.00  0.00     0.037 A 
ATOM     57  C   UNL A   1      45.191  31.422  29.544  1.00  0.00     0.049 A 
ATOM     58  C   UNL A   1      44.252  26.118  27.958  1.00  0.00     0.074 A 
ATOM     59  C   UNL A   1      46.511  31.827  29.613  1.00  0.00     0.029 A 
ATOM     60  N   UNL A   1      45.198  30.098  29.130  1.00  0.00    -0.354 N 
ATOM     61  N   UNL A   1      44.623  27.327  28.311  1.00  0.00    -0.248 NA
ATOM     62  C   UNL A   1      45.366  25.239  27.576  1.00  0.00     0.031 C 
ATOM     63  C   UNL A   1      47.314  30.765  29.186  1.00  0.00     0.029 A 
ATOM     64  C   UNL A   1      46.498  29.676  28.918  1.00  0.00     0.049 A 
ATOM     65  H   UNL A   1      44.395  29.541  29.005  1.00  0.00     0.167 HD
ATOM     66  C   UNL A   1      46.013  27.339  28.237  1.00  0.00     0.074 A 
ATOM     67  C   UNL A   1      46.416  26.015  27.809  1.00  0.00     0.031 C 
ATOM     68  C   UNL A   1      46.880  28.348  28.507  1.00  0.00     0.037 A 
BRANCH  55  69
ATOM     69  C   UNL A   1      44.151  33.631  30.211  1.00  0.00     0.058 A 
ATOM     70  C   UNL A   1      44.094  34.664  29.261  1.00  0.00     0.135 A 
ATOM     71  C   UNL A   1      44.343  33.991  31.555  1.00  0.00     0.135 A 
ATOM     72  F   UNL A   1      43.940  34.378  27.958  1.00  0.00    -0.206 F 
ATOM     73  C   UNL A   1      44.251  35.998  29.626  1.00  0.00     0.059 A 
ATOM     74  C   UNL A   1      44.468  35.320  31.947  1.00  0.00     0.059 A 
ATOM     75  F   UNL A   1      44.415  33.043  32.504  1.00  0.00    -0.206 F 
ATOM     76  C   UNL A   1      44.436  36.315  30.973  1.00  0.00     0.060 A 
BRANCH  76  77
ATOM     77  S   UNL A   1      44.629  38.050  31.432  1.00  0.00     0.124 S 
ATOM     78  O   UNL A   1      46.008  38.073  31.910  1.00  0.00    -0.237 OA
ATOM     79  O   UNL A   1      44.386  38.736  30.168  1.00  0.00    -0.237 OA
ATOM     80  O   UNL A   1      43.608  38.247  32.456  1.00  0.00    -0.744 OA
ENDBRANCH  76  77
ENDBRANCH  55  69
BRANCH  56  81
ATOM     81  C   UNL A   1      42.663  24.106  27.492  1.00  0.00     0.058 A 
ATOM     82  C   UNL A   1      42.352  23.771  26.166  1.00  0.00     0.135 A 
ATOM     83  C   UNL A   1      42.761  23.058  28.422  1.00  0.00     0.135 A 
ATOM     84  F   UNL A   1      42.231  24.737  25.241  1.00  0.00    -0.206 F 
ATOM     85  C   UNL A   1      42.131  22.453  25.776  1.00  0.00     0.059 A 
ATOM     86  C   UNL A   1      42.574  21.730  28.051  1.00  0.00     0.059 A 
ATOM     87  F   UNL A   1      43.062  23.321  29.703  1.00  0.00    -0.206 F 
ATOM     88  C   UNL A   1      42.250  21.438  26.727  1.00  0.00     0.060 A 
BRANCH  88  89
ATOM     89  S   UNL A   1      42.016  19.726  26.200  1.00  0.00     0.124 S 
ATOM     90  O   UNL A   1      43.091  19.568  25.227  1.00  0.00    -0.237 OA
ATOM     91  O   UNL A   1      42.175  18.996  27.454  1.00  0.00    -0.237 OA
ATOM     92  O   UNL A   1      40.663  19.725  25.653  1.00  0.00    -0.744 OA
ENDBRANCH  88  89
ENDBRANCH  56  81
BRANCH  68  93
ATOM     93  C   UNL A   1      48.353  28.046  28.416  1.00  0.00     0.058 A 
ATOM     94  C   UNL A   1      49.073  28.182  27.219  1.00  0.00     0.135 A 
ATOM     95  C   UNL A   1      49.061  27.650  29.563  1.00  0.00     0.135 A 
ATOM     96  F   UNL A   1      48.448  28.560  26.093  1.00  0.00    -0.206 F 
ATOM     97  C   UNL A   1      50.432  27.893  27.153  1.00  0.00     0.059 A 
ATOM     98  C   UNL A   1      50.427  27.390  29.528  1.00  0.00     0.059 A 
ATOM     99  F   UNL A   1      48.427  27.522  30.740  1.00  0.00    -0.206 F 
ATOM    100  C   UNL A   1      51.100  27.495  28.313  1.00  0.00     0.060 A 
BRANCH 100 101
ATOM    101  S   UNL A   1      52.864  27.123  28.215  1.00  0.00     0.124 S 
ATOM    102  O   UNL A   1      53.164  26.763  29.596  1.00  0.00    -0.237 OA
ATOM    103  O   UNL A   1      52.900  26.028  27.251  1.00  0.00    -0.237 OA
ATOM    104  O   UNL A   1      53.450  28.378  27.752  1.00  0.00    -0.744 OA
ENDBRANCH 100 101
ENDBRANCH  68  93
ENDBRANCH  42  43
ENDBRANCH  35  37
ENDBRANCH  34  35
ENDBRANCH  33  34
ENDBRANCH  32  33
ENDBRANCH  31  32
ENDBRANCH  30  31
ENDBRANCH  29  30
ENDBRANCH   1  29
TORSDOF 27
ENDMDL
MODEL 3
REMARK VINA RESULT:      -6.4      1.606      2.633
REMARK SMILES O=C(CCc1nc(-c2ccccc2)c(-c2ccccc2)o1)OCCOCCOCCOCCOC(=O)c1ccc(-c2c3nc(c(-c4c(F)cc(S(=O)(=O)[O-])cc4F)c4ccc([nH]4)c(-c4c(F)cc(S(=O)(=O)[O-])cc4F)c4nc(c(-c5c(F)cc(S(=O)(=O)[O-])cc5F)c5ccc2[nH]5)C=C4)C=C3)cc1
REMARK SMILES IDX 28 1 27 2 26 3 25 4 24 5 23 6 22 7 2 8 1 9 3 10 4 11 5 12
REMARK SMILES IDX 6 13 21 14 7 15 14 16 8 17 9 18 13 19 10 20 12 21 11 22
REMARK SMILES IDX 15 23 16 24 20 25 17 26 19 27 18 28 29 29 30 30 31 31 32 32
REMARK SMILES IDX 33 33 34 34 35 35 36 36 37 37 38 38 102 39 39 40 101 41
REMARK SMILES IDX 40 42 41 43 42 44 95 45 43 46 100 47 94 48 96 49 44 50 99 51
REMARK SMILES IDX 93 52 92 53 45 55 79 56 58 57 78 58 59 59 62 60 77 61 97 62
REMARK SMILES IDX 60 63 61 64 76 66 98 67 63 68 46 69 47 70 56 71 48 72 49 73
REMARK SMILES IDX 55 74 57 75 50 76 51 77 52 78 53 79 54 80 80 81 81 82 90 83
REMARK SMILES IDX 82 84 83 85 89 86 91 87 84 88 85 89 86 90 87 91 88 92 64 93
REMARK SMILES IDX 65 94 74 95 66 96 67 97 73 98 75 99 68 100 69 101 70 102
REMARK SMILES IDX 71 103 72 104
REMARK H PARENT 96 54 62 65
REMARK Flexibility Score: inf
ROOT
ATOM      1  O   UNL A   1      34.050  37.365  31.997  1.00  0.00    -0.377 OA
ENDROOT
BRANCH   1   2
ATOM      2  C   UNL A   1      33.456  37.156  33.270  1.00  0.00     0.188 C 
BRANCH   2   3
ATOM      3  C   UNL A   1      34.189  36.106  34.117  1.00  0.00     0.188 C 
BRANCH   3   4
ATOM      4  O   UNL A   1      35.290  35.422  33.538  1.00  0.00    -0.376 OA
BRANCH   4   5
ATOM      5  C   UNL A   1      35.796  34.250  34.167  1.00  0.00     0.202 C 
BRANCH   5   6
ATOM      6  C   UNL A   1      35.423  32.876  33.611  1.00  0.00     0.261 C 
BRANCH   6   7
ATOM      7  O   UNL A   1      36.471  31.915  33.424  1.00  0.00    -0.463 OA
BRANCH   7   8
ATOM      8  C   UNL A   1      37.744  32.010  33.835  1.00  0.00     0.306 C 
ATOM      9  O   UNL A   1      38.284  33.116  33.877  1.00  0.00    -0.252 OA
BRANCH   8  10
ATOM     10  C   UNL A   1      38.540  30.771  34.132  1.00  0.00     0.132 C 
BRANCH  10  11
ATOM     11  C   UNL A   1      39.929  30.725  33.512  1.00  0.00     0.109 C 
BRANCH  11  12
ATOM     12  C   UNL A   1      41.065  30.769  34.475  1.00  0.00     0.196 A 
ATOM     13  N   UNL A   1      41.243  31.530  35.542  1.00  0.00    -0.213 NA
ATOM     14  O   UNL A   1      42.124  29.952  34.184  1.00  0.00    -0.440 OA
ATOM     15  C   UNL A   1      42.547  31.271  35.924  1.00  0.00     0.117 A 
ATOM     16  C   UNL A   1      43.063  30.264  35.130  1.00  0.00     0.162 A 
BRANCH  15  17
ATOM     17  C   UNL A   1      43.295  32.021  36.922  1.00  0.00     0.004 A 
ATOM     18  C   UNL A   1      43.080  31.796  38.294  1.00  0.00     0.010 A 
ATOM     19  C   UNL A   1      44.212  33.004  36.540  1.00  0.00     0.010 A 
ATOM     20  C   UNL A   1      43.716  32.579  39.261  1.00  0.00     0.001 A 
ATOM     21  C   UNL A   1      44.848  33.790  37.511  1.00  0.00     0.001 A 
ATOM     22  C   UNL A   1      44.589  33.587  38.867  1.00  0.00     0.000 A 
ENDBRANCH  15  17
BRANCH  16  23
ATOM     23  C   UNL A   1      44.329  29.569  35.041  1.00  0.00     0.020 A 
ATOM     24  C   UNL A   1      44.816  28.829  36.127  1.00  0.00     0.012 A 
ATOM     25  C   UNL A   1      45.042  29.576  33.837  1.00  0.00     0.012 A 
ATOM     26  C   UNL A   1      46.001  28.102  36.003  1.00  0.00     0.001 A 
ATOM     27  C   UNL A   1      46.233  28.860  33.721  1.00  0.00     0.001 A 
ATOM     28  C   UNL A   1      46.710  28.123  34.804  1.00  0.00     0.000 A 
ENDBRANCH  16  23
ENDBRANCH  11  12
ENDBRANCH  10  11
ENDBRANCH   8  10
ENDBRANCH   7   8
ENDBRANCH   6   7
ENDBRANCH   5   6
ENDBRANCH   4   5
ENDBRANCH   3   4
ENDBRANCH   2   3
ENDBRANCH   1   2
BRANCH   1  29
ATOM     29  C   UNL A   1      33.219  37.100  30.870  1.00  0.00     0.188 C 
BRANCH  29  30
ATOM     30  C   UNL A   1      33.030  35.622  30.455  1.00  0.00     0.188 C 
BRANCH  30  31
ATOM     31  O   UNL A   1      33.622  35.351  29.196  1.00  0.00    -0.376 OA
BRANCH  31  32
ATOM     32  C   UNL A   1      33.160  34.264  28.424  1.00  0.00     0.202 C 
BRANCH  32  33
ATOM     33  C   UNL A   1      34.161  33.223  27.894  1.00  0.00     0.261 C 
BRANCH  33  34
ATOM     34  O   UNL A   1      34.187  31.946  28.542  1.00  0.00    -0.460 OA
BRANCH  34  35
ATOM     35  C   UNL A   1      34.875  31.848  29.700  1.00  0.00     0.338 C 
ATOM     36  O   UNL A   1      34.494  32.227  30.796  1.00  0.00    -0.246 OA
BRANCH  35  37
ATOM     37  C   UNL A   1      36.060  30.980  29.471  1.00  0.00     0.060 A 
ATOM     38  C   UNL A   1      36.617  30.317  30.574  1.00  0.00     0.016 A 
ATOM     39  C   UNL A   1      36.603  30.791  28.194  1.00  0.00     0.016 A 
ATOM     40  C   UNL A   1      37.770  29.547  30.423  1.00  0.00     0.010 A 
ATOM     41  C   UNL A   1      37.772  30.033  28.044  1.00  0.00     0.010 A 
ATOM     42  C   UNL A   1      38.397  29.472  29.172  1.00  0.00    -0.014 A 
BRANCH  42  43
ATOM     43  C   UNL A   1      39.841  29.128  29.136  1.00  0.00     0.031 A 
ATOM     44  C   UNL A   1      40.810  30.187  29.605  1.00  0.00     0.074 A 
ATOM     45  C   UNL A   1      40.284  27.906  28.792  1.00  0.00     0.049 A 
ATOM     46  N   UNL A   1      42.111  30.138  29.723  1.00  0.00    -0.248 NA
ATOM     47  C   UNL A   1      40.224  31.482  30.001  1.00  0.00     0.031 C 
ATOM     48  C   UNL A   1      39.447  26.787  28.367  1.00  0.00     0.029 A 
ATOM     49  N   UNL A   1      41.562  27.404  28.754  1.00  0.00    -0.354 N 
ATOM     50  C   UNL A   1      42.493  31.390  30.196  1.00  0.00     0.074 A 
ATOM     51  C   UNL A   1      41.297  32.190  30.307  1.00  0.00     0.031 C 
ATOM     52  C   UNL A   1      40.234  25.726  28.111  1.00  0.00     0.029 A 
ATOM     53  C   UNL A   1      41.632  26.098  28.332  1.00  0.00     0.049 A 
ATOM     54  H   UNL A   1      42.355  27.931  29.006  1.00  0.00     0.167 HD
ATOM     55  C   UNL A   1      43.729  31.833  30.524  1.00  0.00     0.037 A 
ATOM     56  C   UNL A   1      42.705  25.303  28.141  1.00  0.00     0.037 A 
ATOM     57  C   UNL A   1      44.918  31.032  30.417  1.00  0.00     0.049 A 
ATOM     58  C   UNL A   1      44.082  25.836  28.458  1.00  0.00     0.074 A 
ATOM     59  C   UNL A   1      46.219  31.377  30.731  1.00  0.00     0.029 A 
ATOM     60  N   UNL A   1      44.950  29.726  29.951  1.00  0.00    -0.354 N 
ATOM     61  N   UNL A   1      44.428  27.014  28.923  1.00  0.00    -0.248 NA
ATOM     62  C   UNL A   1      45.214  24.926  28.236  1.00  0.00     0.031 C 
ATOM     63  C   UNL A   1      47.046  30.299  30.402  1.00  0.00     0.029 A 
ATOM     64  C   UNL A   1      46.251  29.256  29.949  1.00  0.00     0.049 A 
ATOM     65  H   UNL A   1      44.162  29.208  29.665  1.00  0.00     0.167 HD
ATOM     66  C   UNL A   1      45.810  26.969  29.091  1.00  0.00     0.074 A 
ATOM     67  C   UNL A   1      46.234  25.647  28.682  1.00  0.00     0.031 C 
ATOM     68  C   UNL A   1      46.651  27.930  29.552  1.00  0.00     0.037 A 
BRANCH  55  69
ATOM     69  C   UNL A   1      43.857  33.257  30.991  1.00  0.00     0.058 A 
ATOM     70  C   UNL A   1      43.996  33.587  32.349  1.00  0.00     0.135 A 
ATOM     71  C   UNL A   1      43.847  34.309  30.061  1.00  0.00     0.135 A 
ATOM     72  F   UNL A   1      43.984  32.625  33.285  1.00  0.00    -0.206 F 
ATOM     73  C   UNL A   1      44.093  34.911  32.770  1.00  0.00     0.059 A 
ATOM     74  C   UNL A   1      43.975  35.637  30.456  1.00  0.00     0.059 A 
ATOM     75  F   UNL A   1      43.706  34.051  28.751  1.00  0.00    -0.206 F 
ATOM     76  C   UNL A   1      44.083  35.929  31.814  1.00  0.00     0.060 A 
BRANCH  76  77
ATOM     77  S   UNL A   1      44.217  37.640  32.374  1.00  0.00     0.124 S 
ATOM     78  O   UNL A   1      43.088  37.734  33.294  1.00  0.00    -0.237 OA
ATOM     79  O   UNL A   1      45.539  37.663  32.989  1.00  0.00    -0.237 OA
ATOM     80  O   UNL A   1      44.087  38.411  31.142  1.00  0.00    -0.744 OA
ENDBRANCH  76  77
ENDBRANCH  55  69
BRANCH  56  81
ATOM     81  C   UNL A   1      42.528  23.913  27.634  1.00  0.00     0.058 A 
ATOM     82  C   UNL A   1      42.535  22.813  28.505  1.00  0.00     0.135 A 
ATOM     83  C   UNL A   1      42.365  23.657  26.263  1.00  0.00     0.135 A 
ATOM     84  F   UNL A   1      42.703  23.001  29.823  1.00  0.00    -0.206 F 
ATOM     85  C   UNL A   1      42.402  21.509  28.036  1.00  0.00     0.059 A 
ATOM     86  C   UNL A   1      42.201  22.365  25.774  1.00  0.00     0.059 A 
ATOM     87  F   UNL A   1      42.345  24.673  25.387  1.00  0.00    -0.206 F 
ATOM     88  C   UNL A   1      42.230  21.296  26.667  1.00  0.00     0.060 A 
BRANCH  88  89
ATOM     89  S   UNL A   1      42.003  19.604  26.076  1.00  0.00     0.124 S 
ATOM     90  O   UNL A   1      42.898  19.571  24.926  1.00  0.00    -0.237 OA
ATOM     91  O   UNL A   1      42.418  18.818  27.234  1.00  0.00    -0.237 OA
ATOM     92  O   UNL A   1      40.577  19.545  25.770  1.00  0.00    -0.744 OA
ENDBRANCH  88  89
ENDBRANCH  56  81
BRANCH  68  93
ATOM     93  C   UNL A   1      48.106  27.568  29.704  1.00  0.00     0.058 A 
ATOM     94  C   UNL A   1      48.616  26.995  30.880  1.00  0.00     0.135 A 
ATOM     95  C   UNL A   1      48.995  27.766  28.635  1.00  0.00     0.135 A 
ATOM     96  F   UNL A   1      47.811  26.782  31.932  1.00  0.00    -0.206 F 
ATOM     97  C   UNL A   1      49.963  26.672  31.005  1.00  0.00     0.059 A 
ATOM     98  C   UNL A   1      50.339  27.418  28.725  1.00  0.00     0.059 A 
ATOM     99  F   UNL A   1      48.558  28.292  27.479  1.00  0.00    -0.206 F 
ATOM    100  C   UNL A   1      50.818  26.890  29.922  1.00  0.00     0.060 A 
BRANCH 100 101
ATOM    101  S   UNL A   1      52.564  26.467  30.095  1.00  0.00     0.124 S 
ATOM    102  O   UNL A   1      52.868  25.931  28.773  1.00  0.00    -0.237 OA
ATOM    103  O   UNL A   1      53.169  27.757  30.412  1.00  0.00    -0.237 OA
ATOM    104  O   UNL A   1      52.571  25.494  31.184  1.00  0.00    -0.744 OA
ENDBRANCH 100 101
ENDBRANCH  68  93
ENDBRANCH  42  43
ENDBRANCH  35  37
ENDBRANCH  34  35
ENDBRANCH  33  34
ENDBRANCH  32  33
ENDBRANCH  31  32
ENDBRANCH  30  31
ENDBRANCH  29  30
ENDBRANCH   1  29
TORSDOF 27
ENDMDL
