MODEL 1
REMARK VINA RESULT:      -9.3      0.000      0.000
REMARK SMILES N#C[C@@H](c1ccccc1)[C@H](CC(=O)OCCOCCOCCOCCOC(=O)c1ccc(-c2c3nc(c(-c4c(F)cc(S(=O)(=O)[O-])cc4F)c4ccc([nH]4)c(-c4c(F)cc(S(=O)(=O)[O-])cc4F)c4nc(c(-c5c(F)cc(S(=O)(=O)[O-])cc5F)c5ccc2[nH]5)C=C4)C=C3)cc1)c1ccccc1
REMARK SMILES IDX 20 1 19 2 18 3 17 4 16 5 15 6 14 7 12 8 13 9 11 10 10 11
REMARK SMILES IDX 3 12 2 13 1 14 4 15 5 16 9 17 6 18 8 19 7 20 95 21 96 22
REMARK SMILES IDX 100 23 97 24 99 25 98 26 21 27 22 28 23 29 24 30 25 31 26 32
REMARK SMILES IDX 27 33 28 34 29 35 30 36 94 37 31 38 93 39 32 40 33 41 34 42
REMARK SMILES IDX 87 43 35 44 92 45 86 46 88 47 36 48 91 49 85 50 84 51 37 53
REMARK SMILES IDX 71 54 50 55 70 56 51 57 54 58 69 59 89 60 52 61 53 62 68 64
REMARK SMILES IDX 90 65 55 66 38 67 39 68 48 69 40 70 41 71 47 72 49 73 42 74
REMARK SMILES IDX 43 75 44 76 45 77 46 78 72 79 73 80 82 81 74 82 75 83 81 84
REMARK SMILES IDX 83 85 76 86 77 87 78 88 79 89 80 90 56 91 57 92 66 93 58 94
REMARK SMILES IDX 59 95 65 96 67 97 60 98 61 99 62 100 63 101 64 102
REMARK H PARENT 88 52 54 63
REMARK Flexibility Score: inf
ROOT
ATOM      1  O   UNL A   1      42.569  21.365  25.734  1.00  0.00    -0.377 OA
ENDROOT
BRANCH   1   2
ATOM      2  C   UNL A   1      41.748  22.503  25.941  1.00  0.00     0.188 C 
BRANCH   2   3
ATOM      3  C   UNL A   1      40.306  22.250  26.393  1.00  0.00     0.188 C 
BRANCH   3   4
ATOM      4  O   UNL A   1      39.646  21.167  25.764  1.00  0.00    -0.376 OA
BRANCH   4   5
ATOM      5  C   UNL A   1      38.310  21.348  25.288  1.00  0.00     0.202 C 
BRANCH   5   6
ATOM      6  C   UNL A   1      37.484  22.578  25.681  1.00  0.00     0.261 C 
BRANCH   6   7
ATOM      7  O   UNL A   1      37.298  23.499  24.590  1.00  0.00    -0.463 OA
BRANCH   7   8
ATOM      8  C   UNL A   1      36.037  23.647  24.122  1.00  0.00     0.306 C 
ATOM      9  O   UNL A   1      35.629  23.218  23.046  1.00  0.00    -0.252 OA
BRANCH   8  10
ATOM     10  C   UNL A   1      35.130  24.447  25.027  1.00  0.00     0.132 C 
BRANCH  10  11
ATOM     11  C   UNL A   1      33.709  24.777  24.553  1.00  0.00     0.052 C 
BRANCH  11  12
ATOM     12  C   UNL A   1      32.565  23.742  24.775  1.00  0.00     0.130 C 
BRANCH  12  13
ATOM     13  C   UNL A   1      31.341  24.145  23.968  1.00  0.00     0.071 C 
ATOM     14  N   UNL A   1      30.326  24.478  23.298  1.00  0.00    -0.198 NA
ENDBRANCH  12  13
BRANCH  12  15
ATOM     15  C   UNL A   1      32.684  22.190  24.755  1.00  0.00    -0.030 A 
ATOM     16  C   UNL A   1      32.769  21.377  25.895  1.00  0.00     0.005 A 
ATOM     17  C   UNL A   1      32.582  21.492  23.524  1.00  0.00     0.005 A 
ATOM     18  C   UNL A   1      32.990  19.993  25.802  1.00  0.00     0.000 A 
ATOM     19  C   UNL A   1      32.740  20.105  23.428  1.00  0.00     0.000 A 
ATOM     20  C   UNL A   1      32.997  19.360  24.566  1.00  0.00     0.000 A 
ENDBRANCH  12  15
ENDBRANCH  11  12
BRANCH  11  21
ATOM     21  C   UNL A   1      33.269  26.153  25.124  1.00  0.00    -0.043 A 
ATOM     22  C   UNL A   1      32.433  26.194  26.254  1.00  0.00     0.004 A 
ATOM     23  C   UNL A   1      33.701  27.377  24.581  1.00  0.00     0.004 A 
ATOM     24  C   UNL A   1      32.024  27.414  26.804  1.00  0.00     0.000 A 
ATOM     25  C   UNL A   1      33.277  28.595  25.123  1.00  0.00     0.000 A 
ATOM     26  C   UNL A   1      32.438  28.615  26.232  1.00  0.00     0.000 A 
ENDBRANCH  11  21
ENDBRANCH  10  11
ENDBRANCH   8  10
ENDBRANCH   7   8
ENDBRANCH   6   7
ENDBRANCH   5   6
ENDBRANCH   4   5
ENDBRANCH   3   4
ENDBRANCH   2   3
ENDBRANCH   1   2
BRANCH   1  27
ATOM     27  C   UNL A   1      43.924  21.546  25.323  1.00  0.00     0.188 C 
BRANCH  27  28
ATOM     28  C   UNL A   1      44.152  22.368  24.056  1.00  0.00     0.188 C 
BRANCH  28  29
ATOM     29  O   UNL A   1      44.559  23.727  24.245  1.00  0.00    -0.376 OA
BRANCH  29  30
ATOM     30  C   UNL A   1      44.841  24.169  25.571  1.00  0.00     0.202 C 
BRANCH  30  31
ATOM     31  C   UNL A   1      44.520  25.636  25.857  1.00  0.00     0.261 C 
BRANCH  31  32
ATOM     32  O   UNL A   1      43.502  26.163  24.992  1.00  0.00    -0.460 OA
BRANCH  32  33
ATOM     33  C   UNL A   1      42.276  26.259  25.553  1.00  0.00     0.338 C 
ATOM     34  O   UNL A   1      41.218  25.863  25.078  1.00  0.00    -0.246 OA
BRANCH  33  35
ATOM     35  C   UNL A   1      42.361  26.830  26.907  1.00  0.00     0.060 A 
ATOM     36  C   UNL A   1      41.559  26.272  27.910  1.00  0.00     0.016 A 
ATOM     37  C   UNL A   1      43.099  27.992  27.149  1.00  0.00     0.016 A 
ATOM     38  C   UNL A   1      41.432  26.918  29.136  1.00  0.00     0.010 A 
ATOM     39  C   UNL A   1      42.966  28.641  28.379  1.00  0.00     0.010 A 
ATOM     40  C   UNL A   1      42.091  28.135  29.355  1.00  0.00    -0.014 A 
BRANCH  40  41
ATOM     41  C   UNL A   1      41.725  28.956  30.534  1.00  0.00     0.031 A 
ATOM     42  C   UNL A   1      42.557  28.844  31.784  1.00  0.00     0.074 A 
ATOM     43  C   UNL A   1      40.695  29.817  30.475  1.00  0.00     0.049 A 
ATOM     44  N   UNL A   1      42.422  29.462  32.930  1.00  0.00    -0.248 NA
ATOM     45  C   UNL A   1      43.694  27.908  31.738  1.00  0.00     0.031 C 
ATOM     46  C   UNL A   1      39.839  30.029  29.310  1.00  0.00     0.029 A 
ATOM     47  N   UNL A   1      40.194  30.672  31.423  1.00  0.00    -0.354 N 
ATOM     48  C   UNL A   1      43.448  28.988  33.739  1.00  0.00     0.074 A 
ATOM     49  C   UNL A   1      44.178  28.006  32.967  1.00  0.00     0.031 C 
ATOM     50  C   UNL A   1      38.912  30.954  29.613  1.00  0.00     0.029 A 
ATOM     51  C   UNL A   1      39.093  31.376  31.002  1.00  0.00     0.049 A 
ATOM     52  H   UNL A   1      40.587  30.773  32.319  1.00  0.00     0.167 HD
ATOM     53  C   UNL A   1      43.758  29.345  35.009  1.00  0.00     0.037 A 
ATOM     54  C   UNL A   1      38.310  32.247  31.668  1.00  0.00     0.037 A 
ATOM     55  C   UNL A   1      43.026  30.324  35.769  1.00  0.00     0.049 A 
ATOM     56  C   UNL A   1      38.644  32.592  33.096  1.00  0.00     0.074 A 
ATOM     57  C   UNL A   1      43.271  30.777  37.055  1.00  0.00     0.029 A 
ATOM     58  N   UNL A   1      41.899  30.997  35.318  1.00  0.00    -0.354 N 
ATOM     59  N   UNL A   1      39.633  32.159  33.841  1.00  0.00    -0.248 NA
ATOM     60  C   UNL A   1      37.758  33.551  33.771  1.00  0.00     0.031 C 
ATOM     61  C   UNL A   1      42.264  31.686  37.397  1.00  0.00     0.029 A 
ATOM     62  C   UNL A   1      41.422  31.841  36.307  1.00  0.00     0.049 A 
ATOM     63  H   UNL A   1      41.498  30.890  34.426  1.00  0.00     0.167 HD
ATOM     64  C   UNL A   1      39.502  32.807  35.065  1.00  0.00     0.074 A 
ATOM     65  C   UNL A   1      38.347  33.675  34.953  1.00  0.00     0.031 C 
ATOM     66  C   UNL A   1      40.268  32.697  36.180  1.00  0.00     0.037 A 
BRANCH  53  67
ATOM     67  C   UNL A   1      44.924  28.655  35.664  1.00  0.00     0.058 A 
ATOM     68  C   UNL A   1      44.768  27.463  36.390  1.00  0.00     0.135 A 
ATOM     69  C   UNL A   1      46.222  29.178  35.537  1.00  0.00     0.135 A 
ATOM     70  F   UNL A   1      43.549  26.928  36.557  1.00  0.00    -0.206 F 
ATOM     71  C   UNL A   1      45.853  26.828  36.989  1.00  0.00     0.059 A 
ATOM     72  C   UNL A   1      47.325  28.545  36.105  1.00  0.00     0.059 A 
ATOM     73  F   UNL A   1      46.429  30.315  34.856  1.00  0.00    -0.206 F 
ATOM     74  C   UNL A   1      47.127  27.378  36.841  1.00  0.00     0.060 A 
BRANCH  74  75
ATOM     75  S   UNL A   1      48.525  26.539  37.618  1.00  0.00     0.124 S 
ATOM     76  O   UNL A   1      48.101  25.144  37.555  1.00  0.00    -0.237 OA
ATOM     77  O   UNL A   1      49.634  26.904  36.743  1.00  0.00    -0.237 OA
ATOM     78  O   UNL A   1      48.570  27.120  38.956  1.00  0.00    -0.744 OA
ENDBRANCH  74  75
ENDBRANCH  53  67
BRANCH  54  79
ATOM     79  C   UNL A   1      37.132  32.848  30.990  1.00  0.00     0.058 A 
ATOM     80  C   UNL A   1      37.263  33.976  30.168  1.00  0.00     0.135 A 
ATOM     81  C   UNL A   1      35.849  32.295  31.141  1.00  0.00     0.135 A 
ATOM     82  F   UNL A   1      38.464  34.549  30.002  1.00  0.00    -0.206 F 
ATOM     83  C   UNL A   1      36.166  34.541  29.526  1.00  0.00     0.059 A 
ATOM     84  C   UNL A   1      34.742  32.826  30.489  1.00  0.00     0.059 A 
ATOM     85  F   UNL A   1      35.672  31.208  31.909  1.00  0.00    -0.206 F 
ATOM     86  C   UNL A   1      34.909  33.953  29.687  1.00  0.00     0.060 A 
BRANCH  86  87
ATOM     87  S   UNL A   1      33.503  34.652  28.794  1.00  0.00     0.124 S 
ATOM     88  O   UNL A   1      33.088  33.523  27.969  1.00  0.00    -0.237 OA
ATOM     89  O   UNL A   1      32.601  35.017  29.882  1.00  0.00    -0.237 OA
ATOM     90  O   UNL A   1      34.090  35.779  28.075  1.00  0.00    -0.744 OA
ENDBRANCH  86  87
ENDBRANCH  54  79
BRANCH  66  91
ATOM     91  C   UNL A   1      39.895  33.554  37.360  1.00  0.00     0.058 A 
ATOM     92  C   UNL A   1      38.915  33.156  38.282  1.00  0.00     0.135 A 
ATOM     93  C   UNL A   1      40.554  34.773  37.590  1.00  0.00     0.135 A 
ATOM     94  F   UNL A   1      38.251  32.002  38.107  1.00  0.00    -0.206 F 
ATOM     95  C   UNL A   1      38.576  33.952  39.372  1.00  0.00     0.059 A 
ATOM     96  C   UNL A   1      40.252  35.571  38.689  1.00  0.00     0.059 A 
ATOM     97  F   UNL A   1      41.510  35.195  36.747  1.00  0.00    -0.206 F 
ATOM     98  C   UNL A   1      39.249  35.160  39.566  1.00  0.00     0.060 A 
BRANCH  98  99
ATOM     99  S   UNL A   1      38.809  36.178  40.990  1.00  0.00     0.124 S 
ATOM    100  O   UNL A   1      40.062  36.194  41.737  1.00  0.00    -0.237 OA
ATOM    101  O   UNL A   1      38.427  37.440  40.367  1.00  0.00    -0.237 OA
ATOM    102  O   UNL A   1      37.716  35.436  41.613  1.00  0.00    -0.744 OA
ENDBRANCH  98  99
ENDBRANCH  66  91
ENDBRANCH  40  41
ENDBRANCH  33  35
ENDBRANCH  32  33
ENDBRANCH  31  32
ENDBRANCH  30  31
ENDBRANCH  29  30
ENDBRANCH  28  29
ENDBRANCH  27  28
ENDBRANCH   1  27
TORSDOF 28
ENDMDL
MODEL 2
REMARK VINA RESULT:      -9.2      5.828     12.309
REMARK SMILES N#C[C@@H](c1ccccc1)[C@H](CC(=O)OCCOCCOCCOCCOC(=O)c1ccc(-c2c3nc(c(-c4c(F)cc(S(=O)(=O)[O-])cc4F)c4ccc([nH]4)c(-c4c(F)cc(S(=O)(=O)[O-])cc4F)c4nc(c(-c5c(F)cc(S(=O)(=O)[O-])cc5F)c5ccc2[nH]5)C=C4)C=C3)cc1)c1ccccc1
REMARK SMILES IDX 20 1 19 2 18 3 17 4 16 5 15 6 14 7 12 8 13 9 11 10 10 11
REMARK SMILES IDX 3 12 2 13 1 14 4 15 5 16 9 17 6 18 8 19 7 20 95 21 96 22
REMARK SMILES IDX 100 23 97 24 99 25 98 26 21 27 22 28 23 29 24 30 25 31 26 32
REMARK SMILES IDX 27 33 28 34 29 35 30 36 94 37 31 38 93 39 32 40 33 41 34 42
REMARK SMILES IDX 87 43 35 44 92 45 86 46 88 47 36 48 91 49 85 50 84 51 37 53
REMARK SMILES IDX 71 54 50 55 70 56 51 57 54 58 69 59 89 60 52 61 53 62 68 64
REMARK SMILES IDX 90 65 55 66 38 67 39 68 48 69 40 70 41 71 47 72 49 73 42 74
REMARK SMILES IDX 43 75 44 76 45 77 46 78 72 79 73 80 82 81 74 82 75 83 81 84
REMARK SMILES IDX 83 85 76 86 77 87 78 88 79 89 80 90 56 91 57 92 66 93 58 94
REMARK SMILES IDX 59 95 65 96 67 97 60 98 61 99 62 100 63 101 64 102
REMARK H PARENT 88 52 54 63
REMARK Flexibility Score: inf
ROOT
ATOM      1  O   UNL A   1      33.898  33.943  29.778  1.00  0.00    -0.377 OA
ENDROOT
BRANCH   1   2
ATOM      2  C   UNL A   1      34.353  34.186  28.457  1.00  0.00     0.188 C 
BRANCH   2   3
ATOM      3  C   UNL A   1      33.304  34.143  27.340  1.00  0.00     0.188 C 
BRANCH   3   4
ATOM      4  O   UNL A   1      32.138  33.389  27.619  1.00  0.00    -0.376 OA
BRANCH   4   5
ATOM      5  C   UNL A   1      31.768  32.327  26.737  1.00  0.00     0.202 C 
BRANCH   5   6
ATOM      6  C   UNL A   1      32.186  30.879  27.014  1.00  0.00     0.261 C 
BRANCH   6   7
ATOM      7  O   UNL A   1      33.215  30.412  26.121  1.00  0.00    -0.463 OA
BRANCH   7   8
ATOM      8  C   UNL A   1      33.810  29.238  26.435  1.00  0.00     0.306 C 
ATOM      9  O   UNL A   1      34.621  29.080  27.344  1.00  0.00    -0.252 OA
BRANCH   8  10
ATOM     10  C   UNL A   1      33.435  28.090  25.528  1.00  0.00     0.132 C 
BRANCH  10  11
ATOM     11  C   UNL A   1      31.951  27.802  25.266  1.00  0.00     0.052 C 
BRANCH  11  12
ATOM     12  C   UNL A   1      31.346  28.100  23.861  1.00  0.00     0.130 C 
BRANCH  12  13
ATOM     13  C   UNL A   1      31.432  26.858  22.989  1.00  0.00     0.071 C 
ATOM     14  N   UNL A   1      31.502  25.827  22.266  1.00  0.00    -0.198 NA
ENDBRANCH  12  13
BRANCH  12  15
ATOM     15  C   UNL A   1      30.010  28.836  23.549  1.00  0.00    -0.030 A 
ATOM     16  C   UNL A   1      28.830  28.210  23.125  1.00  0.00     0.005 A 
ATOM     17  C   UNL A   1      29.894  30.225  23.815  1.00  0.00     0.005 A 
ATOM     18  C   UNL A   1      27.694  28.948  22.752  1.00  0.00     0.000 A 
ATOM     19  C   UNL A   1      28.744  30.958  23.502  1.00  0.00     0.000 A 
ATOM     20  C   UNL A   1      27.660  30.325  22.920  1.00  0.00     0.000 A 
ENDBRANCH  12  15
ENDBRANCH  11  12
BRANCH  11  21
ATOM     21  C   UNL A   1      31.620  26.337  25.664  1.00  0.00    -0.043 A 
ATOM     22  C   UNL A   1      32.670  25.425  25.865  1.00  0.00     0.004 A 
ATOM     23  C   UNL A   1      30.305  25.883  25.871  1.00  0.00     0.004 A 
ATOM     24  C   UNL A   1      32.414  24.100  26.235  1.00  0.00     0.000 A 
ATOM     25  C   UNL A   1      30.051  24.552  26.224  1.00  0.00     0.000 A 
ATOM     26  C   UNL A   1      31.103  23.661  26.404  1.00  0.00     0.000 A 
ENDBRANCH  11  21
ENDBRANCH  10  11
ENDBRANCH   8  10
ENDBRANCH   7   8
ENDBRANCH   6   7
ENDBRANCH   5   6
ENDBRANCH   4   5
ENDBRANCH   3   4
ENDBRANCH   2   3
ENDBRANCH   1   2
BRANCH   1  27
ATOM     27  C   UNL A   1      33.646  35.049  30.644  1.00  0.00     0.188 C 
BRANCH  27  28
ATOM     28  C   UNL A   1      34.019  34.867  32.114  1.00  0.00     0.188 C 
BRANCH  28  29
ATOM     29  O   UNL A   1      33.798  33.568  32.670  1.00  0.00    -0.376 OA
BRANCH  29  30
ATOM     30  C   UNL A   1      34.918  32.700  32.826  1.00  0.00     0.202 C 
BRANCH  30  31
ATOM     31  C   UNL A   1      36.224  33.194  32.202  1.00  0.00     0.261 C 
BRANCH  31  32
ATOM     32  O   UNL A   1      36.939  32.157  31.513  1.00  0.00    -0.460 OA
BRANCH  32  33
ATOM     33  C   UNL A   1      37.752  31.413  32.295  1.00  0.00     0.338 C 
ATOM     34  O   UNL A   1      37.672  31.269  33.510  1.00  0.00    -0.246 OA
BRANCH  33  35
ATOM     35  C   UNL A   1      38.735  30.678  31.483  1.00  0.00     0.060 A 
ATOM     36  C   UNL A   1      39.669  29.873  32.147  1.00  0.00     0.016 A 
ATOM     37  C   UNL A   1      38.835  30.898  30.107  1.00  0.00     0.016 A 
ATOM     38  C   UNL A   1      40.752  29.347  31.449  1.00  0.00     0.010 A 
ATOM     39  C   UNL A   1      39.925  30.373  29.409  1.00  0.00     0.010 A 
ATOM     40  C   UNL A   1      40.915  29.642  30.088  1.00  0.00    -0.014 A 
BRANCH  40  41
ATOM     41  C   UNL A   1      42.204  29.330  29.428  1.00  0.00     0.031 A 
ATOM     42  C   UNL A   1      42.425  27.944  28.881  1.00  0.00     0.074 A 
ATOM     43  C   UNL A   1      43.146  30.278  29.281  1.00  0.00     0.049 A 
ATOM     44  N   UNL A   1      43.470  27.449  28.269  1.00  0.00    -0.248 NA
ATOM     45  C   UNL A   1      41.318  26.986  29.048  1.00  0.00     0.031 C 
ATOM     46  C   UNL A   1      43.030  31.659  29.746  1.00  0.00     0.029 A 
ATOM     47  N   UNL A   1      44.386  30.219  28.700  1.00  0.00    -0.354 N 
ATOM     48  C   UNL A   1      43.151  26.126  27.984  1.00  0.00     0.074 A 
ATOM     49  C   UNL A   1      41.829  25.884  28.519  1.00  0.00     0.031 C 
ATOM     50  C   UNL A   1      44.160  32.318  29.435  1.00  0.00     0.029 A 
ATOM     51  C   UNL A   1      45.086  31.397  28.778  1.00  0.00     0.049 A 
ATOM     52  H   UNL A   1      44.741  29.409  28.269  1.00  0.00     0.167 HD
ATOM     53  C   UNL A   1      43.890  25.200  27.329  1.00  0.00     0.037 A 
ATOM     54  C   UNL A   1      46.339  31.693  28.378  1.00  0.00     0.037 A 
ATOM     55  C   UNL A   1      45.206  25.450  26.799  1.00  0.00     0.049 A 
ATOM     56  C   UNL A   1      47.162  30.633  27.696  1.00  0.00     0.074 A 
ATOM     57  C   UNL A   1      46.031  24.588  26.097  1.00  0.00     0.029 A 
ATOM     58  N   UNL A   1      45.893  26.649  26.919  1.00  0.00    -0.354 N 
ATOM     59  N   UNL A   1      46.840  29.394  27.407  1.00  0.00    -0.248 NA
ATOM     60  C   UNL A   1      48.519  31.012  27.279  1.00  0.00     0.031 C 
ATOM     61  C   UNL A   1      47.236  25.251  25.836  1.00  0.00     0.029 A 
ATOM     62  C   UNL A   1      47.142  26.543  26.328  1.00  0.00     0.049 A 
ATOM     63  H   UNL A   1      45.545  27.457  27.360  1.00  0.00     0.167 HD
ATOM     64  C   UNL A   1      47.943  28.853  26.755  1.00  0.00     0.074 A 
ATOM     65  C   UNL A   1      48.936  29.906  26.678  1.00  0.00     0.031 C 
ATOM     66  C   UNL A   1      48.120  27.601  26.264  1.00  0.00     0.037 A 
BRANCH  53  67
ATOM     67  C   UNL A   1      43.304  23.822  27.170  1.00  0.00     0.058 A 
ATOM     68  C   UNL A   1      43.199  22.932  28.251  1.00  0.00     0.135 A 
ATOM     69  C   UNL A   1      42.813  23.398  25.924  1.00  0.00     0.135 A 
ATOM     70  F   UNL A   1      43.668  23.279  29.460  1.00  0.00    -0.206 F 
ATOM     71  C   UNL A   1      42.651  21.662  28.097  1.00  0.00     0.059 A 
ATOM     72  C   UNL A   1      42.237  22.142  25.753  1.00  0.00     0.059 A 
ATOM     73  F   UNL A   1      42.890  24.208  24.856  1.00  0.00    -0.206 F 
ATOM     74  C   UNL A   1      42.173  21.276  26.844  1.00  0.00     0.060 A 
BRANCH  74  75
ATOM     75  S   UNL A   1      41.459  19.627  26.662  1.00  0.00     0.124 S 
ATOM     76  O   UNL A   1      42.061  18.922  27.788  1.00  0.00    -0.237 OA
ATOM     77  O   UNL A   1      40.028  19.892  26.772  1.00  0.00    -0.237 OA
ATOM     78  O   UNL A   1      41.914  19.203  25.341  1.00  0.00    -0.744 OA
ENDBRANCH  74  75
ENDBRANCH  53  67
BRANCH  54  79
ATOM     79  C   UNL A   1      46.889  33.052  28.621  1.00  0.00     0.058 A 
ATOM     80  C   UNL A   1      47.683  33.325  29.744  1.00  0.00     0.135 A 
ATOM     81  C   UNL A   1      46.643  34.105  27.724  1.00  0.00     0.135 A 
ATOM     82  F   UNL A   1      47.937  32.356  30.637  1.00  0.00    -0.206 F 
ATOM     83  C   UNL A   1      48.208  34.593  29.976  1.00  0.00     0.059 A 
ATOM     84  C   UNL A   1      47.177  35.373  27.920  1.00  0.00     0.059 A 
ATOM     85  F   UNL A   1      45.898  33.893  26.628  1.00  0.00    -0.206 F 
ATOM     86  C   UNL A   1      47.955  35.609  29.053  1.00  0.00     0.060 A 
BRANCH  86  87
ATOM     87  S   UNL A   1      48.697  37.233  29.325  1.00  0.00     0.124 S 
ATOM     88  O   UNL A   1      47.534  38.029  29.703  1.00  0.00    -0.237 OA
ATOM     89  O   UNL A   1      49.656  36.956  30.390  1.00  0.00    -0.237 OA
ATOM     90  O   UNL A   1      49.288  37.552  28.029  1.00  0.00    -0.744 OA
ENDBRANCH  86  87
ENDBRANCH  54  79
BRANCH  66  91
ATOM     91  C   UNL A   1      49.427  27.307  25.577  1.00  0.00     0.058 A 
ATOM     92  C   UNL A   1      49.582  27.452  24.190  1.00  0.00     0.135 A 
ATOM     93  C   UNL A   1      50.549  26.911  26.323  1.00  0.00     0.135 A 
ATOM     94  F   UNL A   1      48.540  27.824  23.429  1.00  0.00    -0.206 F 
ATOM     95  C   UNL A   1      50.793  27.182  23.561  1.00  0.00     0.059 A 
ATOM     96  C   UNL A   1      51.778  26.664  25.720  1.00  0.00     0.059 A 
ATOM     97  F   UNL A   1      50.461  26.771  27.655  1.00  0.00    -0.206 F 
ATOM     98  C   UNL A   1      51.886  26.785  24.335  1.00  0.00     0.060 A 
BRANCH  98  99
ATOM     99  S   UNL A   1      53.455  26.449  23.510  1.00  0.00     0.124 S 
ATOM    100  O   UNL A   1      53.925  25.276  24.240  1.00  0.00    -0.237 OA
ATOM    101  O   UNL A   1      53.040  26.212  22.131  1.00  0.00    -0.237 OA
ATOM    102  O   UNL A   1      54.223  27.672  23.726  1.00  0.00    -0.744 OA
ENDBRANCH  98  99
ENDBRANCH  66  91
ENDBRANCH  40  41
ENDBRANCH  33  35
ENDBRANCH  32  33
ENDBRANCH  31  32
ENDBRANCH  30  31
ENDBRANCH  29  30
ENDBRANCH  28  29
ENDBRANCH  27  28
ENDBRANCH   1  27
TORSDOF 28
ENDMDL
MODEL 3
REMARK VINA RESULT:      -9.1      1.591      3.089
REMARK SMILES N#C[C@@H](c1ccccc1)[C@H](CC(=O)OCCOCCOCCOCCOC(=O)c1ccc(-c2c3nc(c(-c4c(F)cc(S(=O)(=O)[O-])cc4F)c4ccc([nH]4)c(-c4c(F)cc(S(=O)(=O)[O-])cc4F)c4nc(c(-c5c(F)cc(S(=O)(=O)[O-])cc5F)c5ccc2[nH]5)C=C4)C=C3)cc1)c1ccccc1
REMARK SMILES IDX 20 1 19 2 18 3 17 4 16 5 15 6 14 7 12 8 13 9 11 10 10 11
REMARK SMILES IDX 3 12 2 13 1 14 4 15 5 16 9 17 6 18 8 19 7 20 95 21 96 22
REMARK SMILES IDX 100 23 97 24 99 25 98 26 21 27 22 28 23 29 24 30 25 31 26 32
REMARK SMILES IDX 27 33 28 34 29 35 30 36 94 37 31 38 93 39 32 40 33 41 34 42
REMARK SMILES IDX 87 43 35 44 92 45 86 46 88 47 36 48 91 49 85 50 84 51 37 53
REMARK SMILES IDX 71 54 50 55 70 56 51 57 54 58 69 59 89 60 52 61 53 62 68 64
REMARK SMILES IDX 90 65 55 66 38 67 39 68 48 69 40 70 41 71 47 72 49 73 42 74
REMARK SMILES IDX 43 75 44 76 45 77 46 78 72 79 73 80 82 81 74 82 75 83 81 84
REMARK SMILES IDX 83 85 76 86 77 87 78 88 79 89 80 90 56 91 57 92 66 93 58 94
REMARK SMILES IDX 59 95 65 96 67 97 60 98 61 99 62 100 63 101 64 102
REMARK H PARENT 88 52 54 63
REMARK Flexibility Score: inf
ROOT
ATOM      1  O   UNL A   1      39.539  19.343  25.610  1.00  0.00    -0.377 OA
ENDROOT
BRANCH   1   2
ATOM      2  C   UNL A   1      38.793  20.541  25.476  1.00  0.00     0.188 C 
BRANCH   2   3
ATOM      3  C   UNL A   1      37.443  20.445  24.756  1.00  0.00     0.188 C 
BRANCH   3   4
ATOM      4  O   UNL A   1      36.700  21.649  24.680  1.00  0.00    -0.376 OA
BRANCH   4   5
ATOM      5  C   UNL A   1      35.921  22.058  25.806  1.00  0.00     0.202 C 
BRANCH   5   6
ATOM      6  C   UNL A   1      34.549  22.717  25.627  1.00  0.00     0.261 C 
BRANCH   6   7
ATOM      7  O   UNL A   1      34.045  23.301  26.844  1.00  0.00    -0.463 OA
BRANCH   7   8
ATOM      8  C   UNL A   1      32.701  23.355  26.985  1.00  0.00     0.306 C 
ATOM      9  O   UNL A   1      31.953  22.381  26.993  1.00  0.00    -0.252 OA
BRANCH   8  10
ATOM     10  C   UNL A   1      32.143  24.755  27.091  1.00  0.00     0.132 C 
BRANCH  10  11
ATOM     11  C   UNL A   1      31.296  25.308  25.938  1.00  0.00     0.052 C 
BRANCH  11  12
ATOM     12  C   UNL A   1      30.811  26.789  25.982  1.00  0.00     0.130 C 
BRANCH  12  13
ATOM     13  C   UNL A   1      31.784  27.626  26.796  1.00  0.00     0.071 C 
ATOM     14  N   UNL A   1      32.591  28.321  27.472  1.00  0.00    -0.198 NA
ENDBRANCH  12  13
BRANCH  12  15
ATOM     15  C   UNL A   1      30.296  27.645  24.788  1.00  0.00    -0.030 A 
ATOM     16  C   UNL A   1      30.799  28.903  24.428  1.00  0.00     0.005 A 
ATOM     17  C   UNL A   1      29.334  27.104  23.898  1.00  0.00     0.005 A 
ATOM     18  C   UNL A   1      30.210  29.671  23.410  1.00  0.00     0.000 A 
ATOM     19  C   UNL A   1      28.785  27.840  22.842  1.00  0.00     0.000 A 
ATOM     20  C   UNL A   1      29.188  29.147  22.630  1.00  0.00     0.000 A 
ENDBRANCH  12  15
ENDBRANCH  11  12
BRANCH  11  21
ATOM     21  C   UNL A   1      32.011  25.045  24.585  1.00  0.00    -0.043 A 
ATOM     22  C   UNL A   1      31.460  24.115  23.685  1.00  0.00     0.004 A 
ATOM     23  C   UNL A   1      33.178  25.726  24.194  1.00  0.00     0.004 A 
ATOM     24  C   UNL A   1      32.069  23.858  22.452  1.00  0.00     0.000 A 
ATOM     25  C   UNL A   1      33.794  25.454  22.968  1.00  0.00     0.000 A 
ATOM     26  C   UNL A   1      33.242  24.520  22.097  1.00  0.00     0.000 A 
ENDBRANCH  11  21
ENDBRANCH  10  11
ENDBRANCH   8  10
ENDBRANCH   7   8
ENDBRANCH   6   7
ENDBRANCH   5   6
ENDBRANCH   4   5
ENDBRANCH   3   4
ENDBRANCH   2   3
ENDBRANCH   1   2
BRANCH   1  27
ATOM     27  C   UNL A   1      40.883  19.406  26.088  1.00  0.00     0.188 C 
BRANCH  27  28
ATOM     28  C   UNL A   1      41.339  20.739  26.677  1.00  0.00     0.188 C 
BRANCH  28  29
ATOM     29  O   UNL A   1      42.620  21.216  26.254  1.00  0.00    -0.376 OA
BRANCH  29  30
ATOM     30  C   UNL A   1      42.683  22.463  25.566  1.00  0.00     0.202 C 
BRANCH  30  31
ATOM     31  C   UNL A   1      43.158  23.652  26.403  1.00  0.00     0.261 C 
BRANCH  31  32
ATOM     32  O   UNL A   1      43.036  24.904  25.711  1.00  0.00    -0.460 OA
BRANCH  32  33
ATOM     33  C   UNL A   1      41.895  25.583  25.965  1.00  0.00     0.338 C 
ATOM     34  O   UNL A   1      40.911  25.662  25.239  1.00  0.00    -0.246 OA
BRANCH  33  35
ATOM     35  C   UNL A   1      41.921  26.167  27.316  1.00  0.00     0.060 A 
ATOM     36  C   UNL A   1      40.829  25.927  28.159  1.00  0.00     0.016 A 
ATOM     37  C   UNL A   1      42.926  27.062  27.690  1.00  0.00     0.016 A 
ATOM     38  C   UNL A   1      40.700  26.640  29.347  1.00  0.00     0.010 A 
ATOM     39  C   UNL A   1      42.792  27.781  28.880  1.00  0.00     0.010 A 
ATOM     40  C   UNL A   1      41.653  27.611  29.685  1.00  0.00    -0.014 A 
BRANCH  40  41
ATOM     41  C   UNL A   1      41.361  28.560  30.785  1.00  0.00     0.031 A 
ATOM     42  C   UNL A   1      42.195  28.498  32.039  1.00  0.00     0.074 A 
ATOM     43  C   UNL A   1      40.399  29.489  30.652  1.00  0.00     0.049 A 
ATOM     44  N   UNL A   1      42.118  29.226  33.123  1.00  0.00    -0.248 NA
ATOM     45  C   UNL A   1      43.256  27.478  32.075  1.00  0.00     0.031 C 
ATOM     46  C   UNL A   1      39.551  29.659  29.474  1.00  0.00     0.029 A 
ATOM     47  N   UNL A   1      39.974  30.462  31.519  1.00  0.00    -0.354 N 
ATOM     48  C   UNL A   1      43.112  28.750  33.970  1.00  0.00     0.074 A 
ATOM     49  C   UNL A   1      43.758  27.650  33.289  1.00  0.00     0.031 C 
ATOM     50  C   UNL A   1      38.700  30.676  29.694  1.00  0.00     0.029 A 
ATOM     51  C   UNL A   1      38.925  31.207  31.038  1.00  0.00     0.049 A 
ATOM     52  H   UNL A   1      40.382  30.613  32.401  1.00  0.00     0.167 HD
ATOM     53  C   UNL A   1      43.461  29.196  35.201  1.00  0.00     0.037 A 
ATOM     54  C   UNL A   1      38.218  32.192  31.625  1.00  0.00     0.037 A 
ATOM     55  C   UNL A   1      42.812  30.292  35.871  1.00  0.00     0.049 A 
ATOM     56  C   UNL A   1      38.590  32.638  33.014  1.00  0.00     0.074 A 
ATOM     57  C   UNL A   1      43.104  30.840  37.110  1.00  0.00     0.029 A 
ATOM     58  N   UNL A   1      41.736  31.007  35.364  1.00  0.00    -0.354 N 
ATOM     59  N   UNL A   1      39.550  32.200  33.794  1.00  0.00    -0.248 NA
ATOM     60  C   UNL A   1      37.786  33.719  33.602  1.00  0.00     0.031 C 
ATOM     61  C   UNL A   1      42.172  31.851  37.371  1.00  0.00     0.029 A 
ATOM     62  C   UNL A   1      41.334  31.970  36.274  1.00  0.00     0.049 A 
ATOM     63  H   UNL A   1      41.319  30.850  34.486  1.00  0.00     0.167 HD
ATOM     64  C   UNL A   1      39.481  32.964  34.954  1.00  0.00     0.074 A 
ATOM     65  C   UNL A   1      38.394  33.904  34.766  1.00  0.00     0.031 C 
ATOM     66  C   UNL A   1      40.247  32.897  36.072  1.00  0.00     0.037 A 
BRANCH  53  67
ATOM     67  C   UNL A   1      44.578  28.480  35.913  1.00  0.00     0.058 A 
ATOM     68  C   UNL A   1      44.335  27.397  36.772  1.00  0.00     0.135 A 
ATOM     69  C   UNL A   1      45.913  28.866  35.708  1.00  0.00     0.135 A 
ATOM     70  F   UNL A   1      43.077  26.997  37.018  1.00  0.00    -0.206 F 
ATOM     71  C   UNL A   1      45.374  26.737  37.424  1.00  0.00     0.059 A 
ATOM     72  C   UNL A   1      46.970  28.204  36.328  1.00  0.00     0.059 A 
ATOM     73  F   UNL A   1      46.202  29.896  34.898  1.00  0.00    -0.206 F 
ATOM     74  C   UNL A   1      46.688  27.149  37.195  1.00  0.00     0.060 A 
BRANCH  74  75
ATOM     75  S   UNL A   1      48.025  26.279  38.041  1.00  0.00     0.124 S 
ATOM     76  O   UNL A   1      49.112  27.249  37.945  1.00  0.00    -0.237 OA
ATOM     77  O   UNL A   1      47.472  26.079  39.377  1.00  0.00    -0.237 OA
ATOM     78  O   UNL A   1      48.197  25.065  37.250  1.00  0.00    -0.744 OA
ENDBRANCH  74  75
ENDBRANCH  53  67
BRANCH  54  79
ATOM     79  C   UNL A   1      37.082  32.817  30.898  1.00  0.00     0.058 A 
ATOM     80  C   UNL A   1      35.769  32.354  31.066  1.00  0.00     0.135 A 
ATOM     81  C   UNL A   1      37.286  33.903  30.030  1.00  0.00     0.135 A 
ATOM     82  F   UNL A   1      35.523  31.312  31.874  1.00  0.00    -0.206 F 
ATOM     83  C   UNL A   1      34.698  32.938  30.394  1.00  0.00     0.059 A 
ATOM     84  C   UNL A   1      36.230  34.519  29.369  1.00  0.00     0.059 A 
ATOM     85  F   UNL A   1      38.522  34.391  29.844  1.00  0.00    -0.206 F 
ATOM     86  C   UNL A   1      34.939  34.026  29.553  1.00  0.00     0.060 A 
BRANCH  86  87
ATOM     87  S   UNL A   1      33.536  34.821  28.740  1.00  0.00     0.124 S 
ATOM     88  O   UNL A   1      34.147  36.040  28.223  1.00  0.00    -0.237 OA
ATOM     89  O   UNL A   1      33.155  33.824  27.744  1.00  0.00    -0.237 OA
ATOM     90  O   UNL A   1      32.579  35.004  29.827  1.00  0.00    -0.744 OA
ENDBRANCH  86  87
ENDBRANCH  54  79
BRANCH  66  91
ATOM     91  C   UNL A   1      39.951  33.883  37.170  1.00  0.00     0.058 A 
ATOM     92  C   UNL A   1      39.002  33.615  38.169  1.00  0.00     0.135 A 
ATOM     93  C   UNL A   1      40.655  35.097  37.244  1.00  0.00     0.135 A 
ATOM     94  F   UNL A   1      38.299  32.472  38.143  1.00  0.00    -0.206 F 
ATOM     95  C   UNL A   1      38.735  34.530  39.182  1.00  0.00     0.059 A 
ATOM     96  C   UNL A   1      40.425  36.014  38.265  1.00  0.00     0.059 A 
ATOM     97  F   UNL A   1      41.583  35.399  36.323  1.00  0.00    -0.206 F 
ATOM     98  C   UNL A   1      39.451  35.729  39.220  1.00  0.00     0.060 A 
BRANCH  98  99
ATOM     99  S   UNL A   1      39.104  36.902  40.547  1.00  0.00     0.124 S 
ATOM    100  O   UNL A   1      40.436  37.423  40.835  1.00  0.00    -0.237 OA
ATOM    101  O   UNL A   1      38.183  37.836  39.907  1.00  0.00    -0.237 OA
ATOM    102  O   UNL A   1      38.516  36.069  41.593  1.00  0.00    -0.744 OA
ENDBRANCH  98  99
ENDBRANCH  66  91
ENDBRANCH  40  41
ENDBRANCH  33  35
ENDBRANCH  32  33
ENDBRANCH  31  32
ENDBRANCH  30  31
ENDBRANCH  29  30
ENDBRANCH  28  29
ENDBRANCH  27  28
ENDBRANCH   1  27
TORSDOF 28
ENDMDL
