MODEL 1
REMARK VINA RESULT:     -11.0      0.000      0.000
REMARK SMILES Cc1ccccc1-c1c(Cl)ccc2c1C=C(C(=O)OCCOCCOCCOCCOC(=O)c1ccc(-c3c4nc(c(-c5c(F)cc(S(=O)(=O)[O-])cc5F)c5ccc([nH]5)c(-c5c(F)cc(S(=O)(=O)[O-])cc5F)c5nc(c(-c6c(F)cc(S(=O)(=O)[O-])cc6F)c6ccc3[nH]6)C=C5)C=C4)cc1)[C@@H](C(F)(F)F)O2
REMARK SMILES IDX 26 1 25 2 24 3 23 4 22 5 21 6 20 7 19 8 17 9 18 10 16 11
REMARK SMILES IDX 8 12 9 13 14 14 10 15 11 16 13 17 15 18 12 19 105 20 100 21
REMARK SMILES IDX 7 22 1 23 2 24 3 25 4 26 6 27 5 28 101 29 102 30 103 31
REMARK SMILES IDX 104 32 27 33 28 34 29 35 30 36 31 37 32 38 33 39 34 40 35 41
REMARK SMILES IDX 99 42 36 43 98 44 37 45 38 46 39 47 92 48 40 49 97 50 91 51
REMARK SMILES IDX 93 52 41 53 96 54 90 55 89 56 42 58 76 59 55 60 75 61 56 62
REMARK SMILES IDX 59 63 74 64 94 65 57 66 58 67 73 69 95 70 60 71 43 72 44 73
REMARK SMILES IDX 53 74 45 75 46 76 52 77 54 78 47 79 48 80 49 81 50 82 51 83
REMARK SMILES IDX 77 84 78 85 87 86 79 87 80 88 86 89 88 90 81 91 82 92 83 93
REMARK SMILES IDX 84 94 85 95 61 96 62 97 71 98 63 99 64 100 70 101 72 102
REMARK SMILES IDX 65 103 66 104 67 105 68 106 69 107
REMARK H PARENT 93 57 59 68
REMARK Flexibility Score: inf
ROOT
ATOM      1  C   UNL A   1      41.078  21.490  27.847  1.00  0.00     0.188 C 
ENDROOT
BRANCH   1   2
ATOM      2  O   UNL A   1      40.921  22.738  27.156  1.00  0.00    -0.377 OA
BRANCH   2   3
ATOM      3  C   UNL A   1      39.721  23.468  27.323  1.00  0.00     0.188 C 
BRANCH   3   4
ATOM      4  C   UNL A   1      38.653  23.243  26.248  1.00  0.00     0.188 C 
BRANCH   4   5
ATOM      5  O   UNL A   1      38.244  21.925  25.917  1.00  0.00    -0.376 OA
BRANCH   5   6
ATOM      6  C   UNL A   1      36.941  21.785  25.350  1.00  0.00     0.202 C 
BRANCH   6   7
ATOM      7  C   UNL A   1      36.370  23.005  24.644  1.00  0.00     0.261 C 
BRANCH   7   8
ATOM      8  O   UNL A   1      35.295  23.566  25.400  1.00  0.00    -0.460 OA
BRANCH   8   9
ATOM      9  C   UNL A   1      34.108  23.063  25.033  1.00  0.00     0.338 C 
ATOM     10  O   UNL A   1      33.936  22.062  24.353  1.00  0.00    -0.246 OA
BRANCH   9  11
ATOM     11  C   UNL A   1      33.028  23.700  25.875  1.00  0.00     0.087 C 
ATOM     12  C   UNL A   1      33.213  26.930  24.357  1.00  0.00     0.012 A 
ATOM     13  C   UNL A   1      33.468  27.139  22.988  1.00  0.00     0.049 A 
ATOM     14  C   UNL A   1      32.719  25.661  24.700  1.00  0.00     0.027 A 
ATOM     15  Cl  UNL A   1      34.173  28.612  22.418  1.00  0.00    -0.084 Cl
ATOM     16  C   UNL A   1      33.146  26.162  22.030  1.00  0.00     0.025 A 
ATOM     17  C   UNL A   1      32.123  24.825  23.731  1.00  0.00     0.128 A 
ATOM     18  C   UNL A   1      32.991  25.042  26.017  1.00  0.00     0.028 C 
ATOM     19  C   UNL A   1      32.397  25.041  22.392  1.00  0.00     0.049 A 
ATOM     20  O   UNL A   1      31.365  23.718  24.085  1.00  0.00    -0.475 OA
ATOM     21  C   UNL A   1      31.735  23.097  25.359  1.00  0.00     0.316 C 
BRANCH  12  22
ATOM     22  C   UNL A   1      33.139  28.046  25.336  1.00  0.00    -0.013 A 
ATOM     23  C   UNL A   1      30.945  29.064  24.500  1.00  0.00     0.045 C 
ATOM     24  C   UNL A   1      32.129  29.025  25.417  1.00  0.00    -0.043 A 
ATOM     25  C   UNL A   1      32.238  30.063  26.365  1.00  0.00     0.004 A 
ATOM     26  C   UNL A   1      33.320  30.138  27.237  1.00  0.00     0.000 A 
ATOM     27  C   UNL A   1      34.228  28.152  26.234  1.00  0.00     0.009 A 
ATOM     28  C   UNL A   1      34.319  29.179  27.173  1.00  0.00     0.001 A 
ENDBRANCH  12  22
BRANCH  21  29
ATOM     29  C   UNL A   1      30.621  23.105  26.407  1.00  0.00     0.430 C 
ATOM     30  F   UNL A   1      29.740  22.095  26.203  1.00  0.00    -0.167 F 
ATOM     31  F   UNL A   1      31.126  22.919  27.655  1.00  0.00    -0.167 F 
ATOM     32  F   UNL A   1      29.919  24.258  26.430  1.00  0.00    -0.167 F 
ENDBRANCH  21  29
ENDBRANCH   9  11
ENDBRANCH   8   9
ENDBRANCH   7   8
ENDBRANCH   6   7
ENDBRANCH   5   6
ENDBRANCH   4   5
ENDBRANCH   3   4
ENDBRANCH   2   3
ENDBRANCH   1   2
BRANCH   1  33
ATOM     33  C   UNL A   1      40.877  20.176  27.099  1.00  0.00     0.188 C 
BRANCH  33  34
ATOM     34  O   UNL A   1      42.147  19.524  26.995  1.00  0.00    -0.376 OA
BRANCH  34  35
ATOM     35  C   UNL A   1      42.358  18.789  25.797  1.00  0.00     0.202 C 
BRANCH  35  36
ATOM     36  C   UNL A   1      43.775  18.222  25.660  1.00  0.00     0.261 C 
BRANCH  36  37
ATOM     37  O   UNL A   1      44.756  19.273  25.747  1.00  0.00    -0.460 OA
BRANCH  37  38
ATOM     38  C   UNL A   1      44.914  20.002  24.603  1.00  0.00     0.338 C 
ATOM     39  O   UNL A   1      45.243  19.521  23.537  1.00  0.00    -0.246 OA
BRANCH  38  40
ATOM     40  C   UNL A   1      44.590  21.433  24.851  1.00  0.00     0.060 A 
ATOM     41  C   UNL A   1      44.784  22.408  23.861  1.00  0.00     0.016 A 
ATOM     42  C   UNL A   1      44.239  21.828  26.131  1.00  0.00     0.016 A 
ATOM     43  C   UNL A   1      44.768  23.779  24.192  1.00  0.00     0.010 A 
ATOM     44  C   UNL A   1      44.291  23.168  26.458  1.00  0.00     0.010 A 
ATOM     45  C   UNL A   1      44.583  24.170  25.518  1.00  0.00    -0.014 A 
BRANCH  45  46
ATOM     46  C   UNL A   1      44.848  25.513  26.100  1.00  0.00     0.031 A 
ATOM     47  C   UNL A   1      43.684  26.404  26.480  1.00  0.00     0.074 A 
ATOM     48  C   UNL A   1      46.055  25.692  26.696  1.00  0.00     0.049 A 
ATOM     49  N   UNL A   1      43.743  27.472  27.208  1.00  0.00    -0.248 NA
ATOM     50  C   UNL A   1      42.310  26.146  26.037  1.00  0.00     0.031 C 
ATOM     51  C   UNL A   1      46.261  26.342  27.989  1.00  0.00     0.029 A 
ATOM     52  N   UNL A   1      47.319  25.191  26.425  1.00  0.00    -0.354 N 
ATOM     53  C   UNL A   1      42.455  27.833  27.587  1.00  0.00     0.074 A 
ATOM     54  C   UNL A   1      41.604  27.037  26.743  1.00  0.00     0.031 C 
ATOM     55  C   UNL A   1      47.524  26.175  28.402  1.00  0.00     0.029 A 
ATOM     56  C   UNL A   1      48.282  25.796  27.242  1.00  0.00     0.049 A 
ATOM     57  H   UNL A   1      47.513  24.502  25.749  1.00  0.00     0.167 HD
ATOM     58  C   UNL A   1      42.263  28.670  28.659  1.00  0.00     0.037 A 
ATOM     59  C   UNL A   1      49.220  26.655  26.734  1.00  0.00     0.037 A 
ATOM     60  C   UNL A   1      43.543  29.233  29.119  1.00  0.00     0.049 A 
ATOM     61  C   UNL A   1      48.942  28.132  27.036  1.00  0.00     0.074 A 
ATOM     62  C   UNL A   1      44.172  29.288  30.348  1.00  0.00     0.029 A 
ATOM     63  N   UNL A   1      44.456  29.757  28.197  1.00  0.00    -0.354 N 
ATOM     64  N   UNL A   1      47.806  28.578  27.527  1.00  0.00    -0.248 NA
ATOM     65  C   UNL A   1      49.900  29.221  26.860  1.00  0.00     0.031 C 
ATOM     66  C   UNL A   1      45.484  29.778  30.139  1.00  0.00     0.029 A 
ATOM     67  C   UNL A   1      45.675  30.020  28.787  1.00  0.00     0.049 A 
ATOM     68  H   UNL A   1      44.254  29.917  27.247  1.00  0.00     0.167 HD
ATOM     69  C   UNL A   1      47.826  29.938  27.655  1.00  0.00     0.074 A 
ATOM     70  C   UNL A   1      49.178  30.290  27.252  1.00  0.00     0.031 C 
ATOM     71  C   UNL A   1      46.744  30.683  28.044  1.00  0.00     0.037 A 
BRANCH  58  72
ATOM     72  C   UNL A   1      40.960  28.872  29.471  1.00  0.00     0.058 A 
ATOM     73  C   UNL A   1      40.622  30.150  29.995  1.00  0.00     0.135 A 
ATOM     74  C   UNL A   1      40.062  27.856  29.876  1.00  0.00     0.135 A 
ATOM     75  F   UNL A   1      41.330  31.242  29.672  1.00  0.00    -0.206 F 
ATOM     76  C   UNL A   1      39.551  30.384  30.874  1.00  0.00     0.059 A 
ATOM     77  C   UNL A   1      38.946  28.078  30.706  1.00  0.00     0.059 A 
ATOM     78  F   UNL A   1      40.235  26.578  29.527  1.00  0.00    -0.206 F 
ATOM     79  C   UNL A   1      38.713  29.339  31.229  1.00  0.00     0.060 A 
BRANCH  79  80
ATOM     80  S   UNL A   1      37.317  29.650  32.335  1.00  0.00     0.124 S 
ATOM     81  O   UNL A   1      37.689  30.918  32.953  1.00  0.00    -0.237 OA
ATOM     82  O   UNL A   1      36.186  29.703  31.413  1.00  0.00    -0.237 OA
ATOM     83  O   UNL A   1      37.328  28.495  33.229  1.00  0.00    -0.744 OA
ENDBRANCH  79  80
ENDBRANCH  58  72
BRANCH  59  84
ATOM     84  C   UNL A   1      50.063  25.990  25.687  1.00  0.00     0.058 A 
ATOM     85  C   UNL A   1      49.873  26.549  24.402  1.00  0.00     0.135 A 
ATOM     86  C   UNL A   1      51.378  25.627  26.029  1.00  0.00     0.135 A 
ATOM     87  F   UNL A   1      48.630  26.828  23.977  1.00  0.00    -0.206 F 
ATOM     88  C   UNL A   1      50.941  27.074  23.677  1.00  0.00     0.059 A 
ATOM     89  C   UNL A   1      52.467  26.132  25.310  1.00  0.00     0.059 A 
ATOM     90  F   UNL A   1      51.621  25.018  27.199  1.00  0.00    -0.206 F 
ATOM     91  C   UNL A   1      52.227  26.944  24.198  1.00  0.00     0.060 A 
BRANCH  91  92
ATOM     92  S   UNL A   1      53.497  28.106  23.621  1.00  0.00     0.124 S 
ATOM     93  O   UNL A   1      54.194  28.440  24.855  1.00  0.00    -0.237 OA
ATOM     94  O   UNL A   1      54.241  27.290  22.662  1.00  0.00    -0.237 OA
ATOM     95  O   UNL A   1      52.706  29.176  23.023  1.00  0.00    -0.744 OA
ENDBRANCH  91  92
ENDBRANCH  59  84
BRANCH  71  96
ATOM     96  C   UNL A   1      46.599  32.170  27.789  1.00  0.00     0.058 A 
ATOM     97  C   UNL A   1      45.920  32.691  26.675  1.00  0.00     0.135 A 
ATOM     98  C   UNL A   1      46.970  33.121  28.774  1.00  0.00     0.135 A 
ATOM     99  F   UNL A   1      45.400  31.890  25.734  1.00  0.00    -0.206 F 
ATOM    100  C   UNL A   1      45.694  34.057  26.508  1.00  0.00     0.059 A 
ATOM    101  C   UNL A   1      46.705  34.482  28.653  1.00  0.00     0.059 A 
ATOM    102  F   UNL A   1      47.587  32.760  29.908  1.00  0.00    -0.206 F 
ATOM    103  C   UNL A   1      46.091  34.946  27.500  1.00  0.00     0.060 A 
BRANCH 103 104
ATOM    104  S   UNL A   1      45.750  36.702  27.298  1.00  0.00     0.124 S 
ATOM    105  O   UNL A   1      46.357  37.254  28.504  1.00  0.00    -0.237 OA
ATOM    106  O   UNL A   1      46.435  37.016  26.046  1.00  0.00    -0.237 OA
ATOM    107  O   UNL A   1      44.294  36.762  27.237  1.00  0.00    -0.744 OA
ENDBRANCH 103 104
ENDBRANCH  71  96
ENDBRANCH  45  46
ENDBRANCH  38  40
ENDBRANCH  37  38
ENDBRANCH  36  37
ENDBRANCH  35  36
ENDBRANCH  34  35
ENDBRANCH  33  34
ENDBRANCH   1  33
TORSDOF 25
ENDMDL
MODEL 2
REMARK VINA RESULT:     -10.4      2.219      7.928
REMARK SMILES Cc1ccccc1-c1c(Cl)ccc2c1C=C(C(=O)OCCOCCOCCOCCOC(=O)c1ccc(-c3c4nc(c(-c5c(F)cc(S(=O)(=O)[O-])cc5F)c5ccc([nH]5)c(-c5c(F)cc(S(=O)(=O)[O-])cc5F)c5nc(c(-c6c(F)cc(S(=O)(=O)[O-])cc6F)c6ccc3[nH]6)C=C5)C=C4)cc1)[C@@H](C(F)(F)F)O2
REMARK SMILES IDX 26 1 25 2 24 3 23 4 22 5 21 6 20 7 19 8 17 9 18 10 16 11
REMARK SMILES IDX 8 12 9 13 14 14 10 15 11 16 13 17 15 18 12 19 105 20 100 21
REMARK SMILES IDX 7 22 1 23 2 24 3 25 4 26 6 27 5 28 101 29 102 30 103 31
REMARK SMILES IDX 104 32 27 33 28 34 29 35 30 36 31 37 32 38 33 39 34 40 35 41
REMARK SMILES IDX 99 42 36 43 98 44 37 45 38 46 39 47 92 48 40 49 97 50 91 51
REMARK SMILES IDX 93 52 41 53 96 54 90 55 89 56 42 58 76 59 55 60 75 61 56 62
REMARK SMILES IDX 59 63 74 64 94 65 57 66 58 67 73 69 95 70 60 71 43 72 44 73
REMARK SMILES IDX 53 74 45 75 46 76 52 77 54 78 47 79 48 80 49 81 50 82 51 83
REMARK SMILES IDX 77 84 78 85 87 86 79 87 80 88 86 89 88 90 81 91 82 92 83 93
REMARK SMILES IDX 84 94 85 95 61 96 62 97 71 98 63 99 64 100 70 101 72 102
REMARK SMILES IDX 65 103 66 104 67 105 68 106 69 107
REMARK H PARENT 93 57 59 68
REMARK Flexibility Score: inf
ROOT
ATOM      1  C   UNL A   1      41.235  21.993  27.966  1.00  0.00     0.188 C 
ENDROOT
BRANCH   1   2
ATOM      2  O   UNL A   1      41.002  23.255  27.324  1.00  0.00    -0.377 OA
BRANCH   2   3
ATOM      3  C   UNL A   1      39.799  23.949  27.593  1.00  0.00     0.188 C 
BRANCH   3   4
ATOM      4  C   UNL A   1      38.728  23.867  26.502  1.00  0.00     0.188 C 
BRANCH   4   5
ATOM      5  O   UNL A   1      38.634  22.712  25.682  1.00  0.00    -0.376 OA
BRANCH   5   6
ATOM      6  C   UNL A   1      37.355  22.439  25.108  1.00  0.00     0.202 C 
BRANCH   6   7
ATOM      7  C   UNL A   1      36.400  23.616  24.982  1.00  0.00     0.261 C 
BRANCH   7   8
ATOM      8  O   UNL A   1      35.345  23.510  25.940  1.00  0.00    -0.460 OA
BRANCH   8   9
ATOM      9  C   UNL A   1      34.194  23.117  25.376  1.00  0.00     0.338 C 
ATOM     10  O   UNL A   1      34.061  22.182  24.601  1.00  0.00    -0.246 OA
BRANCH   9  11
ATOM     11  C   UNL A   1      33.045  23.762  26.114  1.00  0.00     0.087 C 
ATOM     12  C   UNL A   1      33.268  26.930  24.475  1.00  0.00     0.012 A 
ATOM     13  C   UNL A   1      33.614  27.089  23.119  1.00  0.00     0.049 A 
ATOM     14  C   UNL A   1      32.777  25.666  24.838  1.00  0.00     0.027 A 
ATOM     15  Cl  UNL A   1      34.326  28.553  22.536  1.00  0.00    -0.084 Cl
ATOM     16  C   UNL A   1      33.379  26.065  22.184  1.00  0.00     0.025 A 
ATOM     17  C   UNL A   1      32.268  24.776  23.867  1.00  0.00     0.128 A 
ATOM     18  C   UNL A   1      32.970  25.108  26.196  1.00  0.00     0.028 C 
ATOM     19  C   UNL A   1      32.630  24.943  22.541  1.00  0.00     0.049 A 
ATOM     20  O   UNL A   1      31.510  23.667  24.215  1.00  0.00    -0.475 OA
ATOM     21  C   UNL A   1      31.803  23.108  25.537  1.00  0.00     0.316 C 
BRANCH  12  22
ATOM     22  C   UNL A   1      33.103  28.084  25.398  1.00  0.00    -0.013 A 
ATOM     23  C   UNL A   1      30.863  28.914  24.480  1.00  0.00     0.045 C 
ATOM     24  C   UNL A   1      32.030  28.996  25.416  1.00  0.00    -0.043 A 
ATOM     25  C   UNL A   1      32.053  30.083  26.314  1.00  0.00     0.004 A 
ATOM     26  C   UNL A   1      33.112  30.270  27.198  1.00  0.00     0.000 A 
ATOM     27  C   UNL A   1      34.166  28.304  26.306  1.00  0.00     0.009 A 
ATOM     28  C   UNL A   1      34.173  29.378  27.195  1.00  0.00     0.001 A 
ENDBRANCH  12  22
BRANCH  21  29
ATOM     29  C   UNL A   1      30.619  23.134  26.504  1.00  0.00     0.430 C 
ATOM     30  F   UNL A   1      29.953  24.312  26.444  1.00  0.00    -0.167 F 
ATOM     31  F   UNL A   1      29.713  22.170  26.190  1.00  0.00    -0.167 F 
ATOM     32  F   UNL A   1      30.978  22.936  27.792  1.00  0.00    -0.167 F 
ENDBRANCH  21  29
ENDBRANCH   9  11
ENDBRANCH   8   9
ENDBRANCH   7   8
ENDBRANCH   6   7
ENDBRANCH   5   6
ENDBRANCH   4   5
ENDBRANCH   3   4
ENDBRANCH   2   3
ENDBRANCH   1   2
BRANCH   1  33
ATOM     33  C   UNL A   1      40.862  20.696  27.252  1.00  0.00     0.188 C 
BRANCH  33  34
ATOM     34  O   UNL A   1      42.054  19.920  27.088  1.00  0.00    -0.376 OA
BRANCH  34  35
ATOM     35  C   UNL A   1      42.230  19.338  25.804  1.00  0.00     0.202 C 
BRANCH  35  36
ATOM     36  C   UNL A   1      43.686  19.001  25.471  1.00  0.00     0.261 C 
BRANCH  36  37
ATOM     37  O   UNL A   1      44.545  20.127  25.734  1.00  0.00    -0.460 OA
BRANCH  37  38
ATOM     38  C   UNL A   1      44.524  21.096  24.772  1.00  0.00     0.338 C 
ATOM     39  O   UNL A   1      44.692  20.877  23.590  1.00  0.00    -0.246 OA
BRANCH  38  40
ATOM     40  C   UNL A   1      44.233  22.423  25.380  1.00  0.00     0.060 A 
ATOM     41  C   UNL A   1      43.891  23.530  24.590  1.00  0.00     0.016 A 
ATOM     42  C   UNL A   1      44.455  22.602  26.736  1.00  0.00     0.016 A 
ATOM     43  C   UNL A   1      43.916  24.833  25.130  1.00  0.00     0.010 A 
ATOM     44  C   UNL A   1      44.542  23.884  27.239  1.00  0.00     0.010 A 
ATOM     45  C   UNL A   1      44.307  25.026  26.456  1.00  0.00    -0.014 A 
BRANCH  45  46
ATOM     46  C   UNL A   1      44.697  26.311  27.095  1.00  0.00     0.031 A 
ATOM     47  C   UNL A   1      46.163  26.622  27.311  1.00  0.00     0.074 A 
ATOM     48  C   UNL A   1      43.797  27.325  27.024  1.00  0.00     0.049 A 
ATOM     49  N   UNL A   1      46.664  27.774  27.621  1.00  0.00    -0.248 NA
ATOM     50  C   UNL A   1      47.214  25.606  27.198  1.00  0.00     0.031 C 
ATOM     51  C   UNL A   1      44.122  28.708  26.675  1.00  0.00     0.029 A 
ATOM     52  N   UNL A   1      42.411  27.353  27.037  1.00  0.00    -0.354 N 
ATOM     53  C   UNL A   1      48.040  27.735  27.429  1.00  0.00     0.074 A 
ATOM     54  C   UNL A   1      48.333  26.336  27.270  1.00  0.00     0.031 C 
ATOM     55  C   UNL A   1      43.002  29.418  26.481  1.00  0.00     0.029 A 
ATOM     56  C   UNL A   1      41.939  28.671  27.092  1.00  0.00     0.049 A 
ATOM     57  H   UNL A   1      41.836  26.554  27.011  1.00  0.00     0.167 HD
ATOM     58  C   UNL A   1      48.749  28.904  27.301  1.00  0.00     0.037 A 
ATOM     59  C   UNL A   1      41.315  29.166  28.206  1.00  0.00     0.037 A 
ATOM     60  C   UNL A   1      47.903  30.067  27.612  1.00  0.00     0.049 A 
ATOM     61  C   UNL A   1      42.189  30.108  29.043  1.00  0.00     0.074 A 
ATOM     62  C   UNL A   1      47.606  31.237  26.939  1.00  0.00     0.029 A 
ATOM     63  N   UNL A   1      47.090  30.064  28.752  1.00  0.00    -0.354 N 
ATOM     64  N   UNL A   1      43.483  30.258  28.864  1.00  0.00    -0.248 NA
ATOM     65  C   UNL A   1      41.703  30.980  30.109  1.00  0.00     0.031 C 
ATOM     66  C   UNL A   1      46.566  31.889  27.644  1.00  0.00     0.029 A 
ATOM     67  C   UNL A   1      46.210  31.128  28.747  1.00  0.00     0.049 A 
ATOM     68  H   UNL A   1      47.140  29.389  29.466  1.00  0.00     0.167 HD
ATOM     69  C   UNL A   1      44.007  31.127  29.779  1.00  0.00     0.074 A 
ATOM     70  C   UNL A   1      42.840  31.578  30.517  1.00  0.00     0.031 C 
ATOM     71  C   UNL A   1      45.346  31.395  29.895  1.00  0.00     0.037 A 
BRANCH  58  72
ATOM     72  C   UNL A   1      50.168  29.082  26.704  1.00  0.00     0.058 A 
ATOM     73  C   UNL A   1      51.146  29.862  27.379  1.00  0.00     0.135 A 
ATOM     74  C   UNL A   1      50.604  28.626  25.438  1.00  0.00     0.135 A 
ATOM     75  F   UNL A   1      50.929  30.331  28.616  1.00  0.00    -0.206 F 
ATOM     76  C   UNL A   1      52.395  30.206  26.832  1.00  0.00     0.059 A 
ATOM     77  C   UNL A   1      51.873  28.907  24.895  1.00  0.00     0.059 A 
ATOM     78  F   UNL A   1      49.811  27.917  24.629  1.00  0.00    -0.206 F 
ATOM     79  C   UNL A   1      52.754  29.724  25.584  1.00  0.00     0.060 A 
BRANCH  79  80
ATOM     80  S   UNL A   1      54.373  30.143  24.896  1.00  0.00     0.124 S 
ATOM     81  O   UNL A   1      54.287  29.595  23.547  1.00  0.00    -0.237 OA
ATOM     82  O   UNL A   1      54.389  31.600  24.987  1.00  0.00    -0.237 OA
ATOM     83  O   UNL A   1      55.308  29.461  25.787  1.00  0.00    -0.744 OA
ENDBRANCH  79  80
ENDBRANCH  58  72
BRANCH  59  84
ATOM     84  C   UNL A   1      40.089  28.373  28.546  1.00  0.00     0.058 A 
ATOM     85  C   UNL A   1      40.231  27.643  29.749  1.00  0.00     0.135 A 
ATOM     86  C   UNL A   1      38.834  28.963  28.311  1.00  0.00     0.135 A 
ATOM     87  F   UNL A   1      41.372  26.976  29.989  1.00  0.00    -0.206 F 
ATOM     88  C   UNL A   1      39.345  27.818  30.810  1.00  0.00     0.059 A 
ATOM     89  C   UNL A   1      37.921  29.140  29.357  1.00  0.00     0.059 A 
ATOM     90  F   UNL A   1      38.601  29.602  27.155  1.00  0.00    -0.206 F 
ATOM     91  C   UNL A   1      38.244  28.653  30.628  1.00  0.00     0.060 A 
BRANCH  91  92
ATOM     92  S   UNL A   1      37.462  29.360  32.106  1.00  0.00     0.124 S 
ATOM     93  O   UNL A   1      37.441  28.224  33.017  1.00  0.00    -0.237 OA
ATOM     94  O   UNL A   1      38.384  30.442  32.448  1.00  0.00    -0.237 OA
ATOM     95  O   UNL A   1      36.166  29.801  31.603  1.00  0.00    -0.744 OA
ENDBRANCH  91  92
ENDBRANCH  59  84
BRANCH  71  96
ATOM     96  C   UNL A   1      45.990  31.994  31.128  1.00  0.00     0.058 A 
ATOM     97  C   UNL A   1      46.241  33.370  31.267  1.00  0.00     0.135 A 
ATOM     98  C   UNL A   1      46.190  31.220  32.300  1.00  0.00     0.135 A 
ATOM     99  F   UNL A   1      45.969  34.234  30.278  1.00  0.00    -0.206 F 
ATOM    100  C   UNL A   1      46.729  33.927  32.449  1.00  0.00     0.059 A 
ATOM    101  C   UNL A   1      46.623  31.764  33.505  1.00  0.00     0.059 A 
ATOM    102  F   UNL A   1      45.950  29.901  32.324  1.00  0.00    -0.206 F 
ATOM    103  C   UNL A   1      46.920  33.117  33.563  1.00  0.00     0.060 A 
BRANCH 103 104
ATOM    104  S   UNL A   1      47.502  33.853  35.098  1.00  0.00     0.124 S 
ATOM    105  O   UNL A   1      48.627  34.653  34.626  1.00  0.00    -0.237 OA
ATOM    106  O   UNL A   1      46.337  34.610  35.549  1.00  0.00    -0.237 OA
ATOM    107  O   UNL A   1      47.846  32.699  35.922  1.00  0.00    -0.744 OA
ENDBRANCH 103 104
ENDBRANCH  71  96
ENDBRANCH  45  46
ENDBRANCH  38  40
ENDBRANCH  37  38
ENDBRANCH  36  37
ENDBRANCH  35  36
ENDBRANCH  34  35
ENDBRANCH  33  34
ENDBRANCH   1  33
TORSDOF 25
ENDMDL
MODEL 3
REMARK VINA RESULT:     -10.3      3.081      9.294
REMARK SMILES Cc1ccccc1-c1c(Cl)ccc2c1C=C(C(=O)OCCOCCOCCOCCOC(=O)c1ccc(-c3c4nc(c(-c5c(F)cc(S(=O)(=O)[O-])cc5F)c5ccc([nH]5)c(-c5c(F)cc(S(=O)(=O)[O-])cc5F)c5nc(c(-c6c(F)cc(S(=O)(=O)[O-])cc6F)c6ccc3[nH]6)C=C5)C=C4)cc1)[C@@H](C(F)(F)F)O2
REMARK SMILES IDX 26 1 25 2 24 3 23 4 22 5 21 6 20 7 19 8 17 9 18 10 16 11
REMARK SMILES IDX 8 12 9 13 14 14 10 15 11 16 13 17 15 18 12 19 105 20 100 21
REMARK SMILES IDX 7 22 1 23 2 24 3 25 4 26 6 27 5 28 101 29 102 30 103 31
REMARK SMILES IDX 104 32 27 33 28 34 29 35 30 36 31 37 32 38 33 39 34 40 35 41
REMARK SMILES IDX 99 42 36 43 98 44 37 45 38 46 39 47 92 48 40 49 97 50 91 51
REMARK SMILES IDX 93 52 41 53 96 54 90 55 89 56 42 58 76 59 55 60 75 61 56 62
REMARK SMILES IDX 59 63 74 64 94 65 57 66 58 67 73 69 95 70 60 71 43 72 44 73
REMARK SMILES IDX 53 74 45 75 46 76 52 77 54 78 47 79 48 80 49 81 50 82 51 83
REMARK SMILES IDX 77 84 78 85 87 86 79 87 80 88 86 89 88 90 81 91 82 92 83 93
REMARK SMILES IDX 84 94 85 95 61 96 62 97 71 98 63 99 64 100 70 101 72 102
REMARK SMILES IDX 65 103 66 104 67 105 68 106 69 107
REMARK H PARENT 93 57 59 68
REMARK Flexibility Score: inf
ROOT
ATOM      1  C   UNL A   1      33.445  30.923  27.347  1.00  0.00     0.188 C 
ENDROOT
BRANCH   1   2
ATOM      2  O   UNL A   1      32.137  30.714  26.793  1.00  0.00    -0.377 OA
BRANCH   2   3
ATOM      3  C   UNL A   1      31.414  31.827  26.305  1.00  0.00     0.188 C 
BRANCH   3   4
ATOM      4  C   UNL A   1      30.158  31.497  25.492  1.00  0.00     0.188 C 
BRANCH   4   5
ATOM      5  O   UNL A   1      30.274  31.097  24.134  1.00  0.00    -0.376 OA
BRANCH   5   6
ATOM      6  C   UNL A   1      30.241  29.693  23.878  1.00  0.00     0.202 C 
BRANCH   6   7
ATOM      7  C   UNL A   1      31.565  28.951  23.976  1.00  0.00     0.261 C 
BRANCH   7   8
ATOM      8  O   UNL A   1      31.352  27.596  24.379  1.00  0.00    -0.460 OA
BRANCH   8   9
ATOM      9  C   UNL A   1      32.464  27.044  24.887  1.00  0.00     0.338 C 
ATOM     10  O   UNL A   1      32.727  26.932  26.075  1.00  0.00    -0.246 OA
BRANCH   9  11
ATOM     11  C   UNL A   1      33.162  26.266  23.797  1.00  0.00     0.087 C 
ATOM     12  C   UNL A   1      33.866  23.378  25.780  1.00  0.00     0.012 A 
ATOM     13  C   UNL A   1      33.000  22.877  26.771  1.00  0.00     0.049 A 
ATOM     14  C   UNL A   1      33.272  24.193  24.804  1.00  0.00     0.027 A 
ATOM     15  Cl  UNL A   1      33.596  21.942  28.099  1.00  0.00    -0.084 Cl
ATOM     16  C   UNL A   1      31.615  23.107  26.712  1.00  0.00     0.025 A 
ATOM     17  C   UNL A   1      31.878  24.163  24.579  1.00  0.00     0.128 A 
ATOM     18  C   UNL A   1      34.019  25.275  24.123  1.00  0.00     0.028 C 
ATOM     19  C   UNL A   1      31.045  23.678  25.572  1.00  0.00     0.049 A 
ATOM     20  O   UNL A   1      31.307  24.715  23.442  1.00  0.00    -0.475 OA
ATOM     21  C   UNL A   1      32.048  25.837  22.860  1.00  0.00     0.316 C 
BRANCH  12  22
ATOM     22  C   UNL A   1      35.232  22.832  25.563  1.00  0.00    -0.013 A 
ATOM     23  C   UNL A   1      34.527  20.513  24.742  1.00  0.00     0.045 C 
ATOM     24  C   UNL A   1      35.556  21.541  25.100  1.00  0.00    -0.043 A 
ATOM     25  C   UNL A   1      36.908  21.151  25.010  1.00  0.00     0.004 A 
ATOM     26  C   UNL A   1      37.938  22.021  25.357  1.00  0.00     0.000 A 
ATOM     27  C   UNL A   1      36.302  23.691  25.911  1.00  0.00     0.009 A 
ATOM     28  C   UNL A   1      37.635  23.296  25.809  1.00  0.00     0.001 A 
ENDBRANCH  12  22
BRANCH  21  29
ATOM     29  C   UNL A   1      32.540  25.590  21.433  1.00  0.00     0.430 C 
ATOM     30  F   UNL A   1      33.630  26.343  21.146  1.00  0.00    -0.167 F 
ATOM     31  F   UNL A   1      32.921  24.296  21.267  1.00  0.00    -0.167 F 
ATOM     32  F   UNL A   1      31.606  25.853  20.494  1.00  0.00    -0.167 F 
ENDBRANCH  21  29
ENDBRANCH   9  11
ENDBRANCH   8   9
ENDBRANCH   7   8
ENDBRANCH   6   7
ENDBRANCH   5   6
ENDBRANCH   4   5
ENDBRANCH   3   4
ENDBRANCH   2   3
ENDBRANCH   1   2
BRANCH   1  33
ATOM     33  C   UNL A   1      33.801  32.269  27.971  1.00  0.00     0.188 C 
BRANCH  33  34
ATOM     34  O   UNL A   1      35.171  32.553  27.667  1.00  0.00    -0.376 OA
BRANCH  34  35
ATOM     35  C   UNL A   1      35.766  33.584  28.442  1.00  0.00     0.202 C 
BRANCH  35  36
ATOM     36  C   UNL A   1      37.146  33.223  28.999  1.00  0.00     0.261 C 
BRANCH  36  37
ATOM     37  O   UNL A   1      37.542  31.906  28.569  1.00  0.00    -0.460 OA
BRANCH  37  38
ATOM     38  C   UNL A   1      37.629  30.982  29.571  1.00  0.00     0.338 C 
ATOM     39  O   UNL A   1      36.787  30.842  30.435  1.00  0.00    -0.246 OA
BRANCH  38  40
ATOM     40  C   UNL A   1      38.867  30.170  29.422  1.00  0.00     0.060 A 
ATOM     41  C   UNL A   1      39.882  30.201  30.389  1.00  0.00     0.016 A 
ATOM     42  C   UNL A   1      39.086  29.495  28.232  1.00  0.00     0.016 A 
ATOM     43  C   UNL A   1      41.162  29.680  30.103  1.00  0.00     0.010 A 
ATOM     44  C   UNL A   1      40.357  29.048  27.938  1.00  0.00     0.010 A 
ATOM     45  C   UNL A   1      41.429  29.152  28.840  1.00  0.00    -0.014 A 
BRANCH  45  46
ATOM     46  C   UNL A   1      42.765  28.859  28.257  1.00  0.00     0.031 A 
ATOM     47  C   UNL A   1      43.697  30.002  27.915  1.00  0.00     0.074 A 
ATOM     48  C   UNL A   1      43.275  27.622  28.493  1.00  0.00     0.049 A 
ATOM     49  N   UNL A   1      44.957  29.907  27.639  1.00  0.00    -0.248 NA
ATOM     50  C   UNL A   1      43.249  31.397  27.847  1.00  0.00     0.031 C 
ATOM     51  C   UNL A   1      44.653  27.351  28.904  1.00  0.00     0.029 A 
ATOM     52  N   UNL A   1      42.688  26.374  28.624  1.00  0.00    -0.354 N 
ATOM     53  C   UNL A   1      45.528  31.174  27.685  1.00  0.00     0.074 A 
ATOM     54  C   UNL A   1      44.399  32.066  27.712  1.00  0.00     0.031 C 
ATOM     55  C   UNL A   1      44.790  26.067  29.263  1.00  0.00     0.029 A 
ATOM     56  C   UNL A   1      43.661  25.371  28.712  1.00  0.00     0.049 A 
ATOM     57  H   UNL A   1      41.717  26.214  28.651  1.00  0.00     0.167 HD
ATOM     58  C   UNL A   1      46.886  31.311  27.822  1.00  0.00     0.037 A 
ATOM     59  C   UNL A   1      43.851  24.460  27.706  1.00  0.00     0.037 A 
ATOM     60  C   UNL A   1      47.561  30.010  27.684  1.00  0.00     0.049 A 
ATOM     61  C   UNL A   1      45.097  24.724  26.853  1.00  0.00     0.074 A 
ATOM     62  C   UNL A   1      48.466  29.318  28.466  1.00  0.00     0.029 A 
ATOM     63  N   UNL A   1      47.221  29.146  26.636  1.00  0.00    -0.354 N 
ATOM     64  N   UNL A   1      45.801  25.833  26.909  1.00  0.00    -0.248 NA
ATOM     65  C   UNL A   1      45.684  23.778  25.908  1.00  0.00     0.031 C 
ATOM     66  C   UNL A   1      48.604  28.019  27.920  1.00  0.00     0.029 A 
ATOM     67  C   UNL A   1      47.785  27.898  26.807  1.00  0.00     0.049 A 
ATOM     68  H   UNL A   1      46.651  29.397  25.874  1.00  0.00     0.167 HD
ATOM     69  C   UNL A   1      46.829  25.808  26.010  1.00  0.00     0.074 A 
ATOM     70  C   UNL A   1      46.731  24.480  25.429  1.00  0.00     0.031 C 
ATOM     71  C   UNL A   1      47.664  26.870  25.776  1.00  0.00     0.037 A 
BRANCH  58  72
ATOM     72  C   UNL A   1      47.662  32.571  28.281  1.00  0.00     0.058 A 
ATOM     73  C   UNL A   1      48.131  33.520  27.333  1.00  0.00     0.135 A 
ATOM     74  C   UNL A   1      48.084  32.857  29.601  1.00  0.00     0.135 A 
ATOM     75  F   UNL A   1      47.783  33.441  26.040  1.00  0.00    -0.206 F 
ATOM     76  C   UNL A   1      48.977  34.598  27.647  1.00  0.00     0.059 A 
ATOM     77  C   UNL A   1      48.881  33.965  29.949  1.00  0.00     0.059 A 
ATOM     78  F   UNL A   1      47.786  32.056  30.629  1.00  0.00    -0.206 F 
ATOM     79  C   UNL A   1      49.351  34.815  28.963  1.00  0.00     0.060 A 
BRANCH  79  80
ATOM     80  S   UNL A   1      50.414  36.220  29.369  1.00  0.00     0.124 S 
ATOM     81  O   UNL A   1      51.723  35.758  28.918  1.00  0.00    -0.237 OA
ATOM     82  O   UNL A   1      49.822  37.303  28.588  1.00  0.00    -0.237 OA
ATOM     83  O   UNL A   1      50.265  36.353  30.816  1.00  0.00    -0.744 OA
ENDBRANCH  79  80
ENDBRANCH  58  72
BRANCH  59  84
ATOM     84  C   UNL A   1      42.604  23.672  27.438  1.00  0.00     0.058 A 
ATOM     85  C   UNL A   1      42.409  23.418  26.061  1.00  0.00     0.135 A 
ATOM     86  C   UNL A   1      42.276  22.631  28.325  1.00  0.00     0.135 A 
ATOM     87  F   UNL A   1      42.611  24.401  25.168  1.00  0.00    -0.206 F 
ATOM     88  C   UNL A   1      42.285  22.116  25.577  1.00  0.00     0.059 A 
ATOM     89  C   UNL A   1      42.135  21.318  27.863  1.00  0.00     0.059 A 
ATOM     90  F   UNL A   1      42.359  22.829  29.649  1.00  0.00    -0.206 F 
ATOM     91  C   UNL A   1      42.251  21.066  26.492  1.00  0.00     0.060 A 
BRANCH  91  92
ATOM     92  S   UNL A   1      42.702  19.410  25.900  1.00  0.00     0.124 S 
ATOM     93  O   UNL A   1      43.327  18.821  27.076  1.00  0.00    -0.237 OA
ATOM     94  O   UNL A   1      41.402  18.860  25.519  1.00  0.00    -0.237 OA
ATOM     95  O   UNL A   1      43.590  19.701  24.780  1.00  0.00    -0.744 OA
ENDBRANCH  91  92
ENDBRANCH  59  84
BRANCH  71  96
ATOM     96  C   UNL A   1      48.509  27.029  24.529  1.00  0.00     0.058 A 
ATOM     97  C   UNL A   1      49.801  26.491  24.408  1.00  0.00     0.135 A 
ATOM     98  C   UNL A   1      47.959  27.560  23.334  1.00  0.00     0.135 A 
ATOM     99  F   UNL A   1      50.387  25.842  25.426  1.00  0.00    -0.206 F 
ATOM    100  C   UNL A   1      50.527  26.545  23.219  1.00  0.00     0.059 A 
ATOM    101  C   UNL A   1      48.645  27.573  22.123  1.00  0.00     0.059 A 
ATOM    102  F   UNL A   1      46.719  28.069  23.292  1.00  0.00    -0.206 F 
ATOM    103  C   UNL A   1      49.943  27.089  22.081  1.00  0.00     0.060 A 
BRANCH 103 104
ATOM    104  S   UNL A   1      50.869  27.108  20.538  1.00  0.00     0.124 S 
ATOM    105  O   UNL A   1      51.947  26.173  20.837  1.00  0.00    -0.237 OA
ATOM    106  O   UNL A   1      49.880  26.643  19.568  1.00  0.00    -0.237 OA
ATOM    107  O   UNL A   1      51.264  28.506  20.394  1.00  0.00    -0.744 OA
ENDBRANCH 103 104
ENDBRANCH  71  96
ENDBRANCH  45  46
ENDBRANCH  38  40
ENDBRANCH  37  38
ENDBRANCH  36  37
ENDBRANCH  35  36
ENDBRANCH  34  35
ENDBRANCH  33  34
ENDBRANCH   1  33
TORSDOF 25
ENDMDL
