MODEL 1
REMARK VINA RESULT:     -10.3      0.000      0.000
REMARK SMILES CCc1cccc(-c2ccc([C@@H](C)C(=O)OCCOCCOCCOCCOC(=O)c3ccc(-c4c5nc(c(-c6c(F)cc(S(=O)(=O)[O-])cc6F)c6ccc([nH]6)c(-c6c(F)cc(S(=O)(=O)[O-])cc6F)c6nc(c(-c7c(F)cc(S(=O)(=O)[O-])cc7F)c7ccc4[nH]7)C=C6)C=C5)cc3)cc2)c1
REMARK SMILES IDX 22 1 21 2 20 3 19 4 18 5 17 6 16 7 14 8 15 9 12 10 13 11
REMARK SMILES IDX 11 12 8 13 9 14 98 15 10 16 97 17 7 18 3 19 4 20 99 21 5 22
REMARK SMILES IDX 6 23 2 24 1 25 23 26 24 27 25 28 26 29 27 30 28 31 29 32
REMARK SMILES IDX 30 33 31 34 32 35 96 36 33 37 95 38 34 39 35 40 36 41 89 42
REMARK SMILES IDX 37 43 94 44 88 45 90 46 38 47 93 48 87 49 86 50 39 52 73 53
REMARK SMILES IDX 52 54 72 55 53 56 56 57 71 58 91 59 54 60 55 61 70 63 92 64
REMARK SMILES IDX 57 65 40 66 41 67 50 68 42 69 43 70 49 71 51 72 44 73 45 74
REMARK SMILES IDX 46 75 47 76 48 77 74 78 75 79 84 80 76 81 77 82 83 83 85 84
REMARK SMILES IDX 78 85 79 86 80 87 81 88 82 89 58 90 59 91 68 92 60 93 61 94
REMARK SMILES IDX 67 95 69 96 62 97 63 98 64 99 65 100 66 101
REMARK H PARENT 90 51 56 62
REMARK Flexibility Score: inf
ROOT
ATOM      1  O   UNL A   1      35.539  22.694  24.333  1.00  0.00    -0.377 OA
ENDROOT
BRANCH   1   2
ATOM      2  C   UNL A   1      35.518  24.051  24.720  1.00  0.00     0.188 C 
BRANCH   2   3
ATOM      3  C   UNL A   1      34.572  24.384  25.881  1.00  0.00     0.188 C 
BRANCH   3   4
ATOM      4  O   UNL A   1      33.799  25.577  25.885  1.00  0.00    -0.376 OA
BRANCH   4   5
ATOM      5  C   UNL A   1      33.985  26.566  24.881  1.00  0.00     0.202 C 
BRANCH   5   6
ATOM      6  C   UNL A   1      33.333  27.957  25.001  1.00  0.00     0.261 C 
BRANCH   6   7
ATOM      7  O   UNL A   1      31.925  28.051  24.701  1.00  0.00    -0.463 OA
BRANCH   7   8
ATOM      8  C   UNL A   1      31.569  27.837  23.414  1.00  0.00     0.313 C 
ATOM      9  O   UNL A   1      31.924  28.562  22.484  1.00  0.00    -0.252 OA
BRANCH   8  10
ATOM     10  C   UNL A   1      30.663  26.633  23.157  1.00  0.00     0.126 C 
ATOM     11  C   UNL A   1      29.266  26.964  23.671  1.00  0.00     0.025 C 
BRANCH  10  12
ATOM     12  C   UNL A   1      31.079  25.214  23.552  1.00  0.00    -0.034 A 
ATOM     13  C   UNL A   1      31.951  22.552  24.191  1.00  0.00    -0.018 A 
ATOM     14  C   UNL A   1      31.076  23.269  25.030  1.00  0.00     0.009 A 
ATOM     15  C   UNL A   1      32.384  23.196  23.026  1.00  0.00     0.009 A 
ATOM     16  C   UNL A   1      30.642  24.574  24.717  1.00  0.00     0.005 A 
ATOM     17  C   UNL A   1      31.949  24.493  22.707  1.00  0.00     0.005 A 
BRANCH  13  18
ATOM     18  C   UNL A   1      32.337  21.153  24.486  1.00  0.00    -0.018 A 
ATOM     19  C   UNL A   1      32.750  18.822  23.794  1.00  0.00    -0.048 A 
ATOM     20  C   UNL A   1      32.993  18.483  25.133  1.00  0.00     0.004 A 
ATOM     21  C   UNL A   1      32.413  20.157  23.488  1.00  0.00     0.012 A 
ATOM     22  C   UNL A   1      32.922  19.449  26.133  1.00  0.00     0.001 A 
ATOM     23  C   UNL A   1      32.601  20.767  25.811  1.00  0.00     0.009 A 
BRANCH  19  24
ATOM     24  C   UNL A   1      32.777  17.723  22.755  1.00  0.00     0.032 C 
ATOM     25  C   UNL A   1      33.999  16.818  22.793  1.00  0.00     0.009 C 
ENDBRANCH  19  24
ENDBRANCH  13  18
ENDBRANCH  10  12
ENDBRANCH   8  10
ENDBRANCH   7   8
ENDBRANCH   6   7
ENDBRANCH   5   6
ENDBRANCH   4   5
ENDBRANCH   3   4
ENDBRANCH   2   3
ENDBRANCH   1   2
BRANCH   1  26
ATOM     26  C   UNL A   1      36.803  22.053  24.318  1.00  0.00     0.188 C 
BRANCH  26  27
ATOM     27  C   UNL A   1      37.680  22.210  25.574  1.00  0.00     0.188 C 
BRANCH  27  28
ATOM     28  O   UNL A   1      38.746  21.270  25.656  1.00  0.00    -0.376 OA
BRANCH  28  29
ATOM     29  C   UNL A   1      39.926  21.639  26.357  1.00  0.00     0.202 C 
BRANCH  29  30
ATOM     30  C   UNL A   1      40.004  23.042  26.986  1.00  0.00     0.261 C 
BRANCH  30  31
ATOM     31  O   UNL A   1      41.199  23.802  26.753  1.00  0.00    -0.460 OA
BRANCH  31  32
ATOM     32  C   UNL A   1      41.076  25.095  26.389  1.00  0.00     0.338 C 
ATOM     33  O   UNL A   1      40.846  25.517  25.266  1.00  0.00    -0.246 OA
BRANCH  32  34
ATOM     34  C   UNL A   1      41.054  25.917  27.619  1.00  0.00     0.060 A 
ATOM     35  C   UNL A   1      39.851  26.038  28.330  1.00  0.00     0.016 A 
ATOM     36  C   UNL A   1      42.206  26.563  28.074  1.00  0.00     0.016 A 
ATOM     37  C   UNL A   1      39.787  26.839  29.471  1.00  0.00     0.010 A 
ATOM     38  C   UNL A   1      42.133  27.389  29.202  1.00  0.00     0.010 A 
ATOM     39  C   UNL A   1      40.915  27.559  29.884  1.00  0.00    -0.014 A 
BRANCH  39  40
ATOM     40  C   UNL A   1      40.764  28.642  30.890  1.00  0.00     0.031 A 
ATOM     41  C   UNL A   1      41.666  28.620  32.097  1.00  0.00     0.074 A 
ATOM     42  C   UNL A   1      39.876  29.641  30.728  1.00  0.00     0.049 A 
ATOM     43  N   UNL A   1      41.681  29.409  33.139  1.00  0.00    -0.248 NA
ATOM     44  C   UNL A   1      42.690  27.562  32.129  1.00  0.00     0.031 C 
ATOM     45  C   UNL A   1      38.982  29.801  29.582  1.00  0.00     0.029 A 
ATOM     46  N   UNL A   1      39.575  30.707  31.541  1.00  0.00    -0.354 N 
ATOM     47  C   UNL A   1      42.715  28.949  33.947  1.00  0.00     0.074 A 
ATOM     48  C   UNL A   1      43.277  27.786  33.295  1.00  0.00     0.031 C 
ATOM     49  C   UNL A   1      38.213  30.887  29.779  1.00  0.00     0.029 A 
ATOM     50  C   UNL A   1      38.536  31.479  31.077  1.00  0.00     0.049 A 
ATOM     51  H   UNL A   1      40.058  30.900  32.377  1.00  0.00     0.167 HD
ATOM     52  C   UNL A   1      43.167  29.458  35.117  1.00  0.00     0.037 A 
ATOM     53  C   UNL A   1      37.898  32.520  31.651  1.00  0.00     0.037 A 
ATOM     54  C   UNL A   1      42.597  30.609  35.767  1.00  0.00     0.049 A 
ATOM     55  C   UNL A   1      38.360  33.015  33.002  1.00  0.00     0.074 A 
ATOM     56  C   UNL A   1      42.971  31.193  36.965  1.00  0.00     0.029 A 
ATOM     57  N   UNL A   1      41.533  31.351  35.276  1.00  0.00    -0.354 N 
ATOM     58  N   UNL A   1      39.341  32.573  33.754  1.00  0.00    -0.248 NA
ATOM     59  C   UNL A   1      37.632  34.154  33.581  1.00  0.00     0.031 C 
ATOM     60  C   UNL A   1      42.104  32.258  37.222  1.00  0.00     0.029 A 
ATOM     61  C   UNL A   1      41.228  32.378  36.154  1.00  0.00     0.049 A 
ATOM     62  H   UNL A   1      41.065  31.175  34.428  1.00  0.00     0.167 HD
ATOM     63  C   UNL A   1      39.368  33.401  34.873  1.00  0.00     0.074 A 
ATOM     64  C   UNL A   1      38.315  34.378  34.695  1.00  0.00     0.031 C 
ATOM     65  C   UNL A   1      40.188  33.357  35.953  1.00  0.00     0.037 A 
BRANCH  52  66
ATOM     66  C   UNL A   1      44.330  28.769  35.777  1.00  0.00     0.058 A 
ATOM     67  C   UNL A   1      45.655  29.154  35.519  1.00  0.00     0.135 A 
ATOM     68  C   UNL A   1      44.116  27.748  36.717  1.00  0.00     0.135 A 
ATOM     69  F   UNL A   1      45.918  30.109  34.612  1.00  0.00    -0.206 F 
ATOM     70  C   UNL A   1      46.728  28.543  36.159  1.00  0.00     0.059 A 
ATOM     71  C   UNL A   1      45.173  27.143  37.392  1.00  0.00     0.059 A 
ATOM     72  F   UNL A   1      42.870  27.335  36.997  1.00  0.00    -0.206 F 
ATOM     73  C   UNL A   1      46.476  27.542  37.099  1.00  0.00     0.060 A 
BRANCH  73  74
ATOM     74  S   UNL A   1      47.880  26.783  37.942  1.00  0.00     0.124 S 
ATOM     75  O   UNL A   1      48.503  27.942  38.574  1.00  0.00    -0.237 OA
ATOM     76  O   UNL A   1      47.226  25.843  38.846  1.00  0.00    -0.237 OA
ATOM     77  O   UNL A   1      48.643  26.177  36.856  1.00  0.00    -0.744 OA
ENDBRANCH  73  74
ENDBRANCH  52  66
BRANCH  53  78
ATOM     78  C   UNL A   1      36.724  33.148  30.980  1.00  0.00     0.058 A 
ATOM     79  C   UNL A   1      36.872  33.954  29.842  1.00  0.00     0.135 A 
ATOM     80  C   UNL A   1      35.428  32.985  31.496  1.00  0.00     0.135 A 
ATOM     81  F   UNL A   1      38.090  34.152  29.315  1.00  0.00    -0.206 F 
ATOM     82  C   UNL A   1      35.787  34.603  29.259  1.00  0.00     0.059 A 
ATOM     83  C   UNL A   1      34.322  33.597  30.912  1.00  0.00     0.059 A 
ATOM     84  F   UNL A   1      35.225  32.218  32.578  1.00  0.00    -0.206 F 
ATOM     85  C   UNL A   1      34.515  34.419  29.803  1.00  0.00     0.060 A 
BRANCH  85  86
ATOM     86  S   UNL A   1      33.112  35.253  29.032  1.00  0.00     0.124 S 
ATOM     87  O   UNL A   1      33.742  36.454  28.497  1.00  0.00    -0.237 OA
ATOM     88  O   UNL A   1      32.674  34.268  28.047  1.00  0.00    -0.237 OA
ATOM     89  O   UNL A   1      32.194  35.465  30.147  1.00  0.00    -0.744 OA
ENDBRANCH  85  86
ENDBRANCH  53  78
BRANCH  65  90
ATOM     90  C   UNL A   1      40.023  34.423  37.004  1.00  0.00     0.058 A 
ATOM     91  C   UNL A   1      40.768  35.612  36.981  1.00  0.00     0.135 A 
ATOM     92  C   UNL A   1      39.060  34.275  38.017  1.00  0.00     0.135 A 
ATOM     93  F   UNL A   1      41.704  35.805  36.039  1.00  0.00    -0.206 F 
ATOM     94  C   UNL A   1      40.586  36.603  37.941  1.00  0.00     0.059 A 
ATOM     95  C   UNL A   1      38.837  35.268  38.967  1.00  0.00     0.059 A 
ATOM     96  F   UNL A   1      38.308  33.164  38.079  1.00  0.00    -0.206 F 
ATOM     97  C   UNL A   1      39.615  36.423  38.928  1.00  0.00     0.060 A 
BRANCH  97  98
ATOM     98  S   UNL A   1      39.368  37.732  40.147  1.00  0.00     0.124 S 
ATOM     99  O   UNL A   1      40.636  38.449  40.072  1.00  0.00    -0.237 OA
ATOM    100  O   UNL A   1      38.207  38.439  39.613  1.00  0.00    -0.237 OA
ATOM    101  O   UNL A   1      39.133  37.002  41.389  1.00  0.00    -0.744 OA
ENDBRANCH  97  98
ENDBRANCH  65  90
ENDBRANCH  39  40
ENDBRANCH  32  34
ENDBRANCH  31  32
ENDBRANCH  30  31
ENDBRANCH  29  30
ENDBRANCH  28  29
ENDBRANCH  27  28
ENDBRANCH  26  27
ENDBRANCH   1  26
TORSDOF 26
ENDMDL
MODEL 2
REMARK VINA RESULT:     -10.1      0.499      7.987
REMARK SMILES CCc1cccc(-c2ccc([C@@H](C)C(=O)OCCOCCOCCOCCOC(=O)c3ccc(-c4c5nc(c(-c6c(F)cc(S(=O)(=O)[O-])cc6F)c6ccc([nH]6)c(-c6c(F)cc(S(=O)(=O)[O-])cc6F)c6nc(c(-c7c(F)cc(S(=O)(=O)[O-])cc7F)c7ccc4[nH]7)C=C6)C=C5)cc3)cc2)c1
REMARK SMILES IDX 22 1 21 2 20 3 19 4 18 5 17 6 16 7 14 8 15 9 12 10 13 11
REMARK SMILES IDX 11 12 8 13 9 14 98 15 10 16 97 17 7 18 3 19 4 20 99 21 5 22
REMARK SMILES IDX 6 23 2 24 1 25 23 26 24 27 25 28 26 29 27 30 28 31 29 32
REMARK SMILES IDX 30 33 31 34 32 35 96 36 33 37 95 38 34 39 35 40 36 41 89 42
REMARK SMILES IDX 37 43 94 44 88 45 90 46 38 47 93 48 87 49 86 50 39 52 73 53
REMARK SMILES IDX 52 54 72 55 53 56 56 57 71 58 91 59 54 60 55 61 70 63 92 64
REMARK SMILES IDX 57 65 40 66 41 67 50 68 42 69 43 70 49 71 51 72 44 73 45 74
REMARK SMILES IDX 46 75 47 76 48 77 74 78 75 79 84 80 76 81 77 82 83 83 85 84
REMARK SMILES IDX 78 85 79 86 80 87 81 88 82 89 58 90 59 91 68 92 60 93 61 94
REMARK SMILES IDX 67 95 69 96 62 97 63 98 64 99 65 100 66 101
REMARK H PARENT 90 51 56 62
REMARK Flexibility Score: inf
ROOT
ATOM      1  O   UNL A   1      35.480  22.798  24.376  1.00  0.00    -0.377 OA
ENDROOT
BRANCH   1   2
ATOM      2  C   UNL A   1      35.438  24.188  24.619  1.00  0.00     0.188 C 
BRANCH   2   3
ATOM      3  C   UNL A   1      34.486  24.625  25.741  1.00  0.00     0.188 C 
BRANCH   3   4
ATOM      4  O   UNL A   1      33.668  25.781  25.606  1.00  0.00    -0.376 OA
BRANCH   4   5
ATOM      5  C   UNL A   1      34.031  26.827  24.716  1.00  0.00     0.202 C 
BRANCH   5   6
ATOM      6  C   UNL A   1      33.296  28.182  24.735  1.00  0.00     0.261 C 
BRANCH   6   7
ATOM      7  O   UNL A   1      31.854  28.147  24.707  1.00  0.00    -0.463 OA
BRANCH   7   8
ATOM      8  C   UNL A   1      31.275  28.191  23.485  1.00  0.00     0.313 C 
ATOM      9  O   UNL A   1      31.371  29.154  22.725  1.00  0.00    -0.252 OA
BRANCH   8  10
ATOM     10  C   UNL A   1      30.455  26.965  23.085  1.00  0.00     0.126 C 
ATOM     11  C   UNL A   1      29.025  27.163  23.572  1.00  0.00     0.025 C 
BRANCH  10  12
ATOM     12  C   UNL A   1      30.946  25.542  23.365  1.00  0.00    -0.034 A 
ATOM     13  C   UNL A   1      31.779  22.865  23.995  1.00  0.00    -0.018 A 
ATOM     14  C   UNL A   1      32.209  23.522  22.826  1.00  0.00     0.009 A 
ATOM     15  C   UNL A   1      30.919  23.574  24.842  1.00  0.00     0.009 A 
ATOM     16  C   UNL A   1      31.806  24.837  22.516  1.00  0.00     0.005 A 
ATOM     17  C   UNL A   1      30.521  24.888  24.541  1.00  0.00     0.005 A 
BRANCH  13  18
ATOM     18  C   UNL A   1      32.270  21.515  24.354  1.00  0.00    -0.018 A 
ATOM     19  C   UNL A   1      32.721  19.153  23.809  1.00  0.00    -0.048 A 
ATOM     20  C   UNL A   1      33.134  18.941  25.132  1.00  0.00     0.004 A 
ATOM     21  C   UNL A   1      32.283  20.440  23.438  1.00  0.00     0.012 A 
ATOM     22  C   UNL A   1      33.128  19.986  26.053  1.00  0.00     0.001 A 
ATOM     23  C   UNL A   1      32.703  21.257  25.665  1.00  0.00     0.009 A 
BRANCH  19  24
ATOM     24  C   UNL A   1      32.687  17.969  22.866  1.00  0.00     0.032 C 
ATOM     25  C   UNL A   1      33.870  17.019  22.968  1.00  0.00     0.009 C 
ENDBRANCH  19  24
ENDBRANCH  13  18
ENDBRANCH  10  12
ENDBRANCH   8  10
ENDBRANCH   7   8
ENDBRANCH   6   7
ENDBRANCH   5   6
ENDBRANCH   4   5
ENDBRANCH   3   4
ENDBRANCH   2   3
ENDBRANCH   1   2
BRANCH   1  26
ATOM     26  C   UNL A   1      36.763  22.195  24.338  1.00  0.00     0.188 C 
BRANCH  26  27
ATOM     27  C   UNL A   1      37.682  22.433  25.550  1.00  0.00     0.188 C 
BRANCH  27  28
ATOM     28  O   UNL A   1      38.775  21.524  25.634  1.00  0.00    -0.376 OA
BRANCH  28  29
ATOM     29  C   UNL A   1      39.980  21.964  26.244  1.00  0.00     0.202 C 
BRANCH  29  30
ATOM     30  C   UNL A   1      40.036  23.387  26.830  1.00  0.00     0.261 C 
BRANCH  30  31
ATOM     31  O   UNL A   1      41.225  24.153  26.586  1.00  0.00    -0.460 OA
BRANCH  31  32
ATOM     32  C   UNL A   1      41.100  25.478  26.367  1.00  0.00     0.338 C 
ATOM     33  O   UNL A   1      40.821  26.019  25.308  1.00  0.00    -0.246 OA
BRANCH  32  34
ATOM     34  C   UNL A   1      41.148  26.165  27.677  1.00  0.00     0.060 A 
ATOM     35  C   UNL A   1      40.035  26.080  28.526  1.00  0.00     0.016 A 
ATOM     36  C   UNL A   1      42.278  26.886  28.071  1.00  0.00     0.016 A 
ATOM     37  C   UNL A   1      40.033  26.750  29.750  1.00  0.00     0.010 A 
ATOM     38  C   UNL A   1      42.262  27.581  29.287  1.00  0.00     0.010 A 
ATOM     39  C   UNL A   1      41.125  27.546  30.114  1.00  0.00    -0.014 A 
BRANCH  39  40
ATOM     40  C   UNL A   1      40.993  28.499  31.247  1.00  0.00     0.031 A 
ATOM     41  C   UNL A   1      39.963  29.594  31.135  1.00  0.00     0.074 A 
ATOM     42  C   UNL A   1      41.738  28.384  32.361  1.00  0.00     0.049 A 
ATOM     43  N   UNL A   1      39.706  30.581  31.952  1.00  0.00    -0.248 NA
ATOM     44  C   UNL A   1      39.107  29.568  29.936  1.00  0.00     0.031 C 
ATOM     45  C   UNL A   1      42.732  27.341  32.610  1.00  0.00     0.029 A 
ATOM     46  N   UNL A   1      41.778  29.164  33.491  1.00  0.00    -0.354 N 
ATOM     47  C   UNL A   1      38.659  31.288  31.373  1.00  0.00     0.074 A 
ATOM     48  C   UNL A   1      38.357  30.644  30.114  1.00  0.00     0.031 C 
ATOM     49  C   UNL A   1      43.305  27.563  33.807  1.00  0.00     0.029 A 
ATOM     50  C   UNL A   1      42.743  28.779  34.393  1.00  0.00     0.049 A 
ATOM     51  H   UNL A   1      41.174  29.927  33.641  1.00  0.00     0.167 HD
ATOM     52  C   UNL A   1      37.998  32.368  31.853  1.00  0.00     0.037 A 
ATOM     53  C   UNL A   1      43.147  29.363  35.541  1.00  0.00     0.037 A 
ATOM     54  C   UNL A   1      38.309  33.013  33.101  1.00  0.00     0.049 A 
ATOM     55  C   UNL A   1      42.456  30.621  36.012  1.00  0.00     0.074 A 
ATOM     56  C   UNL A   1      37.711  34.124  33.668  1.00  0.00     0.029 A 
ATOM     57  N   UNL A   1      39.306  32.606  33.976  1.00  0.00    -0.354 N 
ATOM     58  N   UNL A   1      41.465  31.279  35.457  1.00  0.00    -0.248 NA
ATOM     59  C   UNL A   1      42.933  31.215  37.271  1.00  0.00     0.031 C 
ATOM     60  C   UNL A   1      38.375  34.419  34.861  1.00  0.00     0.029 A 
ATOM     61  C   UNL A   1      39.349  33.454  35.071  1.00  0.00     0.049 A 
ATOM     62  H   UNL A   1      39.894  31.829  33.840  1.00  0.00     0.167 HD
ATOM     63  C   UNL A   1      41.181  32.339  36.313  1.00  0.00     0.074 A 
ATOM     64  C   UNL A   1      42.094  32.228  37.431  1.00  0.00     0.031 C 
ATOM     65  C   UNL A   1      40.251  33.318  36.187  1.00  0.00     0.037 A 
BRANCH  52  66
ATOM     66  C   UNL A   1      36.876  32.928  31.021  1.00  0.00     0.058 A 
ATOM     67  C   UNL A   1      35.531  32.686  31.344  1.00  0.00     0.135 A 
ATOM     68  C   UNL A   1      37.146  33.759  29.921  1.00  0.00     0.135 A 
ATOM     69  F   UNL A   1      35.215  31.881  32.371  1.00  0.00    -0.206 F 
ATOM     70  C   UNL A   1      34.494  33.237  30.598  1.00  0.00     0.059 A 
ATOM     71  C   UNL A   1      36.125  34.344  29.179  1.00  0.00     0.059 A 
ATOM     72  F   UNL A   1      38.414  34.017  29.564  1.00  0.00    -0.206 F 
ATOM     73  C   UNL A   1      34.801  34.070  29.521  1.00  0.00     0.060 A 
BRANCH  73  74
ATOM     74  S   UNL A   1      33.442  34.800  28.584  1.00  0.00     0.124 S 
ATOM     75  O   UNL A   1      32.594  35.316  29.654  1.00  0.00    -0.237 OA
ATOM     76  O   UNL A   1      34.126  35.804  27.777  1.00  0.00    -0.237 OA
ATOM     77  O   UNL A   1      32.894  33.669  27.842  1.00  0.00    -0.744 OA
ENDBRANCH  73  74
ENDBRANCH  52  66
BRANCH  53  78
ATOM     78  C   UNL A   1      44.290  28.797  36.312  1.00  0.00     0.058 A 
ATOM     79  C   UNL A   1      44.122  27.711  37.184  1.00  0.00     0.135 A 
ATOM     80  C   UNL A   1      45.571  29.365  36.223  1.00  0.00     0.135 A 
ATOM     81  F   UNL A   1      42.916  27.138  37.318  1.00  0.00    -0.206 F 
ATOM     82  C   UNL A   1      45.170  27.230  37.964  1.00  0.00     0.059 A 
ATOM     83  C   UNL A   1      46.644  28.881  36.966  1.00  0.00     0.059 A 
ATOM     84  F   UNL A   1      45.793  30.400  35.398  1.00  0.00    -0.206 F 
ATOM     85  C   UNL A   1      46.428  27.823  37.848  1.00  0.00     0.060 A 
BRANCH  85  86
ATOM     86  S   UNL A   1      47.786  27.183  38.851  1.00  0.00     0.124 S 
ATOM     87  O   UNL A   1      47.192  25.976  39.414  1.00  0.00    -0.237 OA
ATOM     88  O   UNL A   1      48.832  26.976  37.854  1.00  0.00    -0.237 OA
ATOM     89  O   UNL A   1      48.039  28.262  39.801  1.00  0.00    -0.744 OA
ENDBRANCH  85  86
ENDBRANCH  53  78
BRANCH  65  90
ATOM     90  C   UNL A   1      40.129  34.319  37.307  1.00  0.00     0.058 A 
ATOM     91  C   UNL A   1      40.869  35.510  37.324  1.00  0.00     0.135 A 
ATOM     92  C   UNL A   1      39.211  34.105  38.350  1.00  0.00     0.135 A 
ATOM     93  F   UNL A   1      41.763  35.765  36.355  1.00  0.00    -0.206 F 
ATOM     94  C   UNL A   1      40.727  36.441  38.349  1.00  0.00     0.059 A 
ATOM     95  C   UNL A   1      39.027  35.037  39.367  1.00  0.00     0.059 A 
ATOM     96  F   UNL A   1      38.466  32.988  38.378  1.00  0.00    -0.206 F 
ATOM     97  C   UNL A   1      39.800  36.197  39.365  1.00  0.00     0.060 A 
BRANCH  97  98
ATOM     98  S   UNL A   1      39.603  37.429  40.670  1.00  0.00     0.124 S 
ATOM     99  O   UNL A   1      38.761  38.423  40.012  1.00  0.00    -0.237 OA
ATOM    100  O   UNL A   1      38.963  36.658  41.732  1.00  0.00    -0.237 OA
ATOM    101  O   UNL A   1      40.972  37.853  40.948  1.00  0.00    -0.744 OA
ENDBRANCH  97  98
ENDBRANCH  65  90
ENDBRANCH  39  40
ENDBRANCH  32  34
ENDBRANCH  31  32
ENDBRANCH  30  31
ENDBRANCH  29  30
ENDBRANCH  28  29
ENDBRANCH  27  28
ENDBRANCH  26  27
ENDBRANCH   1  26
TORSDOF 26
ENDMDL
MODEL 3
REMARK VINA RESULT:     -10.1      1.259      8.692
REMARK SMILES CCc1cccc(-c2ccc([C@@H](C)C(=O)OCCOCCOCCOCCOC(=O)c3ccc(-c4c5nc(c(-c6c(F)cc(S(=O)(=O)[O-])cc6F)c6ccc([nH]6)c(-c6c(F)cc(S(=O)(=O)[O-])cc6F)c6nc(c(-c7c(F)cc(S(=O)(=O)[O-])cc7F)c7ccc4[nH]7)C=C6)C=C5)cc3)cc2)c1
REMARK SMILES IDX 22 1 21 2 20 3 19 4 18 5 17 6 16 7 14 8 15 9 12 10 13 11
REMARK SMILES IDX 11 12 8 13 9 14 98 15 10 16 97 17 7 18 3 19 4 20 99 21 5 22
REMARK SMILES IDX 6 23 2 24 1 25 23 26 24 27 25 28 26 29 27 30 28 31 29 32
REMARK SMILES IDX 30 33 31 34 32 35 96 36 33 37 95 38 34 39 35 40 36 41 89 42
REMARK SMILES IDX 37 43 94 44 88 45 90 46 38 47 93 48 87 49 86 50 39 52 73 53
REMARK SMILES IDX 52 54 72 55 53 56 56 57 71 58 91 59 54 60 55 61 70 63 92 64
REMARK SMILES IDX 57 65 40 66 41 67 50 68 42 69 43 70 49 71 51 72 44 73 45 74
REMARK SMILES IDX 46 75 47 76 48 77 74 78 75 79 84 80 76 81 77 82 83 83 85 84
REMARK SMILES IDX 78 85 79 86 80 87 81 88 82 89 58 90 59 91 68 92 60 93 61 94
REMARK SMILES IDX 67 95 69 96 62 97 63 98 64 99 65 100 66 101
REMARK H PARENT 90 51 56 62
REMARK Flexibility Score: inf
ROOT
ATOM      1  O   UNL A   1      36.085  22.301  24.101  1.00  0.00    -0.377 OA
ENDROOT
BRANCH   1   2
ATOM      2  C   UNL A   1      35.899  23.699  24.176  1.00  0.00     0.188 C 
BRANCH   2   3
ATOM      3  C   UNL A   1      35.548  24.237  25.570  1.00  0.00     0.188 C 
BRANCH   3   4
ATOM      4  O   UNL A   1      34.365  23.827  26.243  1.00  0.00    -0.376 OA
BRANCH   4   5
ATOM      5  C   UNL A   1      34.399  22.771  27.193  1.00  0.00     0.202 C 
BRANCH   5   6
ATOM      6  C   UNL A   1      33.792  21.390  26.874  1.00  0.00     0.261 C 
BRANCH   6   7
ATOM      7  O   UNL A   1      33.797  20.974  25.493  1.00  0.00    -0.463 OA
BRANCH   7   8
ATOM      8  C   UNL A   1      32.662  20.400  25.033  1.00  0.00     0.313 C 
ATOM      9  O   UNL A   1      32.342  19.238  25.284  1.00  0.00    -0.252 OA
BRANCH   8  10
ATOM     10  C   UNL A   1      31.777  21.275  24.146  1.00  0.00     0.126 C 
ATOM     11  C   UNL A   1      32.072  20.935  22.690  1.00  0.00     0.025 C 
BRANCH  10  12
ATOM     12  C   UNL A   1      31.674  22.787  24.354  1.00  0.00    -0.034 A 
ATOM     13  C   UNL A   1      31.545  25.645  24.627  1.00  0.00    -0.018 A 
ATOM     14  C   UNL A   1      30.857  24.783  25.502  1.00  0.00     0.009 A 
ATOM     15  C   UNL A   1      32.297  25.048  23.608  1.00  0.00     0.009 A 
ATOM     16  C   UNL A   1      30.921  23.381  25.374  1.00  0.00     0.005 A 
ATOM     17  C   UNL A   1      32.371  23.651  23.481  1.00  0.00     0.005 A 
BRANCH  13  18
ATOM     18  C   UNL A   1      31.538  27.114  24.816  1.00  0.00    -0.018 A 
ATOM     19  C   UNL A   1      32.207  29.150  26.035  1.00  0.00    -0.048 A 
ATOM     20  C   UNL A   1      31.404  29.912  25.175  1.00  0.00     0.004 A 
ATOM     21  C   UNL A   1      32.256  27.753  25.850  1.00  0.00     0.012 A 
ATOM     22  C   UNL A   1      30.686  29.303  24.149  1.00  0.00     0.001 A 
ATOM     23  C   UNL A   1      30.756  27.921  23.972  1.00  0.00     0.009 A 
BRANCH  19  24
ATOM     24  C   UNL A   1      32.916  29.853  27.172  1.00  0.00     0.032 C 
ATOM     25  C   UNL A   1      34.423  29.650  27.228  1.00  0.00     0.009 C 
ENDBRANCH  19  24
ENDBRANCH  13  18
ENDBRANCH  10  12
ENDBRANCH   8  10
ENDBRANCH   7   8
ENDBRANCH   6   7
ENDBRANCH   5   6
ENDBRANCH   4   5
ENDBRANCH   3   4
ENDBRANCH   2   3
ENDBRANCH   1   2
BRANCH   1  26
ATOM     26  C   UNL A   1      37.412  21.825  24.246  1.00  0.00     0.188 C 
BRANCH  26  27
ATOM     27  C   UNL A   1      38.016  21.861  25.662  1.00  0.00     0.188 C 
BRANCH  27  28
ATOM     28  O   UNL A   1      39.250  21.163  25.783  1.00  0.00    -0.376 OA
BRANCH  28  29
ATOM     29  C   UNL A   1      40.360  21.837  26.358  1.00  0.00     0.202 C 
BRANCH  29  30
ATOM     30  C   UNL A   1      40.212  23.324  26.728  1.00  0.00     0.261 C 
BRANCH  30  31
ATOM     31  O   UNL A   1      41.368  24.161  26.573  1.00  0.00    -0.460 OA
BRANCH  31  32
ATOM     32  C   UNL A   1      41.181  25.480  26.365  1.00  0.00     0.338 C 
ATOM     33  O   UNL A   1      40.877  26.016  25.310  1.00  0.00    -0.246 OA
BRANCH  32  34
ATOM     34  C   UNL A   1      41.197  26.157  27.680  1.00  0.00     0.060 A 
ATOM     35  C   UNL A   1      40.051  26.096  28.486  1.00  0.00     0.016 A 
ATOM     36  C   UNL A   1      42.330  26.847  28.121  1.00  0.00     0.016 A 
ATOM     37  C   UNL A   1      40.020  26.759  29.714  1.00  0.00     0.010 A 
ATOM     38  C   UNL A   1      42.286  27.534  29.340  1.00  0.00     0.010 A 
ATOM     39  C   UNL A   1      41.119  27.524  30.124  1.00  0.00    -0.014 A 
BRANCH  39  40
ATOM     40  C   UNL A   1      40.968  28.474  31.257  1.00  0.00     0.031 A 
ATOM     41  C   UNL A   1      39.928  29.557  31.140  1.00  0.00     0.074 A 
ATOM     42  C   UNL A   1      41.707  28.363  32.377  1.00  0.00     0.049 A 
ATOM     43  N   UNL A   1      39.655  30.540  31.958  1.00  0.00    -0.248 NA
ATOM     44  C   UNL A   1      39.081  29.525  29.935  1.00  0.00     0.031 C 
ATOM     45  C   UNL A   1      42.710  27.331  32.631  1.00  0.00     0.029 A 
ATOM     46  N   UNL A   1      41.731  29.142  33.509  1.00  0.00    -0.354 N 
ATOM     47  C   UNL A   1      38.605  31.238  31.372  1.00  0.00     0.074 A 
ATOM     48  C   UNL A   1      38.318  30.593  30.110  1.00  0.00     0.031 C 
ATOM     49  C   UNL A   1      43.272  27.557  33.833  1.00  0.00     0.029 A 
ATOM     50  C   UNL A   1      42.693  28.766  34.417  1.00  0.00     0.049 A 
ATOM     51  H   UNL A   1      41.118  29.898  33.656  1.00  0.00     0.167 HD
ATOM     52  C   UNL A   1      37.929  32.310  31.849  1.00  0.00     0.037 A 
ATOM     53  C   UNL A   1      43.083  29.351  35.568  1.00  0.00     0.037 A 
ATOM     54  C   UNL A   1      38.225  32.956  33.101  1.00  0.00     0.049 A 
ATOM     55  C   UNL A   1      42.376  30.602  36.037  1.00  0.00     0.074 A 
ATOM     56  C   UNL A   1      37.611  34.060  33.666  1.00  0.00     0.029 A 
ATOM     57  N   UNL A   1      39.219  32.557  33.983  1.00  0.00    -0.354 N 
ATOM     58  N   UNL A   1      41.382  31.250  35.476  1.00  0.00    -0.248 NA
ATOM     59  C   UNL A   1      42.838  31.197  37.300  1.00  0.00     0.031 C 
ATOM     60  C   UNL A   1      38.264  34.359  34.864  1.00  0.00     0.029 A 
ATOM     61  C   UNL A   1      39.246  33.404  35.079  1.00  0.00     0.049 A 
ATOM     62  H   UNL A   1      39.817  31.787  33.849  1.00  0.00     0.167 HD
ATOM     63  C   UNL A   1      41.081  32.305  36.332  1.00  0.00     0.074 A 
ATOM     64  C   UNL A   1      41.987  32.202  37.456  1.00  0.00     0.031 C 
ATOM     65  C   UNL A   1      40.141  33.275  36.202  1.00  0.00     0.037 A 
BRANCH  52  66
ATOM     66  C   UNL A   1      36.807  32.860  31.011  1.00  0.00     0.058 A 
ATOM     67  C   UNL A   1      35.464  32.586  31.311  1.00  0.00     0.135 A 
ATOM     68  C   UNL A   1      37.075  33.713  29.928  1.00  0.00     0.135 A 
ATOM     69  F   UNL A   1      35.150  31.758  32.321  1.00  0.00    -0.206 F 
ATOM     70  C   UNL A   1      34.426  33.126  30.559  1.00  0.00     0.059 A 
ATOM     71  C   UNL A   1      36.052  34.289  29.180  1.00  0.00     0.059 A 
ATOM     72  F   UNL A   1      38.343  34.003  29.593  1.00  0.00    -0.206 F 
ATOM     73  C   UNL A   1      34.730  33.983  29.499  1.00  0.00     0.060 A 
BRANCH  73  74
ATOM     74  S   UNL A   1      33.369  34.699  28.555  1.00  0.00     0.124 S 
ATOM     75  O   UNL A   1      32.469  35.129  29.621  1.00  0.00    -0.237 OA
ATOM     76  O   UNL A   1      34.033  35.767  27.817  1.00  0.00    -0.237 OA
ATOM     77  O   UNL A   1      32.891  33.583  27.745  1.00  0.00    -0.744 OA
ENDBRANCH  73  74
ENDBRANCH  52  66
BRANCH  53  78
ATOM     78  C   UNL A   1      44.227  28.796  36.347  1.00  0.00     0.058 A 
ATOM     79  C   UNL A   1      45.511  29.354  36.265  1.00  0.00     0.135 A 
ATOM     80  C   UNL A   1      44.062  27.662  37.159  1.00  0.00     0.135 A 
ATOM     81  F   UNL A   1      45.726  30.431  35.494  1.00  0.00    -0.206 F 
ATOM     82  C   UNL A   1      46.596  28.792  36.931  1.00  0.00     0.059 A 
ATOM     83  C   UNL A   1      45.125  27.100  37.860  1.00  0.00     0.059 A 
ATOM     84  F   UNL A   1      42.854  27.090  37.281  1.00  0.00    -0.206 F 
ATOM     85  C   UNL A   1      46.393  27.663  37.726  1.00  0.00     0.060 A 
BRANCH  85  86
ATOM     86  S   UNL A   1      47.804  26.948  38.597  1.00  0.00     0.124 S 
ATOM     87  O   UNL A   1      48.718  28.083  38.657  1.00  0.00    -0.237 OA
ATOM     88  O   UNL A   1      47.206  26.542  39.865  1.00  0.00    -0.237 OA
ATOM     89  O   UNL A   1      48.216  25.853  37.726  1.00  0.00    -0.744 OA
ENDBRANCH  85  86
ENDBRANCH  53  78
BRANCH  65  90
ATOM     90  C   UNL A   1      40.001  34.272  37.322  1.00  0.00     0.058 A 
ATOM     91  C   UNL A   1      40.536  35.566  37.238  1.00  0.00     0.135 A 
ATOM     92  C   UNL A   1      39.268  33.942  38.475  1.00  0.00     0.135 A 
ATOM     93  F   UNL A   1      41.249  35.934  36.161  1.00  0.00    -0.206 F 
ATOM     94  C   UNL A   1      40.376  36.489  38.267  1.00  0.00     0.059 A 
ATOM     95  C   UNL A   1      39.065  34.860  39.502  1.00  0.00     0.059 A 
ATOM     96  F   UNL A   1      38.722  32.722  38.604  1.00  0.00    -0.206 F 
ATOM     97  C   UNL A   1      39.635  36.127  39.395  1.00  0.00     0.060 A 
BRANCH  97  98
ATOM     98  S   UNL A   1      39.407  37.346  40.707  1.00  0.00     0.124 S 
ATOM     99  O   UNL A   1      38.942  36.510  41.809  1.00  0.00    -0.237 OA
ATOM    100  O   UNL A   1      40.749  37.900  40.854  1.00  0.00    -0.237 OA
ATOM    101  O   UNL A   1      38.414  38.262  40.153  1.00  0.00    -0.744 OA
ENDBRANCH  97  98
ENDBRANCH  65  90
ENDBRANCH  39  40
ENDBRANCH  32  34
ENDBRANCH  31  32
ENDBRANCH  30  31
ENDBRANCH  29  30
ENDBRANCH  28  29
ENDBRANCH  27  28
ENDBRANCH  26  27
ENDBRANCH   1  26
TORSDOF 26
ENDMDL
