MODEL 1
REMARK VINA RESULT:      -7.4      0.000      0.000
REMARK SMILES CCCC[C@H](C(=O)OC)[C@H](O)C(=O)OCCOCCOCCOCCOC(=O)c1ccc(-c2c3nc(c(-c4c(F)cc(S(=O)(=O)[O-])cc4F)c4ccc([nH]4)c(-c4c(F)cc(S(=O)(=O)[O-])cc4F)c4nc(c(-c5c(F)cc(S(=O)(=O)[O-])cc5F)c5ccc2[nH]5)C=C4)C=C3)cc1
REMARK SMILES IDX 19 1 18 2 17 3 16 4 15 5 14 6 12 7 13 8 10 9 5 10 4 11 3 12
REMARK SMILES IDX 2 13 1 14 6 15 7 16 8 17 9 18 11 19 20 21 21 22 22 23 23 24
REMARK SMILES IDX 24 25 25 26 26 27 27 28 28 29 29 30 30 31 94 32 31 33 93 34
REMARK SMILES IDX 32 35 33 36 34 37 87 38 35 39 92 40 86 41 88 42 36 43 91 44
REMARK SMILES IDX 85 45 84 46 37 48 71 49 50 50 70 51 51 52 54 53 69 54 89 55
REMARK SMILES IDX 52 56 53 57 68 59 90 60 55 61 38 62 39 63 48 64 40 65 41 66
REMARK SMILES IDX 47 67 49 68 42 69 43 70 44 71 45 72 46 73 72 74 73 75 82 76
REMARK SMILES IDX 74 77 75 78 81 79 83 80 76 81 77 82 78 83 79 84 80 85 56 86
REMARK SMILES IDX 57 87 66 88 58 89 59 90 65 91 67 92 60 93 61 94 62 95 63 96
REMARK SMILES IDX 64 97
REMARK H PARENT 11 20 88 47 54 58
REMARK Flexibility Score: inf
ROOT
ATOM      1  C   UNL A   1      38.512  22.064  25.480  1.00  0.00     0.188 C 
ENDROOT
BRANCH   1   2
ATOM      2  C   UNL A   1      37.049  22.465  25.739  1.00  0.00     0.188 C 
BRANCH   2   3
ATOM      3  O   UNL A   1      36.047  21.519  26.091  1.00  0.00    -0.376 OA
BRANCH   3   4
ATOM      4  C   UNL A   1      34.656  21.694  25.848  1.00  0.00     0.202 C 
BRANCH   4   5
ATOM      5  C   UNL A   1      33.576  21.604  26.931  1.00  0.00     0.261 C 
BRANCH   5   6
ATOM      6  O   UNL A   1      32.577  22.614  26.851  1.00  0.00    -0.461 OA
BRANCH   6   7
ATOM      7  C   UNL A   1      31.561  22.352  25.992  1.00  0.00     0.335 C 
ATOM      8  O   UNL A   1      31.373  21.288  25.418  1.00  0.00    -0.249 OA
BRANCH   7   9
ATOM      9  C   UNL A   1      30.583  23.537  25.948  1.00  0.00     0.238 C 
BRANCH   9  10
ATOM     10  C   UNL A   1      31.210  24.767  25.300  1.00  0.00     0.139 C 
BRANCH  10  11
ATOM     11  C   UNL A   1      30.570  26.069  25.825  1.00  0.00     0.019 C 
BRANCH  11  12
ATOM     12  C   UNL A   1      31.562  27.041  26.491  1.00  0.00     0.001 C 
BRANCH  12  13
ATOM     13  C   UNL A   1      33.045  26.711  26.292  1.00  0.00    -0.003 C 
ATOM     14  C   UNL A   1      33.920  27.942  26.110  1.00  0.00     0.004 C 
ENDBRANCH  12  13
ENDBRANCH  11  12
ENDBRANCH  10  11
BRANCH  10  15
ATOM     15  C   UNL A   1      31.101  24.651  23.790  1.00  0.00     0.311 C 
ATOM     16  O   UNL A   1      30.319  23.932  23.186  1.00  0.00    -0.252 OA
BRANCH  15  17
ATOM     17  O   UNL A   1      32.045  25.449  23.221  1.00  0.00    -0.469 OA
ATOM     18  C   UNL A   1      31.593  26.322  22.186  1.00  0.00     0.282 C 
ENDBRANCH  15  17
ENDBRANCH  10  15
ENDBRANCH   9  10
BRANCH   9  19
ATOM     19  O   UNL A   1      30.022  23.915  27.207  1.00  0.00    -0.381 OA
ATOM     20  H   UNL A   1      29.515  24.734  27.103  1.00  0.00     0.211 HD
ENDBRANCH   9  19
ENDBRANCH   7   9
ENDBRANCH   6   7
ENDBRANCH   5   6
ENDBRANCH   4   5
ENDBRANCH   3   4
ENDBRANCH   2   3
ENDBRANCH   1   2
BRANCH   1  21
ATOM     21  O   UNL A   1      39.111  21.375  26.558  1.00  0.00    -0.377 OA
BRANCH  21  22
ATOM     22  C   UNL A   1      40.453  20.929  26.347  1.00  0.00     0.188 C 
BRANCH  22  23
ATOM     23  C   UNL A   1      41.467  21.033  27.516  1.00  0.00     0.188 C 
BRANCH  23  24
ATOM     24  O   UNL A   1      42.376  22.119  27.404  1.00  0.00    -0.376 OA
BRANCH  24  25
ATOM     25  C   UNL A   1      41.916  23.322  26.808  1.00  0.00     0.202 C 
BRANCH  25  26
ATOM     26  C   UNL A   1      42.896  24.082  25.900  1.00  0.00     0.261 C 
BRANCH  26  27
ATOM     27  O   UNL A   1      43.346  25.363  26.371  1.00  0.00    -0.460 OA
BRANCH  27  28
ATOM     28  C   UNL A   1      44.448  25.407  27.148  1.00  0.00     0.338 C 
ATOM     29  O   UNL A   1      45.515  24.852  26.937  1.00  0.00    -0.246 OA
BRANCH  28  30
ATOM     30  C   UNL A   1      44.211  26.421  28.198  1.00  0.00     0.060 A 
ATOM     31  C   UNL A   1      43.423  26.090  29.311  1.00  0.00     0.016 A 
ATOM     32  C   UNL A   1      44.786  27.689  28.095  1.00  0.00     0.016 A 
ATOM     33  C   UNL A   1      43.193  27.035  30.313  1.00  0.00     0.010 A 
ATOM     34  C   UNL A   1      44.534  28.640  29.088  1.00  0.00     0.010 A 
ATOM     35  C   UNL A   1      43.717  28.327  30.190  1.00  0.00    -0.014 A 
BRANCH  35  36
ATOM     36  C   UNL A   1      43.289  29.410  31.110  1.00  0.00     0.031 A 
ATOM     37  C   UNL A   1      44.095  29.645  32.358  1.00  0.00     0.074 A 
ATOM     38  C   UNL A   1      42.189  30.145  30.864  1.00  0.00     0.049 A 
ATOM     39  N   UNL A   1      43.842  30.426  33.375  1.00  0.00    -0.248 NA
ATOM     40  C   UNL A   1      45.352  28.888  32.479  1.00  0.00     0.031 C 
ATOM     41  C   UNL A   1      41.350  30.040  29.672  1.00  0.00     0.029 A 
ATOM     42  N   UNL A   1      41.572  31.109  31.625  1.00  0.00    -0.354 N 
ATOM     43  C   UNL A   1      44.891  30.236  34.266  1.00  0.00     0.074 A 
ATOM     44  C   UNL A   1      45.780  29.259  33.676  1.00  0.00     0.031 C 
ATOM     45  C   UNL A   1      40.308  30.881  29.797  1.00  0.00     0.029 A 
ATOM     46  C   UNL A   1      40.380  31.549  31.096  1.00  0.00     0.049 A 
ATOM     47  H   UNL A   1      41.947  31.452  32.469  1.00  0.00     0.167 HD
ATOM     48  C   UNL A   1      45.090  30.821  35.471  1.00  0.00     0.037 A 
ATOM     49  C   UNL A   1      39.437  32.359  31.621  1.00  0.00     0.037 A 
ATOM     50  C   UNL A   1      44.204  31.799  36.044  1.00  0.00     0.049 A 
ATOM     51  C   UNL A   1      39.648  32.946  32.997  1.00  0.00     0.074 A 
ATOM     52  C   UNL A   1      44.347  32.489  37.235  1.00  0.00     0.029 A 
ATOM     53  N   UNL A   1      43.006  32.213  35.483  1.00  0.00    -0.354 N 
ATOM     54  N   UNL A   1      40.668  32.799  33.809  1.00  0.00    -0.248 NA
ATOM     55  C   UNL A   1      38.578  33.802  33.531  1.00  0.00     0.031 C 
ATOM     56  C   UNL A   1      43.201  33.265  37.429  1.00  0.00     0.029 A 
ATOM     57  C   UNL A   1      42.376  33.114  36.325  1.00  0.00     0.049 A 
ATOM     58  H   UNL A   1      42.655  31.910  34.615  1.00  0.00     0.167 HD
ATOM     59  C   UNL A   1      40.373  33.563  34.935  1.00  0.00     0.074 A 
ATOM     60  C   UNL A   1      39.088  34.183  34.694  1.00  0.00     0.031 C 
ATOM     61  C   UNL A   1      41.101  33.735  36.067  1.00  0.00     0.037 A 
BRANCH  48  62
ATOM     62  C   UNL A   1      46.286  30.396  36.276  1.00  0.00     0.058 A 
ATOM     63  C   UNL A   1      47.521  31.056  36.184  1.00  0.00     0.135 A 
ATOM     64  C   UNL A   1      46.170  29.351  37.209  1.00  0.00     0.135 A 
ATOM     65  F   UNL A   1      47.694  32.047  35.295  1.00  0.00    -0.206 F 
ATOM     66  C   UNL A   1      48.602  30.687  36.979  1.00  0.00     0.059 A 
ATOM     67  C   UNL A   1      47.227  28.986  38.034  1.00  0.00     0.059 A 
ATOM     68  F   UNL A   1      45.012  28.682  37.333  1.00  0.00    -0.206 F 
ATOM     69  C   UNL A   1      48.443  29.656  37.907  1.00  0.00     0.060 A 
BRANCH  69  70
ATOM     70  S   UNL A   1      49.844  29.216  38.954  1.00  0.00     0.124 S 
ATOM     71  O   UNL A   1      50.910  30.028  38.372  1.00  0.00    -0.237 OA
ATOM     72  O   UNL A   1      49.386  29.629  40.276  1.00  0.00    -0.237 OA
ATOM     73  O   UNL A   1      49.978  27.776  38.760  1.00  0.00    -0.744 OA
ENDBRANCH  69  70
ENDBRANCH  48  62
BRANCH  49  74
ATOM     74  C   UNL A   1      38.177  32.627  30.872  1.00  0.00     0.058 A 
ATOM     75  C   UNL A   1      37.012  31.884  31.116  1.00  0.00     0.135 A 
ATOM     76  C   UNL A   1      38.122  33.614  29.875  1.00  0.00     0.135 A 
ATOM     77  F   UNL A   1      37.015  30.918  32.047  1.00  0.00    -0.206 F 
ATOM     78  C   UNL A   1      35.846  32.095  30.387  1.00  0.00     0.059 A 
ATOM     79  C   UNL A   1      36.958  33.866  29.155  1.00  0.00     0.059 A 
ATOM     80  F   UNL A   1      39.205  34.359  29.603  1.00  0.00    -0.206 F 
ATOM     81  C   UNL A   1      35.828  33.092  29.408  1.00  0.00     0.060 A 
BRANCH  81  82
ATOM     82  S   UNL A   1      34.299  33.381  28.493  1.00  0.00     0.124 S 
ATOM     83  O   UNL A   1      33.448  33.970  29.521  1.00  0.00    -0.237 OA
ATOM     84  O   UNL A   1      34.744  34.285  27.437  1.00  0.00    -0.237 OA
ATOM     85  O   UNL A   1      33.918  32.045  28.044  1.00  0.00    -0.744 OA
ENDBRANCH  81  82
ENDBRANCH  49  74
BRANCH  61  86
ATOM     86  C   UNL A   1      40.551  34.652  37.128  1.00  0.00     0.058 A 
ATOM     87  C   UNL A   1      39.730  34.176  38.162  1.00  0.00     0.135 A 
ATOM     88  C   UNL A   1      40.930  36.004  37.163  1.00  0.00     0.135 A 
ATOM     89  F   UNL A   1      39.331  32.895  38.173  1.00  0.00    -0.206 F 
ATOM     90  C   UNL A   1      39.296  35.011  39.187  1.00  0.00     0.059 A 
ATOM     91  C   UNL A   1      40.534  36.849  38.195  1.00  0.00     0.059 A 
ATOM     92  F   UNL A   1      41.723  36.509  36.204  1.00  0.00    -0.206 F 
ATOM     93  C   UNL A   1      39.712  36.344  39.200  1.00  0.00     0.060 A 
BRANCH  93  94
ATOM     94  S   UNL A   1      39.195  37.396  40.574  1.00  0.00     0.124 S 
ATOM     95  O   UNL A   1      38.155  38.207  39.949  1.00  0.00    -0.237 OA
ATOM     96  O   UNL A   1      38.734  36.421  41.556  1.00  0.00    -0.237 OA
ATOM     97  O   UNL A   1      40.416  38.113  40.933  1.00  0.00    -0.744 OA
ENDBRANCH  93  94
ENDBRANCH  61  86
ENDBRANCH  35  36
ENDBRANCH  28  30
ENDBRANCH  27  28
ENDBRANCH  26  27
ENDBRANCH  25  26
ENDBRANCH  24  25
ENDBRANCH  23  24
ENDBRANCH  22  23
ENDBRANCH  21  22
ENDBRANCH   1  21
TORSDOF 30
ENDMDL
MODEL 2
REMARK VINA RESULT:      -6.6      6.025      9.006
REMARK SMILES CCCC[C@H](C(=O)OC)[C@H](O)C(=O)OCCOCCOCCOCCOC(=O)c1ccc(-c2c3nc(c(-c4c(F)cc(S(=O)(=O)[O-])cc4F)c4ccc([nH]4)c(-c4c(F)cc(S(=O)(=O)[O-])cc4F)c4nc(c(-c5c(F)cc(S(=O)(=O)[O-])cc5F)c5ccc2[nH]5)C=C4)C=C3)cc1
REMARK SMILES IDX 19 1 18 2 17 3 16 4 15 5 14 6 12 7 13 8 10 9 5 10 4 11 3 12
REMARK SMILES IDX 2 13 1 14 6 15 7 16 8 17 9 18 11 19 20 21 21 22 22 23 23 24
REMARK SMILES IDX 24 25 25 26 26 27 27 28 28 29 29 30 30 31 94 32 31 33 93 34
REMARK SMILES IDX 32 35 33 36 34 37 87 38 35 39 92 40 86 41 88 42 36 43 91 44
REMARK SMILES IDX 85 45 84 46 37 48 71 49 50 50 70 51 51 52 54 53 69 54 89 55
REMARK SMILES IDX 52 56 53 57 68 59 90 60 55 61 38 62 39 63 48 64 40 65 41 66
REMARK SMILES IDX 47 67 49 68 42 69 43 70 44 71 45 72 46 73 72 74 73 75 82 76
REMARK SMILES IDX 74 77 75 78 81 79 83 80 76 81 77 82 78 83 79 84 80 85 56 86
REMARK SMILES IDX 57 87 66 88 58 89 59 90 65 91 67 92 60 93 61 94 62 95 63 96
REMARK SMILES IDX 64 97
REMARK H PARENT 11 20 88 47 54 58
REMARK Flexibility Score: inf
ROOT
ATOM      1  C   UNL A   1      40.616  21.277  26.672  1.00  0.00     0.188 C 
ENDROOT
BRANCH   1   2
ATOM      2  C   UNL A   1      39.396  21.878  25.951  1.00  0.00     0.188 C 
BRANCH   2   3
ATOM      3  O   UNL A   1      38.249  21.107  25.616  1.00  0.00    -0.376 OA
BRANCH   3   4
ATOM      4  C   UNL A   1      37.073  21.636  25.015  1.00  0.00     0.202 C 
BRANCH   4   5
ATOM      5  C   UNL A   1      35.675  21.030  25.182  1.00  0.00     0.261 C 
BRANCH   5   6
ATOM      6  O   UNL A   1      34.683  21.951  25.623  1.00  0.00    -0.461 OA
BRANCH   6   7
ATOM      7  C   UNL A   1      34.079  22.661  24.639  1.00  0.00     0.335 C 
ATOM      8  O   UNL A   1      33.950  22.298  23.477  1.00  0.00    -0.249 OA
BRANCH   7   9
ATOM      9  C   UNL A   1      33.442  23.934  25.218  1.00  0.00     0.238 C 
BRANCH   9  10
ATOM     10  C   UNL A   1      32.490  24.596  24.227  1.00  0.00     0.139 C 
BRANCH  10  11
ATOM     11  C   UNL A   1      32.458  26.127  24.411  1.00  0.00     0.019 C 
BRANCH  11  12
ATOM     12  C   UNL A   1      32.501  26.926  23.095  1.00  0.00     0.001 C 
BRANCH  12  13
ATOM     13  C   UNL A   1      32.801  28.421  23.239  1.00  0.00    -0.003 C 
ATOM     14  C   UNL A   1      34.174  28.816  22.716  1.00  0.00     0.004 C 
ENDBRANCH  12  13
ENDBRANCH  11  12
ENDBRANCH  10  11
BRANCH  10  15
ATOM     15  C   UNL A   1      31.109  23.979  24.366  1.00  0.00     0.311 C 
ATOM     16  O   UNL A   1      30.408  23.589  23.445  1.00  0.00    -0.252 OA
BRANCH  15  17
ATOM     17  O   UNL A   1      30.765  23.969  25.683  1.00  0.00    -0.469 OA
ATOM     18  C   UNL A   1      30.410  22.702  26.233  1.00  0.00     0.282 C 
ENDBRANCH  15  17
ENDBRANCH  10  15
ENDBRANCH   9  10
BRANCH   9  19
ATOM     19  O   UNL A   1      34.363  24.916  25.697  1.00  0.00    -0.381 OA
ATOM     20  H   UNL A   1      35.216  24.495  25.887  1.00  0.00     0.211 HD
ENDBRANCH   9  19
ENDBRANCH   7   9
ENDBRANCH   6   7
ENDBRANCH   5   6
ENDBRANCH   4   5
ENDBRANCH   3   4
ENDBRANCH   2   3
ENDBRANCH   1   2
BRANCH   1  21
ATOM     21  O   UNL A   1      40.690  21.615  28.042  1.00  0.00    -0.377 OA
BRANCH  21  22
ATOM     22  C   UNL A   1      41.646  22.620  28.388  1.00  0.00     0.188 C 
BRANCH  22  23
ATOM     23  C   UNL A   1      41.269  24.111  28.189  1.00  0.00     0.188 C 
BRANCH  23  24
ATOM     24  O   UNL A   1      42.237  24.867  27.475  1.00  0.00    -0.376 OA
BRANCH  24  25
ATOM     25  C   UNL A   1      42.442  24.570  26.102  1.00  0.00     0.202 C 
BRANCH  25  26
ATOM     26  C   UNL A   1      43.650  23.691  25.740  1.00  0.00     0.261 C 
BRANCH  26  27
ATOM     27  O   UNL A   1      44.759  24.352  25.109  1.00  0.00    -0.460 OA
BRANCH  27  28
ATOM     28  C   UNL A   1      45.912  24.466  25.801  1.00  0.00     0.338 C 
ATOM     29  O   UNL A   1      46.809  23.641  25.869  1.00  0.00    -0.246 OA
BRANCH  28  30
ATOM     30  C   UNL A   1      45.999  25.859  26.292  1.00  0.00     0.060 A 
ATOM     31  C   UNL A   1      46.623  26.118  27.521  1.00  0.00     0.016 A 
ATOM     32  C   UNL A   1      45.484  26.909  25.528  1.00  0.00     0.016 A 
ATOM     33  C   UNL A   1      46.718  27.428  27.997  1.00  0.00     0.010 A 
ATOM     34  C   UNL A   1      45.558  28.215  26.019  1.00  0.00     0.010 A 
ATOM     35  C   UNL A   1      46.153  28.480  27.266  1.00  0.00    -0.014 A 
BRANCH  35  36
ATOM     36  C   UNL A   1      46.026  29.834  27.861  1.00  0.00     0.031 A 
ATOM     37  C   UNL A   1      44.778  30.158  28.636  1.00  0.00     0.074 A 
ATOM     38  C   UNL A   1      46.979  30.768  27.689  1.00  0.00     0.049 A 
ATOM     39  N   UNL A   1      44.377  31.302  29.122  1.00  0.00    -0.248 NA
ATOM     40  C   UNL A   1      43.853  29.039  28.887  1.00  0.00     0.031 C 
ATOM     41  C   UNL A   1      48.249  30.563  26.995  1.00  0.00     0.029 A 
ATOM     42  N   UNL A   1      47.010  32.090  28.062  1.00  0.00    -0.354 N 
ATOM     43  C   UNL A   1      43.144  31.049  29.712  1.00  0.00     0.074 A 
ATOM     44  C   UNL A   1      42.858  29.645  29.517  1.00  0.00     0.031 C 
ATOM     45  C   UNL A   1      48.921  31.727  26.961  1.00  0.00     0.029 A 
ATOM     46  C   UNL A   1      48.109  32.770  27.589  1.00  0.00     0.049 A 
ATOM     47  H   UNL A   1      46.312  32.511  28.614  1.00  0.00     0.167 HD
ATOM     48  C   UNL A   1      42.324  31.915  30.354  1.00  0.00     0.037 A 
ATOM     49  C   UNL A   1      48.401  34.087  27.619  1.00  0.00     0.037 A 
ATOM     50  C   UNL A   1      42.623  33.307  30.552  1.00  0.00     0.049 A 
ATOM     51  C   UNL A   1      47.438  35.044  28.281  1.00  0.00     0.074 A 
ATOM     52  C   UNL A   1      41.880  34.254  31.236  1.00  0.00     0.029 A 
ATOM     53  N   UNL A   1      43.740  33.960  30.054  1.00  0.00    -0.354 N 
ATOM     54  N   UNL A   1      46.300  34.786  28.880  1.00  0.00    -0.248 NA
ATOM     55  C   UNL A   1      47.794  36.471  28.265  1.00  0.00     0.031 C 
ATOM     56  C   UNL A   1      42.512  35.492  31.090  1.00  0.00     0.029 A 
ATOM     57  C   UNL A   1      43.684  35.305  30.375  1.00  0.00     0.049 A 
ATOM     58  H   UNL A   1      44.465  33.530  29.546  1.00  0.00     0.167 HD
ATOM     59  C   UNL A   1      45.819  36.012  29.332  1.00  0.00     0.074 A 
ATOM     60  C   UNL A   1      46.796  37.009  28.952  1.00  0.00     0.031 C 
ATOM     61  C   UNL A   1      44.671  36.287  30.001  1.00  0.00     0.037 A 
BRANCH  48  62
ATOM     62  C   UNL A   1      41.004  31.399  30.857  1.00  0.00     0.058 A 
ATOM     63  C   UNL A   1      39.791  31.708  30.222  1.00  0.00     0.135 A 
ATOM     64  C   UNL A   1      40.964  30.522  31.954  1.00  0.00     0.135 A 
ATOM     65  F   UNL A   1      39.768  32.558  29.182  1.00  0.00    -0.206 F 
ATOM     66  C   UNL A   1      38.584  31.176  30.665  1.00  0.00     0.059 A 
ATOM     67  C   UNL A   1      39.774  29.954  32.395  1.00  0.00     0.059 A 
ATOM     68  F   UNL A   1      42.095  30.198  32.601  1.00  0.00    -0.206 F 
ATOM     69  C   UNL A   1      38.587  30.293  31.747  1.00  0.00     0.060 A 
BRANCH  69  70
ATOM     70  S   UNL A   1      37.017  29.584  32.284  1.00  0.00     0.124 S 
ATOM     71  O   UNL A   1      36.371  30.740  32.902  1.00  0.00    -0.237 OA
ATOM     72  O   UNL A   1      36.434  29.133  31.026  1.00  0.00    -0.237 OA
ATOM     73  O   UNL A   1      37.417  28.525  33.205  1.00  0.00    -0.744 OA
ENDBRANCH  69  70
ENDBRANCH  48  62
BRANCH  49  74
ATOM     74  C   UNL A   1      49.637  34.596  26.959  1.00  0.00     0.058 A 
ATOM     75  C   UNL A   1      49.654  34.917  25.593  1.00  0.00     0.135 A 
ATOM     76  C   UNL A   1      50.834  34.745  27.678  1.00  0.00     0.135 A 
ATOM     77  F   UNL A   1      48.541  34.778  24.858  1.00  0.00    -0.206 F 
ATOM     78  C   UNL A   1      50.816  35.347  24.960  1.00  0.00     0.059 A 
ATOM     79  C   UNL A   1      52.001  35.204  27.073  1.00  0.00     0.059 A 
ATOM     80  F   UNL A   1      50.874  34.458  28.988  1.00  0.00    -0.206 F 
ATOM     81  C   UNL A   1      51.985  35.489  25.709  1.00  0.00     0.060 A 
BRANCH  81  82
ATOM     82  S   UNL A   1      53.478  36.082  24.884  1.00  0.00     0.124 S 
ATOM     83  O   UNL A   1      54.162  36.771  25.972  1.00  0.00    -0.237 OA
ATOM     84  O   UNL A   1      54.090  34.836  24.431  1.00  0.00    -0.237 OA
ATOM     85  O   UNL A   1      52.957  36.937  23.822  1.00  0.00    -0.744 OA
ENDBRANCH  81  82
ENDBRANCH  49  74
BRANCH  61  86
ATOM     86  C   UNL A   1      44.411  37.716  30.400  1.00  0.00     0.058 A 
ATOM     87  C   UNL A   1      44.962  38.270  31.566  1.00  0.00     0.135 A 
ATOM     88  C   UNL A   1      43.679  38.567  29.554  1.00  0.00     0.135 A 
ATOM     89  F   UNL A   1      45.663  37.500  32.413  1.00  0.00    -0.206 F 
ATOM     90  C   UNL A   1      44.788  39.613  31.884  1.00  0.00     0.059 A 
ATOM     91  C   UNL A   1      43.519  39.920  29.836  1.00  0.00     0.059 A 
ATOM     92  F   UNL A   1      43.138  38.091  28.421  1.00  0.00    -0.206 F 
ATOM     93  C   UNL A   1      44.074  40.432  31.008  1.00  0.00     0.060 A 
BRANCH  93  94
ATOM     94  S   UNL A   1      43.916  42.188  31.401  1.00  0.00     0.124 S 
ATOM     95  O   UNL A   1      45.035  42.387  32.317  1.00  0.00    -0.237 OA
ATOM     96  O   UNL A   1      44.052  42.813  30.090  1.00  0.00    -0.237 OA
ATOM     97  O   UNL A   1      42.589  42.285  32.003  1.00  0.00    -0.744 OA
ENDBRANCH  93  94
ENDBRANCH  61  86
ENDBRANCH  35  36
ENDBRANCH  28  30
ENDBRANCH  27  28
ENDBRANCH  26  27
ENDBRANCH  25  26
ENDBRANCH  24  25
ENDBRANCH  23  24
ENDBRANCH  22  23
ENDBRANCH  21  22
ENDBRANCH   1  21
TORSDOF 30
ENDMDL
MODEL 3
REMARK VINA RESULT:      -6.5      7.631     12.895
REMARK SMILES CCCC[C@H](C(=O)OC)[C@H](O)C(=O)OCCOCCOCCOCCOC(=O)c1ccc(-c2c3nc(c(-c4c(F)cc(S(=O)(=O)[O-])cc4F)c4ccc([nH]4)c(-c4c(F)cc(S(=O)(=O)[O-])cc4F)c4nc(c(-c5c(F)cc(S(=O)(=O)[O-])cc5F)c5ccc2[nH]5)C=C4)C=C3)cc1
REMARK SMILES IDX 19 1 18 2 17 3 16 4 15 5 14 6 12 7 13 8 10 9 5 10 4 11 3 12
REMARK SMILES IDX 2 13 1 14 6 15 7 16 8 17 9 18 11 19 20 21 21 22 22 23 23 24
REMARK SMILES IDX 24 25 25 26 26 27 27 28 28 29 29 30 30 31 94 32 31 33 93 34
REMARK SMILES IDX 32 35 33 36 34 37 87 38 35 39 92 40 86 41 88 42 36 43 91 44
REMARK SMILES IDX 85 45 84 46 37 48 71 49 50 50 70 51 51 52 54 53 69 54 89 55
REMARK SMILES IDX 52 56 53 57 68 59 90 60 55 61 38 62 39 63 48 64 40 65 41 66
REMARK SMILES IDX 47 67 49 68 42 69 43 70 44 71 45 72 46 73 72 74 73 75 82 76
REMARK SMILES IDX 74 77 75 78 81 79 83 80 76 81 77 82 78 83 79 84 80 85 56 86
REMARK SMILES IDX 57 87 66 88 58 89 59 90 65 91 67 92 60 93 61 94 62 95 63 96
REMARK SMILES IDX 64 97
REMARK H PARENT 11 20 88 47 54 58
REMARK Flexibility Score: inf
ROOT
ATOM      1  C   UNL A   1      37.911  28.439  32.504  1.00  0.00     0.188 C 
ENDROOT
BRANCH   1   2
ATOM      2  C   UNL A   1      38.534  27.934  31.190  1.00  0.00     0.188 C 
BRANCH   2   3
ATOM      3  O   UNL A   1      39.058  28.815  30.204  1.00  0.00    -0.376 OA
BRANCH   3   4
ATOM      4  C   UNL A   1      40.438  28.925  29.876  1.00  0.00     0.202 C 
BRANCH   4   5
ATOM      5  C   UNL A   1      41.391  27.731  29.758  1.00  0.00     0.261 C 
BRANCH   5   6
ATOM      6  O   UNL A   1      40.938  26.699  28.890  1.00  0.00    -0.461 OA
BRANCH   6   7
ATOM      7  C   UNL A   1      41.894  25.827  28.485  1.00  0.00     0.335 C 
ATOM      8  O   UNL A   1      43.034  25.768  28.925  1.00  0.00    -0.249 OA
BRANCH   7   9
ATOM      9  C   UNL A   1      41.303  24.814  27.491  1.00  0.00     0.238 C 
BRANCH   9  10
ATOM     10  C   UNL A   1      42.343  24.328  26.487  1.00  0.00     0.139 C 
BRANCH  10  11
ATOM     11  C   UNL A   1      42.420  25.259  25.260  1.00  0.00     0.019 C 
BRANCH  11  12
ATOM     12  C   UNL A   1      43.170  26.581  25.511  1.00  0.00     0.001 C 
BRANCH  12  13
ATOM     13  C   UNL A   1      42.462  27.846  25.015  1.00  0.00    -0.003 C 
ATOM     14  C   UNL A   1      41.958  28.738  26.139  1.00  0.00     0.004 C 
ENDBRANCH  12  13
ENDBRANCH  11  12
ENDBRANCH  10  11
BRANCH  10  15
ATOM     15  C   UNL A   1      42.031  22.895  26.094  1.00  0.00     0.311 C 
ATOM     16  O   UNL A   1      42.462  22.319  25.105  1.00  0.00    -0.252 OA
BRANCH  15  17
ATOM     17  O   UNL A   1      41.162  22.371  27.000  1.00  0.00    -0.469 OA
ATOM     18  C   UNL A   1      40.084  21.602  26.470  1.00  0.00     0.282 C 
ENDBRANCH  15  17
ENDBRANCH  10  15
ENDBRANCH   9  10
BRANCH   9  19
ATOM     19  O   UNL A   1      40.147  25.260  26.778  1.00  0.00    -0.381 OA
ATOM     20  H   UNL A   1      39.595  24.497  26.547  1.00  0.00     0.211 HD
ENDBRANCH   9  19
ENDBRANCH   7   9
ENDBRANCH   6   7
ENDBRANCH   5   6
ENDBRANCH   4   5
ENDBRANCH   3   4
ENDBRANCH   2   3
ENDBRANCH   1   2
BRANCH   1  21
ATOM     21  O   UNL A   1      38.796  29.204  33.296  1.00  0.00    -0.377 OA
BRANCH  21  22
ATOM     22  C   UNL A   1      38.573  30.616  33.297  1.00  0.00     0.188 C 
BRANCH  22  23
ATOM     23  C   UNL A   1      38.018  31.284  34.582  1.00  0.00     0.188 C 
BRANCH  23  24
ATOM     24  O   UNL A   1      38.242  32.685  34.653  1.00  0.00    -0.376 OA
BRANCH  24  25
ATOM     25  C   UNL A   1      37.118  33.549  34.594  1.00  0.00     0.202 C 
BRANCH  25  26
ATOM     26  C   UNL A   1      36.595  33.936  33.202  1.00  0.00     0.261 C 
BRANCH  26  27
ATOM     27  O   UNL A   1      37.525  34.588  32.323  1.00  0.00    -0.460 OA
BRANCH  27  28
ATOM     28  C   UNL A   1      37.731  34.055  31.100  1.00  0.00     0.338 C 
ATOM     29  O   UNL A   1      36.880  33.628  30.336  1.00  0.00    -0.246 OA
BRANCH  28  30
ATOM     30  C   UNL A   1      39.152  34.274  30.753  1.00  0.00     0.060 A 
ATOM     31  C   UNL A   1      39.497  34.598  29.433  1.00  0.00     0.016 A 
ATOM     32  C   UNL A   1      40.139  34.181  31.737  1.00  0.00     0.016 A 
ATOM     33  C   UNL A   1      40.833  34.812  29.090  1.00  0.00     0.010 A 
ATOM     34  C   UNL A   1      41.478  34.371  31.385  1.00  0.00     0.010 A 
ATOM     35  C   UNL A   1      41.836  34.664  30.055  1.00  0.00    -0.014 A 
BRANCH  35  36
ATOM     36  C   UNL A   1      43.268  34.645  29.665  1.00  0.00     0.031 A 
ATOM     37  C   UNL A   1      43.942  35.956  29.366  1.00  0.00     0.074 A 
ATOM     38  C   UNL A   1      43.946  33.490  29.543  1.00  0.00     0.049 A 
ATOM     39  N   UNL A   1      45.130  36.185  28.873  1.00  0.00    -0.248 NA
ATOM     40  C   UNL A   1      43.165  37.174  29.654  1.00  0.00     0.031 C 
ATOM     41  C   UNL A   1      43.416  32.161  29.843  1.00  0.00     0.029 A 
ATOM     42  N   UNL A   1      45.226  33.250  29.102  1.00  0.00    -0.354 N 
ATOM     43  C   UNL A   1      45.235  37.567  28.767  1.00  0.00     0.074 A 
ATOM     44  C   UNL A   1      43.986  38.126  29.238  1.00  0.00     0.031 C 
ATOM     45  C   UNL A   1      44.351  31.241  29.546  1.00  0.00     0.029 A 
ATOM     46  C   UNL A   1      45.527  31.912  28.990  1.00  0.00     0.049 A 
ATOM     47  H   UNL A   1      45.865  33.966  28.887  1.00  0.00     0.167 HD
ATOM     48  C   UNL A   1      46.277  38.301  28.311  1.00  0.00     0.037 A 
ATOM     49  C   UNL A   1      46.606  31.300  28.458  1.00  0.00     0.037 A 
ATOM     50  C   UNL A   1      47.518  37.735  27.854  1.00  0.00     0.049 A 
ATOM     51  C   UNL A   1      47.728  32.139  27.893  1.00  0.00     0.074 A 
ATOM     52  C   UNL A   1      48.654  38.398  27.424  1.00  0.00     0.029 A 
ATOM     53  N   UNL A   1      47.783  36.378  27.750  1.00  0.00    -0.354 N 
ATOM     54  N   UNL A   1      47.837  33.445  27.844  1.00  0.00    -0.248 NA
ATOM     55  C   UNL A   1      48.869  31.422  27.304  1.00  0.00     0.031 C 
ATOM     56  C   UNL A   1      49.578  37.442  26.991  1.00  0.00     0.029 A 
ATOM     57  C   UNL A   1      49.046  36.182  27.217  1.00  0.00     0.049 A 
ATOM     58  H   UNL A   1      47.163  35.660  28.013  1.00  0.00     0.167 HD
ATOM     59  C   UNL A   1      49.067  33.704  27.244  1.00  0.00     0.074 A 
ATOM     60  C   UNL A   1      49.672  32.420  26.961  1.00  0.00     0.031 C 
ATOM     61  C   UNL A   1      49.642  34.897  26.952  1.00  0.00     0.037 A 
BRANCH  48  62
ATOM     62  C   UNL A   1      46.116  39.794  28.241  1.00  0.00     0.058 A 
ATOM     63  C   UNL A   1      46.323  40.620  29.357  1.00  0.00     0.135 A 
ATOM     64  C   UNL A   1      45.816  40.412  27.016  1.00  0.00     0.135 A 
ATOM     65  F   UNL A   1      46.592  40.082  30.557  1.00  0.00    -0.206 F 
ATOM     66  C   UNL A   1      46.227  42.005  29.262  1.00  0.00     0.059 A 
ATOM     67  C   UNL A   1      45.744  41.794  26.891  1.00  0.00     0.059 A 
ATOM     68  F   UNL A   1      45.601  39.667  25.919  1.00  0.00    -0.206 F 
ATOM     69  C   UNL A   1      45.945  42.583  28.023  1.00  0.00     0.060 A 
BRANCH  69  70
ATOM     70  S   UNL A   1      45.860  44.382  27.911  1.00  0.00     0.124 S 
ATOM     71  O   UNL A   1      45.273  44.727  29.203  1.00  0.00    -0.237 OA
ATOM     72  O   UNL A   1      47.261  44.748  27.735  1.00  0.00    -0.237 OA
ATOM     73  O   UNL A   1      45.002  44.613  26.753  1.00  0.00    -0.744 OA
ENDBRANCH  69  70
ENDBRANCH  48  62
BRANCH  49  74
ATOM     74  C   UNL A   1      46.664  29.813  28.383  1.00  0.00     0.058 A 
ATOM     75  C   UNL A   1      46.030  29.110  27.346  1.00  0.00     0.135 A 
ATOM     76  C   UNL A   1      47.333  29.062  29.363  1.00  0.00     0.135 A 
ATOM     77  F   UNL A   1      45.364  29.779  26.393  1.00  0.00    -0.206 F 
ATOM     78  C   UNL A   1      46.038  27.720  27.296  1.00  0.00     0.059 A 
ATOM     79  C   UNL A   1      47.383  27.672  29.316  1.00  0.00     0.059 A 
ATOM     80  F   UNL A   1      47.962  29.682  30.374  1.00  0.00    -0.206 F 
ATOM     81  C   UNL A   1      46.720  27.009  28.285  1.00  0.00     0.060 A 
BRANCH  81  82
ATOM     82  S   UNL A   1      46.755  25.206  28.189  1.00  0.00     0.124 S 
ATOM     83  O   UNL A   1      48.183  24.947  28.042  1.00  0.00    -0.237 OA
ATOM     84  O   UNL A   1      46.164  24.822  29.468  1.00  0.00    -0.237 OA
ATOM     85  O   UNL A   1      45.935  24.917  27.017  1.00  0.00    -0.744 OA
ENDBRANCH  81  82
ENDBRANCH  49  74
BRANCH  61  86
ATOM     86  C   UNL A   1      51.010  34.886  26.322  1.00  0.00     0.058 A 
ATOM     87  C   UNL A   1      51.195  35.140  24.953  1.00  0.00     0.135 A 
ATOM     88  C   UNL A   1      52.156  34.714  27.115  1.00  0.00     0.135 A 
ATOM     89  F   UNL A   1      50.134  35.304  24.148  1.00  0.00    -0.206 F 
ATOM     90  C   UNL A   1      52.466  35.214  24.393  1.00  0.00     0.059 A 
ATOM     91  C   UNL A   1      53.438  34.815  26.583  1.00  0.00     0.059 A 
ATOM     92  F   UNL A   1      52.037  34.478  28.432  1.00  0.00    -0.206 F 
ATOM     93  C   UNL A   1      53.582  35.060  25.218  1.00  0.00     0.060 A 
BRANCH  93  94
ATOM     94  S   UNL A   1      55.226  35.226  24.489  1.00  0.00     0.124 S 
ATOM     95  O   UNL A   1      54.917  35.226  23.062  1.00  0.00    -0.237 OA
ATOM     96  O   UNL A   1      55.681  36.500  25.037  1.00  0.00    -0.237 OA
ATOM     97  O   UNL A   1      55.937  34.048  24.976  1.00  0.00    -0.744 OA
ENDBRANCH  93  94
ENDBRANCH  61  86
ENDBRANCH  35  36
ENDBRANCH  28  30
ENDBRANCH  27  28
ENDBRANCH  26  27
ENDBRANCH  25  26
ENDBRANCH  24  25
ENDBRANCH  23  24
ENDBRANCH  22  23
ENDBRANCH  21  22
ENDBRANCH   1  21
TORSDOF 30
ENDMDL
