MODEL 1
REMARK VINA RESULT:      -6.9      0.000      0.000
REMARK SMILES CCCOc1ccc(NC(=O)CCC(=O)OCCOCCOCCOCCOC(=O)c2ccc(-c3c4nc(c(-c5c(F)cc(S(=O)(=O)[O-])cc5F)c5ccc([nH]5)c(-c5c(F)cc(S(=O)(=O)[O-])cc5F)c5nc(c(-c6c(F)cc(S(=O)(=O)[O-])cc6F)c6ccc3[nH]6)C=C5)C=C4)cc2)cc1
REMARK SMILES IDX 20 1 19 2 18 3 17 4 16 5 14 6 15 7 13 8 12 9 10 10 9 11
REMARK SMILES IDX 11 13 8 14 5 15 6 16 98 17 7 18 97 19 4 20 3 21 2 22 1 23
REMARK SMILES IDX 21 24 22 25 23 26 24 27 25 28 26 29 27 30 28 31 29 32 30 33
REMARK SMILES IDX 31 34 32 35 96 36 33 37 95 38 34 39 35 40 36 41 89 42 37 43
REMARK SMILES IDX 94 44 88 45 90 46 38 47 93 48 87 49 86 50 39 52 73 53 52 54
REMARK SMILES IDX 72 55 53 56 56 57 71 58 91 59 54 60 55 61 70 63 92 64 57 65
REMARK SMILES IDX 40 66 41 67 50 68 42 69 43 70 49 71 51 72 44 73 45 74 46 75
REMARK SMILES IDX 47 76 48 77 74 78 75 79 84 80 76 81 77 82 83 83 85 84 78 85
REMARK SMILES IDX 79 86 80 87 81 88 82 89 58 90 59 91 68 92 60 93 61 94 67 95
REMARK SMILES IDX 69 96 62 97 63 98 64 99 65 100 66 101
REMARK H PARENT 9 12 90 51 56 62
REMARK Flexibility Score: inf
ROOT
ATOM      1  C   UNL A   1      39.668  34.859  36.689  1.00  0.00     0.188 C 
ENDROOT
BRANCH   1   2
ATOM      2  O   UNL A   1      40.966  34.632  37.249  1.00  0.00    -0.376 OA
BRANCH   2   3
ATOM      3  C   UNL A   1      41.717  33.488  36.819  1.00  0.00     0.202 C 
BRANCH   3   4
ATOM      4  C   UNL A   1      42.250  33.491  35.365  1.00  0.00     0.261 C 
BRANCH   4   5
ATOM      5  O   UNL A   1      43.230  34.492  35.074  1.00  0.00    -0.463 OA
BRANCH   5   6
ATOM      6  C   UNL A   1      44.500  34.266  35.448  1.00  0.00     0.306 C 
ATOM      7  O   UNL A   1      45.097  33.210  35.288  1.00  0.00    -0.252 OA
BRANCH   6   8
ATOM      8  C   UNL A   1      45.107  35.500  36.075  1.00  0.00     0.132 C 
BRANCH   8   9
ATOM      9  C   UNL A   1      44.884  36.803  35.297  1.00  0.00     0.112 C 
BRANCH   9  10
ATOM     10  C   UNL A   1      45.233  38.075  36.055  1.00  0.00     0.224 C 
ATOM     11  N   UNL A   1      45.130  39.366  35.618  1.00  0.00    -0.326 N 
ATOM     12  H   UNL A   1      45.448  40.000  36.302  1.00  0.00     0.169 HD
ATOM     13  O   UNL A   1      45.671  37.930  37.208  1.00  0.00    -0.275 OA
BRANCH  11  14
ATOM     14  C   UNL A   1      44.698  40.047  34.457  1.00  0.00     0.041 A 
ATOM     15  C   UNL A   1      43.901  41.552  32.165  1.00  0.00     0.119 A 
ATOM     16  C   UNL A   1      42.976  40.948  32.970  1.00  0.00     0.048 A 
ATOM     17  C   UNL A   1      45.243  41.390  32.477  1.00  0.00     0.048 A 
ATOM     18  C   UNL A   1      43.383  40.238  34.108  1.00  0.00     0.030 A 
ATOM     19  C   UNL A   1      45.640  40.615  33.593  1.00  0.00     0.030 A 
BRANCH  15  20
ATOM     20  O   UNL A   1      43.531  42.404  31.172  1.00  0.00    -0.494 OA
BRANCH  20  21
ATOM     21  C   UNL A   1      42.606  43.436  31.552  1.00  0.00     0.229 C 
BRANCH  21  22
ATOM     22  C   UNL A   1      43.365  44.355  32.501  1.00  0.00     0.038 C 
ATOM     23  C   UNL A   1      42.505  44.751  33.696  1.00  0.00     0.007 C 
ENDBRANCH  21  22
ENDBRANCH  20  21
ENDBRANCH  15  20
ENDBRANCH  11  14
ENDBRANCH   9  10
ENDBRANCH   8   9
ENDBRANCH   6   8
ENDBRANCH   5   6
ENDBRANCH   4   5
ENDBRANCH   3   4
ENDBRANCH   2   3
ENDBRANCH   1   2
BRANCH   1  24
ATOM     24  C   UNL A   1      39.772  35.748  35.402  1.00  0.00     0.188 C 
BRANCH  24  25
ATOM     25  O   UNL A   1      38.878  35.275  34.395  1.00  0.00    -0.377 OA
BRANCH  25  26
ATOM     26  C   UNL A   1      38.687  33.885  34.116  1.00  0.00     0.188 C 
BRANCH  26  27
ATOM     27  C   UNL A   1      37.331  33.360  33.620  1.00  0.00     0.188 C 
BRANCH  27  28
ATOM     28  O   UNL A   1      36.703  34.091  32.567  1.00  0.00    -0.376 OA
BRANCH  28  29
ATOM     29  C   UNL A   1      35.291  33.975  32.475  1.00  0.00     0.202 C 
BRANCH  29  30
ATOM     30  C   UNL A   1      34.717  33.240  31.249  1.00  0.00     0.261 C 
BRANCH  30  31
ATOM     31  O   UNL A   1      35.182  31.887  31.052  1.00  0.00    -0.460 OA
BRANCH  31  32
ATOM     32  C   UNL A   1      35.283  31.491  29.759  1.00  0.00     0.338 C 
ATOM     33  O   UNL A   1      34.563  31.856  28.833  1.00  0.00    -0.246 OA
BRANCH  32  34
ATOM     34  C   UNL A   1      36.460  30.619  29.537  1.00  0.00     0.060 A 
ATOM     35  C   UNL A   1      37.104  30.079  30.660  1.00  0.00     0.016 A 
ATOM     36  C   UNL A   1      37.025  30.458  28.271  1.00  0.00     0.016 A 
ATOM     37  C   UNL A   1      38.342  29.436  30.532  1.00  0.00     0.010 A 
ATOM     38  C   UNL A   1      38.270  29.817  28.145  1.00  0.00     0.010 A 
ATOM     39  C   UNL A   1      38.961  29.347  29.279  1.00  0.00    -0.014 A 
BRANCH  39  40
ATOM     40  C   UNL A   1      40.402  28.967  29.169  1.00  0.00     0.031 A 
ATOM     41  C   UNL A   1      41.448  30.028  29.418  1.00  0.00     0.074 A 
ATOM     42  C   UNL A   1      40.796  27.715  28.865  1.00  0.00     0.049 A 
ATOM     43  N   UNL A   1      42.748  29.973  29.270  1.00  0.00    -0.248 NA
ATOM     44  C   UNL A   1      40.956  31.330  29.896  1.00  0.00     0.031 C 
ATOM     45  C   UNL A   1      39.910  26.574  28.657  1.00  0.00     0.029 A 
ATOM     46  N   UNL A   1      42.057  27.202  28.659  1.00  0.00    -0.354 N 
ATOM     47  C   UNL A   1      43.225  31.234  29.614  1.00  0.00     0.074 A 
ATOM     48  C   UNL A   1      42.072  32.040  29.956  1.00  0.00     0.031 C 
ATOM     49  C   UNL A   1      40.651  25.499  28.330  1.00  0.00     0.029 A 
ATOM     50  C   UNL A   1      42.062  25.884  28.265  1.00  0.00     0.049 A 
ATOM     51  H   UNL A   1      42.879  27.730  28.782  1.00  0.00     0.167 HD
ATOM     52  C   UNL A   1      44.503  31.683  29.647  1.00  0.00     0.037 A 
ATOM     53  C   UNL A   1      43.078  25.089  27.865  1.00  0.00     0.037 A 
ATOM     54  C   UNL A   1      45.655  30.883  29.315  1.00  0.00     0.049 A 
ATOM     55  C   UNL A   1      44.488  25.632  27.831  1.00  0.00     0.074 A 
ATOM     56  C   UNL A   1      46.990  31.248  29.335  1.00  0.00     0.029 A 
ATOM     57  N   UNL A   1      45.610  29.562  28.897  1.00  0.00    -0.354 N 
ATOM     58  N   UNL A   1      44.925  26.824  28.162  1.00  0.00    -0.248 NA
ATOM     59  C   UNL A   1      45.545  24.719  27.366  1.00  0.00     0.031 C 
ATOM     60  C   UNL A   1      47.748  30.169  28.872  1.00  0.00     0.029 A 
ATOM     61  C   UNL A   1      46.893  29.107  28.629  1.00  0.00     0.049 A 
ATOM     62  H   UNL A   1      44.790  29.026  28.803  1.00  0.00     0.167 HD
ATOM     63  C   UNL A   1      46.305  26.791  27.979  1.00  0.00     0.074 A 
ATOM     64  C   UNL A   1      46.633  25.460  27.515  1.00  0.00     0.031 C 
ATOM     65  C   UNL A   1      47.218  27.775  28.179  1.00  0.00     0.037 A 
BRANCH  52  66
ATOM     66  C   UNL A   1      44.728  33.124  30.026  1.00  0.00     0.058 A 
ATOM     67  C   UNL A   1      44.771  34.149  29.067  1.00  0.00     0.135 A 
ATOM     68  C   UNL A   1      44.869  33.489  31.376  1.00  0.00     0.135 A 
ATOM     69  F   UNL A   1      44.658  33.857  27.761  1.00  0.00    -0.206 F 
ATOM     70  C   UNL A   1      44.976  35.476  29.429  1.00  0.00     0.059 A 
ATOM     71  C   UNL A   1      45.042  34.814  31.763  1.00  0.00     0.059 A 
ATOM     72  F   UNL A   1      44.835  32.552  32.336  1.00  0.00    -0.206 F 
ATOM     73  C   UNL A   1      45.111  35.799  30.780  1.00  0.00     0.060 A 
BRANCH  73  74
ATOM     74  S   UNL A   1      45.376  37.527  31.232  1.00  0.00     0.124 S 
ATOM     75  O   UNL A   1      46.424  37.407  32.241  1.00  0.00    -0.237 OA
ATOM     76  O   UNL A   1      45.782  38.122  29.963  1.00  0.00    -0.237 OA
ATOM     77  O   UNL A   1      44.072  37.953  31.733  1.00  0.00    -0.744 OA
ENDBRANCH  73  74
ENDBRANCH  52  66
BRANCH  53  78
ATOM     78  C   UNL A   1      42.805  23.687  27.435  1.00  0.00     0.058 A 
ATOM     79  C   UNL A   1      42.623  23.365  26.081  1.00  0.00     0.135 A 
ATOM     80  C   UNL A   1      42.706  22.646  28.371  1.00  0.00     0.135 A 
ATOM     81  F   UNL A   1      42.685  24.327  25.149  1.00  0.00    -0.206 F 
ATOM     82  C   UNL A   1      42.342  22.065  25.671  1.00  0.00     0.059 A 
ATOM     83  C   UNL A   1      42.456  21.331  27.982  1.00  0.00     0.059 A 
ATOM     84  F   UNL A   1      42.872  22.897  29.678  1.00  0.00    -0.206 F 
ATOM     85  C   UNL A   1      42.268  21.053  26.630  1.00  0.00     0.060 A 
BRANCH  85  86
ATOM     86  S   UNL A   1      41.966  19.360  26.078  1.00  0.00     0.124 S 
ATOM     87  O   UNL A   1      42.458  18.587  27.214  1.00  0.00    -0.237 OA
ATOM     88  O   UNL A   1      40.520  19.358  25.883  1.00  0.00    -0.237 OA
ATOM     89  O   UNL A   1      42.756  19.258  24.856  1.00  0.00    -0.744 OA
ENDBRANCH  85  86
ENDBRANCH  53  78
BRANCH  65  90
ATOM     90  C   UNL A   1      48.672  27.449  27.952  1.00  0.00     0.058 A 
ATOM     91  C   UNL A   1      49.333  27.780  26.759  1.00  0.00     0.135 A 
ATOM     92  C   UNL A   1      49.431  26.847  28.971  1.00  0.00     0.135 A 
ATOM     93  F   UNL A   1      48.659  28.353  25.749  1.00  0.00    -0.206 F 
ATOM     94  C   UNL A   1      50.687  27.507  26.575  1.00  0.00     0.059 A 
ATOM     95  C   UNL A   1      50.792  26.593  28.821  1.00  0.00     0.059 A 
ATOM     96  F   UNL A   1      48.855  26.518  30.138  1.00  0.00    -0.206 F 
ATOM     97  C   UNL A   1      51.409  26.916  27.614  1.00  0.00     0.060 A 
BRANCH  97  98
ATOM     98  S   UNL A   1      53.171  26.598  27.375  1.00  0.00     0.124 S 
ATOM     99  O   UNL A   1      53.153  25.260  26.793  1.00  0.00    -0.237 OA
ATOM    100  O   UNL A   1      53.563  27.676  26.473  1.00  0.00    -0.237 OA
ATOM    101  O   UNL A   1      53.720  26.687  28.725  1.00  0.00    -0.744 OA
ENDBRANCH  97  98
ENDBRANCH  65  90
ENDBRANCH  39  40
ENDBRANCH  32  34
ENDBRANCH  31  32
ENDBRANCH  30  31
ENDBRANCH  29  30
ENDBRANCH  28  29
ENDBRANCH  27  28
ENDBRANCH  26  27
ENDBRANCH  25  26
ENDBRANCH  24  25
ENDBRANCH   1  24
TORSDOF 29
ENDMDL
MODEL 2
REMARK VINA RESULT:      -6.7      2.613      4.904
REMARK SMILES CCCOc1ccc(NC(=O)CCC(=O)OCCOCCOCCOCCOC(=O)c2ccc(-c3c4nc(c(-c5c(F)cc(S(=O)(=O)[O-])cc5F)c5ccc([nH]5)c(-c5c(F)cc(S(=O)(=O)[O-])cc5F)c5nc(c(-c6c(F)cc(S(=O)(=O)[O-])cc6F)c6ccc3[nH]6)C=C5)C=C4)cc2)cc1
REMARK SMILES IDX 20 1 19 2 18 3 17 4 16 5 14 6 15 7 13 8 12 9 10 10 9 11
REMARK SMILES IDX 11 13 8 14 5 15 6 16 98 17 7 18 97 19 4 20 3 21 2 22 1 23
REMARK SMILES IDX 21 24 22 25 23 26 24 27 25 28 26 29 27 30 28 31 29 32 30 33
REMARK SMILES IDX 31 34 32 35 96 36 33 37 95 38 34 39 35 40 36 41 89 42 37 43
REMARK SMILES IDX 94 44 88 45 90 46 38 47 93 48 87 49 86 50 39 52 73 53 52 54
REMARK SMILES IDX 72 55 53 56 56 57 71 58 91 59 54 60 55 61 70 63 92 64 57 65
REMARK SMILES IDX 40 66 41 67 50 68 42 69 43 70 49 71 51 72 44 73 45 74 46 75
REMARK SMILES IDX 47 76 48 77 74 78 75 79 84 80 76 81 77 82 83 83 85 84 78 85
REMARK SMILES IDX 79 86 80 87 81 88 82 89 58 90 59 91 68 92 60 93 61 94 67 95
REMARK SMILES IDX 69 96 62 97 63 98 64 99 65 100 66 101
REMARK H PARENT 9 12 90 51 56 62
REMARK Flexibility Score: inf
ROOT
ATOM      1  C   UNL A   1      39.462  35.231  37.121  1.00  0.00     0.188 C 
ENDROOT
BRANCH   1   2
ATOM      2  O   UNL A   1      40.601  34.931  37.936  1.00  0.00    -0.376 OA
BRANCH   2   3
ATOM      3  C   UNL A   1      40.742  33.608  38.471  1.00  0.00     0.202 C 
BRANCH   3   4
ATOM      4  C   UNL A   1      41.960  33.335  39.387  1.00  0.00     0.261 C 
BRANCH   4   5
ATOM      5  O   UNL A   1      42.988  34.331  39.352  1.00  0.00    -0.463 OA
BRANCH   5   6
ATOM      6  C   UNL A   1      44.239  33.966  39.679  1.00  0.00     0.306 C 
ATOM      7  O   UNL A   1      44.548  33.384  40.710  1.00  0.00    -0.252 OA
BRANCH   6   8
ATOM      8  C   UNL A   1      45.215  34.350  38.592  1.00  0.00     0.132 C 
BRANCH   8   9
ATOM      9  C   UNL A   1      44.922  33.751  37.211  1.00  0.00     0.112 C 
BRANCH   9  10
ATOM     10  C   UNL A   1      45.911  32.695  36.742  1.00  0.00     0.224 C 
ATOM     11  N   UNL A   1      45.684  31.656  35.884  1.00  0.00    -0.326 N 
ATOM     12  H   UNL A   1      46.493  31.105  35.770  1.00  0.00     0.169 HD
ATOM     13  O   UNL A   1      47.064  32.775  37.197  1.00  0.00    -0.275 OA
BRANCH  11  14
ATOM     14  C   UNL A   1      44.612  31.149  35.115  1.00  0.00     0.041 A 
ATOM     15  C   UNL A   1      42.350  30.228  33.634  1.00  0.00     0.119 A 
ATOM     16  C   UNL A   1      43.109  29.365  34.376  1.00  0.00     0.048 A 
ATOM     17  C   UNL A   1      42.728  31.563  33.599  1.00  0.00     0.048 A 
ATOM     18  C   UNL A   1      44.198  29.839  35.120  1.00  0.00     0.030 A 
ATOM     19  C   UNL A   1      43.869  32.013  34.304  1.00  0.00     0.030 A 
BRANCH  15  20
ATOM     20  O   UNL A   1      41.181  29.835  33.062  1.00  0.00    -0.494 OA
BRANCH  20  21
ATOM     21  C   UNL A   1      40.016  30.578  33.457  1.00  0.00     0.229 C 
BRANCH  21  22
ATOM     22  C   UNL A   1      39.856  30.349  34.955  1.00  0.00     0.038 C 
ATOM     23  C   UNL A   1      38.427  30.623  35.409  1.00  0.00     0.007 C 
ENDBRANCH  21  22
ENDBRANCH  20  21
ENDBRANCH  15  20
ENDBRANCH  11  14
ENDBRANCH   9  10
ENDBRANCH   8   9
ENDBRANCH   6   8
ENDBRANCH   5   6
ENDBRANCH   4   5
ENDBRANCH   3   4
ENDBRANCH   2   3
ENDBRANCH   1   2
BRANCH   1  24
ATOM     24  C   UNL A   1      39.913  35.800  35.732  1.00  0.00     0.188 C 
BRANCH  24  25
ATOM     25  O   UNL A   1      38.949  35.486  34.727  1.00  0.00    -0.377 OA
BRANCH  25  26
ATOM     26  C   UNL A   1      38.298  34.215  34.645  1.00  0.00     0.188 C 
BRANCH  26  27
ATOM     27  C   UNL A   1      36.781  34.121  34.418  1.00  0.00     0.188 C 
BRANCH  27  28
ATOM     28  O   UNL A   1      36.203  35.068  33.523  1.00  0.00    -0.376 OA
BRANCH  28  29
ATOM     29  C   UNL A   1      34.806  35.287  33.653  1.00  0.00     0.202 C 
BRANCH  29  30
ATOM     30  C   UNL A   1      33.914  34.919  32.452  1.00  0.00     0.261 C 
BRANCH  30  31
ATOM     31  O   UNL A   1      34.068  33.576  31.943  1.00  0.00    -0.460 OA
BRANCH  31  32
ATOM     32  C   UNL A   1      34.320  33.486  30.613  1.00  0.00     0.338 C 
ATOM     33  O   UNL A   1      33.679  34.029  29.717  1.00  0.00    -0.246 OA
BRANCH  32  34
ATOM     34  C   UNL A   1      35.558  32.721  30.334  1.00  0.00     0.060 A 
ATOM     35  C   UNL A   1      36.194  32.079  31.407  1.00  0.00     0.016 A 
ATOM     36  C   UNL A   1      36.179  32.760  29.085  1.00  0.00     0.016 A 
ATOM     37  C   UNL A   1      37.474  31.532  31.254  1.00  0.00     0.010 A 
ATOM     38  C   UNL A   1      37.467  32.216  28.934  1.00  0.00     0.010 A 
ATOM     39  C   UNL A   1      38.144  31.643  30.029  1.00  0.00    -0.014 A 
BRANCH  39  40
ATOM     40  C   UNL A   1      39.610  31.367  29.937  1.00  0.00     0.031 A 
ATOM     41  C   UNL A   1      40.576  32.471  30.296  1.00  0.00     0.074 A 
ATOM     42  C   UNL A   1      40.095  30.170  29.553  1.00  0.00     0.049 A 
ATOM     43  N   UNL A   1      41.880  32.512  30.184  1.00  0.00    -0.248 NA
ATOM     44  C   UNL A   1      39.985  33.699  30.853  1.00  0.00     0.031 C 
ATOM     45  C   UNL A   1      39.292  28.992  29.235  1.00  0.00     0.029 A 
ATOM     46  N   UNL A   1      41.392  29.756  29.349  1.00  0.00    -0.354 N 
ATOM     47  C   UNL A   1      42.263  33.772  30.636  1.00  0.00     0.074 A 
ATOM     48  C   UNL A   1      41.049  34.473  31.000  1.00  0.00     0.031 C 
ATOM     49  C   UNL A   1      40.112  27.996  28.852  1.00  0.00     0.029 A 
ATOM     50  C   UNL A   1      41.495  28.474  28.860  1.00  0.00     0.049 A 
ATOM     51  H   UNL A   1      42.174  30.326  29.537  1.00  0.00     0.167 HD
ATOM     52  C   UNL A   1      43.506  34.299  30.742  1.00  0.00     0.037 A 
ATOM     53  C   UNL A   1      42.572  27.780  28.435  1.00  0.00     0.037 A 
ATOM     54  C   UNL A   1      44.717  33.602  30.388  1.00  0.00     0.049 A 
ATOM     55  C   UNL A   1      43.943  28.414  28.484  1.00  0.00     0.074 A 
ATOM     56  C   UNL A   1      46.024  34.050  30.476  1.00  0.00     0.029 A 
ATOM     57  N   UNL A   1      44.772  32.316  29.872  1.00  0.00    -0.354 N 
ATOM     58  N   UNL A   1      44.290  29.603  28.916  1.00  0.00    -0.248 NA
ATOM     59  C   UNL A   1      45.070  27.609  27.987  1.00  0.00     0.031 C 
ATOM     60  C   UNL A   1      46.864  33.060  29.959  1.00  0.00     0.029 A 
ATOM     61  C   UNL A   1      46.088  31.966  29.612  1.00  0.00     0.049 A 
ATOM     62  H   UNL A   1      43.992  31.737  29.714  1.00  0.00     0.167 HD
ATOM     63  C   UNL A   1      45.674  29.673  28.774  1.00  0.00     0.074 A 
ATOM     64  C   UNL A   1      46.103  28.406  28.224  1.00  0.00     0.031 C 
ATOM     65  C   UNL A   1      46.514  30.697  29.075  1.00  0.00     0.037 A 
BRANCH  52  66
ATOM     66  C   UNL A   1      43.624  35.718  31.233  1.00  0.00     0.058 A 
ATOM     67  C   UNL A   1      43.733  36.806  30.350  1.00  0.00     0.135 A 
ATOM     68  C   UNL A   1      43.593  35.997  32.610  1.00  0.00     0.135 A 
ATOM     69  F   UNL A   1      43.784  36.597  29.025  1.00  0.00    -0.206 F 
ATOM     70  C   UNL A   1      43.839  38.112  30.815  1.00  0.00     0.059 A 
ATOM     71  C   UNL A   1      43.664  37.300  33.096  1.00  0.00     0.059 A 
ATOM     72  F   UNL A   1      43.489  34.998  33.499  1.00  0.00    -0.206 F 
ATOM     73  C   UNL A   1      43.803  38.349  32.190  1.00  0.00     0.060 A 
BRANCH  73  74
ATOM     74  S   UNL A   1      43.940  40.052  32.776  1.00  0.00     0.124 S 
ATOM     75  O   UNL A   1      45.239  40.026  33.443  1.00  0.00    -0.237 OA
ATOM     76  O   UNL A   1      43.880  40.815  31.534  1.00  0.00    -0.237 OA
ATOM     77  O   UNL A   1      42.787  40.203  33.658  1.00  0.00    -0.744 OA
ENDBRANCH  73  74
ENDBRANCH  52  66
BRANCH  53  78
ATOM     78  C   UNL A   1      42.405  26.400  27.894  1.00  0.00     0.058 A 
ATOM     79  C   UNL A   1      41.994  26.183  26.569  1.00  0.00     0.135 A 
ATOM     80  C   UNL A   1      42.637  25.271  28.696  1.00  0.00     0.135 A 
ATOM     81  F   UNL A   1      41.737  27.228  25.768  1.00  0.00    -0.206 F 
ATOM     82  C   UNL A   1      41.810  24.900  26.062  1.00  0.00     0.059 A 
ATOM     83  C   UNL A   1      42.490  23.977  28.202  1.00  0.00     0.059 A 
ATOM     84  F   UNL A   1      43.033  25.420  29.969  1.00  0.00    -0.206 F 
ATOM     85  C   UNL A   1      42.068  23.803  26.885  1.00  0.00     0.060 A 
BRANCH  85  86
ATOM     86  S   UNL A   1      41.886  22.143  26.196  1.00  0.00     0.124 S 
ATOM     87  O   UNL A   1      40.438  22.038  26.056  1.00  0.00    -0.237 OA
ATOM     88  O   UNL A   1      42.642  22.248  24.951  1.00  0.00    -0.237 OA
ATOM     89  O   UNL A   1      42.486  21.288  27.214  1.00  0.00    -0.744 OA
ENDBRANCH  85  86
ENDBRANCH  53  78
BRANCH  65  90
ATOM     90  C   UNL A   1      47.992  30.483  28.870  1.00  0.00     0.058 A 
ATOM     91  C   UNL A   1      48.809  29.918  29.862  1.00  0.00     0.135 A 
ATOM     92  C   UNL A   1      48.589  30.793  27.636  1.00  0.00     0.135 A 
ATOM     93  F   UNL A   1      48.296  29.605  31.063  1.00  0.00    -0.206 F 
ATOM     94  C   UNL A   1      50.167  29.691  29.648  1.00  0.00     0.059 A 
ATOM     95  C   UNL A   1      49.936  30.546  27.388  1.00  0.00     0.059 A 
ATOM     96  F   UNL A   1      47.854  31.324  26.645  1.00  0.00    -0.206 F 
ATOM     97  C   UNL A   1      50.720  30.006  28.405  1.00  0.00     0.060 A 
BRANCH  97  98
ATOM     98  S   UNL A   1      52.475  29.674  28.128  1.00  0.00     0.124 S 
ATOM     99  O   UNL A   1      52.986  29.632  29.494  1.00  0.00    -0.237 OA
ATOM    100  O   UNL A   1      52.443  28.397  27.423  1.00  0.00    -0.237 OA
ATOM    101  O   UNL A   1      52.915  30.815  27.329  1.00  0.00    -0.744 OA
ENDBRANCH  97  98
ENDBRANCH  65  90
ENDBRANCH  39  40
ENDBRANCH  32  34
ENDBRANCH  31  32
ENDBRANCH  30  31
ENDBRANCH  29  30
ENDBRANCH  28  29
ENDBRANCH  27  28
ENDBRANCH  26  27
ENDBRANCH  25  26
ENDBRANCH  24  25
ENDBRANCH   1  24
TORSDOF 29
ENDMDL
MODEL 3
REMARK VINA RESULT:      -6.6      5.946     12.209
REMARK SMILES CCCOc1ccc(NC(=O)CCC(=O)OCCOCCOCCOCCOC(=O)c2ccc(-c3c4nc(c(-c5c(F)cc(S(=O)(=O)[O-])cc5F)c5ccc([nH]5)c(-c5c(F)cc(S(=O)(=O)[O-])cc5F)c5nc(c(-c6c(F)cc(S(=O)(=O)[O-])cc6F)c6ccc3[nH]6)C=C5)C=C4)cc2)cc1
REMARK SMILES IDX 20 1 19 2 18 3 17 4 16 5 14 6 15 7 13 8 12 9 10 10 9 11
REMARK SMILES IDX 11 13 8 14 5 15 6 16 98 17 7 18 97 19 4 20 3 21 2 22 1 23
REMARK SMILES IDX 21 24 22 25 23 26 24 27 25 28 26 29 27 30 28 31 29 32 30 33
REMARK SMILES IDX 31 34 32 35 96 36 33 37 95 38 34 39 35 40 36 41 89 42 37 43
REMARK SMILES IDX 94 44 88 45 90 46 38 47 93 48 87 49 86 50 39 52 73 53 52 54
REMARK SMILES IDX 72 55 53 56 56 57 71 58 91 59 54 60 55 61 70 63 92 64 57 65
REMARK SMILES IDX 40 66 41 67 50 68 42 69 43 70 49 71 51 72 44 73 45 74 46 75
REMARK SMILES IDX 47 76 48 77 74 78 75 79 84 80 76 81 77 82 83 83 85 84 78 85
REMARK SMILES IDX 79 86 80 87 81 88 82 89 58 90 59 91 68 92 60 93 61 94 67 95
REMARK SMILES IDX 69 96 62 97 63 98 64 99 65 100 66 101
REMARK H PARENT 9 12 90 51 56 62
REMARK Flexibility Score: inf
ROOT
ATOM      1  C   UNL A   1      37.360  31.906  29.189  1.00  0.00     0.188 C 
ENDROOT
BRANCH   1   2
ATOM      2  O   UNL A   1      38.367  31.398  30.072  1.00  0.00    -0.376 OA
BRANCH   2   3
ATOM      3  C   UNL A   1      39.450  32.257  30.454  1.00  0.00     0.202 C 
BRANCH   3   4
ATOM      4  C   UNL A   1      40.800  31.586  30.813  1.00  0.00     0.261 C 
BRANCH   4   5
ATOM      5  O   UNL A   1      41.184  30.495  29.969  1.00  0.00    -0.463 OA
BRANCH   5   6
ATOM      6  C   UNL A   1      41.107  29.250  30.465  1.00  0.00     0.306 C 
ATOM      7  O   UNL A   1      41.312  28.951  31.634  1.00  0.00    -0.252 OA
BRANCH   6   8
ATOM      8  C   UNL A   1      40.709  28.264  29.392  1.00  0.00     0.132 C 
BRANCH   8   9
ATOM      9  C   UNL A   1      41.777  27.998  28.323  1.00  0.00     0.112 C 
BRANCH   9  10
ATOM     10  C   UNL A   1      41.258  27.936  26.894  1.00  0.00     0.224 C 
ATOM     11  N   UNL A   1      40.815  26.839  26.210  1.00  0.00    -0.326 N 
ATOM     12  H   UNL A   1      40.558  27.074  25.288  1.00  0.00     0.169 HD
ATOM     13  O   UNL A   1      41.239  29.007  26.265  1.00  0.00    -0.275 OA
BRANCH  11  14
ATOM     14  C   UNL A   1      40.623  25.460  26.454  1.00  0.00     0.041 A 
ATOM     15  C   UNL A   1      40.275  22.646  26.796  1.00  0.00     0.119 A 
ATOM     16  C   UNL A   1      39.265  23.523  27.081  1.00  0.00     0.048 A 
ATOM     17  C   UNL A   1      41.487  23.165  26.362  1.00  0.00     0.048 A 
ATOM     18  C   UNL A   1      39.444  24.899  26.879  1.00  0.00     0.030 A 
ATOM     19  C   UNL A   1      41.670  24.562  26.226  1.00  0.00     0.030 A 
BRANCH  15  20
ATOM     20  O   UNL A   1      40.071  21.302  26.796  1.00  0.00    -0.494 OA
BRANCH  20  21
ATOM     21  C   UNL A   1      41.175  20.506  27.256  1.00  0.00     0.229 C 
BRANCH  21  22
ATOM     22  C   UNL A   1      41.468  19.505  26.146  1.00  0.00     0.038 C 
ATOM     23  C   UNL A   1      42.695  18.661  26.469  1.00  0.00     0.007 C 
ENDBRANCH  21  22
ENDBRANCH  20  21
ENDBRANCH  15  20
ENDBRANCH  11  14
ENDBRANCH   9  10
ENDBRANCH   8   9
ENDBRANCH   6   8
ENDBRANCH   5   6
ENDBRANCH   4   5
ENDBRANCH   3   4
ENDBRANCH   2   3
ENDBRANCH   1   2
BRANCH   1  24
ATOM     24  C   UNL A   1      37.598  33.428  28.901  1.00  0.00     0.188 C 
BRANCH  24  25
ATOM     25  O   UNL A   1      36.381  34.159  29.044  1.00  0.00    -0.377 OA
BRANCH  25  26
ATOM     26  C   UNL A   1      35.211  33.880  28.270  1.00  0.00     0.188 C 
BRANCH  26  27
ATOM     27  C   UNL A   1      34.315  35.019  27.759  1.00  0.00     0.188 C 
BRANCH  27  28
ATOM     28  O   UNL A   1      33.382  35.571  28.686  1.00  0.00    -0.376 OA
BRANCH  28  29
ATOM     29  C   UNL A   1      33.258  34.898  29.930  1.00  0.00     0.202 C 
BRANCH  29  30
ATOM     30  C   UNL A   1      33.905  35.558  31.163  1.00  0.00     0.261 C 
BRANCH  30  31
ATOM     31  O   UNL A   1      34.951  34.797  31.806  1.00  0.00    -0.460 OA
BRANCH  31  32
ATOM     32  C   UNL A   1      35.283  35.209  33.055  1.00  0.00     0.338 C 
ATOM     33  O   UNL A   1      34.737  36.108  33.689  1.00  0.00    -0.246 OA
BRANCH  32  34
ATOM     34  C   UNL A   1      36.347  34.368  33.651  1.00  0.00     0.060 A 
ATOM     35  C   UNL A   1      36.083  33.739  34.877  1.00  0.00     0.016 A 
ATOM     36  C   UNL A   1      37.633  34.320  33.111  1.00  0.00     0.016 A 
ATOM     37  C   UNL A   1      37.113  33.119  35.596  1.00  0.00     0.010 A 
ATOM     38  C   UNL A   1      38.667  33.703  33.837  1.00  0.00     0.010 A 
ATOM     39  C   UNL A   1      38.425  33.142  35.108  1.00  0.00    -0.014 A 
BRANCH  39  40
ATOM     40  C   UNL A   1      39.573  32.785  35.995  1.00  0.00     0.031 A 
ATOM     41  C   UNL A   1      39.967  33.749  37.088  1.00  0.00     0.074 A 
ATOM     42  C   UNL A   1      40.258  31.633  35.857  1.00  0.00     0.049 A 
ATOM     43  N   UNL A   1      40.991  33.718  37.903  1.00  0.00    -0.248 NA
ATOM     44  C   UNL A   1      39.084  34.911  37.282  1.00  0.00     0.031 C 
ATOM     45  C   UNL A   1      39.960  30.578  34.893  1.00  0.00     0.029 A 
ATOM     46  N   UNL A   1      41.367  31.169  36.529  1.00  0.00    -0.354 N 
ATOM     47  C   UNL A   1      40.888  34.862  38.690  1.00  0.00     0.074 A 
ATOM     48  C   UNL A   1      39.714  35.578  38.237  1.00  0.00     0.031 C 
ATOM     49  C   UNL A   1      40.877  29.601  35.017  1.00  0.00     0.029 A 
ATOM     50  C   UNL A   1      41.852  29.977  36.042  1.00  0.00     0.049 A 
ATOM     51  H   UNL A   1      41.776  31.647  37.287  1.00  0.00     0.167 HD
ATOM     52  C   UNL A   1      41.691  35.279  39.698  1.00  0.00     0.037 A 
ATOM     53  C   UNL A   1      42.968  29.286  36.359  1.00  0.00     0.037 A 
ATOM     54  C   UNL A   1      42.857  34.566  40.157  1.00  0.00     0.049 A 
ATOM     55  C   UNL A   1      43.897  29.810  37.431  1.00  0.00     0.074 A 
ATOM     56  C   UNL A   1      43.723  34.905  41.183  1.00  0.00     0.029 A 
ATOM     57  N   UNL A   1      43.324  33.377  39.618  1.00  0.00    -0.354 N 
ATOM     58  N   UNL A   1      43.785  30.889  38.168  1.00  0.00    -0.248 NA
ATOM     59  C   UNL A   1      45.105  29.018  37.713  1.00  0.00     0.031 C 
ATOM     60  C   UNL A   1      44.746  33.954  41.226  1.00  0.00     0.029 A 
ATOM     61  C   UNL A   1      44.482  32.984  40.272  1.00  0.00     0.049 A 
ATOM     62  H   UNL A   1      42.898  32.886  38.880  1.00  0.00     0.167 HD
ATOM     63  C   UNL A   1      44.887  30.886  39.021  1.00  0.00     0.074 A 
ATOM     64  C   UNL A   1      45.649  29.696  38.715  1.00  0.00     0.031 C 
ATOM     65  C   UNL A   1      45.233  31.790  39.973  1.00  0.00     0.037 A 
BRANCH  52  66
ATOM     66  C   UNL A   1      41.359  36.591  40.359  1.00  0.00     0.058 A 
ATOM     67  C   UNL A   1      40.611  36.660  41.546  1.00  0.00     0.135 A 
ATOM     68  C   UNL A   1      41.827  37.799  39.814  1.00  0.00     0.135 A 
ATOM     69  F   UNL A   1      40.124  35.540  42.103  1.00  0.00    -0.206 F 
ATOM     70  C   UNL A   1      40.313  37.878  42.150  1.00  0.00     0.059 A 
ATOM     71  C   UNL A   1      41.569  39.026  40.419  1.00  0.00     0.059 A 
ATOM     72  F   UNL A   1      42.548  37.794  38.682  1.00  0.00    -0.206 F 
ATOM     73  C   UNL A   1      40.797  39.056  41.578  1.00  0.00     0.060 A 
BRANCH  73  74
ATOM     74  S   UNL A   1      40.402  40.627  42.375  1.00  0.00     0.124 S 
ATOM     75  O   UNL A   1      40.541  41.561  41.261  1.00  0.00    -0.237 OA
ATOM     76  O   UNL A   1      39.040  40.402  42.848  1.00  0.00    -0.237 OA
ATOM     77  O   UNL A   1      41.415  40.744  43.420  1.00  0.00    -0.744 OA
ENDBRANCH  73  74
ENDBRANCH  52  66
BRANCH  53  78
ATOM     78  C   UNL A   1      43.297  28.024  35.636  1.00  0.00     0.058 A 
ATOM     79  C   UNL A   1      44.048  28.041  34.450  1.00  0.00     0.135 A 
ATOM     80  C   UNL A   1      42.853  26.779  36.107  1.00  0.00     0.135 A 
ATOM     81  F   UNL A   1      44.477  29.206  33.944  1.00  0.00    -0.206 F 
ATOM     82  C   UNL A   1      44.338  26.871  33.753  1.00  0.00     0.059 A 
ATOM     83  C   UNL A   1      43.156  25.592  35.445  1.00  0.00     0.059 A 
ATOM     84  F   UNL A   1      42.132  26.705  37.237  1.00  0.00    -0.206 F 
ATOM     85  C   UNL A   1      43.893  25.650  34.263  1.00  0.00     0.060 A 
BRANCH  85  86
ATOM     86  S   UNL A   1      44.331  24.135  33.383  1.00  0.00     0.124 S 
ATOM     87  O   UNL A   1      45.647  23.839  33.939  1.00  0.00    -0.237 OA
ATOM     88  O   UNL A   1      43.254  23.233  33.780  1.00  0.00    -0.237 OA
ATOM     89  O   UNL A   1      44.313  24.541  31.983  1.00  0.00    -0.744 OA
ENDBRANCH  85  86
ENDBRANCH  53  78
BRANCH  65  90
ATOM     90  C   UNL A   1      46.463  31.511  40.799  1.00  0.00     0.058 A 
ATOM     91  C   UNL A   1      47.728  32.007  40.445  1.00  0.00     0.135 A 
ATOM     92  C   UNL A   1      46.363  30.784  41.998  1.00  0.00     0.135 A 
ATOM     93  F   UNL A   1      47.886  32.704  39.308  1.00  0.00    -0.206 F 
ATOM     94  C   UNL A   1      48.851  31.773  41.236  1.00  0.00     0.059 A 
ATOM     95  C   UNL A   1      47.465  30.565  42.820  1.00  0.00     0.059 A 
ATOM     96  F   UNL A   1      45.176  30.295  42.394  1.00  0.00    -0.206 F 
ATOM     97  C   UNL A   1      48.708  31.054  42.424  1.00  0.00     0.060 A 
BRANCH  97  98
ATOM     98  S   UNL A   1      50.166  30.788  43.457  1.00  0.00     0.124 S 
ATOM     99  O   UNL A   1      50.771  32.117  43.461  1.00  0.00    -0.237 OA
ATOM    100  O   UNL A   1      49.578  30.355  44.721  1.00  0.00    -0.237 OA
ATOM    101  O   UNL A   1      50.913  29.762  42.735  1.00  0.00    -0.744 OA
ENDBRANCH  97  98
ENDBRANCH  65  90
ENDBRANCH  39  40
ENDBRANCH  32  34
ENDBRANCH  31  32
ENDBRANCH  30  31
ENDBRANCH  29  30
ENDBRANCH  28  29
ENDBRANCH  27  28
ENDBRANCH  26  27
ENDBRANCH  25  26
ENDBRANCH  24  25
ENDBRANCH   1  24
TORSDOF 29
ENDMDL
