MODEL 1
REMARK VINA RESULT:      -8.5      0.000      0.000
REMARK SMILES Cc1noc(C)c1C[NH2+][C@H](C)[C@H](C)C(=O)OCCOCCOCCOCCOC(=O)c1ccc(-c2c3nc(c(-c4c(F)cc(S(=O)(=O)[O-])cc4F)c4ccc([nH]4)c(-c4c(F)cc(S(=O)(=O)[O-])cc4F)c4nc(c(-c5c(F)cc(S(=O)(=O)[O-])cc5F)c5ccc2[nH]5)C=C4)C=C3)cc1
REMARK SMILES IDX 21 1 20 2 19 3 18 4 17 5 16 6 14 7 15 8 12 9 13 10 10 11
REMARK SMILES IDX 11 12 9 13 8 16 7 17 1 18 2 19 3 20 4 21 5 22 6 23 22 24
REMARK SMILES IDX 23 25 24 26 25 27 26 28 27 29 28 30 29 31 30 32 31 33 32 34
REMARK SMILES IDX 96 35 33 36 95 37 34 38 35 39 36 40 89 41 37 42 94 43 88 44
REMARK SMILES IDX 90 45 38 46 93 47 87 48 86 49 39 51 73 52 52 53 72 54 53 55
REMARK SMILES IDX 56 56 71 57 91 58 54 59 55 60 70 62 92 63 57 64 40 65 41 66
REMARK SMILES IDX 50 67 42 68 43 69 49 70 51 71 44 72 45 73 46 74 47 75 48 76
REMARK SMILES IDX 74 77 75 78 84 79 76 80 77 81 83 82 85 83 78 84 79 85 80 86
REMARK SMILES IDX 81 87 82 88 58 89 59 90 68 91 60 92 61 93 67 94 69 95 62 96
REMARK SMILES IDX 63 97 64 98 65 99 66 100
REMARK H PARENT 9 14 9 15 90 50 56 61
REMARK Flexibility Score: inf
ROOT
ATOM      1  C   UNL A   1      33.776  24.069  25.811  1.00  0.00     0.188 C 
ENDROOT
BRANCH   1   2
ATOM      2  C   UNL A   1      34.517  25.412  25.897  1.00  0.00     0.188 C 
BRANCH   2   3
ATOM      3  O   UNL A   1      33.885  26.667  25.689  1.00  0.00    -0.376 OA
BRANCH   3   4
ATOM      4  C   UNL A   1      34.033  27.436  24.506  1.00  0.00     0.202 C 
BRANCH   4   5
ATOM      5  C   UNL A   1      33.636  28.920  24.438  1.00  0.00     0.261 C 
BRANCH   5   6
ATOM      6  O   UNL A   1      32.472  29.251  23.673  1.00  0.00    -0.463 OA
BRANCH   6   7
ATOM      7  C   UNL A   1      31.337  29.340  24.395  1.00  0.00     0.314 C 
ATOM      8  O   UNL A   1      31.232  29.965  25.448  1.00  0.00    -0.252 OA
BRANCH   7   9
ATOM      9  C   UNL A   1      30.176  28.547  23.818  1.00  0.00     0.154 C 
ATOM     10  C   UNL A   1      30.002  28.567  22.286  1.00  0.00     0.026 C 
BRANCH   9  11
ATOM     11  C   UNL A   1      30.243  27.100  24.337  1.00  0.00     0.193 C 
ATOM     12  C   UNL A   1      28.896  26.372  24.330  1.00  0.00     0.076 C 
BRANCH  11  13
ATOM     13  N   UNL A   1      31.134  26.320  23.471  1.00  0.00    -0.339 N 
ATOM     14  H   UNL A   1      31.262  26.827  22.595  1.00  0.00     0.346 HD
ATOM     15  H   UNL A   1      32.013  26.194  23.972  1.00  0.00     0.346 HD
BRANCH  13  16
ATOM     16  C   UNL A   1      30.617  24.995  23.166  1.00  0.00     0.303 C 
BRANCH  16  17
ATOM     17  C   UNL A   1      31.769  24.206  22.677  1.00  0.00     0.071 A 
ATOM     18  C   UNL A   1      31.577  22.116  24.216  1.00  0.00     0.071 C 
ATOM     19  C   UNL A   1      32.204  22.938  23.151  1.00  0.00     0.090 A 
ATOM     20  N   UNL A   1      33.276  22.505  22.479  1.00  0.00    -0.085 NA
ATOM     21  O   UNL A   1      33.546  23.482  21.537  1.00  0.00    -0.361 OA
ATOM     22  C   UNL A   1      32.639  24.489  21.650  1.00  0.00     0.142 A 
ATOM     23  C   UNL A   1      32.757  25.601  20.687  1.00  0.00     0.091 C 
ENDBRANCH  16  17
ENDBRANCH  13  16
ENDBRANCH  11  13
ENDBRANCH   9  11
ENDBRANCH   7   9
ENDBRANCH   6   7
ENDBRANCH   5   6
ENDBRANCH   4   5
ENDBRANCH   3   4
ENDBRANCH   2   3
ENDBRANCH   1   2
BRANCH   1  24
ATOM     24  O   UNL A   1      34.246  23.060  26.675  1.00  0.00    -0.377 OA
BRANCH  24  25
ATOM     25  C   UNL A   1      34.810  21.905  26.067  1.00  0.00     0.188 C 
BRANCH  25  26
ATOM     26  C   UNL A   1      36.322  21.926  25.760  1.00  0.00     0.188 C 
BRANCH  26  27
ATOM     27  O   UNL A   1      36.846  20.666  25.358  1.00  0.00    -0.376 OA
BRANCH  27  28
ATOM     28  C   UNL A   1      38.204  20.580  24.956  1.00  0.00     0.202 C 
BRANCH  28  29
ATOM     29  C   UNL A   1      39.109  19.542  25.641  1.00  0.00     0.261 C 
BRANCH  29  30
ATOM     30  O   UNL A   1      40.135  20.042  26.513  1.00  0.00    -0.460 OA
BRANCH  30  31
ATOM     31  C   UNL A   1      41.419  19.782  26.191  1.00  0.00     0.338 C 
ATOM     32  O   UNL A   1      41.843  18.780  25.637  1.00  0.00    -0.246 OA
BRANCH  31  33
ATOM     33  C   UNL A   1      42.213  21.009  26.424  1.00  0.00     0.060 A 
ATOM     34  C   UNL A   1      42.532  21.362  27.741  1.00  0.00     0.016 A 
ATOM     35  C   UNL A   1      42.633  21.811  25.359  1.00  0.00     0.016 A 
ATOM     36  C   UNL A   1      43.221  22.545  28.003  1.00  0.00     0.010 A 
ATOM     37  C   UNL A   1      43.306  23.010  25.624  1.00  0.00     0.010 A 
ATOM     38  C   UNL A   1      43.561  23.404  26.950  1.00  0.00    -0.014 A 
BRANCH  38  39
ATOM     39  C   UNL A   1      43.989  24.791  27.264  1.00  0.00     0.031 A 
ATOM     40  C   UNL A   1      45.442  25.149  27.086  1.00  0.00     0.074 A 
ATOM     41  C   UNL A   1      43.101  25.730  27.633  1.00  0.00     0.049 A 
ATOM     42  N   UNL A   1      46.044  26.294  27.270  1.00  0.00    -0.248 NA
ATOM     43  C   UNL A   1      46.334  24.067  26.637  1.00  0.00     0.031 C 
ATOM     44  C   UNL A   1      41.664  25.515  27.802  1.00  0.00     0.029 A 
ATOM     45  N   UNL A   1      43.280  27.059  27.930  1.00  0.00    -0.354 N 
ATOM     46  C   UNL A   1      47.383  26.073  26.964  1.00  0.00     0.074 A 
ATOM     47  C   UNL A   1      47.511  24.674  26.621  1.00  0.00     0.031 C 
ATOM     48  C   UNL A   1      41.093  26.674  28.177  1.00  0.00     0.029 A 
ATOM     49  C   UNL A   1      42.125  27.702  28.302  1.00  0.00     0.049 A 
ATOM     50  H   UNL A   1      44.155  27.507  27.881  1.00  0.00     0.167 HD
ATOM     51  C   UNL A   1      48.409  26.956  26.957  1.00  0.00     0.037 A 
ATOM     52  C   UNL A   1      41.927  28.972  28.709  1.00  0.00     0.037 A 
ATOM     53  C   UNL A   1      48.276  28.348  27.304  1.00  0.00     0.049 A 
ATOM     54  C   UNL A   1      43.098  29.923  28.755  1.00  0.00     0.074 A 
ATOM     55  C   UNL A   1      49.252  29.329  27.315  1.00  0.00     0.029 A 
ATOM     56  N   UNL A   1      47.097  28.956  27.713  1.00  0.00    -0.354 N 
ATOM     57  N   UNL A   1      44.353  29.707  28.438  1.00  0.00    -0.248 NA
ATOM     58  C   UNL A   1      42.820  31.295  29.202  1.00  0.00     0.031 C 
ATOM     59  C   UNL A   1      48.677  30.513  27.789  1.00  0.00     0.029 A 
ATOM     60  C   UNL A   1      47.327  30.290  28.005  1.00  0.00     0.049 A 
ATOM     61  H   UNL A   1      46.225  28.504  27.783  1.00  0.00     0.167 HD
ATOM     62  C   UNL A   1      45.008  30.922  28.620  1.00  0.00     0.074 A 
ATOM     63  C   UNL A   1      44.004  31.872  29.054  1.00  0.00     0.031 C 
ATOM     64  C   UNL A   1      46.320  31.226  28.444  1.00  0.00     0.037 A 
BRANCH  51  65
ATOM     65  C   UNL A   1      49.775  26.435  26.593  1.00  0.00     0.058 A 
ATOM     66  C   UNL A   1      50.698  26.022  27.569  1.00  0.00     0.135 A 
ATOM     67  C   UNL A   1      50.154  26.321  25.246  1.00  0.00     0.135 A 
ATOM     68  F   UNL A   1      50.397  26.129  28.873  1.00  0.00    -0.206 F 
ATOM     69  C   UNL A   1      51.957  25.542  27.222  1.00  0.00     0.059 A 
ATOM     70  C   UNL A   1      51.395  25.813  24.875  1.00  0.00     0.059 A 
ATOM     71  F   UNL A   1      49.314  26.705  24.273  1.00  0.00    -0.206 F 
ATOM     72  C   UNL A   1      52.296  25.438  25.871  1.00  0.00     0.060 A 
BRANCH  72  73
ATOM     73  S   UNL A   1      53.930  24.806  25.438  1.00  0.00     0.124 S 
ATOM     74  O   UNL A   1      54.305  25.696  24.343  1.00  0.00    -0.237 OA
ATOM     75  O   UNL A   1      54.671  24.985  26.682  1.00  0.00    -0.237 OA
ATOM     76  O   UNL A   1      53.671  23.422  25.059  1.00  0.00    -0.744 OA
ENDBRANCH  72  73
ENDBRANCH  51  65
BRANCH  52  77
ATOM     77  C   UNL A   1      40.567  29.422  29.115  1.00  0.00     0.058 A 
ATOM     78  C   UNL A   1      40.246  29.657  30.460  1.00  0.00     0.135 A 
ATOM     79  C   UNL A   1      39.556  29.618  28.160  1.00  0.00     0.135 A 
ATOM     80  F   UNL A   1      41.172  29.472  31.413  1.00  0.00    -0.206 F 
ATOM     81  C   UNL A   1      38.970  30.057  30.846  1.00  0.00     0.059 A 
ATOM     82  C   UNL A   1      38.282  30.045  28.518  1.00  0.00     0.059 A 
ATOM     83  F   UNL A   1      39.811  29.414  26.858  1.00  0.00    -0.206 F 
ATOM     84  C   UNL A   1      37.995  30.253  29.866  1.00  0.00     0.060 A 
BRANCH  84  85
ATOM     85  S   UNL A   1      36.360  30.827  30.373  1.00  0.00     0.124 S 
ATOM     86  O   UNL A   1      35.675  30.935  29.090  1.00  0.00    -0.237 OA
ATOM     87  O   UNL A   1      35.916  29.747  31.248  1.00  0.00    -0.237 OA
ATOM     88  O   UNL A   1      36.643  32.092  31.045  1.00  0.00    -0.744 OA
ENDBRANCH  84  85
ENDBRANCH  52  77
BRANCH  64  89
ATOM     89  C   UNL A   1      46.736  32.654  28.686  1.00  0.00     0.058 A 
ATOM     90  C   UNL A   1      47.234  33.084  29.928  1.00  0.00     0.135 A 
ATOM     91  C   UNL A   1      46.648  33.605  27.655  1.00  0.00     0.135 A 
ATOM     92  F   UNL A   1      47.342  32.220  30.949  1.00  0.00    -0.206 F 
ATOM     93  C   UNL A   1      47.576  34.414  30.153  1.00  0.00     0.059 A 
ATOM     94  C   UNL A   1      47.020  34.931  27.847  1.00  0.00     0.059 A 
ATOM     95  F   UNL A   1      46.198  33.248  26.441  1.00  0.00    -0.206 F 
ATOM     96  C   UNL A   1      47.460  35.332  29.108  1.00  0.00     0.060 A 
BRANCH  96  97
ATOM     97  S   UNL A   1      47.892  37.057  29.417  1.00  0.00     0.124 S 
ATOM     98  O   UNL A   1      48.674  37.380  28.228  1.00  0.00    -0.237 OA
ATOM     99  O   UNL A   1      46.583  37.695  29.508  1.00  0.00    -0.237 OA
ATOM    100  O   UNL A   1      48.646  37.001  30.667  1.00  0.00    -0.744 OA
ENDBRANCH  96  97
ENDBRANCH  64  89
ENDBRANCH  38  39
ENDBRANCH  31  33
ENDBRANCH  30  31
ENDBRANCH  29  30
ENDBRANCH  28  29
ENDBRANCH  27  28
ENDBRANCH  26  27
ENDBRANCH  25  26
ENDBRANCH  24  25
ENDBRANCH   1  24
TORSDOF 27
ENDMDL
MODEL 2
REMARK VINA RESULT:      -8.3      2.395      8.705
REMARK SMILES Cc1noc(C)c1C[NH2+][C@H](C)[C@H](C)C(=O)OCCOCCOCCOCCOC(=O)c1ccc(-c2c3nc(c(-c4c(F)cc(S(=O)(=O)[O-])cc4F)c4ccc([nH]4)c(-c4c(F)cc(S(=O)(=O)[O-])cc4F)c4nc(c(-c5c(F)cc(S(=O)(=O)[O-])cc5F)c5ccc2[nH]5)C=C4)C=C3)cc1
REMARK SMILES IDX 21 1 20 2 19 3 18 4 17 5 16 6 14 7 15 8 12 9 13 10 10 11
REMARK SMILES IDX 11 12 9 13 8 16 7 17 1 18 2 19 3 20 4 21 5 22 6 23 22 24
REMARK SMILES IDX 23 25 24 26 25 27 26 28 27 29 28 30 29 31 30 32 31 33 32 34
REMARK SMILES IDX 96 35 33 36 95 37 34 38 35 39 36 40 89 41 37 42 94 43 88 44
REMARK SMILES IDX 90 45 38 46 93 47 87 48 86 49 39 51 73 52 52 53 72 54 53 55
REMARK SMILES IDX 56 56 71 57 91 58 54 59 55 60 70 62 92 63 57 64 40 65 41 66
REMARK SMILES IDX 50 67 42 68 43 69 49 70 51 71 44 72 45 73 46 74 47 75 48 76
REMARK SMILES IDX 74 77 75 78 84 79 76 80 77 81 83 82 85 83 78 84 79 85 80 86
REMARK SMILES IDX 81 87 82 88 58 89 59 90 68 91 60 92 61 93 67 94 69 95 62 96
REMARK SMILES IDX 63 97 64 98 65 99 66 100
REMARK H PARENT 9 14 9 15 90 50 56 61
REMARK Flexibility Score: inf
ROOT
ATOM      1  C   UNL A   1      32.398  31.505  27.065  1.00  0.00     0.188 C 
ENDROOT
BRANCH   1   2
ATOM      2  C   UNL A   1      32.885  30.080  26.763  1.00  0.00     0.188 C 
BRANCH   2   3
ATOM      3  O   UNL A   1      33.732  29.759  25.668  1.00  0.00    -0.376 OA
BRANCH   3   4
ATOM      4  C   UNL A   1      33.309  29.018  24.536  1.00  0.00     0.202 C 
BRANCH   4   5
ATOM      5  C   UNL A   1      31.834  28.652  24.300  1.00  0.00     0.261 C 
BRANCH   5   6
ATOM      6  O   UNL A   1      31.461  27.284  24.495  1.00  0.00    -0.463 OA
BRANCH   6   7
ATOM      7  C   UNL A   1      31.261  26.592  23.355  1.00  0.00     0.314 C 
ATOM      8  O   UNL A   1      30.407  26.868  22.517  1.00  0.00    -0.252 OA
BRANCH   7   9
ATOM      9  C   UNL A   1      32.167  25.381  23.202  1.00  0.00     0.154 C 
ATOM     10  C   UNL A   1      33.653  25.648  22.885  1.00  0.00     0.026 C 
BRANCH   9  11
ATOM     11  C   UNL A   1      32.031  24.486  24.446  1.00  0.00     0.193 C 
ATOM     12  C   UNL A   1      30.657  23.826  24.593  1.00  0.00     0.076 C 
BRANCH  11  13
ATOM     13  N   UNL A   1      33.004  23.391  24.359  1.00  0.00    -0.339 N 
ATOM     14  H   UNL A   1      32.528  22.561  24.003  1.00  0.00     0.346 HD
ATOM     15  H   UNL A   1      33.753  23.697  23.739  1.00  0.00     0.346 HD
BRANCH  13  16
ATOM     16  C   UNL A   1      33.610  23.062  25.640  1.00  0.00     0.303 C 
BRANCH  16  17
ATOM     17  C   UNL A   1      34.614  22.013  25.363  1.00  0.00     0.071 A 
ATOM     18  C   UNL A   1      33.080  19.911  25.326  1.00  0.00     0.071 C 
ATOM     19  C   UNL A   1      34.383  20.615  25.238  1.00  0.00     0.090 A 
ATOM     20  N   UNL A   1      35.515  19.953  24.976  1.00  0.00    -0.085 NA
ATOM     21  O   UNL A   1      36.505  20.917  24.907  1.00  0.00    -0.361 OA
ATOM     22  C   UNL A   1      35.963  22.145  25.126  1.00  0.00     0.142 A 
ATOM     23  C   UNL A   1      36.878  23.299  25.047  1.00  0.00     0.091 C 
ENDBRANCH  16  17
ENDBRANCH  13  16
ENDBRANCH  11  13
ENDBRANCH   9  11
ENDBRANCH   7   9
ENDBRANCH   6   7
ENDBRANCH   5   6
ENDBRANCH   4   5
ENDBRANCH   3   4
ENDBRANCH   2   3
ENDBRANCH   1   2
BRANCH   1  24
ATOM     24  O   UNL A   1      33.303  32.318  27.777  1.00  0.00    -0.377 OA
BRANCH  24  25
ATOM     25  C   UNL A   1      32.934  33.678  27.964  1.00  0.00     0.188 C 
BRANCH  25  26
ATOM     26  C   UNL A   1      33.703  34.486  29.030  1.00  0.00     0.188 C 
BRANCH  26  27
ATOM     27  O   UNL A   1      35.112  34.292  28.995  1.00  0.00    -0.376 OA
BRANCH  27  28
ATOM     28  C   UNL A   1      35.751  33.683  30.105  1.00  0.00     0.202 C 
BRANCH  28  29
ATOM     29  C   UNL A   1      35.081  32.462  30.760  1.00  0.00     0.261 C 
BRANCH  29  30
ATOM     30  O   UNL A   1      35.887  31.285  30.930  1.00  0.00    -0.460 OA
BRANCH  30  31
ATOM     31  C   UNL A   1      36.956  31.364  31.750  1.00  0.00     0.338 C 
ATOM     32  O   UNL A   1      36.952  31.715  32.919  1.00  0.00    -0.246 OA
BRANCH  31  33
ATOM     33  C   UNL A   1      38.112  30.745  31.065  1.00  0.00     0.060 A 
ATOM     34  C   UNL A   1      39.067  30.072  31.838  1.00  0.00     0.016 A 
ATOM     35  C   UNL A   1      38.263  30.832  29.678  1.00  0.00     0.016 A 
ATOM     36  C   UNL A   1      40.203  29.533  31.235  1.00  0.00     0.010 A 
ATOM     37  C   UNL A   1      39.414  30.310  29.077  1.00  0.00     0.010 A 
ATOM     38  C   UNL A   1      40.411  29.699  29.860  1.00  0.00    -0.014 A 
BRANCH  38  39
ATOM     39  C   UNL A   1      41.756  29.419  29.298  1.00  0.00     0.031 A 
ATOM     40  C   UNL A   1      42.046  28.030  28.793  1.00  0.00     0.074 A 
ATOM     41  C   UNL A   1      42.679  30.390  29.174  1.00  0.00     0.049 A 
ATOM     42  N   UNL A   1      43.131  27.556  28.240  1.00  0.00    -0.248 NA
ATOM     43  C   UNL A   1      40.961  27.042  28.930  1.00  0.00     0.031 C 
ATOM     44  C   UNL A   1      42.503  31.781  29.591  1.00  0.00     0.029 A 
ATOM     45  N   UNL A   1      43.950  30.350  28.658  1.00  0.00    -0.354 N 
ATOM     46  C   UNL A   1      42.864  26.218  27.965  1.00  0.00     0.074 A 
ATOM     47  C   UNL A   1      41.529  25.947  28.449  1.00  0.00     0.031 C 
ATOM     48  C   UNL A   1      43.630  32.462  29.315  1.00  0.00     0.029 A 
ATOM     49  C   UNL A   1      44.614  31.551  28.731  1.00  0.00     0.049 A 
ATOM     50  H   UNL A   1      44.348  29.537  28.272  1.00  0.00     0.167 HD
ATOM     51  C   UNL A   1      43.654  25.303  27.355  1.00  0.00     0.037 A 
ATOM     52  C   UNL A   1      45.875  31.873  28.380  1.00  0.00     0.037 A 
ATOM     53  C   UNL A   1      44.985  25.578  26.879  1.00  0.00     0.049 A 
ATOM     54  C   UNL A   1      46.759  30.820  27.759  1.00  0.00     0.074 A 
ATOM     55  C   UNL A   1      45.862  24.724  26.233  1.00  0.00     0.029 A 
ATOM     56  N   UNL A   1      45.638  26.796  27.004  1.00  0.00    -0.354 N 
ATOM     57  N   UNL A   1      46.485  29.567  27.482  1.00  0.00    -0.248 NA
ATOM     58  C   UNL A   1      48.121  31.231  27.392  1.00  0.00     0.031 C 
ATOM     59  C   UNL A   1      47.066  25.406  26.026  1.00  0.00     0.029 A 
ATOM     60  C   UNL A   1      46.915  26.708  26.476  1.00  0.00     0.049 A 
ATOM     61  H   UNL A   1      45.249  27.606  27.410  1.00  0.00     0.167 HD
ATOM     62  C   UNL A   1      47.630  29.048  26.882  1.00  0.00     0.074 A 
ATOM     63  C   UNL A   1      48.590  30.132  26.820  1.00  0.00     0.031 C 
ATOM     64  C   UNL A   1      47.866  27.792  26.425  1.00  0.00     0.037 A 
BRANCH  51  65
ATOM     65  C   UNL A   1      43.110  23.908  27.196  1.00  0.00     0.058 A 
ATOM     66  C   UNL A   1      42.296  23.546  26.110  1.00  0.00     0.135 A 
ATOM     67  C   UNL A   1      43.432  22.911  28.131  1.00  0.00     0.135 A 
ATOM     68  F   UNL A   1      41.938  24.462  25.197  1.00  0.00    -0.206 F 
ATOM     69  C   UNL A   1      41.798  22.253  25.972  1.00  0.00     0.059 A 
ATOM     70  C   UNL A   1      42.973  21.604  27.996  1.00  0.00     0.059 A 
ATOM     71  F   UNL A   1      44.201  23.202  29.191  1.00  0.00    -0.206 F 
ATOM     72  C   UNL A   1      42.145  21.288  26.920  1.00  0.00     0.060 A 
BRANCH  72  73
ATOM     73  S   UNL A   1      41.498  19.614  26.723  1.00  0.00     0.124 S 
ATOM     74  O   UNL A   1      42.092  18.936  27.871  1.00  0.00    -0.237 OA
ATOM     75  O   UNL A   1      40.056  19.829  26.790  1.00  0.00    -0.237 OA
ATOM     76  O   UNL A   1      42.007  19.203  25.419  1.00  0.00    -0.744 OA
ENDBRANCH  72  73
ENDBRANCH  51  65
BRANCH  52  77
ATOM     77  C   UNL A   1      46.385  33.253  28.611  1.00  0.00     0.058 A 
ATOM     78  C   UNL A   1      46.440  34.195  27.572  1.00  0.00     0.135 A 
ATOM     79  C   UNL A   1      46.836  33.654  29.879  1.00  0.00     0.135 A 
ATOM     80  F   UNL A   1      46.034  33.857  26.339  1.00  0.00    -0.206 F 
ATOM     81  C   UNL A   1      46.936  35.479  27.778  1.00  0.00     0.059 A 
ATOM     82  C   UNL A   1      47.307  34.941  30.116  1.00  0.00     0.059 A 
ATOM     83  F   UNL A   1      46.798  32.795  30.909  1.00  0.00    -0.206 F 
ATOM     84  C   UNL A   1      47.363  35.844  29.055  1.00  0.00     0.060 A 
BRANCH  84  85
ATOM     85  S   UNL A   1      47.950  37.531  29.323  1.00  0.00     0.124 S 
ATOM     86  O   UNL A   1      49.254  37.295  29.931  1.00  0.00    -0.237 OA
ATOM     87  O   UNL A   1      47.962  38.067  27.967  1.00  0.00    -0.237 OA
ATOM     88  O   UNL A   1      46.936  38.101  30.206  1.00  0.00    -0.744 OA
ENDBRANCH  84  85
ENDBRANCH  52  77
BRANCH  64  89
ATOM     89  C   UNL A   1      49.204  27.532  25.781  1.00  0.00     0.058 A 
ATOM     90  C   UNL A   1      50.350  27.238  26.540  1.00  0.00     0.135 A 
ATOM     91  C   UNL A   1      49.340  27.565  24.383  1.00  0.00     0.135 A 
ATOM     92  F   UNL A   1      50.281  27.191  27.879  1.00  0.00    -0.206 F 
ATOM     93  C   UNL A   1      51.590  27.041  25.939  1.00  0.00     0.059 A 
ATOM     94  C   UNL A   1      50.561  27.334  23.760  1.00  0.00     0.059 A 
ATOM     95  F   UNL A   1      48.275  27.822  23.606  1.00  0.00    -0.206 F 
ATOM     96  C   UNL A   1      51.687  27.096  24.547  1.00  0.00     0.060 A 
BRANCH  96  97
ATOM     97  S   UNL A   1      53.302  26.854  23.781  1.00  0.00     0.124 S 
ATOM     98  O   UNL A   1      54.173  27.588  24.695  1.00  0.00    -0.237 OA
ATOM     99  O   UNL A   1      53.443  25.401  23.801  1.00  0.00    -0.237 OA
ATOM    100  O   UNL A   1      53.143  27.446  22.455  1.00  0.00    -0.744 OA
ENDBRANCH  96  97
ENDBRANCH  64  89
ENDBRANCH  38  39
ENDBRANCH  31  33
ENDBRANCH  30  31
ENDBRANCH  29  30
ENDBRANCH  28  29
ENDBRANCH  27  28
ENDBRANCH  26  27
ENDBRANCH  25  26
ENDBRANCH  24  25
ENDBRANCH   1  24
TORSDOF 27
ENDMDL
MODEL 3
REMARK VINA RESULT:      -8.3      5.301      8.338
REMARK SMILES Cc1noc(C)c1C[NH2+][C@H](C)[C@H](C)C(=O)OCCOCCOCCOCCOC(=O)c1ccc(-c2c3nc(c(-c4c(F)cc(S(=O)(=O)[O-])cc4F)c4ccc([nH]4)c(-c4c(F)cc(S(=O)(=O)[O-])cc4F)c4nc(c(-c5c(F)cc(S(=O)(=O)[O-])cc5F)c5ccc2[nH]5)C=C4)C=C3)cc1
REMARK SMILES IDX 21 1 20 2 19 3 18 4 17 5 16 6 14 7 15 8 12 9 13 10 10 11
REMARK SMILES IDX 11 12 9 13 8 16 7 17 1 18 2 19 3 20 4 21 5 22 6 23 22 24
REMARK SMILES IDX 23 25 24 26 25 27 26 28 27 29 28 30 29 31 30 32 31 33 32 34
REMARK SMILES IDX 96 35 33 36 95 37 34 38 35 39 36 40 89 41 37 42 94 43 88 44
REMARK SMILES IDX 90 45 38 46 93 47 87 48 86 49 39 51 73 52 52 53 72 54 53 55
REMARK SMILES IDX 56 56 71 57 91 58 54 59 55 60 70 62 92 63 57 64 40 65 41 66
REMARK SMILES IDX 50 67 42 68 43 69 49 70 51 71 44 72 45 73 46 74 47 75 48 76
REMARK SMILES IDX 74 77 75 78 84 79 76 80 77 81 83 82 85 83 78 84 79 85 80 86
REMARK SMILES IDX 81 87 82 88 58 89 59 90 68 91 60 92 61 93 67 94 69 95 62 96
REMARK SMILES IDX 63 97 64 98 65 99 66 100
REMARK H PARENT 9 14 9 15 90 50 56 61
REMARK Flexibility Score: inf
ROOT
ATOM      1  C   UNL A   1      43.319  18.986  25.619  1.00  0.00     0.188 C 
ENDROOT
BRANCH   1   2
ATOM      2  C   UNL A   1      42.301  19.846  26.382  1.00  0.00     0.188 C 
BRANCH   2   3
ATOM      3  O   UNL A   1      41.426  20.769  25.747  1.00  0.00    -0.376 OA
BRANCH   3   4
ATOM      4  C   UNL A   1      40.092  21.006  26.166  1.00  0.00     0.202 C 
BRANCH   4   5
ATOM      5  C   UNL A   1      39.656  22.338  26.799  1.00  0.00     0.261 C 
BRANCH   5   6
ATOM      6  O   UNL A   1      40.505  23.471  26.587  1.00  0.00    -0.463 OA
BRANCH   6   7
ATOM      7  C   UNL A   1      41.541  23.561  27.445  1.00  0.00     0.314 C 
ATOM      8  O   UNL A   1      41.561  23.051  28.563  1.00  0.00    -0.252 OA
BRANCH   7   9
ATOM      9  C   UNL A   1      42.695  24.405  26.931  1.00  0.00     0.154 C 
ATOM     10  C   UNL A   1      42.805  24.592  25.404  1.00  0.00     0.026 C 
BRANCH   9  11
ATOM     11  C   UNL A   1      42.683  25.768  27.645  1.00  0.00     0.193 C 
ATOM     12  C   UNL A   1      43.068  26.947  26.745  1.00  0.00     0.076 C 
BRANCH  11  13
ATOM     13  N   UNL A   1      41.325  26.048  28.126  1.00  0.00    -0.339 N 
ATOM     14  H   UNL A   1      40.755  26.347  27.334  1.00  0.00     0.346 HD
ATOM     15  H   UNL A   1      40.971  25.191  28.551  1.00  0.00     0.346 HD
BRANCH  13  16
ATOM     16  C   UNL A   1      41.283  27.085  29.144  1.00  0.00     0.303 C 
BRANCH  16  17
ATOM     17  C   UNL A   1      40.036  27.844  28.906  1.00  0.00     0.071 A 
ATOM     18  C   UNL A   1      38.805  27.418  31.159  1.00  0.00     0.071 C 
ATOM     19  C   UNL A   1      38.932  27.980  29.792  1.00  0.00     0.090 A 
ATOM     20  N   UNL A   1      37.970  28.745  29.263  1.00  0.00    -0.085 NA
ATOM     21  O   UNL A   1      38.445  29.137  28.024  1.00  0.00    -0.361 OA
ATOM     22  C   UNL A   1      39.681  28.609  27.819  1.00  0.00     0.142 A 
ATOM     23  C   UNL A   1      40.355  28.964  26.556  1.00  0.00     0.091 C 
ENDBRANCH  16  17
ENDBRANCH  13  16
ENDBRANCH  11  13
ENDBRANCH   9  11
ENDBRANCH   7   9
ENDBRANCH   6   7
ENDBRANCH   5   6
ENDBRANCH   4   5
ENDBRANCH   3   4
ENDBRANCH   2   3
ENDBRANCH   1   2
BRANCH   1  24
ATOM     24  O   UNL A   1      43.948  19.617  24.527  1.00  0.00    -0.377 OA
BRANCH  24  25
ATOM     25  C   UNL A   1      45.287  19.229  24.245  1.00  0.00     0.188 C 
BRANCH  25  26
ATOM     26  C   UNL A   1      46.418  20.139  24.768  1.00  0.00     0.188 C 
BRANCH  26  27
ATOM     27  O   UNL A   1      45.969  21.401  25.243  1.00  0.00    -0.376 OA
BRANCH  27  28
ATOM     28  C   UNL A   1      45.710  22.437  24.309  1.00  0.00     0.202 C 
BRANCH  28  29
ATOM     29  C   UNL A   1      46.494  23.755  24.438  1.00  0.00     0.261 C 
BRANCH  29  30
ATOM     30  O   UNL A   1      46.084  24.662  25.474  1.00  0.00    -0.460 OA
BRANCH  30  31
ATOM     31  C   UNL A   1      46.942  24.892  26.488  1.00  0.00     0.338 C 
ATOM     32  O   UNL A   1      47.750  24.103  26.953  1.00  0.00    -0.246 OA
BRANCH  31  33
ATOM     33  C   UNL A   1      46.902  26.335  26.812  1.00  0.00     0.060 A 
ATOM     34  C   UNL A   1      47.360  26.755  28.067  1.00  0.00     0.016 A 
ATOM     35  C   UNL A   1      46.410  27.269  25.894  1.00  0.00     0.016 A 
ATOM     36  C   UNL A   1      47.276  28.097  28.431  1.00  0.00     0.010 A 
ATOM     37  C   UNL A   1      46.306  28.614  26.269  1.00  0.00     0.010 A 
ATOM     38  C   UNL A   1      46.696  29.025  27.556  1.00  0.00    -0.014 A 
BRANCH  38  39
ATOM     39  C   UNL A   1      46.315  30.363  28.077  1.00  0.00     0.031 A 
ATOM     40  C   UNL A   1      47.226  31.528  27.791  1.00  0.00     0.074 A 
ATOM     41  C   UNL A   1      45.155  30.555  28.729  1.00  0.00     0.049 A 
ATOM     42  N   UNL A   1      47.093  32.786  28.117  1.00  0.00    -0.248 NA
ATOM     43  C   UNL A   1      48.454  31.230  27.033  1.00  0.00     0.031 C 
ATOM     44  C   UNL A   1      44.173  29.515  29.032  1.00  0.00     0.029 A 
ATOM     45  N   UNL A   1      44.606  31.699  29.253  1.00  0.00    -0.354 N 
ATOM     46  C   UNL A   1      48.216  33.431  27.608  1.00  0.00     0.074 A 
ATOM     47  C   UNL A   1      49.039  32.417  26.987  1.00  0.00     0.031 C 
ATOM     48  C   UNL A   1      43.141  30.070  29.693  1.00  0.00     0.029 A 
ATOM     49  C   UNL A   1      43.403  31.496  29.884  1.00  0.00     0.049 A 
ATOM     50  H   UNL A   1      45.036  32.582  29.182  1.00  0.00     0.167 HD
ATOM     51  C   UNL A   1      48.527  34.748  27.644  1.00  0.00     0.037 A 
ATOM     52  C   UNL A   1      42.612  32.361  30.551  1.00  0.00     0.037 A 
ATOM     53  C   UNL A   1      47.706  35.753  28.268  1.00  0.00     0.049 A 
ATOM     54  C   UNL A   1      43.011  33.814  30.633  1.00  0.00     0.074 A 
ATOM     55  C   UNL A   1      47.925  37.117  28.346  1.00  0.00     0.029 A 
ATOM     56  N   UNL A   1      46.512  35.504  28.930  1.00  0.00    -0.354 N 
ATOM     57  N   UNL A   1      44.062  34.413  30.126  1.00  0.00    -0.248 NA
ATOM     58  C   UNL A   1      42.107  34.708  31.368  1.00  0.00     0.031 C 
ATOM     59  C   UNL A   1      46.898  37.683  29.108  1.00  0.00     0.029 A 
ATOM     60  C   UNL A   1      45.999  36.684  29.445  1.00  0.00     0.049 A 
ATOM     61  H   UNL A   1      46.092  34.618  29.021  1.00  0.00     0.167 HD
ATOM     62  C   UNL A   1      43.931  35.760  30.456  1.00  0.00     0.074 A 
ATOM     63  C   UNL A   1      42.687  35.886  31.188  1.00  0.00     0.031 C 
ATOM     64  C   UNL A   1      44.763  36.797  30.179  1.00  0.00     0.037 A 
BRANCH  51  65
ATOM     65  C   UNL A   1      49.830  35.174  27.017  1.00  0.00     0.058 A 
ATOM     66  C   UNL A   1      49.927  35.504  25.655  1.00  0.00     0.135 A 
ATOM     67  C   UNL A   1      50.991  35.281  27.799  1.00  0.00     0.135 A 
ATOM     68  F   UNL A   1      48.854  35.399  24.855  1.00  0.00    -0.206 F 
ATOM     69  C   UNL A   1      51.135  35.897  25.086  1.00  0.00     0.059 A 
ATOM     70  C   UNL A   1      52.202  35.704  27.258  1.00  0.00     0.059 A 
ATOM     71  F   UNL A   1      50.957  34.974  29.105  1.00  0.00    -0.206 F 
ATOM     72  C   UNL A   1      52.267  35.996  25.897  1.00  0.00     0.060 A 
BRANCH  72  73
ATOM     73  S   UNL A   1      53.824  36.514  25.145  1.00  0.00     0.124 S 
ATOM     74  O   UNL A   1      53.526  37.896  24.781  1.00  0.00    -0.237 OA
ATOM     75  O   UNL A   1      54.771  36.338  26.241  1.00  0.00    -0.237 OA
ATOM     76  O   UNL A   1      53.985  35.592  24.026  1.00  0.00    -0.744 OA
ENDBRANCH  72  73
ENDBRANCH  51  65
BRANCH  52  77
ATOM     77  C   UNL A   1      41.363  31.878  31.203  1.00  0.00     0.058 A 
ATOM     78  C   UNL A   1      41.377  31.338  32.498  1.00  0.00     0.135 A 
ATOM     79  C   UNL A   1      40.129  31.940  30.536  1.00  0.00     0.135 A 
ATOM     80  F   UNL A   1      42.532  31.244  33.174  1.00  0.00    -0.206 F 
ATOM     81  C   UNL A   1      40.216  30.866  33.103  1.00  0.00     0.059 A 
ATOM     82  C   UNL A   1      38.951  31.501  31.131  1.00  0.00     0.059 A 
ATOM     83  F   UNL A   1      40.059  32.453  29.298  1.00  0.00    -0.206 F 
ATOM     84  C   UNL A   1      39.007  30.956  32.413  1.00  0.00     0.060 A 
BRANCH  84  85
ATOM     85  S   UNL A   1      37.498  30.393  33.231  1.00  0.00     0.124 S 
ATOM     86  O   UNL A   1      36.589  30.246  32.101  1.00  0.00    -0.237 OA
ATOM     87  O   UNL A   1      37.940  29.155  33.864  1.00  0.00    -0.237 OA
ATOM     88  O   UNL A   1      37.189  31.484  34.151  1.00  0.00    -0.744 OA
ENDBRANCH  84  85
ENDBRANCH  52  77
BRANCH  64  89
ATOM     89  C   UNL A   1      44.333  38.167  30.638  1.00  0.00     0.058 A 
ATOM     90  C   UNL A   1      44.652  38.657  31.916  1.00  0.00     0.135 A 
ATOM     91  C   UNL A   1      43.602  39.008  29.782  1.00  0.00     0.135 A 
ATOM     92  F   UNL A   1      45.350  37.899  32.776  1.00  0.00    -0.206 F 
ATOM     93  C   UNL A   1      44.215  39.907  32.346  1.00  0.00     0.059 A 
ATOM     94  C   UNL A   1      43.188  40.275  30.178  1.00  0.00     0.059 A 
ATOM     95  F   UNL A   1      43.284  38.601  28.543  1.00  0.00    -0.206 F 
ATOM     96  C   UNL A   1      43.478  40.707  31.472  1.00  0.00     0.060 A 
BRANCH  96  97
ATOM     97  S   UNL A   1      42.905  42.318  32.046  1.00  0.00     0.124 S 
ATOM     98  O   UNL A   1      44.164  42.974  32.384  1.00  0.00    -0.237 OA
ATOM     99  O   UNL A   1      42.213  42.841  30.871  1.00  0.00    -0.237 OA
ATOM    100  O   UNL A   1      42.044  41.990  33.179  1.00  0.00    -0.744 OA
ENDBRANCH  96  97
ENDBRANCH  64  89
ENDBRANCH  38  39
ENDBRANCH  31  33
ENDBRANCH  30  31
ENDBRANCH  29  30
ENDBRANCH  28  29
ENDBRANCH  27  28
ENDBRANCH  26  27
ENDBRANCH  25  26
ENDBRANCH  24  25
ENDBRANCH   1  24
TORSDOF 27
ENDMDL
