MODEL 1
REMARK VINA RESULT:     -10.9      0.000      0.000
REMARK SMILES O=C(OCCOCCOCCOCCOC(=O)c1cc(N2CCN(c3ccc(F)cc3)CC2)ccc1NC(=O)C1CCCC1)c1ccc(-c2c3nc(c(-c4c(F)cc(S(=O)(=O)[O-])cc4F)c4ccc([nH]4)c(-c4c(F)cc(S(=O)(=O)[O-])cc4F)c4nc(c(-c5c(F)cc(S(=O)(=O)[O-])cc5F)c5ccc2[nH]5)C=C4)C=C3)cc1
REMARK SMILES IDX 8 1 7 2 6 3 5 4 4 5 3 6 2 7 1 8 45 9 46 10 110 11 47 12
REMARK SMILES IDX 109 13 48 14 49 15 50 16 103 17 51 18 108 19 102 20 104 21
REMARK SMILES IDX 52 22 107 23 101 24 100 25 53 27 87 28 66 29 86 30 67 31
REMARK SMILES IDX 70 32 85 33 105 34 68 35 69 36 84 38 106 39 71 40 54 41
REMARK SMILES IDX 55 42 64 43 56 44 57 45 63 46 65 47 58 48 59 49 60 50 61 51
REMARK SMILES IDX 62 52 88 53 89 54 98 55 90 56 91 57 97 58 99 59 92 60 93 61
REMARK SMILES IDX 94 62 95 63 96 64 72 65 73 66 82 67 74 68 75 69 81 70 83 71
REMARK SMILES IDX 76 72 77 73 78 74 79 75 80 76 9 77 10 78 11 79 12 80 13 81
REMARK SMILES IDX 14 82 15 83 16 84 17 85 18 86 19 87 36 88 20 89 35 90 34 91
REMARK SMILES IDX 37 92 38 93 39 95 40 96 41 97 44 98 42 99 43 100 21 101
REMARK SMILES IDX 22 102 33 103 23 104 32 105 24 106 25 107 26 108 31 109
REMARK SMILES IDX 27 110 30 111 28 112 29 113
REMARK H PARENT 104 26 70 37 37 94
REMARK Flexibility Score: inf
ROOT
ATOM      1  C   UNL A   1      43.148  22.342  27.392  1.00  0.00     0.188 C 
ENDROOT
BRANCH   1   2
ATOM      2  C   UNL A   1      43.888  21.975  26.104  1.00  0.00     0.188 C 
BRANCH   2   3
ATOM      3  O   UNL A   1      43.347  22.609  24.951  1.00  0.00    -0.376 OA
BRANCH   3   4
ATOM      4  C   UNL A   1      44.114  23.652  24.352  1.00  0.00     0.202 C 
BRANCH   4   5
ATOM      5  C   UNL A   1      44.155  24.954  25.147  1.00  0.00     0.261 C 
BRANCH   5   6
ATOM      6  O   UNL A   1      42.852  25.469  25.442  1.00  0.00    -0.460 OA
BRANCH   6   7
ATOM      7  C   UNL A   1      42.501  26.754  25.699  1.00  0.00     0.338 C 
ATOM      8  O   UNL A   1      42.315  27.497  24.736  1.00  0.00    -0.246 OA
BRANCH   7   9
ATOM      9  C   UNL A   1      42.334  27.339  27.070  1.00  0.00     0.060 A 
ATOM     10  C   UNL A   1      41.544  26.818  28.097  1.00  0.00     0.016 A 
ATOM     11  C   UNL A   1      43.112  28.471  27.364  1.00  0.00     0.016 A 
ATOM     12  C   UNL A   1      41.499  27.389  29.356  1.00  0.00     0.010 A 
ATOM     13  C   UNL A   1      43.071  29.068  28.627  1.00  0.00     0.010 A 
ATOM     14  C   UNL A   1      42.242  28.531  29.617  1.00  0.00    -0.014 A 
BRANCH  14  15
ATOM     15  C   UNL A   1      41.932  29.247  30.860  1.00  0.00     0.031 A 
ATOM     16  C   UNL A   1      40.706  30.106  30.858  1.00  0.00     0.074 A 
ATOM     17  C   UNL A   1      42.624  28.979  31.980  1.00  0.00     0.049 A 
ATOM     18  N   UNL A   1      40.239  30.883  31.792  1.00  0.00    -0.248 NA
ATOM     19  C   UNL A   1      39.876  30.068  29.637  1.00  0.00     0.031 C 
ATOM     20  C   UNL A   1      43.719  28.009  32.086  1.00  0.00     0.029 A 
ATOM     21  N   UNL A   1      42.492  29.471  33.249  1.00  0.00    -0.354 N 
ATOM     22  C   UNL A   1      39.093  31.457  31.260  1.00  0.00     0.074 A 
ATOM     23  C   UNL A   1      38.921  30.938  29.926  1.00  0.00     0.031 C 
ATOM     24  C   UNL A   1      44.161  27.983  33.353  1.00  0.00     0.029 A 
ATOM     25  C   UNL A   1      43.434  28.983  34.124  1.00  0.00     0.049 A 
ATOM     26  H   UNL A   1      41.793  30.112  33.510  1.00  0.00     0.167 HD
ATOM     27  C   UNL A   1      38.271  32.353  31.846  1.00  0.00     0.037 A 
ATOM     28  C   UNL A   1      43.700  29.360  35.390  1.00  0.00     0.037 A 
ATOM     29  C   UNL A   1      38.481  32.833  33.183  1.00  0.00     0.049 A 
ATOM     30  C   UNL A   1      42.840  30.449  35.979  1.00  0.00     0.074 A 
ATOM     31  C   UNL A   1      37.768  33.786  33.883  1.00  0.00     0.029 A 
ATOM     32  N   UNL A   1      39.495  32.383  34.023  1.00  0.00    -0.354 N 
ATOM     33  N   UNL A   1      41.802  31.057  35.447  1.00  0.00    -0.248 NA
ATOM     34  C   UNL A   1      43.189  30.918  37.324  1.00  0.00     0.031 C 
ATOM     35  C   UNL A   1      38.388  33.955  35.125  1.00  0.00     0.029 A 
ATOM     36  C   UNL A   1      39.443  33.058  35.226  1.00  0.00     0.049 A 
ATOM     37  H   UNL A   1      40.152  31.688  33.793  1.00  0.00     0.167 HD
ATOM     38  C   UNL A   1      41.359  31.962  36.403  1.00  0.00     0.074 A 
ATOM     39  C   UNL A   1      42.231  31.806  37.551  1.00  0.00     0.031 C 
ATOM     40  C   UNL A   1      40.331  32.846  36.345  1.00  0.00     0.037 A 
BRANCH  27  41
ATOM     41  C   UNL A   1      37.152  32.919  31.020  1.00  0.00     0.058 A 
ATOM     42  C   UNL A   1      37.374  33.826  29.972  1.00  0.00     0.135 A 
ATOM     43  C   UNL A   1      35.827  32.543  31.292  1.00  0.00     0.135 A 
ATOM     44  F   UNL A   1      38.617  34.256  29.699  1.00  0.00    -0.206 F 
ATOM     45  C   UNL A   1      36.319  34.343  29.225  1.00  0.00     0.059 A 
ATOM     46  C   UNL A   1      34.760  33.026  30.542  1.00  0.00     0.059 A 
ATOM     47  F   UNL A   1      35.558  31.701  32.302  1.00  0.00    -0.206 F 
ATOM     48  C   UNL A   1      35.016  33.931  29.513  1.00  0.00     0.060 A 
BRANCH  48  49
ATOM     49  S   UNL A   1      33.664  34.581  28.511  1.00  0.00     0.124 S 
ATOM     50  O   UNL A   1      33.991  36.002  28.463  1.00  0.00    -0.237 OA
ATOM     51  O   UNL A   1      33.830  33.850  27.258  1.00  0.00    -0.237 OA
ATOM     52  O   UNL A   1      32.473  34.236  29.281  1.00  0.00    -0.744 OA
ENDBRANCH  48  49
ENDBRANCH  27  41
BRANCH  28  53
ATOM     53  C   UNL A   1      44.852  28.780  36.136  1.00  0.00     0.058 A 
ATOM     54  C   UNL A   1      46.154  29.277  35.981  1.00  0.00     0.135 A 
ATOM     55  C   UNL A   1      44.678  27.684  36.999  1.00  0.00     0.135 A 
ATOM     56  F   UNL A   1      46.381  30.320  35.168  1.00  0.00    -0.206 F 
ATOM     57  C   UNL A   1      47.243  28.690  36.621  1.00  0.00     0.059 A 
ATOM     58  C   UNL A   1      45.744  27.101  37.676  1.00  0.00     0.059 A 
ATOM     59  F   UNL A   1      43.454  27.169  37.197  1.00  0.00    -0.206 F 
ATOM     60  C   UNL A   1      47.028  27.598  37.464  1.00  0.00     0.060 A 
BRANCH  60  61
ATOM     61  S   UNL A   1      48.446  26.833  38.280  1.00  0.00     0.124 S 
ATOM     62  O   UNL A   1      47.846  26.347  39.517  1.00  0.00    -0.237 OA
ATOM     63  O   UNL A   1      48.840  25.811  37.315  1.00  0.00    -0.237 OA
ATOM     64  O   UNL A   1      49.387  27.941  38.427  1.00  0.00    -0.744 OA
ENDBRANCH  60  61
ENDBRANCH  28  53
BRANCH  40  65
ATOM     65  C   UNL A   1      40.070  33.666  37.573  1.00  0.00     0.058 A 
ATOM     66  C   UNL A   1      40.748  34.870  37.814  1.00  0.00     0.135 A 
ATOM     67  C   UNL A   1      39.073  33.272  38.480  1.00  0.00     0.135 A 
ATOM     68  F   UNL A   1      41.713  35.283  36.977  1.00  0.00    -0.206 F 
ATOM     69  C   UNL A   1      40.461  35.646  38.928  1.00  0.00     0.059 A 
ATOM     70  C   UNL A   1      38.744  34.051  39.580  1.00  0.00     0.059 A 
ATOM     71  F   UNL A   1      38.388  32.134  38.281  1.00  0.00    -0.206 F 
ATOM     72  C   UNL A   1      39.453  35.231  39.803  1.00  0.00     0.060 A 
BRANCH  72  73
ATOM     73  S   UNL A   1      39.059  36.274  41.219  1.00  0.00     0.124 S 
ATOM     74  O   UNL A   1      37.901  35.583  41.778  1.00  0.00    -0.237 OA
ATOM     75  O   UNL A   1      40.284  36.203  42.009  1.00  0.00    -0.237 OA
ATOM     76  O   UNL A   1      38.783  37.575  40.616  1.00  0.00    -0.744 OA
ENDBRANCH  72  73
ENDBRANCH  40  65
ENDBRANCH  14  15
ENDBRANCH   7   9
ENDBRANCH   6   7
ENDBRANCH   5   6
ENDBRANCH   4   5
ENDBRANCH   3   4
ENDBRANCH   2   3
ENDBRANCH   1   2
BRANCH   1  77
ATOM     77  O   UNL A   1      42.444  21.289  28.033  1.00  0.00    -0.377 OA
BRANCH  77  78
ATOM     78  C   UNL A   1      42.107  20.156  27.241  1.00  0.00     0.188 C 
BRANCH  78  79
ATOM     79  C   UNL A   1      40.769  20.117  26.453  1.00  0.00     0.188 C 
BRANCH  79  80
ATOM     80  O   UNL A   1      40.476  21.285  25.707  1.00  0.00    -0.376 OA
BRANCH  80  81
ATOM     81  C   UNL A   1      39.462  22.120  26.257  1.00  0.00     0.202 C 
BRANCH  81  82
ATOM     82  C   UNL A   1      38.098  22.027  25.551  1.00  0.00     0.261 C 
BRANCH  82  83
ATOM     83  O   UNL A   1      37.379  23.271  25.384  1.00  0.00    -0.460 OA
BRANCH  83  84
ATOM     84  C   UNL A   1      36.422  23.333  24.427  1.00  0.00     0.340 C 
ATOM     85  O   UNL A   1      36.594  23.411  23.228  1.00  0.00    -0.246 OA
BRANCH  84  86
ATOM     86  C   UNL A   1      35.086  23.135  25.048  1.00  0.00     0.085 A 
ATOM     87  C   UNL A   1      34.095  24.152  24.902  1.00  0.00     0.043 A 
ATOM     88  C   UNL A   1      34.819  22.010  25.826  1.00  0.00     0.055 A 
ATOM     89  C   UNL A   1      32.864  24.068  25.565  1.00  0.00     0.038 A 
ATOM     90  C   UNL A   1      33.824  22.183  26.746  1.00  0.00     0.029 A 
ATOM     91  C   UNL A   1      32.790  23.093  26.549  1.00  0.00     0.028 A 
BRANCH  88  92
ATOM     92  N   UNL A   1      35.460  20.771  25.630  1.00  0.00    -0.325 N 
ATOM     93  C   UNL A   1      35.143  19.589  25.023  1.00  0.00     0.227 C 
ATOM     94  H   UNL A   1      36.359  20.752  26.029  1.00  0.00     0.169 HD
ATOM     95  O   UNL A   1      36.101  18.798  24.944  1.00  0.00    -0.274 OA
BRANCH  93  96
ATOM     96  C   UNL A   1      33.775  19.076  24.493  1.00  0.00     0.079 C 
ATOM     97  C   UNL A   1      32.964  19.740  23.396  1.00  0.00     0.013 C 
ATOM     98  C   UNL A   1      33.962  17.663  23.884  1.00  0.00     0.013 C 
ATOM     99  C   UNL A   1      32.033  18.698  22.817  1.00  0.00     0.001 C 
ATOM    100  C   UNL A   1      32.767  17.389  22.968  1.00  0.00     0.001 C 
ENDBRANCH  93  96
ENDBRANCH  88  92
BRANCH  89 101
ATOM    101  N   UNL A   1      31.881  25.031  25.451  1.00  0.00    -0.368 N 
ATOM    102  C   UNL A   1      31.876  26.317  26.198  1.00  0.00     0.138 C 
ATOM    103  C   UNL A   1      31.116  25.035  24.193  1.00  0.00     0.138 C 
ATOM    104  C   UNL A   1      32.063  27.590  25.292  1.00  0.00     0.138 C 
ATOM    105  C   UNL A   1      31.528  26.216  23.298  1.00  0.00     0.138 C 
ATOM    106  N   UNL A   1      31.340  27.484  24.008  1.00  0.00    -0.368 N 
BRANCH 106 107
ATOM    107  C   UNL A   1      30.291  28.309  23.661  1.00  0.00     0.037 A 
ATOM    108  C   UNL A   1      29.046  27.781  23.292  1.00  0.00     0.029 A 
ATOM    109  C   UNL A   1      30.400  29.708  23.744  1.00  0.00     0.029 A 
ATOM    110  C   UNL A   1      27.947  28.617  23.051  1.00  0.00     0.041 A 
ATOM    111  C   UNL A   1      29.316  30.551  23.488  1.00  0.00     0.041 A 
ATOM    112  C   UNL A   1      28.093  29.995  23.152  1.00  0.00     0.123 A 
ATOM    113  F   UNL A   1      27.042  30.795  22.933  1.00  0.00    -0.207 F 
ENDBRANCH 106 107
ENDBRANCH  89 101
ENDBRANCH  84  86
ENDBRANCH  83  84
ENDBRANCH  82  83
ENDBRANCH  81  82
ENDBRANCH  80  81
ENDBRANCH  79  80
ENDBRANCH  78  79
ENDBRANCH  77  78
ENDBRANCH   1  77
TORSDOF 27
ENDMDL
MODEL 2
REMARK VINA RESULT:     -10.6      1.218      2.035
REMARK SMILES O=C(OCCOCCOCCOCCOC(=O)c1cc(N2CCN(c3ccc(F)cc3)CC2)ccc1NC(=O)C1CCCC1)c1ccc(-c2c3nc(c(-c4c(F)cc(S(=O)(=O)[O-])cc4F)c4ccc([nH]4)c(-c4c(F)cc(S(=O)(=O)[O-])cc4F)c4nc(c(-c5c(F)cc(S(=O)(=O)[O-])cc5F)c5ccc2[nH]5)C=C4)C=C3)cc1
REMARK SMILES IDX 8 1 7 2 6 3 5 4 4 5 3 6 2 7 1 8 45 9 46 10 110 11 47 12
REMARK SMILES IDX 109 13 48 14 49 15 50 16 103 17 51 18 108 19 102 20 104 21
REMARK SMILES IDX 52 22 107 23 101 24 100 25 53 27 87 28 66 29 86 30 67 31
REMARK SMILES IDX 70 32 85 33 105 34 68 35 69 36 84 38 106 39 71 40 54 41
REMARK SMILES IDX 55 42 64 43 56 44 57 45 63 46 65 47 58 48 59 49 60 50 61 51
REMARK SMILES IDX 62 52 88 53 89 54 98 55 90 56 91 57 97 58 99 59 92 60 93 61
REMARK SMILES IDX 94 62 95 63 96 64 72 65 73 66 82 67 74 68 75 69 81 70 83 71
REMARK SMILES IDX 76 72 77 73 78 74 79 75 80 76 9 77 10 78 11 79 12 80 13 81
REMARK SMILES IDX 14 82 15 83 16 84 17 85 18 86 19 87 36 88 20 89 35 90 34 91
REMARK SMILES IDX 37 92 38 93 39 95 40 96 41 97 44 98 42 99 43 100 21 101
REMARK SMILES IDX 22 102 33 103 23 104 32 105 24 106 25 107 26 108 31 109
REMARK SMILES IDX 27 110 30 111 28 112 29 113
REMARK H PARENT 104 26 70 37 37 94
REMARK Flexibility Score: inf
ROOT
ATOM      1  C   UNL A   1      42.330  21.632  27.421  1.00  0.00     0.188 C 
ENDROOT
BRANCH   1   2
ATOM      2  C   UNL A   1      42.978  21.598  26.036  1.00  0.00     0.188 C 
BRANCH   2   3
ATOM      3  O   UNL A   1      42.710  22.764  25.266  1.00  0.00    -0.376 OA
BRANCH   3   4
ATOM      4  C   UNL A   1      43.823  23.432  24.673  1.00  0.00     0.202 C 
BRANCH   4   5
ATOM      5  C   UNL A   1      44.226  24.736  25.357  1.00  0.00     0.261 C 
BRANCH   5   6
ATOM      6  O   UNL A   1      43.104  25.559  25.693  1.00  0.00    -0.460 OA
BRANCH   6   7
ATOM      7  C   UNL A   1      43.080  26.902  25.881  1.00  0.00     0.338 C 
ATOM      8  O   UNL A   1      43.237  27.618  24.892  1.00  0.00    -0.246 OA
BRANCH   7   9
ATOM      9  C   UNL A   1      42.890  27.579  27.205  1.00  0.00     0.060 A 
ATOM     10  C   UNL A   1      42.365  26.996  28.360  1.00  0.00     0.016 A 
ATOM     11  C   UNL A   1      43.363  28.899  27.304  1.00  0.00     0.016 A 
ATOM     12  C   UNL A   1      42.285  27.679  29.561  1.00  0.00     0.010 A 
ATOM     13  C   UNL A   1      43.280  29.607  28.507  1.00  0.00     0.010 A 
ATOM     14  C   UNL A   1      42.719  28.994  29.631  1.00  0.00    -0.014 A 
BRANCH  14  15
ATOM     15  C   UNL A   1      42.344  29.746  30.835  1.00  0.00     0.031 A 
ATOM     16  C   UNL A   1      41.032  30.466  30.802  1.00  0.00     0.074 A 
ATOM     17  C   UNL A   1      43.072  29.622  31.958  1.00  0.00     0.049 A 
ATOM     18  N   UNL A   1      40.493  31.243  31.696  1.00  0.00    -0.248 NA
ATOM     19  C   UNL A   1      40.199  30.265  29.599  1.00  0.00     0.031 C 
ATOM     20  C   UNL A   1      44.266  28.784  32.102  1.00  0.00     0.029 A 
ATOM     21  N   UNL A   1      42.899  30.172  33.197  1.00  0.00    -0.354 N 
ATOM     22  C   UNL A   1      39.286  31.657  31.150  1.00  0.00     0.074 A 
ATOM     23  C   UNL A   1      39.158  31.043  29.851  1.00  0.00     0.031 C 
ATOM     24  C   UNL A   1      44.721  28.882  33.362  1.00  0.00     0.029 A 
ATOM     25  C   UNL A   1      43.897  29.843  34.084  1.00  0.00     0.049 A 
ATOM     26  H   UNL A   1      42.137  30.749  33.432  1.00  0.00     0.167 HD
ATOM     27  C   UNL A   1      38.377  32.493  31.696  1.00  0.00     0.037 A 
ATOM     28  C   UNL A   1      44.132  30.321  35.321  1.00  0.00     0.037 A 
ATOM     29  C   UNL A   1      38.547  33.072  32.999  1.00  0.00     0.049 A 
ATOM     30  C   UNL A   1      43.165  31.345  35.859  1.00  0.00     0.074 A 
ATOM     31  C   UNL A   1      37.741  33.982  33.652  1.00  0.00     0.029 A 
ATOM     32  N   UNL A   1      39.611  32.785  33.847  1.00  0.00    -0.354 N 
ATOM     33  N   UNL A   1      42.062  31.803  35.310  1.00  0.00    -0.248 NA
ATOM     34  C   UNL A   1      43.473  31.928  37.168  1.00  0.00     0.031 C 
ATOM     35  C   UNL A   1      38.351  34.291  34.873  1.00  0.00     0.029 A 
ATOM     36  C   UNL A   1      39.498  33.522  35.009  1.00  0.00     0.049 A 
ATOM     37  H   UNL A   1      40.337  32.152  33.648  1.00  0.00     0.167 HD
ATOM     38  C   UNL A   1      41.532  32.711  36.217  1.00  0.00     0.074 A 
ATOM     39  C   UNL A   1      42.427  32.720  37.358  1.00  0.00     0.031 C 
ATOM     40  C   UNL A   1      40.414  33.474  36.124  1.00  0.00     0.037 A 
BRANCH  27  41
ATOM     41  C   UNL A   1      37.196  32.884  30.856  1.00  0.00     0.058 A 
ATOM     42  C   UNL A   1      37.300  33.778  29.779  1.00  0.00     0.135 A 
ATOM     43  C   UNL A   1      35.929  32.350  31.144  1.00  0.00     0.135 A 
ATOM     44  F   UNL A   1      38.478  34.354  29.488  1.00  0.00    -0.206 F 
ATOM     45  C   UNL A   1      36.188  34.131  29.019  1.00  0.00     0.059 A 
ATOM     46  C   UNL A   1      34.810  32.668  30.383  1.00  0.00     0.059 A 
ATOM     47  F   UNL A   1      35.770  31.513  32.181  1.00  0.00    -0.206 F 
ATOM     48  C   UNL A   1      34.948  33.565  29.324  1.00  0.00     0.060 A 
BRANCH  48  49
ATOM     49  S   UNL A   1      33.525  34.004  28.306  1.00  0.00     0.124 S 
ATOM     50  O   UNL A   1      34.104  34.992  27.402  1.00  0.00    -0.237 OA
ATOM     51  O   UNL A   1      33.171  32.723  27.702  1.00  0.00    -0.237 OA
ATOM     52  O   UNL A   1      32.562  34.525  29.272  1.00  0.00    -0.744 OA
ENDBRANCH  48  49
ENDBRANCH  27  41
BRANCH  28  53
ATOM     53  C   UNL A   1      45.348  29.915  36.082  1.00  0.00     0.058 A 
ATOM     54  C   UNL A   1      45.303  28.910  37.059  1.00  0.00     0.135 A 
ATOM     55  C   UNL A   1      46.581  30.557  35.872  1.00  0.00     0.135 A 
ATOM     56  F   UNL A   1      44.152  28.265  37.305  1.00  0.00    -0.206 F 
ATOM     57  C   UNL A   1      46.421  28.581  37.822  1.00  0.00     0.059 A 
ATOM     58  C   UNL A   1      47.720  30.223  36.598  1.00  0.00     0.059 A 
ATOM     59  F   UNL A   1      46.690  31.521  34.944  1.00  0.00    -0.206 F 
ATOM     60  C   UNL A   1      47.625  29.248  37.587  1.00  0.00     0.060 A 
BRANCH  60  61
ATOM     61  S   UNL A   1      49.065  28.825  38.590  1.00  0.00     0.124 S 
ATOM     62  O   UNL A   1      48.819  29.601  39.800  1.00  0.00    -0.237 OA
ATOM     63  O   UNL A   1      48.933  27.377  38.722  1.00  0.00    -0.237 OA
ATOM     64  O   UNL A   1      50.189  29.272  37.771  1.00  0.00    -0.744 OA
ENDBRANCH  60  61
ENDBRANCH  28  53
BRANCH  40  65
ATOM     65  C   UNL A   1      40.077  34.334  37.306  1.00  0.00     0.058 A 
ATOM     66  C   UNL A   1      39.357  33.834  38.401  1.00  0.00     0.135 A 
ATOM     67  C   UNL A   1      40.551  35.654  37.369  1.00  0.00     0.135 A 
ATOM     68  F   UNL A   1      38.880  32.579  38.381  1.00  0.00    -0.206 F 
ATOM     69  C   UNL A   1      39.097  34.624  39.512  1.00  0.00     0.059 A 
ATOM     70  C   UNL A   1      40.334  36.450  38.485  1.00  0.00     0.059 A 
ATOM     71  F   UNL A   1      41.258  36.170  36.350  1.00  0.00    -0.206 F 
ATOM     72  C   UNL A   1      39.595  35.929  39.547  1.00  0.00     0.060 A 
BRANCH  72  73
ATOM     73  S   UNL A   1      39.291  36.928  41.017  1.00  0.00     0.124 S 
ATOM     74  O   UNL A   1      38.536  35.998  41.851  1.00  0.00    -0.237 OA
ATOM     75  O   UNL A   1      40.644  37.234  41.471  1.00  0.00    -0.237 OA
ATOM     76  O   UNL A   1      38.535  38.067  40.503  1.00  0.00    -0.744 OA
ENDBRANCH  72  73
ENDBRANCH  40  65
ENDBRANCH  14  15
ENDBRANCH   7   9
ENDBRANCH   6   7
ENDBRANCH   5   6
ENDBRANCH   4   5
ENDBRANCH   3   4
ENDBRANCH   2   3
ENDBRANCH   1   2
BRANCH   1  77
ATOM     77  O   UNL A   1      41.199  20.794  27.606  1.00  0.00    -0.377 OA
BRANCH  77  78
ATOM     78  C   UNL A   1      40.458  20.438  26.446  1.00  0.00     0.188 C 
BRANCH  78  79
ATOM     79  C   UNL A   1      39.249  21.299  25.989  1.00  0.00     0.188 C 
BRANCH  79  80
ATOM     80  O   UNL A   1      39.456  22.700  26.034  1.00  0.00    -0.376 OA
BRANCH  80  81
ATOM     81  C   UNL A   1      38.412  23.451  26.646  1.00  0.00     0.202 C 
BRANCH  81  82
ATOM     82  C   UNL A   1      37.022  23.247  26.020  1.00  0.00     0.261 C 
BRANCH  82  83
ATOM     83  O   UNL A   1      36.530  24.328  25.193  1.00  0.00    -0.460 OA
BRANCH  83  84
ATOM     84  C   UNL A   1      35.648  24.029  24.209  1.00  0.00     0.340 C 
ATOM     85  O   UNL A   1      35.850  23.335  23.235  1.00  0.00    -0.246 OA
BRANCH  84  86
ATOM     86  C   UNL A   1      34.305  24.560  24.567  1.00  0.00     0.085 A 
ATOM     87  C   UNL A   1      33.718  25.572  23.749  1.00  0.00     0.043 A 
ATOM     88  C   UNL A   1      33.656  24.137  25.724  1.00  0.00     0.055 A 
ATOM     89  C   UNL A   1      32.513  26.187  24.108  1.00  0.00     0.038 A 
ATOM     90  C   UNL A   1      32.752  25.031  26.224  1.00  0.00     0.029 A 
ATOM     91  C   UNL A   1      32.089  25.941  25.406  1.00  0.00     0.028 A 
BRANCH  88  92
ATOM     92  N   UNL A   1      33.849  22.862  26.291  1.00  0.00    -0.325 N 
ATOM     93  C   UNL A   1      33.912  21.580  25.822  1.00  0.00     0.227 C 
ATOM     94  H   UNL A   1      33.968  22.904  27.267  1.00  0.00     0.169 HD
ATOM     95  O   UNL A   1      34.274  20.753  26.680  1.00  0.00    -0.274 OA
BRANCH  93  96
ATOM     96  C   UNL A   1      33.539  21.010  24.425  1.00  0.00     0.079 C 
ATOM     97  C   UNL A   1      32.884  19.662  24.184  1.00  0.00     0.013 C 
ATOM     98  C   UNL A   1      32.506  21.946  23.751  1.00  0.00     0.013 C 
ATOM     99  C   UNL A   1      32.217  19.712  22.828  1.00  0.00     0.001 C 
ATOM    100  C   UNL A   1      31.810  21.152  22.643  1.00  0.00     0.001 C 
ENDBRANCH  93  96
ENDBRANCH  88  92
BRANCH  89 101
ATOM    101  N   UNL A   1      31.913  27.170  23.346  1.00  0.00    -0.368 N 
ATOM    102  C   UNL A   1      30.715  26.954  22.491  1.00  0.00     0.138 C 
ATOM    103  C   UNL A   1      32.124  28.557  23.790  1.00  0.00     0.138 C 
ATOM    104  C   UNL A   1      29.428  27.715  22.980  1.00  0.00     0.138 C 
ATOM    105  C   UNL A   1      30.851  29.132  24.435  1.00  0.00     0.138 C 
ATOM    106  N   UNL A   1      29.728  29.066  23.496  1.00  0.00    -0.368 N 
BRANCH 106 107
ATOM    107  C   UNL A   1      29.275  30.222  22.895  1.00  0.00     0.037 A 
ATOM    108  C   UNL A   1      29.025  30.272  21.517  1.00  0.00     0.029 A 
ATOM    109  C   UNL A   1      28.966  31.367  23.650  1.00  0.00     0.029 A 
ATOM    110  C   UNL A   1      28.456  31.408  20.924  1.00  0.00     0.041 A 
ATOM    111  C   UNL A   1      28.415  32.510  23.066  1.00  0.00     0.041 A 
ATOM    112  C   UNL A   1      28.156  32.516  21.706  1.00  0.00     0.123 A 
ATOM    113  F   UNL A   1      27.602  33.598  21.144  1.00  0.00    -0.207 F 
ENDBRANCH 106 107
ENDBRANCH  89 101
ENDBRANCH  84  86
ENDBRANCH  83  84
ENDBRANCH  82  83
ENDBRANCH  81  82
ENDBRANCH  80  81
ENDBRANCH  79  80
ENDBRANCH  78  79
ENDBRANCH  77  78
ENDBRANCH   1  77
TORSDOF 27
ENDMDL
MODEL 3
REMARK VINA RESULT:     -10.5      5.750     12.213
REMARK SMILES O=C(OCCOCCOCCOCCOC(=O)c1cc(N2CCN(c3ccc(F)cc3)CC2)ccc1NC(=O)C1CCCC1)c1ccc(-c2c3nc(c(-c4c(F)cc(S(=O)(=O)[O-])cc4F)c4ccc([nH]4)c(-c4c(F)cc(S(=O)(=O)[O-])cc4F)c4nc(c(-c5c(F)cc(S(=O)(=O)[O-])cc5F)c5ccc2[nH]5)C=C4)C=C3)cc1
REMARK SMILES IDX 8 1 7 2 6 3 5 4 4 5 3 6 2 7 1 8 45 9 46 10 110 11 47 12
REMARK SMILES IDX 109 13 48 14 49 15 50 16 103 17 51 18 108 19 102 20 104 21
REMARK SMILES IDX 52 22 107 23 101 24 100 25 53 27 87 28 66 29 86 30 67 31
REMARK SMILES IDX 70 32 85 33 105 34 68 35 69 36 84 38 106 39 71 40 54 41
REMARK SMILES IDX 55 42 64 43 56 44 57 45 63 46 65 47 58 48 59 49 60 50 61 51
REMARK SMILES IDX 62 52 88 53 89 54 98 55 90 56 91 57 97 58 99 59 92 60 93 61
REMARK SMILES IDX 94 62 95 63 96 64 72 65 73 66 82 67 74 68 75 69 81 70 83 71
REMARK SMILES IDX 76 72 77 73 78 74 79 75 80 76 9 77 10 78 11 79 12 80 13 81
REMARK SMILES IDX 14 82 15 83 16 84 17 85 18 86 19 87 36 88 20 89 35 90 34 91
REMARK SMILES IDX 37 92 38 93 39 95 40 96 41 97 44 98 42 99 43 100 21 101
REMARK SMILES IDX 22 102 33 103 23 104 32 105 24 106 25 107 26 108 31 109
REMARK SMILES IDX 27 110 30 111 28 112 29 113
REMARK H PARENT 104 26 70 37 37 94
REMARK Flexibility Score: inf
ROOT
ATOM      1  C   UNL A   1      34.177  33.880  28.496  1.00  0.00     0.188 C 
ENDROOT
BRANCH   1   2
ATOM      2  C   UNL A   1      35.438  33.238  27.913  1.00  0.00     0.188 C 
BRANCH   2   3
ATOM      3  O   UNL A   1      36.074  32.341  28.815  1.00  0.00    -0.376 OA
BRANCH   3   4
ATOM      4  C   UNL A   1      35.252  31.673  29.770  1.00  0.00     0.202 C 
BRANCH   4   5
ATOM      5  C   UNL A   1      35.672  31.865  31.225  1.00  0.00     0.261 C 
BRANCH   5   6
ATOM      6  O   UNL A   1      36.915  32.564  31.358  1.00  0.00    -0.460 OA
BRANCH   6   7
ATOM      7  C   UNL A   1      38.022  32.174  32.037  1.00  0.00     0.338 C 
ATOM      8  O   UNL A   1      38.091  32.464  33.231  1.00  0.00    -0.246 OA
BRANCH   7   9
ATOM      9  C   UNL A   1      39.176  31.426  31.437  1.00  0.00     0.060 A 
ATOM     10  C   UNL A   1      39.991  30.504  32.097  1.00  0.00     0.016 A 
ATOM     11  C   UNL A   1      39.398  31.618  30.064  1.00  0.00     0.016 A 
ATOM     12  C   UNL A   1      40.996  29.810  31.448  1.00  0.00     0.010 A 
ATOM     13  C   UNL A   1      40.416  30.934  29.394  1.00  0.00     0.010 A 
ATOM     14  C   UNL A   1      41.228  30.042  30.101  1.00  0.00    -0.014 A 
BRANCH  14  15
ATOM     15  C   UNL A   1      42.476  29.503  29.546  1.00  0.00     0.031 A 
ATOM     16  C   UNL A   1      43.683  30.387  29.610  1.00  0.00     0.074 A 
ATOM     17  C   UNL A   1      42.545  28.212  29.179  1.00  0.00     0.049 A 
ATOM     18  N   UNL A   1      44.882  30.183  29.146  1.00  0.00    -0.248 NA
ATOM     19  C   UNL A   1      43.521  31.674  30.315  1.00  0.00     0.031 C 
ATOM     20  C   UNL A   1      41.443  27.248  29.267  1.00  0.00     0.029 A 
ATOM     21  N   UNL A   1      43.590  27.479  28.690  1.00  0.00    -0.354 N 
ATOM     22  C   UNL A   1      45.602  31.328  29.462  1.00  0.00     0.074 A 
ATOM     23  C   UNL A   1      44.716  32.223  30.165  1.00  0.00     0.031 C 
ATOM     24  C   UNL A   1      41.873  26.050  28.839  1.00  0.00     0.029 A 
ATOM     25  C   UNL A   1      43.250  26.183  28.380  1.00  0.00     0.049 A 
ATOM     26  H   UNL A   1      44.497  27.842  28.570  1.00  0.00     0.167 HD
ATOM     27  C   UNL A   1      46.891  31.598  29.168  1.00  0.00     0.037 A 
ATOM     28  C   UNL A   1      43.970  25.240  27.743  1.00  0.00     0.037 A 
ATOM     29  C   UNL A   1      47.735  30.667  28.473  1.00  0.00     0.049 A 
ATOM     30  C   UNL A   1      45.369  25.611  27.320  1.00  0.00     0.074 A 
ATOM     31  C   UNL A   1      49.040  30.830  28.053  1.00  0.00     0.029 A 
ATOM     32  N   UNL A   1      47.340  29.388  28.095  1.00  0.00    -0.354 N 
ATOM     33  N   UNL A   1      46.028  26.726  27.544  1.00  0.00    -0.248 NA
ATOM     34  C   UNL A   1      46.118  24.613  26.549  1.00  0.00     0.031 C 
ATOM     35  C   UNL A   1      49.415  29.668  27.369  1.00  0.00     0.029 A 
ATOM     36  C   UNL A   1      48.369  28.758  27.424  1.00  0.00     0.049 A 
ATOM     37  H   UNL A   1      46.459  28.992  28.279  1.00  0.00     0.167 HD
ATOM     38  C   UNL A   1      47.278  26.555  26.963  1.00  0.00     0.074 A 
ATOM     39  C   UNL A   1      47.286  25.221  26.395  1.00  0.00     0.031 C 
ATOM     40  C   UNL A   1      48.325  27.415  26.895  1.00  0.00     0.037 A 
BRANCH  27  41
ATOM     41  C   UNL A   1      47.415  32.961  29.516  1.00  0.00     0.058 A 
ATOM     42  C   UNL A   1      47.220  34.077  28.687  1.00  0.00     0.135 A 
ATOM     43  C   UNL A   1      48.132  33.148  30.709  1.00  0.00     0.135 A 
ATOM     44  F   UNL A   1      46.582  33.946  27.513  1.00  0.00    -0.206 F 
ATOM     45  C   UNL A   1      47.723  35.330  29.028  1.00  0.00     0.059 A 
ATOM     46  C   UNL A   1      48.621  34.396  31.082  1.00  0.00     0.059 A 
ATOM     47  F   UNL A   1      48.371  32.107  31.523  1.00  0.00    -0.206 F 
ATOM     48  C   UNL A   1      48.415  35.481  30.231  1.00  0.00     0.060 A 
BRANCH  48  49
ATOM     49  S   UNL A   1      49.026  37.119  30.676  1.00  0.00     0.124 S 
ATOM     50  O   UNL A   1      47.802  37.912  30.631  1.00  0.00    -0.237 OA
ATOM     51  O   UNL A   1      49.583  36.890  32.006  1.00  0.00    -0.237 OA
ATOM     52  O   UNL A   1      50.004  37.413  29.632  1.00  0.00    -0.744 OA
ENDBRANCH  48  49
ENDBRANCH  27  41
BRANCH  28  53
ATOM     53  C   UNL A   1      43.371  23.920  27.397  1.00  0.00     0.058 A 
ATOM     54  C   UNL A   1      42.875  23.651  26.113  1.00  0.00     0.135 A 
ATOM     55  C   UNL A   1      43.246  22.906  28.363  1.00  0.00     0.135 A 
ATOM     56  F   UNL A   1      42.963  24.582  25.151  1.00  0.00    -0.206 F 
ATOM     57  C   UNL A   1      42.248  22.445  25.809  1.00  0.00     0.059 A 
ATOM     58  C   UNL A   1      42.655  21.681  28.075  1.00  0.00     0.059 A 
ATOM     59  F   UNL A   1      43.710  23.100  29.608  1.00  0.00    -0.206 F 
ATOM     60  C   UNL A   1      42.138  21.467  26.799  1.00  0.00     0.060 A 
BRANCH  60  61
ATOM     61  S   UNL A   1      41.312  19.912  26.400  1.00  0.00     0.124 S 
ATOM     62  O   UNL A   1      41.468  19.168  27.645  1.00  0.00    -0.237 OA
ATOM     63  O   UNL A   1      39.958  20.356  26.087  1.00  0.00    -0.237 OA
ATOM     64  O   UNL A   1      42.077  19.406  25.263  1.00  0.00    -0.744 OA
ENDBRANCH  60  61
ENDBRANCH  28  53
BRANCH  40  65
ATOM     65  C   UNL A   1      49.574  26.915  26.231  1.00  0.00     0.058 A 
ATOM     66  C   UNL A   1      49.837  27.158  24.875  1.00  0.00     0.135 A 
ATOM     67  C   UNL A   1      50.550  26.246  26.988  1.00  0.00     0.135 A 
ATOM     68  F   UNL A   1      48.930  27.788  24.112  1.00  0.00    -0.206 F 
ATOM     69  C   UNL A   1      51.019  26.734  24.285  1.00  0.00     0.059 A 
ATOM     70  C   UNL A   1      51.754  25.847  26.428  1.00  0.00     0.059 A 
ATOM     71  F   UNL A   1      50.347  26.005  28.294  1.00  0.00    -0.206 F 
ATOM     72  C   UNL A   1      51.975  26.085  25.072  1.00  0.00     0.060 A 
BRANCH  72  73
ATOM     73  S   UNL A   1      53.526  25.583  24.302  1.00  0.00     0.124 S 
ATOM     74  O   UNL A   1      54.484  26.450  24.983  1.00  0.00    -0.237 OA
ATOM     75  O   UNL A   1      53.599  24.166  24.643  1.00  0.00    -0.237 OA
ATOM     76  O   UNL A   1      53.312  25.872  22.887  1.00  0.00    -0.744 OA
ENDBRANCH  72  73
ENDBRANCH  40  65
ENDBRANCH  14  15
ENDBRANCH   7   9
ENDBRANCH   6   7
ENDBRANCH   5   6
ENDBRANCH   4   5
ENDBRANCH   3   4
ENDBRANCH   2   3
ENDBRANCH   1   2
BRANCH   1  77
ATOM     77  O   UNL A   1      32.977  33.685  27.762  1.00  0.00    -0.377 OA
BRANCH  77  78
ATOM     78  C   UNL A   1      32.702  32.366  27.306  1.00  0.00     0.188 C 
BRANCH  78  79
ATOM     79  C   UNL A   1      31.425  32.071  26.473  1.00  0.00     0.188 C 
BRANCH  79  80
ATOM     80  O   UNL A   1      31.357  30.769  25.917  1.00  0.00    -0.376 OA
BRANCH  80  81
ATOM     81  C   UNL A   1      32.136  29.781  26.583  1.00  0.00     0.202 C 
BRANCH  81  82
ATOM     82  C   UNL A   1      31.587  28.348  26.475  1.00  0.00     0.261 C 
BRANCH  82  83
ATOM     83  O   UNL A   1      32.526  27.336  26.042  1.00  0.00    -0.460 OA
BRANCH  83  84
ATOM     84  C   UNL A   1      33.390  27.649  25.048  1.00  0.00     0.340 C 
ATOM     85  O   UNL A   1      34.327  28.419  25.112  1.00  0.00    -0.246 OA
BRANCH  84  86
ATOM     86  C   UNL A   1      33.125  26.785  23.867  1.00  0.00     0.085 A 
ATOM     87  C   UNL A   1      33.378  25.383  23.962  1.00  0.00     0.043 A 
ATOM     88  C   UNL A   1      32.707  27.336  22.658  1.00  0.00     0.055 A 
ATOM     89  C   UNL A   1      33.257  24.546  22.846  1.00  0.00     0.038 A 
ATOM     90  C   UNL A   1      33.011  26.584  21.559  1.00  0.00     0.029 A 
ATOM     91  C   UNL A   1      33.141  25.200  21.628  1.00  0.00     0.028 A 
BRANCH  88  92
ATOM     92  N   UNL A   1      31.960  28.527  22.575  1.00  0.00    -0.325 N 
ATOM     93  C   UNL A   1      30.646  28.872  22.719  1.00  0.00     0.227 C 
ATOM     94  H   UNL A   1      32.524  29.304  22.360  1.00  0.00     0.169 HD
ATOM     95  O   UNL A   1      30.451  30.102  22.721  1.00  0.00    -0.274 OA
BRANCH  93  96
ATOM     96  C   UNL A   1      29.382  27.972  22.806  1.00  0.00     0.079 C 
ATOM     97  C   UNL A   1      29.130  26.931  23.882  1.00  0.00     0.013 C 
ATOM     98  C   UNL A   1      28.130  28.866  22.986  1.00  0.00     0.013 C 
ATOM     99  C   UNL A   1      27.640  26.679  23.937  1.00  0.00     0.001 C 
ATOM    100  C   UNL A   1      27.005  27.988  23.539  1.00  0.00     0.001 C 
ENDBRANCH  93  96
ENDBRANCH  88  92
BRANCH  89 101
ATOM    101  N   UNL A   1      33.495  23.187  22.897  1.00  0.00    -0.368 N 
ATOM    102  C   UNL A   1      34.712  22.569  23.487  1.00  0.00     0.138 C 
ATOM    103  C   UNL A   1      32.308  22.317  22.857  1.00  0.00     0.138 C 
ATOM    104  C   UNL A   1      34.441  21.727  24.789  1.00  0.00     0.138 C 
ATOM    105  C   UNL A   1      32.023  21.704  24.239  1.00  0.00     0.138 C 
ATOM    106  N   UNL A   1      33.187  20.950  24.712  1.00  0.00    -0.368 N 
BRANCH 106 107
ATOM    107  C   UNL A   1      33.151  19.571  24.711  1.00  0.00     0.037 A 
ATOM    108  C   UNL A   1      32.843  18.854  25.876  1.00  0.00     0.029 A 
ATOM    109  C   UNL A   1      33.338  18.834  23.529  1.00  0.00     0.029 A 
ATOM    110  C   UNL A   1      32.693  17.461  25.851  1.00  0.00     0.041 A 
ATOM    111  C   UNL A   1      33.208  17.444  23.498  1.00  0.00     0.041 A 
ATOM    112  C   UNL A   1      32.877  16.770  24.660  1.00  0.00     0.123 A 
ATOM    113  F   UNL A   1      32.723  15.439  24.632  1.00  0.00    -0.207 F 
ENDBRANCH 106 107
ENDBRANCH  89 101
ENDBRANCH  84  86
ENDBRANCH  83  84
ENDBRANCH  82  83
ENDBRANCH  81  82
ENDBRANCH  80  81
ENDBRANCH  79  80
ENDBRANCH  78  79
ENDBRANCH  77  78
ENDBRANCH   1  77
TORSDOF 27
ENDMDL
