MODEL 1
REMARK VINA RESULT:      -6.9      0.000      0.000
REMARK SMILES C[C@@H](C(=O)OCCOCCOCCOCCOC(=O)c1ccc(-c2c3nc(c(-c4c(F)cc(S(=O)(=O)[O-])cc4F)c4ccc([nH]4)c(-c4c(F)cc(S(=O)(=O)[O-])cc4F)c4nc(c(-c5c(F)cc(S(=O)(=O)[O-])cc5F)c5ccc2[nH]5)C=C4)C=C3)cc1)N(C)C(=O)NC[C@H]1C[N@@H+]2CCC[C@@H]2CO1
REMARK SMILES IDX 10 1 9 2 8 3 7 4 6 5 5 6 3 7 4 8 2 9 1 10 86 11 87 12 88 13
REMARK SMILES IDX 89 14 90 15 91 17 92 18 93 19 100 20 94 21 99 22 95 23 98 24
REMARK SMILES IDX 96 26 97 27 11 28 12 29 13 30 14 31 15 32 16 33 17 34 18 35
REMARK SMILES IDX 19 36 20 37 21 38 85 39 22 40 84 41 23 42 24 43 25 44 78 45
REMARK SMILES IDX 26 46 83 47 77 48 79 49 27 50 82 51 76 52 75 53 28 55 62 56
REMARK SMILES IDX 41 57 61 58 42 59 45 60 60 61 80 62 43 63 44 64 59 66 81 67
REMARK SMILES IDX 46 68 29 69 30 70 39 71 31 72 32 73 38 74 40 75 33 76 34 77
REMARK SMILES IDX 35 78 36 79 37 80 63 81 64 82 73 83 65 84 66 85 72 86 74 87
REMARK SMILES IDX 67 88 68 89 69 90 70 91 71 92 47 93 48 94 57 95 49 96 50 97
REMARK SMILES IDX 56 98 58 99 51 100 52 101 53 102 54 103 55 104
REMARK H PARENT 90 16 94 25 79 54 45 65
REMARK Flexibility Score: inf
ROOT
ATOM      1  C   UNL A   1      45.573  27.517  26.679  1.00  0.00     0.188 C 
ENDROOT
BRANCH   1   2
ATOM      2  C   UNL A   1      44.881  28.885  26.858  1.00  0.00     0.188 C 
BRANCH   2   3
ATOM      3  O   UNL A   1      45.268  29.762  27.912  1.00  0.00    -0.376 OA
BRANCH   3   4
ATOM      4  C   UNL A   1      46.646  29.960  28.186  1.00  0.00     0.202 C 
BRANCH   4   5
ATOM      5  C   UNL A   1      47.100  30.789  29.407  1.00  0.00     0.261 C 
BRANCH   5   6
ATOM      6  O   UNL A   1      46.830  32.205  29.391  1.00  0.00    -0.462 OA
BRANCH   6   7
ATOM      7  C   UNL A   1      45.704  32.615  30.029  1.00  0.00     0.328 C 
ATOM      8  O   UNL A   1      45.096  31.919  30.841  1.00  0.00    -0.250 OA
BRANCH   7   9
ATOM      9  C   UNL A   1      45.192  34.025  29.605  1.00  0.00     0.193 C 
ATOM     10  C   UNL A   1      45.142  35.173  30.619  1.00  0.00     0.044 C 
BRANCH   9  11
ATOM     11  N   UNL A   1      43.977  33.879  28.743  1.00  0.00    -0.314 N 
ATOM     12  C   UNL A   1      44.162  33.015  27.597  1.00  0.00     0.149 C 
BRANCH  11  13
ATOM     13  C   UNL A   1      42.746  34.225  29.235  1.00  0.00     0.317 C 
ATOM     14  O   UNL A   1      42.219  33.647  30.189  1.00  0.00    -0.249 OA
ATOM     15  N   UNL A   1      41.983  35.198  28.710  1.00  0.00    -0.335 N 
ATOM     16  H   UNL A   1      41.060  35.144  29.048  1.00  0.00     0.165 HD
BRANCH  15  17
ATOM     17  C   UNL A   1      42.133  36.307  27.783  1.00  0.00     0.155 C 
BRANCH  17  18
ATOM     18  C   UNL A   1      43.117  37.426  28.204  1.00  0.00     0.192 C 
ATOM     19  C   UNL A   1      44.559  37.244  27.643  1.00  0.00     0.296 C 
ATOM     20  O   UNL A   1      42.544  38.733  28.019  1.00  0.00    -0.364 OA
ATOM     21  N   UNL A   1      44.914  38.086  26.502  1.00  0.00    -0.328 N 
ATOM     22  C   UNL A   1      43.547  39.741  27.860  1.00  0.00     0.225 C 
ATOM     23  C   UNL A   1      46.354  38.141  26.241  1.00  0.00     0.262 C 
ATOM     24  C   UNL A   1      44.394  39.465  26.609  1.00  0.00     0.210 C 
ATOM     25  H   UNL A   1      44.460  37.623  25.714  1.00  0.00     0.348 HD
ATOM     26  C   UNL A   1      46.600  39.542  25.710  1.00  0.00     0.068 C 
ATOM     27  C   UNL A   1      45.614  40.376  26.505  1.00  0.00     0.073 C 
ENDBRANCH  17  18
ENDBRANCH  15  17
ENDBRANCH  11  13
ENDBRANCH   9  11
ENDBRANCH   7   9
ENDBRANCH   6   7
ENDBRANCH   5   6
ENDBRANCH   4   5
ENDBRANCH   3   4
ENDBRANCH   2   3
ENDBRANCH   1   2
BRANCH   1  28
ATOM     28  O   UNL A   1      45.845  27.160  25.337  1.00  0.00    -0.377 OA
BRANCH  28  29
ATOM     29  C   UNL A   1      47.120  26.595  25.097  1.00  0.00     0.188 C 
BRANCH  29  30
ATOM     30  C   UNL A   1      47.179  25.068  24.909  1.00  0.00     0.188 C 
BRANCH  30  31
ATOM     31  O   UNL A   1      45.943  24.484  24.511  1.00  0.00    -0.376 OA
BRANCH  31  32
ATOM     32  C   UNL A   1      45.880  23.088  24.271  1.00  0.00     0.202 C 
BRANCH  32  33
ATOM     33  C   UNL A   1      44.563  22.500  23.735  1.00  0.00     0.261 C 
BRANCH  33  34
ATOM     34  O   UNL A   1      43.347  23.126  24.169  1.00  0.00    -0.460 OA
BRANCH  34  35
ATOM     35  C   UNL A   1      42.708  22.609  25.237  1.00  0.00     0.338 C 
ATOM     36  O   UNL A   1      42.547  21.427  25.493  1.00  0.00    -0.246 OA
BRANCH  35  37
ATOM     37  C   UNL A   1      42.421  23.722  26.169  1.00  0.00     0.060 A 
ATOM     38  C   UNL A   1      42.766  25.027  25.790  1.00  0.00     0.016 A 
ATOM     39  C   UNL A   1      41.784  23.489  27.392  1.00  0.00     0.016 A 
ATOM     40  C   UNL A   1      42.503  26.097  26.644  1.00  0.00     0.010 A 
ATOM     41  C   UNL A   1      41.549  24.560  28.260  1.00  0.00     0.010 A 
ATOM     42  C   UNL A   1      41.938  25.864  27.903  1.00  0.00    -0.014 A 
BRANCH  42  43
ATOM     43  C   UNL A   1      41.967  26.937  28.927  1.00  0.00     0.031 A 
ATOM     44  C   UNL A   1      43.085  26.917  29.934  1.00  0.00     0.074 A 
ATOM     45  C   UNL A   1      41.046  27.918  28.951  1.00  0.00     0.049 A 
ATOM     46  N   UNL A   1      43.305  27.710  30.950  1.00  0.00    -0.248 NA
ATOM     47  C   UNL A   1      44.091  25.854  29.772  1.00  0.00     0.031 C 
ATOM     48  C   UNL A   1      39.948  28.072  28.000  1.00  0.00     0.029 A 
ATOM     49  N   UNL A   1      40.890  28.970  29.819  1.00  0.00    -0.354 N 
ATOM     50  C   UNL A   1      44.465  27.237  31.552  1.00  0.00     0.074 A 
ATOM     51  C   UNL A   1      44.887  26.072  30.808  1.00  0.00     0.031 C 
ATOM     52  C   UNL A   1      39.221  29.149  28.345  1.00  0.00     0.029 A 
ATOM     53  C   UNL A   1      39.781  29.740  29.560  1.00  0.00     0.049 A 
ATOM     54  H   UNL A   1      41.514  29.155  30.558  1.00  0.00     0.167 HD
ATOM     55  C   UNL A   1      45.123  27.734  32.627  1.00  0.00     0.037 A 
ATOM     56  C   UNL A   1      39.269  30.785  30.242  1.00  0.00     0.037 A 
ATOM     57  C   UNL A   1      44.694  28.892  33.363  1.00  0.00     0.049 A 
ATOM     58  C   UNL A   1      39.975  31.274  31.482  1.00  0.00     0.074 A 
ATOM     59  C   UNL A   1      45.297  29.488  34.457  1.00  0.00     0.029 A 
ATOM     60  N   UNL A   1      43.547  29.626  33.091  1.00  0.00    -0.354 N 
ATOM     61  N   UNL A   1      41.084  30.834  32.030  1.00  0.00    -0.248 NA
ATOM     62  C   UNL A   1      39.363  32.404  32.198  1.00  0.00     0.031 C 
ATOM     63  C   UNL A   1      44.484  30.541  34.884  1.00  0.00     0.029 A 
ATOM     64  C   UNL A   1      43.409  30.648  34.015  1.00  0.00     0.049 A 
ATOM     65  H   UNL A   1      42.924  29.445  32.351  1.00  0.00     0.167 HD
ATOM     66  C   UNL A   1      41.319  31.653  33.131  1.00  0.00     0.074 A 
ATOM     67  C   UNL A   1      40.242  32.621  33.166  1.00  0.00     0.031 C 
ATOM     68  C   UNL A   1      42.335  31.611  34.030  1.00  0.00     0.037 A 
BRANCH  55  69
ATOM     69  C   UNL A   1      46.353  27.003  33.090  1.00  0.00     0.058 A 
ATOM     70  C   UNL A   1      47.637  27.342  32.634  1.00  0.00     0.135 A 
ATOM     71  C   UNL A   1      46.246  25.964  34.029  1.00  0.00     0.135 A 
ATOM     72  F   UNL A   1      47.796  28.312  31.720  1.00  0.00    -0.206 F 
ATOM     73  C   UNL A   1      48.768  26.660  33.073  1.00  0.00     0.059 A 
ATOM     74  C   UNL A   1      47.366  25.290  34.505  1.00  0.00     0.059 A 
ATOM     75  F   UNL A   1      45.043  25.594  34.494  1.00  0.00    -0.206 F 
ATOM     76  C   UNL A   1      48.622  25.637  34.011  1.00  0.00     0.060 A 
BRANCH  76  77
ATOM     77  S   UNL A   1      50.101  24.771  34.579  1.00  0.00     0.124 S 
ATOM     78  O   UNL A   1      49.775  24.526  35.980  1.00  0.00    -0.237 OA
ATOM     79  O   UNL A   1      50.122  23.594  33.717  1.00  0.00    -0.237 OA
ATOM     80  O   UNL A   1      51.172  25.735  34.344  1.00  0.00    -0.744 OA
ENDBRANCH  76  77
ENDBRANCH  55  69
BRANCH  56  81
ATOM     81  C   UNL A   1      38.011  31.436  29.778  1.00  0.00     0.058 A 
ATOM     82  C   UNL A   1      36.769  30.798  29.913  1.00  0.00     0.135 A 
ATOM     83  C   UNL A   1      38.028  32.706  29.178  1.00  0.00     0.135 A 
ATOM     84  F   UNL A   1      36.699  29.577  30.464  1.00  0.00    -0.206 F 
ATOM     85  C   UNL A   1      35.592  31.386  29.458  1.00  0.00     0.059 A 
ATOM     86  C   UNL A   1      36.861  33.328  28.743  1.00  0.00     0.059 A 
ATOM     87  F   UNL A   1      39.188  33.364  29.026  1.00  0.00    -0.206 F 
ATOM     88  C   UNL A   1      35.649  32.655  28.878  1.00  0.00     0.060 A 
BRANCH  88  89
ATOM     89  S   UNL A   1      34.109  33.428  28.337  1.00  0.00     0.124 S 
ATOM     90  O   UNL A   1      33.531  33.855  29.606  1.00  0.00    -0.237 OA
ATOM     91  O   UNL A   1      34.592  34.492  27.464  1.00  0.00    -0.237 OA
ATOM     92  O   UNL A   1      33.407  32.341  27.658  1.00  0.00    -0.744 OA
ENDBRANCH  88  89
ENDBRANCH  56  81
BRANCH  68  93
ATOM     93  C   UNL A   1      42.365  32.668  35.104  1.00  0.00     0.058 A 
ATOM     94  C   UNL A   1      41.730  32.488  36.343  1.00  0.00     0.135 A 
ATOM     95  C   UNL A   1      43.094  33.854  34.909  1.00  0.00     0.135 A 
ATOM     96  F   UNL A   1      41.017  31.377  36.582  1.00  0.00    -0.206 F 
ATOM     97  C   UNL A   1      41.797  33.457  37.340  1.00  0.00     0.059 A 
ATOM     98  C   UNL A   1      43.201  34.820  35.905  1.00  0.00     0.059 A 
ATOM     99  F   UNL A   1      43.732  34.073  33.749  1.00  0.00    -0.206 F 
ATOM    100  C   UNL A   1      42.538  34.617  37.114  1.00  0.00     0.060 A 
BRANCH 100 101
ATOM    101  S   UNL A   1      42.643  35.848  38.429  1.00  0.00     0.124 S 
ATOM    102  O   UNL A   1      43.854  36.574  38.060  1.00  0.00    -0.237 OA
ATOM    103  O   UNL A   1      41.391  36.582  38.269  1.00  0.00    -0.237 OA
ATOM    104  O   UNL A   1      42.740  35.044  39.644  1.00  0.00    -0.744 OA
ENDBRANCH 100 101
ENDBRANCH  68  93
ENDBRANCH  42  43
ENDBRANCH  35  37
ENDBRANCH  34  35
ENDBRANCH  33  34
ENDBRANCH  32  33
ENDBRANCH  31  32
ENDBRANCH  30  31
ENDBRANCH  29  30
ENDBRANCH  28  29
ENDBRANCH   1  28
TORSDOF 27
ENDMDL
MODEL 2
REMARK VINA RESULT:      -6.8      4.586     11.573
REMARK SMILES C[C@@H](C(=O)OCCOCCOCCOCCOC(=O)c1ccc(-c2c3nc(c(-c4c(F)cc(S(=O)(=O)[O-])cc4F)c4ccc([nH]4)c(-c4c(F)cc(S(=O)(=O)[O-])cc4F)c4nc(c(-c5c(F)cc(S(=O)(=O)[O-])cc5F)c5ccc2[nH]5)C=C4)C=C3)cc1)N(C)C(=O)NC[C@H]1C[N@@H+]2CCC[C@@H]2CO1
REMARK SMILES IDX 10 1 9 2 8 3 7 4 6 5 5 6 3 7 4 8 2 9 1 10 86 11 87 12 88 13
REMARK SMILES IDX 89 14 90 15 91 17 92 18 93 19 100 20 94 21 99 22 95 23 98 24
REMARK SMILES IDX 96 26 97 27 11 28 12 29 13 30 14 31 15 32 16 33 17 34 18 35
REMARK SMILES IDX 19 36 20 37 21 38 85 39 22 40 84 41 23 42 24 43 25 44 78 45
REMARK SMILES IDX 26 46 83 47 77 48 79 49 27 50 82 51 76 52 75 53 28 55 62 56
REMARK SMILES IDX 41 57 61 58 42 59 45 60 60 61 80 62 43 63 44 64 59 66 81 67
REMARK SMILES IDX 46 68 29 69 30 70 39 71 31 72 32 73 38 74 40 75 33 76 34 77
REMARK SMILES IDX 35 78 36 79 37 80 63 81 64 82 73 83 65 84 66 85 72 86 74 87
REMARK SMILES IDX 67 88 68 89 69 90 70 91 71 92 47 93 48 94 57 95 49 96 50 97
REMARK SMILES IDX 56 98 58 99 51 100 52 101 53 102 54 103 55 104
REMARK H PARENT 90 16 94 25 79 54 45 65
REMARK Flexibility Score: inf
ROOT
ATOM      1  C   UNL A   1      41.701  21.008  26.147  1.00  0.00     0.188 C 
ENDROOT
BRANCH   1   2
ATOM      2  C   UNL A   1      40.243  21.122  26.640  1.00  0.00     0.188 C 
BRANCH   2   3
ATOM      3  O   UNL A   1      39.158  21.056  25.720  1.00  0.00    -0.376 OA
BRANCH   3   4
ATOM      4  C   UNL A   1      38.183  22.087  25.713  1.00  0.00     0.202 C 
BRANCH   4   5
ATOM      5  C   UNL A   1      36.681  21.758  25.840  1.00  0.00     0.261 C 
BRANCH   5   6
ATOM      6  O   UNL A   1      35.960  21.451  24.630  1.00  0.00    -0.462 OA
BRANCH   6   7
ATOM      7  C   UNL A   1      34.621  21.259  24.753  1.00  0.00     0.328 C 
ATOM      8  O   UNL A   1      34.127  20.273  25.297  1.00  0.00    -0.250 OA
BRANCH   7   9
ATOM      9  C   UNL A   1      33.742  22.361  24.087  1.00  0.00     0.193 C 
ATOM     10  C   UNL A   1      34.391  23.507  23.303  1.00  0.00     0.044 C 
BRANCH   9  11
ATOM     11  N   UNL A   1      32.649  22.766  25.026  1.00  0.00    -0.314 N 
ATOM     12  C   UNL A   1      31.540  21.839  25.082  1.00  0.00     0.149 C 
BRANCH  11  13
ATOM     13  C   UNL A   1      32.893  23.709  25.990  1.00  0.00     0.317 C 
ATOM     14  O   UNL A   1      33.961  23.780  26.602  1.00  0.00    -0.249 OA
ATOM     15  N   UNL A   1      31.987  24.620  26.383  1.00  0.00    -0.335 N 
ATOM     16  H   UNL A   1      32.262  25.050  27.225  1.00  0.00     0.165 HD
BRANCH  15  17
ATOM     17  C   UNL A   1      30.716  25.150  25.920  1.00  0.00     0.155 C 
BRANCH  17  18
ATOM     18  C   UNL A   1      30.755  25.987  24.618  1.00  0.00     0.192 C 
ATOM     19  C   UNL A   1      31.461  27.367  24.774  1.00  0.00     0.296 C 
ATOM     20  O   UNL A   1      31.185  25.199  23.493  1.00  0.00    -0.364 OA
ATOM     21  N   UNL A   1      32.822  27.453  24.248  1.00  0.00    -0.328 N 
ATOM     22  C   UNL A   1      31.751  26.006  22.457  1.00  0.00     0.225 C 
ATOM     23  C   UNL A   1      33.304  28.829  24.096  1.00  0.00     0.262 C 
ATOM     24  C   UNL A   1      33.000  26.739  22.967  1.00  0.00     0.210 C 
ATOM     25  H   UNL A   1      33.384  26.992  24.964  1.00  0.00     0.348 HD
ATOM     26  C   UNL A   1      34.212  28.790  22.880  1.00  0.00     0.068 C 
ATOM     27  C   UNL A   1      33.522  27.781  21.982  1.00  0.00     0.073 C 
ENDBRANCH  17  18
ENDBRANCH  15  17
ENDBRANCH  11  13
ENDBRANCH   9  11
ENDBRANCH   7   9
ENDBRANCH   6   7
ENDBRANCH   5   6
ENDBRANCH   4   5
ENDBRANCH   3   4
ENDBRANCH   2   3
ENDBRANCH   1   2
BRANCH   1  28
ATOM     28  O   UNL A   1      42.683  21.199  27.148  1.00  0.00    -0.377 OA
BRANCH  28  29
ATOM     29  C   UNL A   1      42.280  21.967  28.267  1.00  0.00     0.188 C 
BRANCH  29  30
ATOM     30  C   UNL A   1      43.296  22.986  28.812  1.00  0.00     0.188 C 
BRANCH  30  31
ATOM     31  O   UNL A   1      44.147  23.546  27.817  1.00  0.00    -0.376 OA
BRANCH  31  32
ATOM     32  C   UNL A   1      43.720  24.694  27.102  1.00  0.00     0.202 C 
BRANCH  32  33
ATOM     33  C   UNL A   1      42.743  24.500  25.930  1.00  0.00     0.261 C 
BRANCH  33  34
ATOM     34  O   UNL A   1      41.679  25.455  25.805  1.00  0.00    -0.460 OA
BRANCH  34  35
ATOM     35  C   UNL A   1      42.003  26.750  25.614  1.00  0.00     0.338 C 
ATOM     36  O   UNL A   1      42.352  27.272  24.569  1.00  0.00    -0.246 OA
BRANCH  35  37
ATOM     37  C   UNL A   1      41.651  27.485  26.850  1.00  0.00     0.060 A 
ATOM     38  C   UNL A   1      42.228  28.743  27.075  1.00  0.00     0.016 A 
ATOM     39  C   UNL A   1      40.733  26.958  27.763  1.00  0.00     0.016 A 
ATOM     40  C   UNL A   1      41.911  29.463  28.227  1.00  0.00     0.010 A 
ATOM     41  C   UNL A   1      40.441  27.667  28.931  1.00  0.00     0.010 A 
ATOM     42  C   UNL A   1      41.055  28.907  29.185  1.00  0.00    -0.014 A 
BRANCH  42  43
ATOM     43  C   UNL A   1      40.983  29.509  30.538  1.00  0.00     0.031 A 
ATOM     44  C   UNL A   1      39.863  30.475  30.819  1.00  0.00     0.074 A 
ATOM     45  C   UNL A   1      41.865  29.191  31.503  1.00  0.00     0.049 A 
ATOM     46  N   UNL A   1      39.611  31.165  31.900  1.00  0.00    -0.248 NA
ATOM     47  C   UNL A   1      38.898  30.691  29.728  1.00  0.00     0.031 C 
ATOM     48  C   UNL A   1      42.960  28.233  31.366  1.00  0.00     0.029 A 
ATOM     49  N   UNL A   1      41.979  29.651  32.791  1.00  0.00    -0.354 N 
ATOM     50  C   UNL A   1      38.467  31.903  31.617  1.00  0.00     0.074 A 
ATOM     51  C   UNL A   1      38.091  31.600  30.254  1.00  0.00     0.031 C 
ATOM     52  C   UNL A   1      43.645  28.187  32.523  1.00  0.00     0.029 A 
ATOM     53  C   UNL A   1      43.059  29.136  33.468  1.00  0.00     0.049 A 
ATOM     54  H   UNL A   1      41.346  30.291  33.192  1.00  0.00     0.167 HD
ATOM     55  C   UNL A   1      37.788  32.754  32.422  1.00  0.00     0.037 A 
ATOM     56  C   UNL A   1      43.530  29.420  34.700  1.00  0.00     0.037 A 
ATOM     57  C   UNL A   1      38.171  33.051  33.777  1.00  0.00     0.049 A 
ATOM     58  C   UNL A   1      42.802  30.429  35.553  1.00  0.00     0.074 A 
ATOM     59  C   UNL A   1      37.542  33.885  34.684  1.00  0.00     0.029 A 
ATOM     60  N   UNL A   1      39.290  32.536  34.416  1.00  0.00    -0.354 N 
ATOM     61  N   UNL A   1      41.709  31.105  35.284  1.00  0.00    -0.248 NA
ATOM     62  C   UNL A   1      43.369  30.715  36.880  1.00  0.00     0.031 C 
ATOM     63  C   UNL A   1      38.314  33.923  35.849  1.00  0.00     0.029 A 
ATOM     64  C   UNL A   1      39.386  33.058  35.695  1.00  0.00     0.049 A 
ATOM     65  H   UNL A   1      39.922  31.894  34.019  1.00  0.00     0.167 HD
ATOM     66  C   UNL A   1      41.440  31.867  36.418  1.00  0.00     0.074 A 
ATOM     67  C   UNL A   1      42.480  31.562  37.379  1.00  0.00     0.031 C 
ATOM     68  C   UNL A   1      40.423  32.737  36.645  1.00  0.00     0.037 A 
BRANCH  55  69
ATOM     69  C   UNL A   1      36.585  33.448  31.847  1.00  0.00     0.058 A 
ATOM     70  C   UNL A   1      36.702  34.550  30.984  1.00  0.00     0.135 A 
ATOM     71  C   UNL A   1      35.292  32.985  32.144  1.00  0.00     0.135 A 
ATOM     72  F   UNL A   1      37.911  35.050  30.685  1.00  0.00    -0.206 F 
ATOM     73  C   UNL A   1      35.580  35.182  30.456  1.00  0.00     0.059 A 
ATOM     74  C   UNL A   1      34.159  33.581  31.601  1.00  0.00     0.059 A 
ATOM     75  F   UNL A   1      35.122  31.940  32.967  1.00  0.00    -0.206 F 
ATOM     76  C   UNL A   1      34.313  34.689  30.769  1.00  0.00     0.060 A 
BRANCH  76  77
ATOM     77  S   UNL A   1      32.869  35.513  30.065  1.00  0.00     0.124 S 
ATOM     78  O   UNL A   1      31.896  35.369  31.145  1.00  0.00    -0.237 OA
ATOM     79  O   UNL A   1      33.365  36.866  29.835  1.00  0.00    -0.237 OA
ATOM     80  O   UNL A   1      32.587  34.738  28.861  1.00  0.00    -0.744 OA
ENDBRANCH  76  77
ENDBRANCH  55  69
BRANCH  56  81
ATOM     81  C   UNL A   1      44.763  28.751  35.202  1.00  0.00     0.058 A 
ATOM     82  C   UNL A   1      46.034  29.299  34.969  1.00  0.00     0.135 A 
ATOM     83  C   UNL A   1      44.697  27.543  35.914  1.00  0.00     0.135 A 
ATOM     84  F   UNL A   1      46.154  30.443  34.278  1.00  0.00    -0.206 F 
ATOM     85  C   UNL A   1      47.194  28.668  35.409  1.00  0.00     0.059 A 
ATOM     86  C   UNL A   1      45.840  26.908  36.391  1.00  0.00     0.059 A 
ATOM     87  F   UNL A   1      43.508  26.975  36.168  1.00  0.00    -0.206 F 
ATOM     88  C   UNL A   1      47.086  27.474  36.125  1.00  0.00     0.060 A 
BRANCH  88  89
ATOM     89  S   UNL A   1      48.595  26.691  36.733  1.00  0.00     0.124 S 
ATOM     90  O   UNL A   1      48.406  26.768  38.177  1.00  0.00    -0.237 OA
ATOM     91  O   UNL A   1      48.504  25.357  36.146  1.00  0.00    -0.237 OA
ATOM     92  O   UNL A   1      49.655  27.535  36.189  1.00  0.00    -0.744 OA
ENDBRANCH  88  89
ENDBRANCH  56  81
BRANCH  68  93
ATOM     93  C   UNL A   1      40.350  33.392  38.001  1.00  0.00     0.058 A 
ATOM     94  C   UNL A   1      39.424  32.986  38.974  1.00  0.00     0.135 A 
ATOM     95  C   UNL A   1      41.265  34.400  38.349  1.00  0.00     0.135 A 
ATOM     96  F   UNL A   1      38.524  32.030  38.695  1.00  0.00    -0.206 F 
ATOM     97  C   UNL A   1      39.392  33.574  40.235  1.00  0.00     0.059 A 
ATOM     98  C   UNL A   1      41.271  34.978  39.614  1.00  0.00     0.059 A 
ATOM     99  F   UNL A   1      42.181  34.819  37.461  1.00  0.00    -0.206 F 
ATOM    100  C   UNL A   1      40.322  34.566  40.548  1.00  0.00     0.060 A 
BRANCH 100 101
ATOM    101  S   UNL A   1      40.289  35.295  42.198  1.00  0.00     0.124 S 
ATOM    102  O   UNL A   1      41.362  34.566  42.865  1.00  0.00    -0.237 OA
ATOM    103  O   UNL A   1      40.555  36.703  41.922  1.00  0.00    -0.237 OA
ATOM    104  O   UNL A   1      38.941  35.001  42.675  1.00  0.00    -0.744 OA
ENDBRANCH 100 101
ENDBRANCH  68  93
ENDBRANCH  42  43
ENDBRANCH  35  37
ENDBRANCH  34  35
ENDBRANCH  33  34
ENDBRANCH  32  33
ENDBRANCH  31  32
ENDBRANCH  30  31
ENDBRANCH  29  30
ENDBRANCH  28  29
ENDBRANCH   1  28
TORSDOF 27
ENDMDL
MODEL 3
REMARK VINA RESULT:      -6.7      2.360      3.377
REMARK SMILES C[C@@H](C(=O)OCCOCCOCCOCCOC(=O)c1ccc(-c2c3nc(c(-c4c(F)cc(S(=O)(=O)[O-])cc4F)c4ccc([nH]4)c(-c4c(F)cc(S(=O)(=O)[O-])cc4F)c4nc(c(-c5c(F)cc(S(=O)(=O)[O-])cc5F)c5ccc2[nH]5)C=C4)C=C3)cc1)N(C)C(=O)NC[C@H]1C[N@@H+]2CCC[C@@H]2CO1
REMARK SMILES IDX 10 1 9 2 8 3 7 4 6 5 5 6 3 7 4 8 2 9 1 10 86 11 87 12 88 13
REMARK SMILES IDX 89 14 90 15 91 17 92 18 93 19 100 20 94 21 99 22 95 23 98 24
REMARK SMILES IDX 96 26 97 27 11 28 12 29 13 30 14 31 15 32 16 33 17 34 18 35
REMARK SMILES IDX 19 36 20 37 21 38 85 39 22 40 84 41 23 42 24 43 25 44 78 45
REMARK SMILES IDX 26 46 83 47 77 48 79 49 27 50 82 51 76 52 75 53 28 55 62 56
REMARK SMILES IDX 41 57 61 58 42 59 45 60 60 61 80 62 43 63 44 64 59 66 81 67
REMARK SMILES IDX 46 68 29 69 30 70 39 71 31 72 32 73 38 74 40 75 33 76 34 77
REMARK SMILES IDX 35 78 36 79 37 80 63 81 64 82 73 83 65 84 66 85 72 86 74 87
REMARK SMILES IDX 67 88 68 89 69 90 70 91 71 92 47 93 48 94 57 95 49 96 50 97
REMARK SMILES IDX 56 98 58 99 51 100 52 101 53 102 54 103 55 104
REMARK H PARENT 90 16 94 25 79 54 45 65
REMARK Flexibility Score: inf
ROOT
ATOM      1  C   UNL A   1      44.739  29.138  27.329  1.00  0.00     0.188 C 
ENDROOT
BRANCH   1   2
ATOM      2  C   UNL A   1      43.969  30.466  27.487  1.00  0.00     0.188 C 
BRANCH   2   3
ATOM      3  O   UNL A   1      43.328  30.792  28.716  1.00  0.00    -0.376 OA
BRANCH   3   4
ATOM      4  C   UNL A   1      43.697  31.977  29.404  1.00  0.00     0.202 C 
BRANCH   4   5
ATOM      5  C   UNL A   1      43.798  32.000  30.945  1.00  0.00     0.261 C 
BRANCH   5   6
ATOM      6  O   UNL A   1      45.117  32.005  31.527  1.00  0.00    -0.462 OA
BRANCH   6   7
ATOM      7  C   UNL A   1      45.469  33.117  32.222  1.00  0.00     0.328 C 
ATOM      8  O   UNL A   1      45.500  33.164  33.451  1.00  0.00    -0.250 OA
BRANCH   7   9
ATOM      9  C   UNL A   1      45.769  34.367  31.341  1.00  0.00     0.193 C 
ATOM     10  C   UNL A   1      47.073  34.459  30.539  1.00  0.00     0.044 C 
BRANCH   9  11
ATOM     11  N   UNL A   1      45.385  35.608  32.083  1.00  0.00    -0.314 N 
ATOM     12  C   UNL A   1      46.494  36.291  32.714  1.00  0.00     0.149 C 
BRANCH  11  13
ATOM     13  C   UNL A   1      44.175  36.203  31.837  1.00  0.00     0.317 C 
ATOM     14  O   UNL A   1      43.439  35.864  30.907  1.00  0.00    -0.249 OA
ATOM     15  N   UNL A   1      43.691  37.228  32.558  1.00  0.00    -0.335 N 
ATOM     16  H   UNL A   1      42.934  37.657  32.096  1.00  0.00     0.165 HD
BRANCH  15  17
ATOM     17  C   UNL A   1      43.968  37.884  33.824  1.00  0.00     0.155 C 
BRANCH  17  18
ATOM     18  C   UNL A   1      44.337  39.386  33.753  1.00  0.00     0.192 C 
ATOM     19  C   UNL A   1      44.289  39.982  32.315  1.00  0.00     0.296 C 
ATOM     20  O   UNL A   1      43.648  40.149  34.760  1.00  0.00    -0.364 OA
ATOM     21  N   UNL A   1      43.116  40.795  31.997  1.00  0.00    -0.328 N 
ATOM     22  C   UNL A   1      43.520  41.527  34.395  1.00  0.00     0.225 C 
ATOM     23  C   UNL A   1      43.278  41.609  30.790  1.00  0.00     0.262 C 
ATOM     24  C   UNL A   1      42.690  41.668  33.110  1.00  0.00     0.210 C 
ATOM     25  H   UNL A   1      42.386  40.102  31.823  1.00  0.00     0.348 HD
ATOM     26  C   UNL A   1      42.483  42.873  31.063  1.00  0.00     0.068 C 
ATOM     27  C   UNL A   1      42.701  43.087  32.549  1.00  0.00     0.073 C 
ENDBRANCH  17  18
ENDBRANCH  15  17
ENDBRANCH  11  13
ENDBRANCH   9  11
ENDBRANCH   7   9
ENDBRANCH   6   7
ENDBRANCH   5   6
ENDBRANCH   4   5
ENDBRANCH   3   4
ENDBRANCH   2   3
ENDBRANCH   1   2
BRANCH   1  28
ATOM     28  O   UNL A   1      44.929  28.716  25.992  1.00  0.00    -0.377 OA
BRANCH  28  29
ATOM     29  C   UNL A   1      46.235  28.284  25.662  1.00  0.00     0.188 C 
BRANCH  29  30
ATOM     30  C   UNL A   1      46.454  26.765  25.539  1.00  0.00     0.188 C 
BRANCH  30  31
ATOM     31  O   UNL A   1      45.279  26.035  25.203  1.00  0.00    -0.376 OA
BRANCH  31  32
ATOM     32  C   UNL A   1      45.276  24.623  25.337  1.00  0.00     0.202 C 
BRANCH  32  33
ATOM     33  C   UNL A   1      44.020  23.851  24.898  1.00  0.00     0.261 C 
BRANCH  33  34
ATOM     34  O   UNL A   1      42.762  24.531  25.027  1.00  0.00    -0.460 OA
BRANCH  34  35
ATOM     35  C   UNL A   1      41.869  24.059  25.920  1.00  0.00     0.338 C 
ATOM     36  O   UNL A   1      41.515  22.901  26.060  1.00  0.00    -0.246 OA
BRANCH  35  37
ATOM     37  C   UNL A   1      41.549  25.160  26.856  1.00  0.00     0.060 A 
ATOM     38  C   UNL A   1      42.019  26.449  26.569  1.00  0.00     0.016 A 
ATOM     39  C   UNL A   1      40.760  24.934  27.988  1.00  0.00     0.016 A 
ATOM     40  C   UNL A   1      41.728  27.509  27.428  1.00  0.00     0.010 A 
ATOM     41  C   UNL A   1      40.496  25.991  28.864  1.00  0.00     0.010 A 
ATOM     42  C   UNL A   1      41.007  27.276  28.605  1.00  0.00    -0.014 A 
BRANCH  42  43
ATOM     43  C   UNL A   1      40.986  28.311  29.667  1.00  0.00     0.031 A 
ATOM     44  C   UNL A   1      42.052  28.251  30.729  1.00  0.00     0.074 A 
ATOM     45  C   UNL A   1      40.068  29.295  29.678  1.00  0.00     0.049 A 
ATOM     46  N   UNL A   1      42.221  29.007  31.781  1.00  0.00    -0.248 NA
ATOM     47  C   UNL A   1      43.062  27.190  30.580  1.00  0.00     0.031 C 
ATOM     48  C   UNL A   1      39.020  29.487  28.679  1.00  0.00     0.029 A 
ATOM     49  N   UNL A   1      39.870  30.316  30.575  1.00  0.00    -0.354 N 
ATOM     50  C   UNL A   1      43.348  28.508  32.425  1.00  0.00     0.074 A 
ATOM     51  C   UNL A   1      43.805  27.368  31.662  1.00  0.00     0.031 C 
ATOM     52  C   UNL A   1      38.279  30.554  29.024  1.00  0.00     0.029 A 
ATOM     53  C   UNL A   1      38.778  31.100  30.287  1.00  0.00     0.049 A 
ATOM     54  H   UNL A   1      40.456  30.473  31.351  1.00  0.00     0.167 HD
ATOM     55  C   UNL A   1      43.951  28.963  33.549  1.00  0.00     0.037 A 
ATOM     56  C   UNL A   1      38.234  32.122  30.978  1.00  0.00     0.037 A 
ATOM     57  C   UNL A   1      43.488  30.097  34.303  1.00  0.00     0.049 A 
ATOM     58  C   UNL A   1      38.877  32.564  32.270  1.00  0.00     0.074 A 
ATOM     59  C   UNL A   1      44.036  30.651  35.446  1.00  0.00     0.029 A 
ATOM     60  N   UNL A   1      42.358  30.845  33.998  1.00  0.00    -0.354 N 
ATOM     61  N   UNL A   1      39.955  32.100  32.858  1.00  0.00    -0.248 NA
ATOM     62  C   UNL A   1      38.232  33.670  32.993  1.00  0.00     0.031 C 
ATOM     63  C   UNL A   1      43.204  31.692  35.868  1.00  0.00     0.029 A 
ATOM     64  C   UNL A   1      42.176  31.834  34.950  1.00  0.00     0.049 A 
ATOM     65  H   UNL A   1      41.773  30.693  33.222  1.00  0.00     0.167 HD
ATOM     66  C   UNL A   1      40.135  32.879  33.997  1.00  0.00     0.074 A 
ATOM     67  C   UNL A   1      39.061  33.849  34.011  1.00  0.00     0.031 C 
ATOM     68  C   UNL A   1      41.105  32.801  34.945  1.00  0.00     0.037 A 
BRANCH  55  69
ATOM     69  C   UNL A   1      45.154  28.212  34.048  1.00  0.00     0.058 A 
ATOM     70  C   UNL A   1      45.041  27.121  34.925  1.00  0.00     0.135 A 
ATOM     71  C   UNL A   1      46.442  28.574  33.618  1.00  0.00     0.135 A 
ATOM     72  F   UNL A   1      43.838  26.746  35.386  1.00  0.00    -0.206 F 
ATOM     73  C   UNL A   1      46.162  26.432  35.376  1.00  0.00     0.059 A 
ATOM     74  C   UNL A   1      47.574  27.879  34.031  1.00  0.00     0.059 A 
ATOM     75  F   UNL A   1      46.609  29.613  32.785  1.00  0.00    -0.206 F 
ATOM     76  C   UNL A   1      47.425  26.817  34.922  1.00  0.00     0.060 A 
BRANCH  76  77
ATOM     77  S   UNL A   1      48.868  25.905  35.508  1.00  0.00     0.124 S 
ATOM     78  O   UNL A   1      49.951  26.595  34.813  1.00  0.00    -0.237 OA
ATOM     79  O   UNL A   1      48.804  26.117  36.951  1.00  0.00    -0.237 OA
ATOM     80  O   UNL A   1      48.610  24.538  35.067  1.00  0.00    -0.744 OA
ENDBRANCH  76  77
ENDBRANCH  55  69
BRANCH  56  81
ATOM     81  C   UNL A   1      37.003  32.794  30.475  1.00  0.00     0.058 A 
ATOM     82  C   UNL A   1      37.075  33.833  29.534  1.00  0.00     0.135 A 
ATOM     83  C   UNL A   1      35.730  32.420  30.934  1.00  0.00     0.135 A 
ATOM     84  F   UNL A   1      38.268  34.241  29.075  1.00  0.00    -0.206 F 
ATOM     85  C   UNL A   1      35.933  34.486  29.079  1.00  0.00     0.059 A 
ATOM     86  C   UNL A   1      34.572  33.037  30.471  1.00  0.00     0.059 A 
ATOM     87  F   UNL A   1      35.602  31.430  31.831  1.00  0.00    -0.206 F 
ATOM     88  C   UNL A   1      34.684  34.077  29.550  1.00  0.00     0.060 A 
BRANCH  88  89
ATOM     89  S   UNL A   1      33.207  34.899  28.913  1.00  0.00     0.124 S 
ATOM     90  O   UNL A   1      32.744  33.942  27.915  1.00  0.00    -0.237 OA
ATOM     91  O   UNL A   1      32.385  35.020  30.113  1.00  0.00    -0.237 OA
ATOM     92  O   UNL A   1      33.724  36.159  28.387  1.00  0.00    -0.744 OA
ENDBRANCH  88  89
ENDBRANCH  56  81
BRANCH  68  93
ATOM     93  C   UNL A   1      41.082  33.819  36.056  1.00  0.00     0.058 A 
ATOM     94  C   UNL A   1      41.863  34.984  36.014  1.00  0.00     0.135 A 
ATOM     95  C   UNL A   1      40.218  33.651  37.152  1.00  0.00     0.135 A 
ATOM     96  F   UNL A   1      42.710  35.194  34.993  1.00  0.00    -0.206 F 
ATOM     97  C   UNL A   1      41.805  35.934  37.029  1.00  0.00     0.059 A 
ATOM     98  C   UNL A   1      40.121  34.603  38.160  1.00  0.00     0.059 A 
ATOM     99  F   UNL A   1      39.439  32.561  37.237  1.00  0.00    -0.206 F 
ATOM    100  C   UNL A   1      40.928  35.737  38.096  1.00  0.00     0.060 A 
BRANCH 100 101
ATOM    101  S   UNL A   1      40.840  36.994  39.388  1.00  0.00     0.124 S 
ATOM    102  O   UNL A   1      42.090  37.718  39.183  1.00  0.00    -0.237 OA
ATOM    103  O   UNL A   1      39.623  37.719  39.035  1.00  0.00    -0.237 OA
ATOM    104  O   UNL A   1      40.762  36.214  40.620  1.00  0.00    -0.744 OA
ENDBRANCH 100 101
ENDBRANCH  68  93
ENDBRANCH  42  43
ENDBRANCH  35  37
ENDBRANCH  34  35
ENDBRANCH  33  34
ENDBRANCH  32  33
ENDBRANCH  31  32
ENDBRANCH  30  31
ENDBRANCH  29  30
ENDBRANCH  28  29
ENDBRANCH   1  28
TORSDOF 27
ENDMDL
