MODEL 1
REMARK VINA RESULT:     -10.8      0.000      0.000
REMARK SMILES O=C(CCC(=O)OCCOCCOCCOCCOC(=O)c1ccc(-c2c3nc(c(-c4c(F)cc(S(=O)(=O)[O-])cc4F)c4ccc([nH]4)c(-c4c(F)cc(S(=O)(=O)[O-])cc4F)c4nc(c(-c5c(F)cc(S(=O)(=O)[O-])cc5F)c5ccc2[nH]5)C=C4)C=C3)cc1)Nc1ccc2nc(-c3ccccc3)oc2c1
REMARK SMILES IDX 12 1 11 2 10 3 9 4 8 5 7 6 5 7 6 8 4 9 3 10 2 11 1 12 88 13
REMARK SMILES IDX 89 15 90 16 103 17 91 18 102 19 92 20 101 21 93 22 94 23
REMARK SMILES IDX 95 24 96 25 100 26 97 27 99 28 98 29 13 30 14 31 15 32 16 33
REMARK SMILES IDX 17 34 18 35 19 36 20 37 21 38 22 39 23 40 87 41 24 42 86 43
REMARK SMILES IDX 25 44 26 45 27 46 80 47 28 48 85 49 79 50 81 51 29 52 84 53
REMARK SMILES IDX 78 54 77 55 30 57 64 58 43 59 63 60 44 61 47 62 62 63 82 64
REMARK SMILES IDX 45 65 46 66 61 68 83 69 48 70 31 71 32 72 41 73 33 74 34 75
REMARK SMILES IDX 40 76 42 77 35 78 36 79 37 80 38 81 39 82 65 83 66 84 75 85
REMARK SMILES IDX 67 86 68 87 74 88 76 89 69 90 70 91 71 92 72 93 73 94 49 95
REMARK SMILES IDX 50 96 59 97 51 98 52 99 58 100 60 101 53 102 54 103 55 104
REMARK SMILES IDX 56 105 57 106
REMARK H PARENT 88 14 81 56 47 67
REMARK Flexibility Score: inf
ROOT
ATOM      1  C   UNL A   1      33.073  25.317  22.103  1.00  0.00     0.188 C 
ENDROOT
BRANCH   1   2
ATOM      2  C   UNL A   1      32.721  26.800  21.944  1.00  0.00     0.188 C 
BRANCH   2   3
ATOM      3  O   UNL A   1      33.828  27.664  21.871  1.00  0.00    -0.376 OA
BRANCH   3   4
ATOM      4  C   UNL A   1      34.006  28.686  22.834  1.00  0.00     0.202 C 
BRANCH   4   5
ATOM      5  C   UNL A   1      32.913  29.204  23.796  1.00  0.00     0.261 C 
BRANCH   5   6
ATOM      6  O   UNL A   1      33.313  29.853  25.022  1.00  0.00    -0.463 OA
BRANCH   6   7
ATOM      7  C   UNL A   1      32.322  30.045  25.929  1.00  0.00     0.306 C 
ATOM      8  O   UNL A   1      31.396  30.834  25.759  1.00  0.00    -0.252 OA
BRANCH   7   9
ATOM      9  C   UNL A   1      32.385  29.217  27.201  1.00  0.00     0.132 C 
BRANCH   9  10
ATOM     10  C   UNL A   1      31.697  27.878  27.436  1.00  0.00     0.112 C 
BRANCH  10  11
ATOM     11  C   UNL A   1      32.098  26.710  26.563  1.00  0.00     0.224 C 
ATOM     12  O   UNL A   1      33.143  26.737  25.921  1.00  0.00    -0.275 OA
ATOM     13  N   UNL A   1      31.198  25.678  26.599  1.00  0.00    -0.326 N 
ATOM     14  H   UNL A   1      30.416  25.789  27.187  1.00  0.00     0.169 HD
BRANCH  13  15
ATOM     15  C   UNL A   1      31.281  24.478  25.880  1.00  0.00     0.045 A 
ATOM     16  C   UNL A   1      30.732  24.526  24.590  1.00  0.00     0.028 A 
ATOM     17  C   UNL A   1      31.889  23.313  26.387  1.00  0.00     0.075 A 
ATOM     18  C   UNL A   1      30.853  23.451  23.720  1.00  0.00     0.034 A 
ATOM     19  C   UNL A   1      31.948  22.239  25.505  1.00  0.00     0.157 A 
ATOM     20  C   UNL A   1      31.481  22.307  24.204  1.00  0.00     0.110 A 
ATOM     21  O   UNL A   1      32.469  20.975  25.696  1.00  0.00    -0.436 OA
ATOM     22  N   UNL A   1      31.744  21.156  23.561  1.00  0.00    -0.209 NA
ATOM     23  C   UNL A   1      32.311  20.386  24.463  1.00  0.00     0.227 A 
BRANCH  23  24
ATOM     24  C   UNL A   1      32.840  19.053  24.205  1.00  0.00     0.037 A 
ATOM     25  C   UNL A   1      32.428  18.313  23.091  1.00  0.00     0.014 A 
ATOM     26  C   UNL A   1      34.013  18.670  24.879  1.00  0.00     0.014 A 
ATOM     27  C   UNL A   1      33.212  17.247  22.628  1.00  0.00     0.001 A 
ATOM     28  C   UNL A   1      34.805  17.623  24.403  1.00  0.00     0.001 A 
ATOM     29  C   UNL A   1      34.408  16.920  23.270  1.00  0.00     0.000 A 
ENDBRANCH  23  24
ENDBRANCH  13  15
ENDBRANCH  10  11
ENDBRANCH   9  10
ENDBRANCH   7   9
ENDBRANCH   6   7
ENDBRANCH   5   6
ENDBRANCH   4   5
ENDBRANCH   3   4
ENDBRANCH   2   3
ENDBRANCH   1   2
BRANCH   1  30
ATOM     30  O   UNL A   1      34.372  24.990  22.570  1.00  0.00    -0.377 OA
BRANCH  30  31
ATOM     31  C   UNL A   1      34.569  23.857  23.420  1.00  0.00     0.188 C 
BRANCH  31  32
ATOM     32  C   UNL A   1      35.930  23.563  24.089  1.00  0.00     0.188 C 
BRANCH  32  33
ATOM     33  O   UNL A   1      36.572  22.383  23.639  1.00  0.00    -0.376 OA
BRANCH  33  34
ATOM     34  C   UNL A   1      36.574  21.262  24.511  1.00  0.00     0.202 C 
BRANCH  34  35
ATOM     35  C   UNL A   1      37.894  20.932  25.226  1.00  0.00     0.261 C 
BRANCH  35  36
ATOM     36  O   UNL A   1      38.773  22.043  25.477  1.00  0.00    -0.460 OA
BRANCH  36  37
ATOM     37  C   UNL A   1      39.749  21.870  26.390  1.00  0.00     0.338 C 
ATOM     38  O   UNL A   1      40.445  20.871  26.537  1.00  0.00    -0.246 OA
BRANCH  37  39
ATOM     39  C   UNL A   1      39.984  23.151  27.083  1.00  0.00     0.060 A 
ATOM     40  C   UNL A   1      39.209  24.263  26.729  1.00  0.00     0.016 A 
ATOM     41  C   UNL A   1      41.000  23.273  28.033  1.00  0.00     0.016 A 
ATOM     42  C   UNL A   1      39.491  25.515  27.278  1.00  0.00     0.010 A 
ATOM     43  C   UNL A   1      41.286  24.532  28.575  1.00  0.00     0.010 A 
ATOM     44  C   UNL A   1      40.565  25.671  28.164  1.00  0.00    -0.014 A 
BRANCH  44  45
ATOM     45  C   UNL A   1      41.090  27.036  28.458  1.00  0.00     0.031 A 
ATOM     46  C   UNL A   1      42.583  27.240  28.368  1.00  0.00     0.074 A 
ATOM     47  C   UNL A   1      40.283  28.088  28.700  1.00  0.00     0.049 A 
ATOM     48  N   UNL A   1      43.297  28.289  28.672  1.00  0.00    -0.248 NA
ATOM     49  C   UNL A   1      43.371  26.114  27.829  1.00  0.00     0.031 C 
ATOM     50  C   UNL A   1      38.826  28.054  28.630  1.00  0.00     0.029 A 
ATOM     51  N   UNL A   1      40.561  29.387  29.061  1.00  0.00    -0.354 N 
ATOM     52  C   UNL A   1      44.605  27.969  28.319  1.00  0.00     0.074 A 
ATOM     53  C   UNL A   1      44.602  26.603  27.851  1.00  0.00     0.031 C 
ATOM     54  C   UNL A   1      38.336  29.255  28.989  1.00  0.00     0.029 A 
ATOM     55  C   UNL A   1      39.436  30.131  29.372  1.00  0.00     0.049 A 
ATOM     56  H   UNL A   1      41.474  29.753  29.096  1.00  0.00     0.167 HD
ATOM     57  C   UNL A   1      45.701  28.762  28.345  1.00  0.00     0.037 A 
ATOM     58  C   UNL A   1      39.318  31.347  29.956  1.00  0.00     0.037 A 
ATOM     59  C   UNL A   1      45.684  30.122  28.813  1.00  0.00     0.049 A 
ATOM     60  C   UNL A   1      40.606  32.080  30.283  1.00  0.00     0.074 A 
ATOM     61  C   UNL A   1      46.736  31.014  28.907  1.00  0.00     0.029 A 
ATOM     62  N   UNL A   1      44.553  30.784  29.265  1.00  0.00    -0.354 N 
ATOM     63  N   UNL A   1      41.842  31.763  29.964  1.00  0.00    -0.248 NA
ATOM     64  C   UNL A   1      40.497  33.335  31.038  1.00  0.00     0.031 C 
ATOM     65  C   UNL A   1      46.251  32.199  29.466  1.00  0.00     0.029 A 
ATOM     66  C   UNL A   1      44.886  32.066  29.665  1.00  0.00     0.049 A 
ATOM     67  H   UNL A   1      43.646  30.400  29.297  1.00  0.00     0.167 HD
ATOM     68  C   UNL A   1      42.630  32.837  30.369  1.00  0.00     0.074 A 
ATOM     69  C   UNL A   1      41.742  33.788  31.000  1.00  0.00     0.031 C 
ATOM     70  C   UNL A   1      43.963  33.032  30.206  1.00  0.00     0.037 A 
BRANCH  57  71
ATOM     71  C   UNL A   1      47.000  28.190  27.849  1.00  0.00     0.058 A 
ATOM     72  C   UNL A   1      47.864  27.486  28.704  1.00  0.00     0.135 A 
ATOM     73  C   UNL A   1      47.358  28.291  26.496  1.00  0.00     0.135 A 
ATOM     74  F   UNL A   1      47.583  27.379  30.012  1.00  0.00    -0.206 F 
ATOM     75  C   UNL A   1      49.040  26.908  28.235  1.00  0.00     0.059 A 
ATOM     76  C   UNL A   1      48.516  27.698  26.001  1.00  0.00     0.059 A 
ATOM     77  F   UNL A   1      46.572  28.959  25.638  1.00  0.00    -0.206 F 
ATOM     78  C   UNL A   1      49.354  27.013  26.880  1.00  0.00     0.060 A 
BRANCH  78  79
ATOM     79  S   UNL A   1      50.864  26.224  26.282  1.00  0.00     0.124 S 
ATOM     80  O   UNL A   1      51.886  27.155  26.753  1.00  0.00    -0.237 OA
ATOM     81  O   UNL A   1      50.827  24.931  26.956  1.00  0.00    -0.237 OA
ATOM     82  O   UNL A   1      50.676  26.181  24.835  1.00  0.00    -0.744 OA
ENDBRANCH  78  79
ENDBRANCH  57  71
BRANCH  58  83
ATOM     83  C   UNL A   1      37.989  31.925  30.378  1.00  0.00     0.058 A 
ATOM     84  C   UNL A   1      37.291  32.897  29.648  1.00  0.00     0.135 A 
ATOM     85  C   UNL A   1      37.442  31.607  31.627  1.00  0.00     0.135 A 
ATOM     86  F   UNL A   1      37.728  33.265  28.434  1.00  0.00    -0.206 F 
ATOM     87  C   UNL A   1      36.174  33.566  30.173  1.00  0.00     0.059 A 
ATOM     88  C   UNL A   1      36.318  32.220  32.167  1.00  0.00     0.059 A 
ATOM     89  F   UNL A   1      38.019  30.675  32.374  1.00  0.00    -0.206 F 
ATOM     90  C   UNL A   1      35.703  33.226  31.443  1.00  0.00     0.060 A 
BRANCH  90  91
ATOM     91  S   UNL A   1      34.332  34.143  32.175  1.00  0.00     0.124 S 
ATOM     92  O   UNL A   1      33.555  34.518  30.998  1.00  0.00    -0.237 OA
ATOM     93  O   UNL A   1      33.733  33.137  33.046  1.00  0.00    -0.237 OA
ATOM     94  O   UNL A   1      34.991  35.250  32.862  1.00  0.00    -0.744 OA
ENDBRANCH  90  91
ENDBRANCH  58  83
BRANCH  70  95
ATOM     95  C   UNL A   1      44.513  34.391  30.548  1.00  0.00     0.058 A 
ATOM     96  C   UNL A   1      44.469  35.474  29.660  1.00  0.00     0.135 A 
ATOM     97  C   UNL A   1      45.050  34.614  31.830  1.00  0.00     0.135 A 
ATOM     98  F   UNL A   1      43.972  35.314  28.424  1.00  0.00    -0.206 F 
ATOM     99  C   UNL A   1      44.963  36.724  30.018  1.00  0.00     0.059 A 
ATOM    100  C   UNL A   1      45.516  35.863  32.221  1.00  0.00     0.059 A 
ATOM    101  F   UNL A   1      45.102  33.614  32.725  1.00  0.00    -0.206 F 
ATOM    102  C   UNL A   1      45.482  36.910  31.303  1.00  0.00     0.060 A 
BRANCH 102 103
ATOM    103  S   UNL A   1      46.089  38.545  31.767  1.00  0.00     0.124 S 
ATOM    104  O   UNL A   1      45.694  39.344  30.611  1.00  0.00    -0.237 OA
ATOM    105  O   UNL A   1      45.356  38.810  33.001  1.00  0.00    -0.237 OA
ATOM    106  O   UNL A   1      47.526  38.341  31.929  1.00  0.00    -0.744 OA
ENDBRANCH 102 103
ENDBRANCH  70  95
ENDBRANCH  44  45
ENDBRANCH  37  39
ENDBRANCH  36  37
ENDBRANCH  35  36
ENDBRANCH  34  35
ENDBRANCH  33  34
ENDBRANCH  32  33
ENDBRANCH  31  32
ENDBRANCH  30  31
ENDBRANCH   1  30
TORSDOF 27
ENDMDL
MODEL 2
REMARK VINA RESULT:     -10.0      1.331      7.877
REMARK SMILES O=C(CCC(=O)OCCOCCOCCOCCOC(=O)c1ccc(-c2c3nc(c(-c4c(F)cc(S(=O)(=O)[O-])cc4F)c4ccc([nH]4)c(-c4c(F)cc(S(=O)(=O)[O-])cc4F)c4nc(c(-c5c(F)cc(S(=O)(=O)[O-])cc5F)c5ccc2[nH]5)C=C4)C=C3)cc1)Nc1ccc2nc(-c3ccccc3)oc2c1
REMARK SMILES IDX 12 1 11 2 10 3 9 4 8 5 7 6 5 7 6 8 4 9 3 10 2 11 1 12 88 13
REMARK SMILES IDX 89 15 90 16 103 17 91 18 102 19 92 20 101 21 93 22 94 23
REMARK SMILES IDX 95 24 96 25 100 26 97 27 99 28 98 29 13 30 14 31 15 32 16 33
REMARK SMILES IDX 17 34 18 35 19 36 20 37 21 38 22 39 23 40 87 41 24 42 86 43
REMARK SMILES IDX 25 44 26 45 27 46 80 47 28 48 85 49 79 50 81 51 29 52 84 53
REMARK SMILES IDX 78 54 77 55 30 57 64 58 43 59 63 60 44 61 47 62 62 63 82 64
REMARK SMILES IDX 45 65 46 66 61 68 83 69 48 70 31 71 32 72 41 73 33 74 34 75
REMARK SMILES IDX 40 76 42 77 35 78 36 79 37 80 38 81 39 82 65 83 66 84 75 85
REMARK SMILES IDX 67 86 68 87 74 88 76 89 69 90 70 91 71 92 72 93 73 94 49 95
REMARK SMILES IDX 50 96 59 97 51 98 52 99 58 100 60 101 53 102 54 103 55 104
REMARK SMILES IDX 56 105 57 106
REMARK H PARENT 88 14 81 56 47 67
REMARK Flexibility Score: inf
ROOT
ATOM      1  C   UNL A   1      33.278  24.284  21.684  1.00  0.00     0.188 C 
ENDROOT
BRANCH   1   2
ATOM      2  C   UNL A   1      32.534  25.574  21.323  1.00  0.00     0.188 C 
BRANCH   2   3
ATOM      3  O   UNL A   1      33.364  26.674  21.041  1.00  0.00    -0.376 OA
BRANCH   3   4
ATOM      4  C   UNL A   1      33.659  27.627  22.045  1.00  0.00     0.202 C 
BRANCH   4   5
ATOM      5  C   UNL A   1      32.829  27.856  23.327  1.00  0.00     0.261 C 
BRANCH   5   6
ATOM      6  O   UNL A   1      33.501  27.850  24.606  1.00  0.00    -0.463 OA
BRANCH   6   7
ATOM      7  C   UNL A   1      33.149  28.849  25.453  1.00  0.00     0.306 C 
ATOM      8  O   UNL A   1      32.986  30.013  25.094  1.00  0.00    -0.252 OA
BRANCH   7   9
ATOM      9  C   UNL A   1      32.941  28.473  26.910  1.00  0.00     0.132 C 
BRANCH   9  10
ATOM     10  C   UNL A   1      31.715  27.780  27.493  1.00  0.00     0.112 C 
BRANCH  10  11
ATOM     11  C   UNL A   1      31.280  26.469  26.878  1.00  0.00     0.224 C 
ATOM     12  O   UNL A   1      30.105  26.272  26.586  1.00  0.00    -0.275 OA
ATOM     13  N   UNL A   1      32.318  25.594  26.689  1.00  0.00    -0.326 N 
ATOM     14  H   UNL A   1      33.216  25.906  26.946  1.00  0.00     0.169 HD
BRANCH  13  15
ATOM     15  C   UNL A   1      32.226  24.298  26.165  1.00  0.00     0.045 A 
ATOM     16  C   UNL A   1      31.448  24.187  25.003  1.00  0.00     0.028 A 
ATOM     17  C   UNL A   1      32.879  23.187  26.731  1.00  0.00     0.075 A 
ATOM     18  C   UNL A   1      31.369  22.990  24.305  1.00  0.00     0.034 A 
ATOM     19  C   UNL A   1      32.737  21.992  26.033  1.00  0.00     0.157 A 
ATOM     20  C   UNL A   1      32.039  21.894  24.843  1.00  0.00     0.110 A 
ATOM     21  O   UNL A   1      33.243  20.741  26.324  1.00  0.00    -0.436 OA
ATOM     22  N   UNL A   1      32.139  20.647  24.352  1.00  0.00    -0.209 NA
ATOM     23  C   UNL A   1      32.839  19.986  25.247  1.00  0.00     0.227 A 
BRANCH  23  24
ATOM     24  C   UNL A   1      33.267  18.600  25.112  1.00  0.00     0.037 A 
ATOM     25  C   UNL A   1      32.691  17.584  25.884  1.00  0.00     0.014 A 
ATOM     26  C   UNL A   1      33.998  18.247  23.964  1.00  0.00     0.014 A 
ATOM     27  C   UNL A   1      32.797  16.248  25.478  1.00  0.00     0.001 A 
ATOM     28  C   UNL A   1      34.085  16.917  23.548  1.00  0.00     0.001 A 
ATOM     29  C   UNL A   1      33.473  15.919  24.301  1.00  0.00     0.000 A 
ENDBRANCH  23  24
ENDBRANCH  13  15
ENDBRANCH  10  11
ENDBRANCH   9  10
ENDBRANCH   7   9
ENDBRANCH   6   7
ENDBRANCH   5   6
ENDBRANCH   4   5
ENDBRANCH   3   4
ENDBRANCH   2   3
ENDBRANCH   1   2
BRANCH   1  30
ATOM     30  O   UNL A   1      34.404  24.386  22.541  1.00  0.00    -0.377 OA
BRANCH  30  31
ATOM     31  C   UNL A   1      34.893  23.231  23.230  1.00  0.00     0.188 C 
BRANCH  31  32
ATOM     32  C   UNL A   1      36.309  23.183  23.843  1.00  0.00     0.188 C 
BRANCH  32  33
ATOM     33  O   UNL A   1      36.969  21.934  23.724  1.00  0.00    -0.376 OA
BRANCH  33  34
ATOM     34  C   UNL A   1      37.105  21.149  24.898  1.00  0.00     0.202 C 
BRANCH  34  35
ATOM     35  C   UNL A   1      38.514  21.032  25.502  1.00  0.00     0.261 C 
BRANCH  35  36
ATOM     36  O   UNL A   1      39.034  22.216  26.131  1.00  0.00    -0.460 OA
BRANCH  36  37
ATOM     37  C   UNL A   1      40.154  22.088  26.870  1.00  0.00     0.338 C 
ATOM     38  O   UNL A   1      40.857  21.088  26.966  1.00  0.00    -0.246 OA
BRANCH  37  39
ATOM     39  C   UNL A   1      40.517  23.410  27.415  1.00  0.00     0.060 A 
ATOM     40  C   UNL A   1      39.979  24.558  26.819  1.00  0.00     0.016 A 
ATOM     41  C   UNL A   1      41.425  23.523  28.469  1.00  0.00     0.016 A 
ATOM     42  C   UNL A   1      40.399  25.823  27.233  1.00  0.00     0.010 A 
ATOM     43  C   UNL A   1      41.851  24.794  28.877  1.00  0.00     0.010 A 
ATOM     44  C   UNL A   1      41.377  25.952  28.227  1.00  0.00    -0.014 A 
BRANCH  44  45
ATOM     45  C   UNL A   1      42.083  27.253  28.409  1.00  0.00     0.031 A 
ATOM     46  C   UNL A   1      41.270  28.418  28.917  1.00  0.00     0.074 A 
ATOM     47  C   UNL A   1      43.412  27.389  28.231  1.00  0.00     0.049 A 
ATOM     48  N   UNL A   1      41.613  29.670  29.062  1.00  0.00    -0.248 NA
ATOM     49  C   UNL A   1      39.892  28.121  29.353  1.00  0.00     0.031 C 
ATOM     50  C   UNL A   1      44.328  26.296  27.922  1.00  0.00     0.029 A 
ATOM     51  N   UNL A   1      44.229  28.497  28.271  1.00  0.00    -0.354 N 
ATOM     52  C   UNL A   1      40.516  30.296  29.645  1.00  0.00     0.074 A 
ATOM     53  C   UNL A   1      39.468  29.309  29.757  1.00  0.00     0.031 C 
ATOM     54  C   UNL A   1      45.567  26.791  27.749  1.00  0.00     0.029 A 
ATOM     55  C   UNL A   1      45.531  28.243  27.874  1.00  0.00     0.049 A 
ATOM     56  H   UNL A   1      43.917  29.386  28.555  1.00  0.00     0.167 HD
ATOM     57  C   UNL A   1      40.411  31.571  30.086  1.00  0.00     0.037 A 
ATOM     58  C   UNL A   1      46.545  29.093  27.586  1.00  0.00     0.037 A 
ATOM     59  C   UNL A   1      41.467  32.539  29.966  1.00  0.00     0.049 A 
ATOM     60  C   UNL A   1      46.276  30.573  27.778  1.00  0.00     0.074 A 
ATOM     61  C   UNL A   1      41.468  33.866  30.355  1.00  0.00     0.029 A 
ATOM     62  N   UNL A   1      42.714  32.281  29.416  1.00  0.00    -0.354 N 
ATOM     63  N   UNL A   1      45.228  31.161  28.313  1.00  0.00    -0.248 NA
ATOM     64  C   UNL A   1      47.319  31.511  27.342  1.00  0.00     0.031 C 
ATOM     65  C   UNL A   1      42.696  34.424  29.991  1.00  0.00     0.029 A 
ATOM     66  C   UNL A   1      43.482  33.430  29.429  1.00  0.00     0.049 A 
ATOM     67  H   UNL A   1      43.009  31.408  29.066  1.00  0.00     0.167 HD
ATOM     68  C   UNL A   1      45.544  32.515  28.386  1.00  0.00     0.074 A 
ATOM     69  C   UNL A   1      46.857  32.667  27.798  1.00  0.00     0.031 C 
ATOM     70  C   UNL A   1      44.827  33.536  28.921  1.00  0.00     0.037 A 
BRANCH  57  71
ATOM     71  C   UNL A   1      39.124  31.989  30.740  1.00  0.00     0.058 A 
ATOM     72  C   UNL A   1      39.017  32.112  32.135  1.00  0.00     0.135 A 
ATOM     73  C   UNL A   1      38.004  32.330  29.966  1.00  0.00     0.135 A 
ATOM     74  F   UNL A   1      40.049  31.777  32.925  1.00  0.00    -0.206 F 
ATOM     75  C   UNL A   1      37.843  32.552  32.739  1.00  0.00     0.059 A 
ATOM     76  C   UNL A   1      36.828  32.796  30.547  1.00  0.00     0.059 A 
ATOM     77  F   UNL A   1      38.050  32.223  28.629  1.00  0.00    -0.206 F 
ATOM     78  C   UNL A   1      36.755  32.899  31.936  1.00  0.00     0.060 A 
BRANCH  78  79
ATOM     79  S   UNL A   1      35.254  33.505  32.734  1.00  0.00     0.124 S 
ATOM     80  O   UNL A   1      34.242  33.188  31.731  1.00  0.00    -0.237 OA
ATOM     81  O   UNL A   1      35.207  32.706  33.955  1.00  0.00    -0.237 OA
ATOM     82  O   UNL A   1      35.520  34.927  32.927  1.00  0.00    -0.744 OA
ENDBRANCH  78  79
ENDBRANCH  57  71
BRANCH  58  83
ATOM     83  C   UNL A   1      47.855  28.630  26.995  1.00  0.00     0.058 A 
ATOM     84  C   UNL A   1      47.986  28.095  25.705  1.00  0.00     0.135 A 
ATOM     85  C   UNL A   1      49.011  28.583  27.784  1.00  0.00     0.135 A 
ATOM     86  F   UNL A   1      46.938  28.101  24.868  1.00  0.00    -0.206 F 
ATOM     87  C   UNL A   1      49.170  27.478  25.271  1.00  0.00     0.059 A 
ATOM     88  C   UNL A   1      50.211  28.013  27.377  1.00  0.00     0.059 A 
ATOM     89  F   UNL A   1      48.987  29.095  29.007  1.00  0.00    -0.206 F 
ATOM     90  C   UNL A   1      50.275  27.432  26.123  1.00  0.00     0.060 A 
BRANCH  90  91
ATOM     91  S   UNL A   1      51.770  26.556  25.620  1.00  0.00     0.124 S 
ATOM     92  O   UNL A   1      52.740  27.022  26.604  1.00  0.00    -0.237 OA
ATOM     93  O   UNL A   1      51.353  25.163  25.739  1.00  0.00    -0.237 OA
ATOM     94  O   UNL A   1      51.996  27.024  24.255  1.00  0.00    -0.744 OA
ENDBRANCH  90  91
ENDBRANCH  58  83
BRANCH  70  95
ATOM     95  C   UNL A   1      45.513  34.868  29.062  1.00  0.00     0.058 A 
ATOM     96  C   UNL A   1      45.384  35.892  28.114  1.00  0.00     0.135 A 
ATOM     97  C   UNL A   1      46.276  35.132  30.214  1.00  0.00     0.135 A 
ATOM     98  F   UNL A   1      44.672  35.690  26.994  1.00  0.00    -0.206 F 
ATOM     99  C   UNL A   1      46.010  37.122  28.288  1.00  0.00     0.059 A 
ATOM    100  C   UNL A   1      46.880  36.366  30.425  1.00  0.00     0.059 A 
ATOM    101  F   UNL A   1      46.418  34.191  31.162  1.00  0.00    -0.206 F 
ATOM    102  C   UNL A   1      46.753  37.351  29.449  1.00  0.00     0.060 A 
BRANCH 102 103
ATOM    103  S   UNL A   1      47.533  38.962  29.679  1.00  0.00     0.124 S 
ATOM    104  O   UNL A   1      46.387  39.860  29.577  1.00  0.00    -0.237 OA
ATOM    105  O   UNL A   1      48.124  38.836  31.007  1.00  0.00    -0.237 OA
ATOM    106  O   UNL A   1      48.489  39.038  28.578  1.00  0.00    -0.744 OA
ENDBRANCH 102 103
ENDBRANCH  70  95
ENDBRANCH  44  45
ENDBRANCH  37  39
ENDBRANCH  36  37
ENDBRANCH  35  36
ENDBRANCH  34  35
ENDBRANCH  33  34
ENDBRANCH  32  33
ENDBRANCH  31  32
ENDBRANCH  30  31
ENDBRANCH   1  30
TORSDOF 27
ENDMDL
MODEL 3
REMARK VINA RESULT:      -9.3      3.416      8.291
REMARK SMILES O=C(CCC(=O)OCCOCCOCCOCCOC(=O)c1ccc(-c2c3nc(c(-c4c(F)cc(S(=O)(=O)[O-])cc4F)c4ccc([nH]4)c(-c4c(F)cc(S(=O)(=O)[O-])cc4F)c4nc(c(-c5c(F)cc(S(=O)(=O)[O-])cc5F)c5ccc2[nH]5)C=C4)C=C3)cc1)Nc1ccc2nc(-c3ccccc3)oc2c1
REMARK SMILES IDX 12 1 11 2 10 3 9 4 8 5 7 6 5 7 6 8 4 9 3 10 2 11 1 12 88 13
REMARK SMILES IDX 89 15 90 16 103 17 91 18 102 19 92 20 101 21 93 22 94 23
REMARK SMILES IDX 95 24 96 25 100 26 97 27 99 28 98 29 13 30 14 31 15 32 16 33
REMARK SMILES IDX 17 34 18 35 19 36 20 37 21 38 22 39 23 40 87 41 24 42 86 43
REMARK SMILES IDX 25 44 26 45 27 46 80 47 28 48 85 49 79 50 81 51 29 52 84 53
REMARK SMILES IDX 78 54 77 55 30 57 64 58 43 59 63 60 44 61 47 62 62 63 82 64
REMARK SMILES IDX 45 65 46 66 61 68 83 69 48 70 31 71 32 72 41 73 33 74 34 75
REMARK SMILES IDX 40 76 42 77 35 78 36 79 37 80 38 81 39 82 65 83 66 84 75 85
REMARK SMILES IDX 67 86 68 87 74 88 76 89 69 90 70 91 71 92 72 93 73 94 49 95
REMARK SMILES IDX 50 96 59 97 51 98 52 99 58 100 60 101 53 102 54 103 55 104
REMARK SMILES IDX 56 105 57 106
REMARK H PARENT 88 14 81 56 47 67
REMARK Flexibility Score: inf
ROOT
ATOM      1  C   UNL A   1      32.241  30.880  26.683  1.00  0.00     0.188 C 
ENDROOT
BRANCH   1   2
ATOM      2  C   UNL A   1      31.313  32.082  26.481  1.00  0.00     0.188 C 
BRANCH   2   3
ATOM      3  O   UNL A   1      30.343  31.915  25.476  1.00  0.00    -0.376 OA
BRANCH   3   4
ATOM      4  C   UNL A   1      30.386  30.792  24.616  1.00  0.00     0.202 C 
BRANCH   4   5
ATOM      5  C   UNL A   1      29.524  30.607  23.348  1.00  0.00     0.261 C 
BRANCH   5   6
ATOM      6  O   UNL A   1      29.575  29.346  22.646  1.00  0.00    -0.463 OA
BRANCH   6   7
ATOM      7  C   UNL A   1      28.662  28.423  23.041  1.00  0.00     0.306 C 
ATOM      8  O   UNL A   1      27.456  28.539  22.841  1.00  0.00    -0.252 OA
BRANCH   7   9
ATOM      9  C   UNL A   1      29.195  27.190  23.751  1.00  0.00     0.132 C 
BRANCH   9  10
ATOM     10  C   UNL A   1      30.541  27.071  24.456  1.00  0.00     0.112 C 
BRANCH  10  11
ATOM     11  C   UNL A   1      30.958  25.709  24.964  1.00  0.00     0.224 C 
ATOM     12  O   UNL A   1      30.410  25.209  25.941  1.00  0.00    -0.275 OA
ATOM     13  N   UNL A   1      31.957  25.140  24.220  1.00  0.00    -0.326 N 
ATOM     14  H   UNL A   1      32.279  25.651  23.441  1.00  0.00     0.169 HD
BRANCH  13  15
ATOM     15  C   UNL A   1      32.567  23.901  24.457  1.00  0.00     0.045 A 
ATOM     16  C   UNL A   1      33.633  23.936  25.368  1.00  0.00     0.028 A 
ATOM     17  C   UNL A   1      32.140  22.701  23.858  1.00  0.00     0.075 A 
ATOM     18  C   UNL A   1      34.250  22.767  25.793  1.00  0.00     0.034 A 
ATOM     19  C   UNL A   1      32.815  21.556  24.269  1.00  0.00     0.157 A 
ATOM     20  C   UNL A   1      33.812  21.573  25.227  1.00  0.00     0.110 A 
ATOM     21  O   UNL A   1      32.640  20.245  23.872  1.00  0.00    -0.436 OA
ATOM     22  N   UNL A   1      34.222  20.320  25.486  1.00  0.00    -0.209 NA
ATOM     23  C   UNL A   1      33.529  19.560  24.667  1.00  0.00     0.227 A 
BRANCH  23  24
ATOM     24  C   UNL A   1      33.584  18.105  24.635  1.00  0.00     0.037 A 
ATOM     25  C   UNL A   1      34.777  17.429  24.359  1.00  0.00     0.014 A 
ATOM     26  C   UNL A   1      32.524  17.394  25.226  1.00  0.00     0.014 A 
ATOM     27  C   UNL A   1      34.925  16.085  24.724  1.00  0.00     0.001 A 
ATOM     28  C   UNL A   1      32.679  16.061  25.610  1.00  0.00     0.001 A 
ATOM     29  C   UNL A   1      33.885  15.411  25.369  1.00  0.00     0.000 A 
ENDBRANCH  23  24
ENDBRANCH  13  15
ENDBRANCH  10  11
ENDBRANCH   9  10
ENDBRANCH   7   9
ENDBRANCH   6   7
ENDBRANCH   5   6
ENDBRANCH   4   5
ENDBRANCH   3   4
ENDBRANCH   2   3
ENDBRANCH   1   2
BRANCH   1  30
ATOM     30  O   UNL A   1      33.366  31.046  27.532  1.00  0.00    -0.377 OA
BRANCH  30  31
ATOM     31  C   UNL A   1      33.758  32.353  27.962  1.00  0.00     0.188 C 
BRANCH  31  32
ATOM     32  C   UNL A   1      34.981  32.581  28.877  1.00  0.00     0.188 C 
BRANCH  32  33
ATOM     33  O   UNL A   1      34.742  32.364  30.256  1.00  0.00    -0.376 OA
BRANCH  33  34
ATOM     34  C   UNL A   1      35.826  31.898  31.046  1.00  0.00     0.202 C 
BRANCH  34  35
ATOM     35  C   UNL A   1      36.446  30.546  30.655  1.00  0.00     0.261 C 
BRANCH  35  36
ATOM     36  O   UNL A   1      37.539  30.596  29.722  1.00  0.00    -0.460 OA
BRANCH  36  37
ATOM     37  C   UNL A   1      37.444  29.839  28.611  1.00  0.00     0.338 C 
ATOM     38  O   UNL A   1      36.451  29.694  27.907  1.00  0.00    -0.246 OA
BRANCH  37  39
ATOM     39  C   UNL A   1      38.787  29.342  28.259  1.00  0.00     0.060 A 
ATOM     40  C   UNL A   1      39.659  28.962  29.288  1.00  0.00     0.016 A 
ATOM     41  C   UNL A   1      39.209  29.305  26.928  1.00  0.00     0.016 A 
ATOM     42  C   UNL A   1      40.976  28.605  28.993  1.00  0.00     0.010 A 
ATOM     43  C   UNL A   1      40.534  28.955  26.637  1.00  0.00     0.010 A 
ATOM     44  C   UNL A   1      41.440  28.651  27.672  1.00  0.00    -0.014 A 
BRANCH  44  45
ATOM     45  C   UNL A   1      42.907  28.632  27.401  1.00  0.00     0.031 A 
ATOM     46  C   UNL A   1      43.531  27.303  27.050  1.00  0.00     0.074 A 
ATOM     47  C   UNL A   1      43.653  29.754  27.366  1.00  0.00     0.049 A 
ATOM     48  N   UNL A   1      44.788  26.997  26.873  1.00  0.00    -0.248 NA
ATOM     49  C   UNL A   1      42.604  26.175  26.837  1.00  0.00     0.031 C 
ATOM     50  C   UNL A   1      43.129  31.108  27.505  1.00  0.00     0.029 A 
ATOM     51  N   UNL A   1      45.008  29.944  27.214  1.00  0.00    -0.354 N 
ATOM     52  C   UNL A   1      44.799  25.661  26.485  1.00  0.00     0.074 A 
ATOM     53  C   UNL A   1      43.434  25.191  26.526  1.00  0.00     0.031 C 
ATOM     54  C   UNL A   1      44.150  31.984  27.485  1.00  0.00     0.029 A 
ATOM     55  C   UNL A   1      45.410  31.256  27.392  1.00  0.00     0.049 A 
ATOM     56  H   UNL A   1      45.633  29.215  26.998  1.00  0.00     0.167 HD
ATOM     57  C   UNL A   1      45.852  24.910  26.088  1.00  0.00     0.037 A 
ATOM     58  C   UNL A   1      46.648  31.788  27.527  1.00  0.00     0.037 A 
ATOM     59  C   UNL A   1      47.204  25.397  26.053  1.00  0.00     0.049 A 
ATOM     60  C   UNL A   1      47.822  30.834  27.406  1.00  0.00     0.074 A 
ATOM     61  C   UNL A   1      48.354  24.720  25.691  1.00  0.00     0.029 A 
ATOM     62  N   UNL A   1      47.585  26.687  26.391  1.00  0.00    -0.354 N 
ATOM     63  N   UNL A   1      47.824  29.566  27.057  1.00  0.00    -0.248 NA
ATOM     64  C   UNL A   1      49.160  31.371  27.685  1.00  0.00     0.031 C 
ATOM     65  C   UNL A   1      49.438  25.585  25.862  1.00  0.00     0.029 A 
ATOM     66  C   UNL A   1      48.957  26.819  26.273  1.00  0.00     0.049 A 
ATOM     67  H   UNL A   1      46.971  27.403  26.674  1.00  0.00     0.167 HD
ATOM     68  C   UNL A   1      49.164  29.199  26.956  1.00  0.00     0.074 A 
ATOM     69  C   UNL A   1      49.941  30.361  27.328  1.00  0.00     0.031 C 
ATOM     70  C   UNL A   1      49.702  28.018  26.561  1.00  0.00     0.037 A 
BRANCH  57  71
ATOM     71  C   UNL A   1      45.587  23.494  25.656  1.00  0.00     0.058 A 
ATOM     72  C   UNL A   1      45.187  22.510  26.575  1.00  0.00     0.135 A 
ATOM     73  C   UNL A   1      45.674  23.129  24.304  1.00  0.00     0.135 A 
ATOM     74  F   UNL A   1      45.109  22.797  27.884  1.00  0.00    -0.206 F 
ATOM     75  C   UNL A   1      44.888  21.213  26.168  1.00  0.00     0.059 A 
ATOM     76  C   UNL A   1      45.355  21.845  23.872  1.00  0.00     0.059 A 
ATOM     77  F   UNL A   1      46.059  24.029  23.386  1.00  0.00    -0.206 F 
ATOM     78  C   UNL A   1      44.968  20.891  24.813  1.00  0.00     0.060 A 
BRANCH  78  79
ATOM     79  S   UNL A   1      44.539  19.215  24.299  1.00  0.00     0.124 S 
ATOM     80  O   UNL A   1      45.633  18.443  24.880  1.00  0.00    -0.237 OA
ATOM     81  O   UNL A   1      43.231  19.025  24.917  1.00  0.00    -0.237 OA
ATOM     82  O   UNL A   1      44.536  19.295  22.841  1.00  0.00    -0.744 OA
ENDBRANCH  78  79
ENDBRANCH  57  71
BRANCH  58  83
ATOM     83  C   UNL A   1      46.880  33.234  27.892  1.00  0.00     0.058 A 
ATOM     84  C   UNL A   1      46.516  33.799  29.123  1.00  0.00     0.135 A 
ATOM     85  C   UNL A   1      47.358  34.138  26.936  1.00  0.00     0.135 A 
ATOM     86  F   UNL A   1      46.055  33.015  30.109  1.00  0.00    -0.206 F 
ATOM     87  C   UNL A   1      46.547  35.185  29.345  1.00  0.00     0.059 A 
ATOM     88  C   UNL A   1      47.438  35.511  27.131  1.00  0.00     0.059 A 
ATOM     89  F   UNL A   1      47.755  33.688  25.753  1.00  0.00    -0.206 F 
ATOM     90  C   UNL A   1      47.000  36.035  28.335  1.00  0.00     0.060 A 
BRANCH  90  91
ATOM     91  S   UNL A   1      46.953  37.823  28.567  1.00  0.00     0.124 S 
ATOM     92  O   UNL A   1      47.309  38.311  27.239  1.00  0.00    -0.237 OA
ATOM     93  O   UNL A   1      45.569  38.033  28.978  1.00  0.00    -0.237 OA
ATOM     94  O   UNL A   1      47.954  38.059  29.604  1.00  0.00    -0.744 OA
ENDBRANCH  90  91
ENDBRANCH  58  83
BRANCH  70  95
ATOM     95  C   UNL A   1      51.190  27.974  26.334  1.00  0.00     0.058 A 
ATOM     96  C   UNL A   1      52.101  27.624  27.340  1.00  0.00     0.135 A 
ATOM     97  C   UNL A   1      51.699  28.240  25.050  1.00  0.00     0.135 A 
ATOM     98  F   UNL A   1      51.668  27.366  28.584  1.00  0.00    -0.206 F 
ATOM     99  C   UNL A   1      53.468  27.566  27.089  1.00  0.00     0.059 A 
ATOM    100  C   UNL A   1      53.058  28.153  24.769  1.00  0.00     0.059 A 
ATOM    101  F   UNL A   1      50.868  28.564  24.046  1.00  0.00    -0.206 F 
ATOM    102  C   UNL A   1      53.937  27.829  25.799  1.00  0.00     0.060 A 
BRANCH 102 103
ATOM    103  S   UNL A   1      55.709  27.719  25.479  1.00  0.00     0.124 S 
ATOM    104  O   UNL A   1      56.049  26.461  26.136  1.00  0.00    -0.237 OA
ATOM    105  O   UNL A   1      55.762  27.707  24.020  1.00  0.00    -0.237 OA
ATOM    106  O   UNL A   1      56.245  28.921  26.110  1.00  0.00    -0.744 OA
ENDBRANCH 102 103
ENDBRANCH  70  95
ENDBRANCH  44  45
ENDBRANCH  37  39
ENDBRANCH  36  37
ENDBRANCH  35  36
ENDBRANCH  34  35
ENDBRANCH  33  34
ENDBRANCH  32  33
ENDBRANCH  31  32
ENDBRANCH  30  31
ENDBRANCH   1  30
TORSDOF 27
ENDMDL
