MODEL 1
REMARK VINA RESULT:      -8.0      0.000      0.000
REMARK SMILES CCCCNC(=O)c1cnn([C@@H](C)C(=O)OCCOCCOCCOCCOC(=O)c2ccc(-c3c4nc(c(-c5c(F)cc(S(=O)(=O)[O-])cc5F)c5ccc([nH]5)c(-c5c(F)cc(S(=O)(=O)[O-])cc5F)c5nc(c(-c6c(F)cc(S(=O)(=O)[O-])cc6F)c6ccc3[nH]6)C=C5)C=C4)cc2)c1
REMARK SMILES IDX 21 1 20 2 19 3 18 4 17 5 16 6 14 7 15 8 12 9 13 10 11 11
REMARK SMILES IDX 8 12 9 13 97 14 10 15 6 16 5 17 7 19 4 20 3 21 2 22 1 23
REMARK SMILES IDX 22 24 23 25 24 26 25 27 26 28 27 29 28 30 29 31 30 32 31 33
REMARK SMILES IDX 32 34 96 35 33 36 95 37 34 38 35 39 36 40 89 41 37 42 94 43
REMARK SMILES IDX 88 44 90 45 38 46 93 47 87 48 86 49 39 51 73 52 52 53 72 54
REMARK SMILES IDX 53 55 56 56 71 57 91 58 54 59 55 60 70 62 92 63 57 64 40 65
REMARK SMILES IDX 41 66 50 67 42 68 43 69 49 70 51 71 44 72 45 73 46 74 47 75
REMARK SMILES IDX 48 76 74 77 75 78 84 79 76 80 77 81 83 82 85 83 78 84 79 85
REMARK SMILES IDX 80 86 81 87 82 88 58 89 59 90 68 91 60 92 61 93 67 94 69 95
REMARK SMILES IDX 62 96 63 97 64 98 65 99 66 100
REMARK H PARENT 5 18 90 50 56 61
REMARK Flexibility Score: inf
ROOT
ATOM      1  C   UNL A   1      32.819  36.734  30.241  1.00  0.00     0.188 C 
ENDROOT
BRANCH   1   2
ATOM      2  C   UNL A   1      33.134  35.491  29.382  1.00  0.00     0.188 C 
BRANCH   2   3
ATOM      3  O   UNL A   1      34.374  35.333  28.696  1.00  0.00    -0.376 OA
BRANCH   3   4
ATOM      4  C   UNL A   1      34.871  34.035  28.418  1.00  0.00     0.202 C 
BRANCH   4   5
ATOM      5  C   UNL A   1      33.855  32.964  28.004  1.00  0.00     0.261 C 
BRANCH   5   6
ATOM      6  O   UNL A   1      34.328  31.605  28.047  1.00  0.00    -0.462 OA
BRANCH   6   7
ATOM      7  C   UNL A   1      33.562  30.677  27.428  1.00  0.00     0.330 C 
ATOM      8  O   UNL A   1      32.452  30.921  26.951  1.00  0.00    -0.250 OA
BRANCH   7   9
ATOM      9  C   UNL A   1      34.117  29.267  27.384  1.00  0.00     0.213 C 
ATOM     10  C   UNL A   1      35.637  29.319  27.311  1.00  0.00     0.046 C 
BRANCH   9  11
ATOM     11  N   UNL A   1      33.574  28.345  26.386  1.00  0.00    -0.258 N 
ATOM     12  C   UNL A   1      32.904  27.495  24.451  1.00  0.00     0.077 A 
ATOM     13  C   UNL A   1      32.440  26.763  25.565  1.00  0.00     0.149 A 
ATOM     14  C   UNL A   1      33.662  28.501  25.025  1.00  0.00     0.123 A 
ATOM     15  N   UNL A   1      32.764  27.325  26.733  1.00  0.00    -0.180 NA
BRANCH  12  16
ATOM     16  C   UNL A   1      32.746  27.267  23.027  1.00  0.00     0.254 C 
ATOM     17  N   UNL A   1      31.914  28.074  22.292  1.00  0.00    -0.352 N 
ATOM     18  H   UNL A   1      31.719  27.754  21.383  1.00  0.00     0.163 HD
ATOM     19  O   UNL A   1      33.371  26.376  22.451  1.00  0.00    -0.269 OA
BRANCH  17  20
ATOM     20  C   UNL A   1      31.276  29.330  22.652  1.00  0.00     0.116 C 
BRANCH  20  21
ATOM     21  C   UNL A   1      30.030  29.117  23.512  1.00  0.00     0.021 C 
BRANCH  21  22
ATOM     22  C   UNL A   1      28.728  28.924  22.731  1.00  0.00    -0.002 C 
ATOM     23  C   UNL A   1      27.643  29.923  23.108  1.00  0.00     0.004 C 
ENDBRANCH  21  22
ENDBRANCH  20  21
ENDBRANCH  17  20
ENDBRANCH  12  16
ENDBRANCH   9  11
ENDBRANCH   7   9
ENDBRANCH   6   7
ENDBRANCH   5   6
ENDBRANCH   4   5
ENDBRANCH   3   4
ENDBRANCH   2   3
ENDBRANCH   1   2
BRANCH   1  24
ATOM     24  O   UNL A   1      32.195  36.481  31.487  1.00  0.00    -0.377 OA
BRANCH  24  25
ATOM     25  C   UNL A   1      32.997  35.772  32.417  1.00  0.00     0.188 C 
BRANCH  25  26
ATOM     26  C   UNL A   1      34.272  36.511  32.862  1.00  0.00     0.188 C 
BRANCH  26  27
ATOM     27  O   UNL A   1      35.281  35.652  33.401  1.00  0.00    -0.376 OA
BRANCH  27  28
ATOM     28  C   UNL A   1      36.132  34.964  32.491  1.00  0.00     0.202 C 
BRANCH  28  29
ATOM     29  C   UNL A   1      35.530  33.671  31.938  1.00  0.00     0.261 C 
BRANCH  29  30
ATOM     30  O   UNL A   1      36.488  32.810  31.337  1.00  0.00    -0.460 OA
BRANCH  30  31
ATOM     31  C   UNL A   1      36.124  31.528  31.188  1.00  0.00     0.338 C 
ATOM     32  O   UNL A   1      35.159  30.964  31.702  1.00  0.00    -0.246 OA
BRANCH  31  33
ATOM     33  C   UNL A   1      37.091  30.847  30.334  1.00  0.00     0.060 A 
ATOM     34  C   UNL A   1      37.458  29.558  30.724  1.00  0.00     0.016 A 
ATOM     35  C   UNL A   1      37.826  31.594  29.400  1.00  0.00     0.016 A 
ATOM     36  C   UNL A   1      38.729  29.140  30.424  1.00  0.00     0.010 A 
ATOM     37  C   UNL A   1      39.100  31.183  29.115  1.00  0.00     0.010 A 
ATOM     38  C   UNL A   1      39.562  30.025  29.739  1.00  0.00    -0.014 A 
BRANCH  38  39
ATOM     39  C   UNL A   1      40.984  29.789  29.821  1.00  0.00     0.031 A 
ATOM     40  C   UNL A   1      41.498  28.866  28.802  1.00  0.00     0.074 A 
ATOM     41  C   UNL A   1      41.732  30.474  30.707  1.00  0.00     0.049 A 
ATOM     42  N   UNL A   1      42.003  27.692  28.970  1.00  0.00    -0.248 NA
ATOM     43  C   UNL A   1      41.277  29.240  27.396  1.00  0.00     0.031 C 
ATOM     44  C   UNL A   1      41.301  31.639  31.493  1.00  0.00     0.029 A 
ATOM     45  N   UNL A   1      43.059  30.374  30.997  1.00  0.00    -0.354 N 
ATOM     46  C   UNL A   1      42.405  27.302  27.700  1.00  0.00     0.074 A 
ATOM     47  C   UNL A   1      41.723  28.155  26.766  1.00  0.00     0.031 C 
ATOM     48  C   UNL A   1      42.389  32.266  31.986  1.00  0.00     0.029 A 
ATOM     49  C   UNL A   1      43.569  31.485  31.656  1.00  0.00     0.049 A 
ATOM     50  H   UNL A   1      43.604  29.590  30.762  1.00  0.00     0.167 HD
ATOM     51  C   UNL A   1      43.526  26.555  27.527  1.00  0.00     0.037 A 
ATOM     52  C   UNL A   1      44.876  31.789  31.836  1.00  0.00     0.037 A 
ATOM     53  C   UNL A   1      43.950  25.938  28.756  1.00  0.00     0.049 A 
ATOM     54  C   UNL A   1      45.668  30.544  31.668  1.00  0.00     0.074 A 
ATOM     55  C   UNL A   1      43.501  24.909  29.552  1.00  0.00     0.029 A 
ATOM     56  N   UNL A   1      44.845  26.669  29.495  1.00  0.00    -0.354 N 
ATOM     57  N   UNL A   1      45.586  29.511  32.463  1.00  0.00    -0.248 NA
ATOM     58  C   UNL A   1      46.343  30.291  30.398  1.00  0.00     0.031 C 
ATOM     59  C   UNL A   1      44.024  25.151  30.854  1.00  0.00     0.029 A 
ATOM     60  C   UNL A   1      44.775  26.325  30.821  1.00  0.00     0.049 A 
ATOM     61  H   UNL A   1      45.455  27.348  29.124  1.00  0.00     0.167 HD
ATOM     62  C   UNL A   1      45.822  28.420  31.647  1.00  0.00     0.074 A 
ATOM     63  C   UNL A   1      46.441  28.960  30.448  1.00  0.00     0.031 C 
ATOM     64  C   UNL A   1      45.203  27.227  31.873  1.00  0.00     0.037 A 
BRANCH  51  65
ATOM     65  C   UNL A   1      44.488  26.758  26.379  1.00  0.00     0.058 A 
ATOM     66  C   UNL A   1      44.992  25.626  25.711  1.00  0.00     0.135 A 
ATOM     67  C   UNL A   1      45.157  27.975  26.113  1.00  0.00     0.135 A 
ATOM     68  F   UNL A   1      44.436  24.419  25.900  1.00  0.00    -0.206 F 
ATOM     69  C   UNL A   1      46.123  25.687  24.897  1.00  0.00     0.059 A 
ATOM     70  C   UNL A   1      46.245  28.069  25.257  1.00  0.00     0.059 A 
ATOM     71  F   UNL A   1      44.864  29.115  26.750  1.00  0.00    -0.206 F 
ATOM     72  C   UNL A   1      46.753  26.912  24.696  1.00  0.00     0.060 A 
BRANCH  72  73
ATOM     73  S   UNL A   1      48.292  26.982  23.765  1.00  0.00     0.124 S 
ATOM     74  O   UNL A   1      48.295  25.675  23.118  1.00  0.00    -0.237 OA
ATOM     75  O   UNL A   1      48.071  28.132  22.894  1.00  0.00    -0.237 OA
ATOM     76  O   UNL A   1      49.300  27.175  24.804  1.00  0.00    -0.744 OA
ENDBRANCH  72  73
ENDBRANCH  51  65
BRANCH  52  77
ATOM     77  C   UNL A   1      45.482  33.143  31.865  1.00  0.00     0.058 A 
ATOM     78  C   UNL A   1      45.410  33.999  30.754  1.00  0.00     0.135 A 
ATOM     79  C   UNL A   1      45.938  33.721  33.069  1.00  0.00     0.135 A 
ATOM     80  F   UNL A   1      44.957  33.541  29.579  1.00  0.00    -0.206 F 
ATOM     81  C   UNL A   1      45.740  35.356  30.839  1.00  0.00     0.059 A 
ATOM     82  C   UNL A   1      46.293  35.062  33.173  1.00  0.00     0.059 A 
ATOM     83  F   UNL A   1      45.970  33.016  34.210  1.00  0.00    -0.206 F 
ATOM     84  C   UNL A   1      46.168  35.881  32.059  1.00  0.00     0.060 A 
BRANCH  84  85
ATOM     85  S   UNL A   1      46.447  37.660  32.212  1.00  0.00     0.124 S 
ATOM     86  O   UNL A   1      45.136  38.200  31.870  1.00  0.00    -0.237 OA
ATOM     87  O   UNL A   1      46.847  37.788  33.609  1.00  0.00    -0.237 OA
ATOM     88  O   UNL A   1      47.503  37.922  31.238  1.00  0.00    -0.744 OA
ENDBRANCH  84  85
ENDBRANCH  52  77
BRANCH  64  89
ATOM     89  C   UNL A   1      44.770  26.922  33.276  1.00  0.00     0.058 A 
ATOM     90  C   UNL A   1      43.521  27.266  33.815  1.00  0.00     0.135 A 
ATOM     91  C   UNL A   1      45.631  26.152  34.074  1.00  0.00     0.135 A 
ATOM     92  F   UNL A   1      42.615  27.930  33.083  1.00  0.00    -0.206 F 
ATOM     93  C   UNL A   1      43.155  26.883  35.107  1.00  0.00     0.059 A 
ATOM     94  C   UNL A   1      45.276  25.736  35.352  1.00  0.00     0.059 A 
ATOM     95  F   UNL A   1      46.819  25.752  33.591  1.00  0.00    -0.206 F 
ATOM     96  C   UNL A   1      44.039  26.114  35.867  1.00  0.00     0.060 A 
BRANCH  96  97
ATOM     97  S   UNL A   1      43.527  25.538  37.500  1.00  0.00     0.124 S 
ATOM     98  O   UNL A   1      42.176  25.048  37.244  1.00  0.00    -0.237 OA
ATOM     99  O   UNL A   1      44.525  24.518  37.806  1.00  0.00    -0.237 OA
ATOM    100  O   UNL A   1      43.609  26.741  38.326  1.00  0.00    -0.744 OA
ENDBRANCH  96  97
ENDBRANCH  64  89
ENDBRANCH  38  39
ENDBRANCH  31  33
ENDBRANCH  30  31
ENDBRANCH  29  30
ENDBRANCH  28  29
ENDBRANCH  27  28
ENDBRANCH  26  27
ENDBRANCH  25  26
ENDBRANCH  24  25
ENDBRANCH   1  24
TORSDOF 28
ENDMDL
MODEL 2
REMARK VINA RESULT:      -7.8      3.474      6.912
REMARK SMILES CCCCNC(=O)c1cnn([C@@H](C)C(=O)OCCOCCOCCOCCOC(=O)c2ccc(-c3c4nc(c(-c5c(F)cc(S(=O)(=O)[O-])cc5F)c5ccc([nH]5)c(-c5c(F)cc(S(=O)(=O)[O-])cc5F)c5nc(c(-c6c(F)cc(S(=O)(=O)[O-])cc6F)c6ccc3[nH]6)C=C5)C=C4)cc2)c1
REMARK SMILES IDX 21 1 20 2 19 3 18 4 17 5 16 6 14 7 15 8 12 9 13 10 11 11
REMARK SMILES IDX 8 12 9 13 97 14 10 15 6 16 5 17 7 19 4 20 3 21 2 22 1 23
REMARK SMILES IDX 22 24 23 25 24 26 25 27 26 28 27 29 28 30 29 31 30 32 31 33
REMARK SMILES IDX 32 34 96 35 33 36 95 37 34 38 35 39 36 40 89 41 37 42 94 43
REMARK SMILES IDX 88 44 90 45 38 46 93 47 87 48 86 49 39 51 73 52 52 53 72 54
REMARK SMILES IDX 53 55 56 56 71 57 91 58 54 59 55 60 70 62 92 63 57 64 40 65
REMARK SMILES IDX 41 66 50 67 42 68 43 69 49 70 51 71 44 72 45 73 46 74 47 75
REMARK SMILES IDX 48 76 74 77 75 78 84 79 76 80 77 81 83 82 85 83 78 84 79 85
REMARK SMILES IDX 80 86 81 87 82 88 58 89 59 90 68 91 60 92 61 93 67 94 69 95
REMARK SMILES IDX 62 96 63 97 64 98 65 99 66 100
REMARK H PARENT 5 18 90 50 56 61
REMARK Flexibility Score: inf
ROOT
ATOM      1  C   UNL A   1      33.066  35.676  29.081  1.00  0.00     0.188 C 
ENDROOT
BRANCH   1   2
ATOM      2  C   UNL A   1      34.043  34.602  28.556  1.00  0.00     0.188 C 
BRANCH   2   3
ATOM      3  O   UNL A   1      33.594  33.372  27.992  1.00  0.00    -0.376 OA
BRANCH   3   4
ATOM      4  C   UNL A   1      34.216  32.153  28.361  1.00  0.00     0.202 C 
BRANCH   4   5
ATOM      5  C   UNL A   1      34.420  31.105  27.261  1.00  0.00     0.261 C 
BRANCH   5   6
ATOM      6  O   UNL A   1      33.967  29.775  27.573  1.00  0.00    -0.462 OA
BRANCH   6   7
ATOM      7  C   UNL A   1      32.892  29.324  26.886  1.00  0.00     0.330 C 
ATOM      8  O   UNL A   1      31.734  29.425  27.292  1.00  0.00    -0.250 OA
BRANCH   7   9
ATOM      9  C   UNL A   1      33.180  28.622  25.572  1.00  0.00     0.213 C 
ATOM     10  C   UNL A   1      32.364  29.266  24.460  1.00  0.00     0.046 C 
BRANCH   9  11
ATOM     11  N   UNL A   1      33.067  27.164  25.533  1.00  0.00    -0.258 N 
ATOM     12  C   UNL A   1      32.633  25.071  26.122  1.00  0.00     0.077 A 
ATOM     13  C   UNL A   1      33.465  25.163  24.984  1.00  0.00     0.149 A 
ATOM     14  C   UNL A   1      32.373  26.394  26.433  1.00  0.00     0.123 A 
ATOM     15  N   UNL A   1      33.802  26.421  24.683  1.00  0.00    -0.180 NA
BRANCH  12  16
ATOM     16  C   UNL A   1      32.074  23.918  26.803  1.00  0.00     0.254 C 
ATOM     17  N   UNL A   1      32.879  22.851  27.116  1.00  0.00    -0.352 N 
ATOM     18  H   UNL A   1      32.403  22.042  27.410  1.00  0.00     0.163 HD
ATOM     19  O   UNL A   1      30.891  23.888  27.138  1.00  0.00    -0.269 OA
BRANCH  17  20
ATOM     20  C   UNL A   1      34.328  22.732  27.078  1.00  0.00     0.116 C 
BRANCH  20  21
ATOM     21  C   UNL A   1      34.785  21.527  26.255  1.00  0.00     0.021 C 
BRANCH  21  22
ATOM     22  C   UNL A   1      34.194  21.442  24.846  1.00  0.00    -0.002 C 
ATOM     23  C   UNL A   1      33.311  20.220  24.634  1.00  0.00     0.004 C 
ENDBRANCH  21  22
ENDBRANCH  20  21
ENDBRANCH  17  20
ENDBRANCH  12  16
ENDBRANCH   9  11
ENDBRANCH   7   9
ENDBRANCH   6   7
ENDBRANCH   5   6
ENDBRANCH   4   5
ENDBRANCH   3   4
ENDBRANCH   2   3
ENDBRANCH   1   2
BRANCH   1  24
ATOM     24  O   UNL A   1      33.436  36.307  30.293  1.00  0.00    -0.377 OA
BRANCH  24  25
ATOM     25  C   UNL A   1      33.071  35.597  31.466  1.00  0.00     0.188 C 
BRANCH  25  26
ATOM     26  C   UNL A   1      34.212  34.791  32.111  1.00  0.00     0.188 C 
BRANCH  26  27
ATOM     27  O   UNL A   1      34.095  33.376  31.930  1.00  0.00    -0.376 OA
BRANCH  27  28
ATOM     28  C   UNL A   1      35.288  32.623  31.743  1.00  0.00     0.202 C 
BRANCH  28  29
ATOM     29  C   UNL A   1      36.008  32.272  33.047  1.00  0.00     0.261 C 
BRANCH  29  30
ATOM     30  O   UNL A   1      36.794  31.091  32.961  1.00  0.00    -0.460 OA
BRANCH  30  31
ATOM     31  C   UNL A   1      37.862  31.028  33.770  1.00  0.00     0.338 C 
ATOM     32  O   UNL A   1      37.861  30.886  34.993  1.00  0.00    -0.246 OA
BRANCH  31  33
ATOM     33  C   UNL A   1      39.077  31.200  32.982  1.00  0.00     0.060 A 
ATOM     34  C   UNL A   1      39.105  30.553  31.745  1.00  0.00     0.016 A 
ATOM     35  C   UNL A   1      40.232  31.697  33.605  1.00  0.00     0.016 A 
ATOM     36  C   UNL A   1      40.321  30.121  31.281  1.00  0.00     0.010 A 
ATOM     37  C   UNL A   1      41.444  31.252  33.149  1.00  0.00     0.010 A 
ATOM     38  C   UNL A   1      41.445  30.370  32.069  1.00  0.00    -0.014 A 
BRANCH  38  39
ATOM     39  C   UNL A   1      42.612  29.552  31.829  1.00  0.00     0.031 A 
ATOM     40  C   UNL A   1      43.639  30.201  31.006  1.00  0.00     0.074 A 
ATOM     41  C   UNL A   1      42.731  28.353  32.431  1.00  0.00     0.049 A 
ATOM     42  N   UNL A   1      44.035  29.878  29.822  1.00  0.00    -0.248 NA
ATOM     43  C   UNL A   1      44.188  31.471  31.509  1.00  0.00     0.031 C 
ATOM     44  C   UNL A   1      41.885  27.837  33.517  1.00  0.00     0.029 A 
ATOM     45  N   UNL A   1      43.697  27.402  32.308  1.00  0.00    -0.354 N 
ATOM     46  C   UNL A   1      45.076  30.757  29.553  1.00  0.00     0.074 A 
ATOM     47  C   UNL A   1      44.959  31.842  30.488  1.00  0.00     0.031 C 
ATOM     48  C   UNL A   1      42.504  26.789  34.098  1.00  0.00     0.029 A 
ATOM     49  C   UNL A   1      43.716  26.490  33.353  1.00  0.00     0.049 A 
ATOM     50  H   UNL A   1      44.324  27.366  31.550  1.00  0.00     0.167 HD
ATOM     51  C   UNL A   1      46.152  30.355  28.828  1.00  0.00     0.037 A 
ATOM     52  C   UNL A   1      44.704  25.610  33.642  1.00  0.00     0.037 A 
ATOM     53  C   UNL A   1      45.881  29.143  28.101  1.00  0.00     0.049 A 
ATOM     54  C   UNL A   1      45.526  25.420  32.421  1.00  0.00     0.074 A 
ATOM     55  C   UNL A   1      45.129  28.796  27.001  1.00  0.00     0.029 A 
ATOM     56  N   UNL A   1      46.200  27.984  28.762  1.00  0.00    -0.354 N 
ATOM     57  N   UNL A   1      45.083  24.877  31.318  1.00  0.00    -0.248 NA
ATOM     58  C   UNL A   1      46.789  26.141  32.288  1.00  0.00     0.031 C 
ATOM     59  C   UNL A   1      44.858  27.404  27.122  1.00  0.00     0.029 A 
ATOM     60  C   UNL A   1      45.447  26.936  28.297  1.00  0.00     0.049 A 
ATOM     61  H   UNL A   1      46.877  27.914  29.473  1.00  0.00     0.167 HD
ATOM     62  C   UNL A   1      45.777  25.517  30.308  1.00  0.00     0.074 A 
ATOM     63  C   UNL A   1      46.914  26.148  30.958  1.00  0.00     0.031 C 
ATOM     64  C   UNL A   1      45.197  25.754  29.098  1.00  0.00     0.037 A 
BRANCH  51  65
ATOM     65  C   UNL A   1      47.567  30.782  29.138  1.00  0.00     0.058 A 
ATOM     66  C   UNL A   1      48.343  31.349  28.109  1.00  0.00     0.135 A 
ATOM     67  C   UNL A   1      48.277  30.387  30.296  1.00  0.00     0.135 A 
ATOM     68  F   UNL A   1      47.770  31.750  26.964  1.00  0.00    -0.206 F 
ATOM     69  C   UNL A   1      49.732  31.447  28.195  1.00  0.00     0.059 A 
ATOM     70  C   UNL A   1      49.651  30.535  30.427  1.00  0.00     0.059 A 
ATOM     71  F   UNL A   1      47.698  29.740  31.313  1.00  0.00    -0.206 F 
ATOM     72  C   UNL A   1      50.376  31.016  29.352  1.00  0.00     0.060 A 
BRANCH  72  73
ATOM     73  S   UNL A   1      52.174  31.005  29.422  1.00  0.00     0.124 S 
ATOM     74  O   UNL A   1      52.444  29.586  29.618  1.00  0.00    -0.237 OA
ATOM     75  O   UNL A   1      52.534  31.554  28.119  1.00  0.00    -0.237 OA
ATOM     76  O   UNL A   1      52.468  31.868  30.562  1.00  0.00    -0.744 OA
ENDBRANCH  72  73
ENDBRANCH  51  65
BRANCH  52  77
ATOM     77  C   UNL A   1      45.129  25.156  34.990  1.00  0.00     0.058 A 
ATOM     78  C   UNL A   1      45.109  23.797  35.342  1.00  0.00     0.135 A 
ATOM     79  C   UNL A   1      45.793  26.023  35.884  1.00  0.00     0.135 A 
ATOM     80  F   UNL A   1      44.526  22.900  34.534  1.00  0.00    -0.206 F 
ATOM     81  C   UNL A   1      45.738  23.320  36.497  1.00  0.00     0.059 A 
ATOM     82  C   UNL A   1      46.407  25.574  37.050  1.00  0.00     0.059 A 
ATOM     83  F   UNL A   1      45.943  27.326  35.607  1.00  0.00    -0.206 F 
ATOM     84  C   UNL A   1      46.397  24.216  37.338  1.00  0.00     0.060 A 
BRANCH  84  85
ATOM     85  S   UNL A   1      47.340  23.587  38.745  1.00  0.00     0.124 S 
ATOM     86  O   UNL A   1      47.006  24.551  39.787  1.00  0.00    -0.237 OA
ATOM     87  O   UNL A   1      46.787  22.248  38.910  1.00  0.00    -0.237 OA
ATOM     88  O   UNL A   1      48.722  23.633  38.273  1.00  0.00    -0.744 OA
ENDBRANCH  84  85
ENDBRANCH  52  77
BRANCH  64  89
ATOM     89  C   UNL A   1      44.095  24.833  28.663  1.00  0.00     0.058 A 
ATOM     90  C   UNL A   1      42.727  25.085  28.854  1.00  0.00     0.135 A 
ATOM     91  C   UNL A   1      44.448  23.692  27.927  1.00  0.00     0.135 A 
ATOM     92  F   UNL A   1      42.313  26.198  29.476  1.00  0.00    -0.206 F 
ATOM     93  C   UNL A   1      41.751  24.221  28.355  1.00  0.00     0.059 A 
ATOM     94  C   UNL A   1      43.492  22.832  27.397  1.00  0.00     0.059 A 
ATOM     95  F   UNL A   1      45.740  23.428  27.671  1.00  0.00    -0.206 F 
ATOM     96  C   UNL A   1      42.144  23.097  27.624  1.00  0.00     0.060 A 
BRANCH  96  97
ATOM     97  S   UNL A   1      40.880  22.031  26.897  1.00  0.00     0.124 S 
ATOM     98  O   UNL A   1      40.667  21.045  27.951  1.00  0.00    -0.237 OA
ATOM     99  O   UNL A   1      39.777  22.959  26.663  1.00  0.00    -0.237 OA
ATOM    100  O   UNL A   1      41.519  21.523  25.685  1.00  0.00    -0.744 OA
ENDBRANCH  96  97
ENDBRANCH  64  89
ENDBRANCH  38  39
ENDBRANCH  31  33
ENDBRANCH  30  31
ENDBRANCH  29  30
ENDBRANCH  28  29
ENDBRANCH  27  28
ENDBRANCH  26  27
ENDBRANCH  25  26
ENDBRANCH  24  25
ENDBRANCH   1  24
TORSDOF 28
ENDMDL
MODEL 3
REMARK VINA RESULT:      -7.7      4.548      8.708
REMARK SMILES CCCCNC(=O)c1cnn([C@@H](C)C(=O)OCCOCCOCCOCCOC(=O)c2ccc(-c3c4nc(c(-c5c(F)cc(S(=O)(=O)[O-])cc5F)c5ccc([nH]5)c(-c5c(F)cc(S(=O)(=O)[O-])cc5F)c5nc(c(-c6c(F)cc(S(=O)(=O)[O-])cc6F)c6ccc3[nH]6)C=C5)C=C4)cc2)c1
REMARK SMILES IDX 21 1 20 2 19 3 18 4 17 5 16 6 14 7 15 8 12 9 13 10 11 11
REMARK SMILES IDX 8 12 9 13 97 14 10 15 6 16 5 17 7 19 4 20 3 21 2 22 1 23
REMARK SMILES IDX 22 24 23 25 24 26 25 27 26 28 27 29 28 30 29 31 30 32 31 33
REMARK SMILES IDX 32 34 96 35 33 36 95 37 34 38 35 39 36 40 89 41 37 42 94 43
REMARK SMILES IDX 88 44 90 45 38 46 93 47 87 48 86 49 39 51 73 52 52 53 72 54
REMARK SMILES IDX 53 55 56 56 71 57 91 58 54 59 55 60 70 62 92 63 57 64 40 65
REMARK SMILES IDX 41 66 50 67 42 68 43 69 49 70 51 71 44 72 45 73 46 74 47 75
REMARK SMILES IDX 48 76 74 77 75 78 84 79 76 80 77 81 83 82 85 83 78 84 79 85
REMARK SMILES IDX 80 86 81 87 82 88 58 89 59 90 68 91 60 92 61 93 67 94 69 95
REMARK SMILES IDX 62 96 63 97 64 98 65 99 66 100
REMARK H PARENT 5 18 90 50 56 61
REMARK Flexibility Score: inf
ROOT
ATOM      1  C   UNL A   1      37.889  28.956  30.590  1.00  0.00     0.188 C 
ENDROOT
BRANCH   1   2
ATOM      2  C   UNL A   1      39.216  28.896  29.803  1.00  0.00     0.188 C 
BRANCH   2   3
ATOM      3  O   UNL A   1      40.352  28.178  30.279  1.00  0.00    -0.376 OA
BRANCH   3   4
ATOM      4  C   UNL A   1      41.346  27.739  29.369  1.00  0.00     0.202 C 
BRANCH   4   5
ATOM      5  C   UNL A   1      41.301  28.307  27.946  1.00  0.00     0.261 C 
BRANCH   5   6
ATOM      6  O   UNL A   1      40.516  27.558  26.999  1.00  0.00    -0.462 OA
BRANCH   6   7
ATOM      7  C   UNL A   1      40.667  26.214  27.016  1.00  0.00     0.330 C 
ATOM      8  O   UNL A   1      39.764  25.432  27.314  1.00  0.00    -0.250 OA
BRANCH   7   9
ATOM      9  C   UNL A   1      42.053  25.689  26.690  1.00  0.00     0.213 C 
ATOM     10  C   UNL A   1      42.410  26.049  25.254  1.00  0.00     0.046 C 
BRANCH   9  11
ATOM     11  N   UNL A   1      42.336  24.280  26.965  1.00  0.00    -0.258 N 
ATOM     12  C   UNL A   1      42.347  22.068  26.817  1.00  0.00     0.077 A 
ATOM     13  C   UNL A   1      42.845  22.541  28.051  1.00  0.00     0.149 A 
ATOM     14  C   UNL A   1      42.053  23.231  26.127  1.00  0.00     0.123 A 
ATOM     15  N   UNL A   1      42.753  23.868  28.179  1.00  0.00    -0.180 NA
BRANCH  12  16
ATOM     16  C   UNL A   1      42.225  20.721  26.291  1.00  0.00     0.254 C 
ATOM     17  N   UNL A   1      43.136  20.259  25.375  1.00  0.00    -0.352 N 
ATOM     18  H   UNL A   1      42.892  19.415  24.933  1.00  0.00     0.163 HD
ATOM     19  O   UNL A   1      41.332  19.966  26.674  1.00  0.00    -0.269 OA
BRANCH  17  20
ATOM     20  C   UNL A   1      44.408  20.826  24.957  1.00  0.00     0.116 C 
BRANCH  20  21
ATOM     21  C   UNL A   1      45.269  19.812  24.201  1.00  0.00     0.021 C 
BRANCH  21  22
ATOM     22  C   UNL A   1      45.517  18.494  24.938  1.00  0.00    -0.002 C 
ATOM     23  C   UNL A   1      46.786  18.500  25.779  1.00  0.00     0.004 C 
ENDBRANCH  21  22
ENDBRANCH  20  21
ENDBRANCH  17  20
ENDBRANCH  12  16
ENDBRANCH   9  11
ENDBRANCH   7   9
ENDBRANCH   6   7
ENDBRANCH   5   6
ENDBRANCH   4   5
ENDBRANCH   3   4
ENDBRANCH   2   3
ENDBRANCH   1   2
BRANCH   1  24
ATOM     24  O   UNL A   1      36.755  29.380  29.856  1.00  0.00    -0.377 OA
BRANCH  24  25
ATOM     25  C   UNL A   1      36.885  29.268  28.448  1.00  0.00     0.188 C 
BRANCH  25  26
ATOM     26  C   UNL A   1      36.569  30.556  27.667  1.00  0.00     0.188 C 
BRANCH  26  27
ATOM     27  O   UNL A   1      36.658  31.746  28.455  1.00  0.00    -0.376 OA
BRANCH  27  28
ATOM     28  C   UNL A   1      35.943  32.896  28.016  1.00  0.00     0.202 C 
BRANCH  28  29
ATOM     29  C   UNL A   1      34.424  32.767  28.147  1.00  0.00     0.261 C 
BRANCH  29  30
ATOM     30  O   UNL A   1      33.988  32.510  29.475  1.00  0.00    -0.460 OA
BRANCH  30  31
ATOM     31  C   UNL A   1      33.952  33.564  30.304  1.00  0.00     0.338 C 
ATOM     32  O   UNL A   1      33.380  34.637  30.117  1.00  0.00    -0.246 OA
BRANCH  31  33
ATOM     33  C   UNL A   1      34.750  33.274  31.490  1.00  0.00     0.060 A 
ATOM     34  C   UNL A   1      35.079  34.368  32.293  1.00  0.00     0.016 A 
ATOM     35  C   UNL A   1      35.403  32.036  31.590  1.00  0.00     0.016 A 
ATOM     36  C   UNL A   1      36.269  34.323  32.972  1.00  0.00     0.010 A 
ATOM     37  C   UNL A   1      36.598  31.997  32.257  1.00  0.00     0.010 A 
ATOM     38  C   UNL A   1      37.061  33.183  32.825  1.00  0.00    -0.014 A 
BRANCH  38  39
ATOM     39  C   UNL A   1      38.463  33.309  33.148  1.00  0.00     0.031 A 
ATOM     40  C   UNL A   1      39.320  33.594  31.992  1.00  0.00     0.074 A 
ATOM     41  C   UNL A   1      38.866  33.270  34.433  1.00  0.00     0.049 A 
ATOM     42  N   UNL A   1      40.229  32.846  31.467  1.00  0.00    -0.248 NA
ATOM     43  C   UNL A   1      39.017  34.815  31.226  1.00  0.00     0.031 C 
ATOM     44  C   UNL A   1      37.999  33.329  35.619  1.00  0.00     0.029 A 
ATOM     45  N   UNL A   1      40.121  33.307  34.960  1.00  0.00    -0.354 N 
ATOM     46  C   UNL A   1      40.788  33.628  30.466  1.00  0.00     0.074 A 
ATOM     47  C   UNL A   1      39.862  34.695  30.204  1.00  0.00     0.031 C 
ATOM     48  C   UNL A   1      38.751  33.622  36.700  1.00  0.00     0.029 A 
ATOM     49  C   UNL A   1      40.149  33.649  36.305  1.00  0.00     0.049 A 
ATOM     50  H   UNL A   1      40.931  33.112  34.436  1.00  0.00     0.167 HD
ATOM     51  C   UNL A   1      42.114  33.547  30.183  1.00  0.00     0.037 A 
ATOM     52  C   UNL A   1      41.236  34.018  37.023  1.00  0.00     0.037 A 
ATOM     53  C   UNL A   1      42.703  32.352  30.727  1.00  0.00     0.049 A 
ATOM     54  C   UNL A   1      42.447  33.540  36.309  1.00  0.00     0.074 A 
ATOM     55  C   UNL A   1      42.655  31.006  30.438  1.00  0.00     0.029 A 
ATOM     56  N   UNL A   1      43.229  32.484  31.987  1.00  0.00    -0.354 N 
ATOM     57  N   UNL A   1      42.740  32.280  36.129  1.00  0.00    -0.248 NA
ATOM     58  C   UNL A   1      43.206  34.473  35.482  1.00  0.00     0.031 C 
ATOM     59  C   UNL A   1      43.006  30.326  31.639  1.00  0.00     0.029 A 
ATOM     60  C   UNL A   1      43.254  31.274  32.632  1.00  0.00     0.049 A 
ATOM     61  H   UNL A   1      43.545  33.331  32.375  1.00  0.00     0.167 HD
ATOM     62  C   UNL A   1      43.398  32.243  34.914  1.00  0.00     0.074 A 
ATOM     63  C   UNL A   1      43.802  33.615  34.651  1.00  0.00     0.031 C 
ATOM     64  C   UNL A   1      43.274  31.173  34.078  1.00  0.00     0.037 A 
BRANCH  51  65
ATOM     65  C   UNL A   1      42.962  34.747  29.831  1.00  0.00     0.058 A 
ATOM     66  C   UNL A   1      43.664  34.745  28.611  1.00  0.00     0.135 A 
ATOM     67  C   UNL A   1      43.346  35.744  30.758  1.00  0.00     0.135 A 
ATOM     68  F   UNL A   1      43.385  33.835  27.665  1.00  0.00    -0.206 F 
ATOM     69  C   UNL A   1      44.721  35.620  28.362  1.00  0.00     0.059 A 
ATOM     70  C   UNL A   1      44.351  36.665  30.504  1.00  0.00     0.059 A 
ATOM     71  F   UNL A   1      42.846  35.809  31.997  1.00  0.00    -0.206 F 
ATOM     72  C   UNL A   1      45.069  36.562  29.326  1.00  0.00     0.060 A 
BRANCH  72  73
ATOM     73  S   UNL A   1      46.517  37.602  29.078  1.00  0.00     0.124 S 
ATOM     74  O   UNL A   1      46.155  38.785  29.849  1.00  0.00    -0.237 OA
ATOM     75  O   UNL A   1      47.585  36.775  29.630  1.00  0.00    -0.237 OA
ATOM     76  O   UNL A   1      46.556  37.778  27.629  1.00  0.00    -0.744 OA
ENDBRANCH  72  73
ENDBRANCH  51  65
BRANCH  52  77
ATOM     77  C   UNL A   1      41.279  35.001  38.135  1.00  0.00     0.058 A 
ATOM     78  C   UNL A   1      41.123  36.376  37.900  1.00  0.00     0.135 A 
ATOM     79  C   UNL A   1      41.235  34.589  39.484  1.00  0.00     0.135 A 
ATOM     80  F   UNL A   1      41.121  36.850  36.646  1.00  0.00    -0.206 F 
ATOM     81  C   UNL A   1      40.904  37.286  38.940  1.00  0.00     0.059 A 
ATOM     82  C   UNL A   1      41.040  35.478  40.536  1.00  0.00     0.059 A 
ATOM     83  F   UNL A   1      41.292  33.291  39.817  1.00  0.00    -0.206 F 
ATOM     84  C   UNL A   1      40.851  36.824  40.255  1.00  0.00     0.060 A 
BRANCH  84  85
ATOM     85  S   UNL A   1      40.416  37.969  41.583  1.00  0.00     0.124 S 
ATOM     86  O   UNL A   1      39.178  38.555  41.082  1.00  0.00    -0.237 OA
ATOM     87  O   UNL A   1      40.283  37.075  42.728  1.00  0.00    -0.237 OA
ATOM     88  O   UNL A   1      41.558  38.878  41.635  1.00  0.00    -0.744 OA
ENDBRANCH  84  85
ENDBRANCH  52  77
BRANCH  64  89
ATOM     89  C   UNL A   1      42.947  29.845  34.693  1.00  0.00     0.058 A 
ATOM     90  C   UNL A   1      43.892  28.980  35.266  1.00  0.00     0.135 A 
ATOM     91  C   UNL A   1      41.594  29.486  34.794  1.00  0.00     0.135 A 
ATOM     92  F   UNL A   1      45.194  29.297  35.280  1.00  0.00    -0.206 F 
ATOM     93  C   UNL A   1      43.508  27.792  35.890  1.00  0.00     0.059 A 
ATOM     94  C   UNL A   1      41.186  28.322  35.436  1.00  0.00     0.059 A 
ATOM     95  F   UNL A   1      40.643  30.301  34.307  1.00  0.00    -0.206 F 
ATOM     96  C   UNL A   1      42.150  27.473  35.973  1.00  0.00     0.060 A 
BRANCH  96  97
ATOM     97  S   UNL A   1      41.647  25.985  36.864  1.00  0.00     0.124 S 
ATOM     98  O   UNL A   1      42.831  25.689  37.663  1.00  0.00    -0.237 OA
ATOM     99  O   UNL A   1      40.475  26.440  37.608  1.00  0.00    -0.237 OA
ATOM    100  O   UNL A   1      41.359  25.030  35.796  1.00  0.00    -0.744 OA
ENDBRANCH  96  97
ENDBRANCH  64  89
ENDBRANCH  38  39
ENDBRANCH  31  33
ENDBRANCH  30  31
ENDBRANCH  29  30
ENDBRANCH  28  29
ENDBRANCH  27  28
ENDBRANCH  26  27
ENDBRANCH  25  26
ENDBRANCH  24  25
ENDBRANCH   1  24
TORSDOF 28
ENDMDL
