MODEL 1
REMARK VINA RESULT:      -8.9      0.000      0.000
REMARK SMILES Cc1cc(C)n(C)c(=O)c1C(=O)[NH+]1CCC2(CC1)C[NH2+][C@@H](C(=O)OCCOCCOCCOCCOC(=O)c1ccc(-c3c4nc(c(-c5c(F)cc(S(=O)(=O)[O-])cc5F)c5ccc([nH]5)c(-c5c(F)cc(S(=O)(=O)[O-])cc5F)c5nc(c(-c6c(F)cc(S(=O)(=O)[O-])cc6F)c6ccc3[nH]6)C=C5)C=C4)cc1)C2
REMARK SMILES IDX 31 1 30 2 29 3 28 4 27 5 26 6 25 7 24 8 22 9 23 10 21 11
REMARK SMILES IDX 13 12 14 13 18 14 15 16 17 17 16 18 19 19 105 20 20 21 11 24
REMARK SMILES IDX 12 25 10 26 1 27 2 28 3 29 4 30 8 31 5 32 6 33 9 34 7 35
REMARK SMILES IDX 32 36 33 37 34 38 35 39 36 40 37 41 38 42 39 43 40 44 104 45
REMARK SMILES IDX 41 46 103 47 42 48 43 49 44 50 97 51 45 52 102 53 96 54
REMARK SMILES IDX 98 55 46 56 101 57 95 58 94 59 47 61 81 62 60 63 80 64 61 65
REMARK SMILES IDX 64 66 79 67 99 68 62 69 63 70 78 72 100 73 65 74 48 75 49 76
REMARK SMILES IDX 58 77 50 78 51 79 57 80 59 81 52 82 53 83 54 84 55 85 56 86
REMARK SMILES IDX 82 87 83 88 92 89 84 90 85 91 91 92 93 93 86 94 87 95 88 96
REMARK SMILES IDX 89 97 90 98 66 99 67 100 76 101 68 102 69 103 75 104 77 105
REMARK SMILES IDX 70 106 71 107 72 108 73 109 74 110
REMARK H PARENT 13 15 20 22 20 23 98 60 64 71
REMARK Flexibility Score: inf
ROOT
ATOM      1  C   UNL A   1      36.462  23.172  24.818  1.00  0.00     0.188 C 
ENDROOT
BRANCH   1   2
ATOM      2  O   UNL A   1      36.020  21.982  24.181  1.00  0.00    -0.377 OA
BRANCH   2   3
ATOM      3  C   UNL A   1      35.396  21.049  25.029  1.00  0.00     0.188 C 
BRANCH   3   4
ATOM      4  C   UNL A   1      33.894  20.860  24.773  1.00  0.00     0.188 C 
BRANCH   4   5
ATOM      5  O   UNL A   1      32.962  21.898  25.062  1.00  0.00    -0.376 OA
BRANCH   5   6
ATOM      6  C   UNL A   1      32.274  22.570  24.012  1.00  0.00     0.202 C 
BRANCH   6   7
ATOM      7  C   UNL A   1      31.356  23.767  24.309  1.00  0.00     0.261 C 
BRANCH   7   8
ATOM      8  O   UNL A   1      32.028  25.025  24.456  1.00  0.00    -0.459 OA
BRANCH   8   9
ATOM      9  C   UNL A   1      31.314  26.032  25.017  1.00  0.00     0.364 C 
ATOM     10  O   UNL A   1      30.164  26.335  24.711  1.00  0.00    -0.245 OA
BRANCH   9  11
ATOM     11  C   UNL A   1      32.079  26.764  26.125  1.00  0.00     0.294 C 
ATOM     12  N   UNL A   1      34.661  31.186  27.353  1.00  0.00    -0.267 N 
ATOM     13  C   UNL A   1      35.242  29.905  26.986  1.00  0.00     0.271 C 
ATOM     14  C   UNL A   1      33.372  31.444  26.721  1.00  0.00     0.271 C 
ATOM     15  H   UNL A   1      35.403  30.590  27.606  1.00  0.00     0.357 HD
ATOM     16  C   UNL A   1      34.380  28.809  27.603  1.00  0.00     0.075 C 
ATOM     17  C   UNL A   1      32.350  30.307  26.936  1.00  0.00     0.075 C 
ATOM     18  C   UNL A   1      32.908  28.854  27.114  1.00  0.00     0.036 C 
ATOM     19  C   UNL A   1      32.017  28.016  28.069  1.00  0.00     0.268 C 
ATOM     20  C   UNL A   1      32.790  28.067  25.793  1.00  0.00     0.090 C 
ATOM     21  N   UNL A   1      31.182  27.187  27.208  1.00  0.00    -0.334 N 
ATOM     22  H   UNL A   1      30.397  27.725  26.838  1.00  0.00     0.347 HD
ATOM     23  H   UNL A   1      30.773  26.395  27.707  1.00  0.00     0.347 HD
BRANCH  12  24
ATOM     24  C   UNL A   1      35.395  32.012  28.201  1.00  0.00     0.350 C 
ATOM     25  O   UNL A   1      36.478  32.477  27.829  1.00  0.00    -0.225 OA
BRANCH  24  26
ATOM     26  C   UNL A   1      34.989  32.241  29.634  1.00  0.00     0.147 A 
ATOM     27  C   UNL A   1      36.566  30.483  30.635  1.00  0.00     0.045 C 
ATOM     28  C   UNL A   1      35.540  31.570  30.671  1.00  0.00    -0.027 A 
ATOM     29  C   UNL A   1      35.277  31.968  32.037  1.00  0.00     0.026 A 
ATOM     30  C   UNL A   1      34.759  33.164  32.334  1.00  0.00     0.018 A 
ATOM     31  C   UNL A   1      34.239  33.520  29.968  1.00  0.00     0.267 A 
ATOM     32  C   UNL A   1      34.691  33.574  33.779  1.00  0.00     0.064 C 
ATOM     33  N   UNL A   1      34.303  33.976  31.303  1.00  0.00    -0.315 N 
ATOM     34  O   UNL A   1      33.631  34.140  29.095  1.00  0.00    -0.268 OA
ATOM     35  C   UNL A   1      33.836  35.327  31.585  1.00  0.00     0.153 C 
ENDBRANCH  24  26
ENDBRANCH  12  24
ENDBRANCH   9  11
ENDBRANCH   8   9
ENDBRANCH   7   8
ENDBRANCH   6   7
ENDBRANCH   5   6
ENDBRANCH   4   5
ENDBRANCH   3   4
ENDBRANCH   2   3
ENDBRANCH   1   2
BRANCH   1  36
ATOM     36  C   UNL A   1      37.643  23.039  25.809  1.00  0.00     0.188 C 
BRANCH  36  37
ATOM     37  O   UNL A   1      37.982  24.236  26.504  1.00  0.00    -0.376 OA
BRANCH  37  38
ATOM     38  C   UNL A   1      39.197  24.279  27.243  1.00  0.00     0.202 C 
BRANCH  38  39
ATOM     39  C   UNL A   1      39.837  25.652  27.534  1.00  0.00     0.261 C 
BRANCH  39  40
ATOM     40  O   UNL A   1      40.642  25.753  28.718  1.00  0.00    -0.460 OA
BRANCH  40  41
ATOM     41  C   UNL A   1      41.982  25.810  28.567  1.00  0.00     0.338 C 
ATOM     42  O   UNL A   1      42.696  24.957  28.067  1.00  0.00    -0.246 OA
BRANCH  41  43
ATOM     43  C   UNL A   1      42.417  27.185  28.894  1.00  0.00     0.060 A 
ATOM     44  C   UNL A   1      43.233  27.380  30.017  1.00  0.00     0.016 A 
ATOM     45  C   UNL A   1      42.043  28.271  28.099  1.00  0.00     0.016 A 
ATOM     46  C   UNL A   1      43.652  28.661  30.370  1.00  0.00     0.010 A 
ATOM     47  C   UNL A   1      42.426  29.563  28.478  1.00  0.00     0.010 A 
ATOM     48  C   UNL A   1      43.198  29.763  29.637  1.00  0.00    -0.014 A 
BRANCH  48  49
ATOM     49  C   UNL A   1      43.295  31.113  30.246  1.00  0.00     0.031 A 
ATOM     50  C   UNL A   1      44.296  32.069  29.653  1.00  0.00     0.074 A 
ATOM     51  C   UNL A   1      42.491  31.504  31.250  1.00  0.00     0.049 A 
ATOM     52  N   UNL A   1      44.609  33.282  30.026  1.00  0.00    -0.248 NA
ATOM     53  C   UNL A   1      45.041  31.591  28.474  1.00  0.00     0.031 C 
ATOM     54  C   UNL A   1      41.438  30.695  31.857  1.00  0.00     0.029 A 
ATOM     55  N   UNL A   1      42.443  32.692  31.937  1.00  0.00    -0.354 N 
ATOM     56  C   UNL A   1      45.586  33.707  29.134  1.00  0.00     0.074 A 
ATOM     57  C   UNL A   1      45.837  32.618  28.219  1.00  0.00     0.031 C 
ATOM     58  C   UNL A   1      40.855  31.406  32.840  1.00  0.00     0.029 A 
ATOM     59  C   UNL A   1      41.517  32.705  32.953  1.00  0.00     0.049 A 
ATOM     60  H   UNL A   1      43.017  33.462  31.722  1.00  0.00     0.167 HD
ATOM     61  C   UNL A   1      46.215  34.904  29.079  1.00  0.00     0.037 A 
ATOM     62  C   UNL A   1      41.258  33.649  33.882  1.00  0.00     0.037 A 
ATOM     63  C   UNL A   1      45.962  35.985  29.992  1.00  0.00     0.049 A 
ATOM     64  C   UNL A   1      42.040  34.941  33.859  1.00  0.00     0.074 A 
ATOM     65  C   UNL A   1      46.545  37.239  30.018  1.00  0.00     0.029 A 
ATOM     66  N   UNL A   1      45.059  35.940  31.042  1.00  0.00    -0.354 N 
ATOM     67  N   UNL A   1      42.962  35.334  33.012  1.00  0.00    -0.248 NA
ATOM     68  C   UNL A   1      41.748  35.916  34.920  1.00  0.00     0.031 C 
ATOM     69  C   UNL A   1      46.036  37.932  31.120  1.00  0.00     0.029 A 
ATOM     70  C   UNL A   1      45.091  37.133  31.744  1.00  0.00     0.049 A 
ATOM     71  H   UNL A   1      44.480  35.174  31.258  1.00  0.00     0.167 HD
ATOM     72  C   UNL A   1      43.347  36.607  33.427  1.00  0.00     0.074 A 
ATOM     73  C   UNL A   1      42.541  36.926  34.588  1.00  0.00     0.031 C 
ATOM     74  C   UNL A   1      44.283  37.434  32.900  1.00  0.00     0.037 A 
BRANCH  61  75
ATOM     75  C   UNL A   1      47.256  35.100  28.014  1.00  0.00     0.058 A 
ATOM     76  C   UNL A   1      46.914  35.483  26.708  1.00  0.00     0.135 A 
ATOM     77  C   UNL A   1      48.619  34.957  28.321  1.00  0.00     0.135 A 
ATOM     78  F   UNL A   1      45.625  35.606  26.353  1.00  0.00    -0.206 F 
ATOM     79  C   UNL A   1      47.888  35.714  25.741  1.00  0.00     0.059 A 
ATOM     80  C   UNL A   1      49.610  35.210  27.378  1.00  0.00     0.059 A 
ATOM     81  F   UNL A   1      48.998  34.580  29.552  1.00  0.00    -0.206 F 
ATOM     82  C   UNL A   1      49.233  35.583  26.089  1.00  0.00     0.060 A 
BRANCH  82  83
ATOM     83  S   UNL A   1      50.482  35.927  24.832  1.00  0.00     0.124 S 
ATOM     84  O   UNL A   1      51.536  36.549  25.628  1.00  0.00    -0.237 OA
ATOM     85  O   UNL A   1      50.778  34.594  24.320  1.00  0.00    -0.237 OA
ATOM     86  O   UNL A   1      49.794  36.817  23.902  1.00  0.00    -0.744 OA
ENDBRANCH  82  83
ENDBRANCH  61  75
BRANCH  62  87
ATOM     87  C   UNL A   1      40.230  33.403  34.932  1.00  0.00     0.058 A 
ATOM     88  C   UNL A   1      38.893  33.785  34.746  1.00  0.00     0.135 A 
ATOM     89  C   UNL A   1      40.567  32.785  36.147  1.00  0.00     0.135 A 
ATOM     90  F   UNL A   1      38.522  34.396  33.611  1.00  0.00    -0.206 F 
ATOM     91  C   UNL A   1      37.930  33.573  35.728  1.00  0.00     0.059 A 
ATOM     92  C   UNL A   1      39.617  32.536  37.133  1.00  0.00     0.059 A 
ATOM     93  F   UNL A   1      41.831  32.398  36.377  1.00  0.00    -0.206 F 
ATOM     94  C   UNL A   1      38.301  32.941  36.917  1.00  0.00     0.060 A 
BRANCH  94  95
ATOM     95  S   UNL A   1      37.030  32.623  38.161  1.00  0.00     0.124 S 
ATOM     96  O   UNL A   1      36.956  31.167  38.143  1.00  0.00    -0.237 OA
ATOM     97  O   UNL A   1      37.619  33.219  39.355  1.00  0.00    -0.237 OA
ATOM     98  O   UNL A   1      35.862  33.320  37.632  1.00  0.00    -0.744 OA
ENDBRANCH  94  95
ENDBRANCH  62  87
BRANCH  74  99
ATOM     99  C   UNL A   1      44.487  38.772  33.559  1.00  0.00     0.058 A 
ATOM    100  C   UNL A   1      43.800  39.918  33.127  1.00  0.00     0.135 A 
ATOM    101  C   UNL A   1      45.326  38.897  34.681  1.00  0.00     0.135 A 
ATOM    102  F   UNL A   1      42.988  39.856  32.062  1.00  0.00    -0.206 F 
ATOM    103  C   UNL A   1      43.958  41.144  33.766  1.00  0.00     0.059 A 
ATOM    104  C   UNL A   1      45.473  40.105  35.354  1.00  0.00     0.059 A 
ATOM    105  F   UNL A   1      45.994  37.830  35.147  1.00  0.00    -0.206 F 
ATOM    106  C   UNL A   1      44.794  41.227  34.881  1.00  0.00     0.060 A 
BRANCH 106 107
ATOM    107  S   UNL A   1      44.967  42.821  35.711  1.00  0.00     0.124 S 
ATOM    108  O   UNL A   1      44.264  42.575  36.967  1.00  0.00    -0.237 OA
ATOM    109  O   UNL A   1      46.417  42.962  35.813  1.00  0.00    -0.237 OA
ATOM    110  O   UNL A   1      44.314  43.754  34.799  1.00  0.00    -0.744 OA
ENDBRANCH 106 107
ENDBRANCH  74  99
ENDBRANCH  48  49
ENDBRANCH  41  43
ENDBRANCH  40  41
ENDBRANCH  39  40
ENDBRANCH  38  39
ENDBRANCH  37  38
ENDBRANCH  36  37
ENDBRANCH   1  36
TORSDOF 25
ENDMDL
MODEL 2
REMARK VINA RESULT:      -8.6      3.743      9.161
REMARK SMILES Cc1cc(C)n(C)c(=O)c1C(=O)[NH+]1CCC2(CC1)C[NH2+][C@@H](C(=O)OCCOCCOCCOCCOC(=O)c1ccc(-c3c4nc(c(-c5c(F)cc(S(=O)(=O)[O-])cc5F)c5ccc([nH]5)c(-c5c(F)cc(S(=O)(=O)[O-])cc5F)c5nc(c(-c6c(F)cc(S(=O)(=O)[O-])cc6F)c6ccc3[nH]6)C=C5)C=C4)cc1)C2
REMARK SMILES IDX 31 1 30 2 29 3 28 4 27 5 26 6 25 7 24 8 22 9 23 10 21 11
REMARK SMILES IDX 13 12 14 13 18 14 15 16 17 17 16 18 19 19 105 20 20 21 11 24
REMARK SMILES IDX 12 25 10 26 1 27 2 28 3 29 4 30 8 31 5 32 6 33 9 34 7 35
REMARK SMILES IDX 32 36 33 37 34 38 35 39 36 40 37 41 38 42 39 43 40 44 104 45
REMARK SMILES IDX 41 46 103 47 42 48 43 49 44 50 97 51 45 52 102 53 96 54
REMARK SMILES IDX 98 55 46 56 101 57 95 58 94 59 47 61 81 62 60 63 80 64 61 65
REMARK SMILES IDX 64 66 79 67 99 68 62 69 63 70 78 72 100 73 65 74 48 75 49 76
REMARK SMILES IDX 58 77 50 78 51 79 57 80 59 81 52 82 53 83 54 84 55 85 56 86
REMARK SMILES IDX 82 87 83 88 92 89 84 90 85 91 91 92 93 93 86 94 87 95 88 96
REMARK SMILES IDX 89 97 90 98 66 99 67 100 76 101 68 102 69 103 75 104 77 105
REMARK SMILES IDX 70 106 71 107 72 108 73 109 74 110
REMARK H PARENT 13 15 20 22 20 23 98 60 64 71
REMARK Flexibility Score: inf
ROOT
ATOM      1  C   UNL A   1      33.559  30.465  27.030  1.00  0.00     0.188 C 
ENDROOT
BRANCH   1   2
ATOM      2  O   UNL A   1      33.979  29.274  26.380  1.00  0.00    -0.377 OA
BRANCH   2   3
ATOM      3  C   UNL A   1      33.046  28.724  25.482  1.00  0.00     0.188 C 
BRANCH   3   4
ATOM      4  C   UNL A   1      33.577  27.543  24.657  1.00  0.00     0.188 C 
BRANCH   4   5
ATOM      5  O   UNL A   1      33.113  27.303  23.332  1.00  0.00    -0.376 OA
BRANCH   5   6
ATOM      6  C   UNL A   1      32.247  26.208  23.053  1.00  0.00     0.202 C 
BRANCH   6   7
ATOM      7  C   UNL A   1      32.813  24.802  22.791  1.00  0.00     0.261 C 
BRANCH   7   8
ATOM      8  O   UNL A   1      32.508  23.828  23.797  1.00  0.00    -0.459 OA
BRANCH   8   9
ATOM      9  C   UNL A   1      32.819  22.540  23.508  1.00  0.00     0.364 C 
ATOM     10  O   UNL A   1      32.334  21.887  22.588  1.00  0.00    -0.245 OA
BRANCH   9  11
ATOM     11  C   UNL A   1      33.887  21.957  24.441  1.00  0.00     0.294 C 
ATOM     12  N   UNL A   1      38.958  22.207  25.838  1.00  0.00    -0.267 N 
ATOM     13  C   UNL A   1      38.335  21.222  24.968  1.00  0.00     0.271 C 
ATOM     14  C   UNL A   1      38.325  23.520  25.777  1.00  0.00     0.271 C 
ATOM     15  H   UNL A   1      38.976  21.240  25.654  1.00  0.00     0.357 HD
ATOM     16  C   UNL A   1      36.952  20.915  25.529  1.00  0.00     0.075 C 
ATOM     17  C   UNL A   1      36.801  23.473  26.019  1.00  0.00     0.075 C 
ATOM     18  C   UNL A   1      36.041  22.169  25.603  1.00  0.00     0.036 C 
ATOM     19  C   UNL A   1      34.842  21.885  26.547  1.00  0.00     0.268 C 
ATOM     20  C   UNL A   1      35.339  22.365  24.244  1.00  0.00     0.090 C 
ATOM     21  N   UNL A   1      33.657  22.354  25.835  1.00  0.00    -0.334 N 
ATOM     22  H   UNL A   1      33.566  23.368  25.913  1.00  0.00     0.347 HD
ATOM     23  H   UNL A   1      32.795  21.961  26.215  1.00  0.00     0.347 HD
BRANCH  12  24
ATOM     24  C   UNL A   1      40.075  21.812  26.571  1.00  0.00     0.350 C 
ATOM     25  O   UNL A   1      40.028  21.781  27.805  1.00  0.00    -0.225 OA
BRANCH  24  26
ATOM     26  C   UNL A   1      41.409  21.566  25.915  1.00  0.00     0.147 A 
ATOM     27  C   UNL A   1      42.264  23.972  26.153  1.00  0.00     0.045 C 
ATOM     28  C   UNL A   1      42.348  22.529  25.771  1.00  0.00    -0.027 A 
ATOM     29  C   UNL A   1      43.686  22.202  25.331  1.00  0.00     0.026 A 
ATOM     30  C   UNL A   1      44.146  20.946  25.350  1.00  0.00     0.018 A 
ATOM     31  C   UNL A   1      41.876  20.127  25.765  1.00  0.00     0.267 A 
ATOM     32  C   UNL A   1      45.602  20.714  25.057  1.00  0.00     0.064 C 
ATOM     33  N   UNL A   1      43.265  19.911  25.635  1.00  0.00    -0.315 N 
ATOM     34  O   UNL A   1      41.069  19.197  25.789  1.00  0.00    -0.268 OA
ATOM     35  C   UNL A   1      43.758  18.546  25.772  1.00  0.00     0.153 C 
ENDBRANCH  24  26
ENDBRANCH  12  24
ENDBRANCH   9  11
ENDBRANCH   8   9
ENDBRANCH   7   8
ENDBRANCH   6   7
ENDBRANCH   5   6
ENDBRANCH   4   5
ENDBRANCH   3   4
ENDBRANCH   2   3
ENDBRANCH   1   2
BRANCH   1  36
ATOM     36  C   UNL A   1      34.648  31.282  27.766  1.00  0.00     0.188 C 
BRANCH  36  37
ATOM     37  O   UNL A   1      34.153  32.243  28.695  1.00  0.00    -0.376 OA
BRANCH  37  38
ATOM     38  C   UNL A   1      34.972  32.620  29.795  1.00  0.00     0.202 C 
BRANCH  38  39
ATOM     39  C   UNL A   1      35.204  31.600  30.928  1.00  0.00     0.261 C 
BRANCH  39  40
ATOM     40  O   UNL A   1      36.360  31.801  31.755  1.00  0.00    -0.460 OA
BRANCH  40  41
ATOM     41  C   UNL A   1      37.153  30.738  32.002  1.00  0.00     0.338 C 
ATOM     42  O   UNL A   1      36.804  29.657  32.447  1.00  0.00    -0.246 OA
BRANCH  41  43
ATOM     43  C   UNL A   1      38.483  31.019  31.419  1.00  0.00     0.060 A 
ATOM     44  C   UNL A   1      39.603  30.981  32.260  1.00  0.00     0.016 A 
ATOM     45  C   UNL A   1      38.633  31.299  30.059  1.00  0.00     0.016 A 
ATOM     46  C   UNL A   1      40.872  31.256  31.755  1.00  0.00     0.010 A 
ATOM     47  C   UNL A   1      39.901  31.619  29.560  1.00  0.00     0.010 A 
ATOM     48  C   UNL A   1      41.017  31.636  30.416  1.00  0.00    -0.014 A 
BRANCH  48  49
ATOM     49  C   UNL A   1      42.267  32.318  29.999  1.00  0.00     0.031 A 
ATOM     50  C   UNL A   1      43.307  31.486  29.295  1.00  0.00     0.074 A 
ATOM     51  C   UNL A   1      42.458  33.636  30.183  1.00  0.00     0.049 A 
ATOM     52  N   UNL A   1      44.496  31.825  28.874  1.00  0.00    -0.248 NA
ATOM     53  C   UNL A   1      42.952  30.081  29.028  1.00  0.00     0.031 C 
ATOM     54  C   UNL A   1      41.498  34.557  30.785  1.00  0.00     0.029 A 
ATOM     55  N   UNL A   1      43.539  34.427  29.878  1.00  0.00    -0.354 N 
ATOM     56  C   UNL A   1      45.030  30.679  28.297  1.00  0.00     0.074 A 
ATOM     57  C   UNL A   1      44.051  29.627  28.446  1.00  0.00     0.031 C 
ATOM     58  C   UNL A   1      42.039  35.789  30.819  1.00  0.00     0.029 A 
ATOM     59  C   UNL A   1      43.395  35.735  30.274  1.00  0.00     0.049 A 
ATOM     60  H   UNL A   1      44.341  34.089  29.418  1.00  0.00     0.167 HD
ATOM     61  C   UNL A   1      46.229  30.519  27.691  1.00  0.00     0.037 A 
ATOM     62  C   UNL A   1      44.271  36.760  30.225  1.00  0.00     0.037 A 
ATOM     63  C   UNL A   1      47.200  31.568  27.545  1.00  0.00     0.049 A 
ATOM     64  C   UNL A   1      45.640  36.534  29.629  1.00  0.00     0.074 A 
ATOM     65  C   UNL A   1      48.443  31.508  26.943  1.00  0.00     0.029 A 
ATOM     66  N   UNL A   1      47.041  32.864  28.010  1.00  0.00    -0.354 N 
ATOM     67  N   UNL A   1      46.135  35.446  29.087  1.00  0.00    -0.248 NA
ATOM     68  C   UNL A   1      46.570  37.672  29.641  1.00  0.00     0.031 C 
ATOM     69  C   UNL A   1      49.061  32.753  27.095  1.00  0.00     0.029 A 
ATOM     70  C   UNL A   1      48.178  33.606  27.737  1.00  0.00     0.049 A 
ATOM     71  H   UNL A   1      46.239  33.208  28.466  1.00  0.00     0.167 HD
ATOM     72  C   UNL A   1      47.426  35.774  28.679  1.00  0.00     0.074 A 
ATOM     73  C   UNL A   1      47.626  37.168  29.017  1.00  0.00     0.031 C 
ATOM     74  C   UNL A   1      48.362  34.994  28.083  1.00  0.00     0.037 A 
BRANCH  61  75
ATOM     75  C   UNL A   1      46.571  29.154  27.163  1.00  0.00     0.058 A 
ATOM     76  C   UNL A   1      46.479  28.846  25.797  1.00  0.00     0.135 A 
ATOM     77  C   UNL A   1      47.050  28.159  28.030  1.00  0.00     0.135 A 
ATOM     78  F   UNL A   1      45.999  29.751  24.929  1.00  0.00    -0.206 F 
ATOM     79  C   UNL A   1      46.847  27.596  25.309  1.00  0.00     0.059 A 
ATOM     80  C   UNL A   1      47.450  26.912  27.561  1.00  0.00     0.059 A 
ATOM     81  F   UNL A   1      47.145  28.399  29.348  1.00  0.00    -0.206 F 
ATOM     82  C   UNL A   1      47.340  26.640  26.198  1.00  0.00     0.060 A 
BRANCH  82  83
ATOM     83  S   UNL A   1      47.851  25.039  25.539  1.00  0.00     0.124 S 
ATOM     84  O   UNL A   1      49.300  25.202  25.463  1.00  0.00    -0.237 OA
ATOM     85  O   UNL A   1      47.370  24.117  26.563  1.00  0.00    -0.237 OA
ATOM     86  O   UNL A   1      47.162  24.963  24.255  1.00  0.00    -0.744 OA
ENDBRANCH  82  83
ENDBRANCH  61  75
BRANCH  62  87
ATOM     87  C   UNL A   1      43.896  38.091  30.779  1.00  0.00     0.058 A 
ATOM     88  C   UNL A   1      44.062  38.387  32.141  1.00  0.00     0.135 A 
ATOM     89  C   UNL A   1      43.355  39.094  29.958  1.00  0.00     0.135 A 
ATOM     90  F   UNL A   1      44.558  37.458  32.973  1.00  0.00    -0.206 F 
ATOM     91  C   UNL A   1      43.700  39.622  32.669  1.00  0.00     0.059 A 
ATOM     92  C   UNL A   1      43.010  40.347  30.457  1.00  0.00     0.059 A 
ATOM     93  F   UNL A   1      43.175  38.866  28.648  1.00  0.00    -0.206 F 
ATOM     94  C   UNL A   1      43.180  40.598  31.817  1.00  0.00     0.060 A 
BRANCH  94  95
ATOM     95  S   UNL A   1      42.764  42.216  32.507  1.00  0.00     0.124 S 
ATOM     96  O   UNL A   1      41.902  41.848  33.624  1.00  0.00    -0.237 OA
ATOM     97  O   UNL A   1      44.079  42.741  32.860  1.00  0.00    -0.237 OA
ATOM     98  O   UNL A   1      42.103  42.894  31.397  1.00  0.00    -0.744 OA
ENDBRANCH  94  95
ENDBRANCH  62  87
BRANCH  74  99
ATOM     99  C   UNL A   1      49.687  35.624  27.743  1.00  0.00     0.058 A 
ATOM    100  C   UNL A   1      49.902  36.267  26.514  1.00  0.00     0.135 A 
ATOM    101  C   UNL A   1      50.731  35.646  28.685  1.00  0.00     0.135 A 
ATOM    102  F   UNL A   1      48.940  36.276  25.579  1.00  0.00    -0.206 F 
ATOM    103  C   UNL A   1      51.113  36.886  26.220  1.00  0.00     0.059 A 
ATOM    104  C   UNL A   1      51.937  36.287  28.424  1.00  0.00     0.059 A 
ATOM    105  F   UNL A   1      50.574  35.060  29.882  1.00  0.00    -0.206 F 
ATOM    106  C   UNL A   1      52.124  36.894  27.183  1.00  0.00     0.060 A 
BRANCH 106 107
ATOM    107  S   UNL A   1      53.679  37.723  26.792  1.00  0.00     0.124 S 
ATOM    108  O   UNL A   1      53.225  39.082  26.514  1.00  0.00    -0.237 OA
ATOM    109  O   UNL A   1      54.441  37.549  28.025  1.00  0.00    -0.237 OA
ATOM    110  O   UNL A   1      54.182  36.982  25.640  1.00  0.00    -0.744 OA
ENDBRANCH 106 107
ENDBRANCH  74  99
ENDBRANCH  48  49
ENDBRANCH  41  43
ENDBRANCH  40  41
ENDBRANCH  39  40
ENDBRANCH  38  39
ENDBRANCH  37  38
ENDBRANCH  36  37
ENDBRANCH   1  36
TORSDOF 25
ENDMDL
MODEL 3
REMARK VINA RESULT:      -8.6      7.666     15.722
REMARK SMILES Cc1cc(C)n(C)c(=O)c1C(=O)[NH+]1CCC2(CC1)C[NH2+][C@@H](C(=O)OCCOCCOCCOCCOC(=O)c1ccc(-c3c4nc(c(-c5c(F)cc(S(=O)(=O)[O-])cc5F)c5ccc([nH]5)c(-c5c(F)cc(S(=O)(=O)[O-])cc5F)c5nc(c(-c6c(F)cc(S(=O)(=O)[O-])cc6F)c6ccc3[nH]6)C=C5)C=C4)cc1)C2
REMARK SMILES IDX 31 1 30 2 29 3 28 4 27 5 26 6 25 7 24 8 22 9 23 10 21 11
REMARK SMILES IDX 13 12 14 13 18 14 15 16 17 17 16 18 19 19 105 20 20 21 11 24
REMARK SMILES IDX 12 25 10 26 1 27 2 28 3 29 4 30 8 31 5 32 6 33 9 34 7 35
REMARK SMILES IDX 32 36 33 37 34 38 35 39 36 40 37 41 38 42 39 43 40 44 104 45
REMARK SMILES IDX 41 46 103 47 42 48 43 49 44 50 97 51 45 52 102 53 96 54
REMARK SMILES IDX 98 55 46 56 101 57 95 58 94 59 47 61 81 62 60 63 80 64 61 65
REMARK SMILES IDX 64 66 79 67 99 68 62 69 63 70 78 72 100 73 65 74 48 75 49 76
REMARK SMILES IDX 58 77 50 78 51 79 57 80 59 81 52 82 53 83 54 84 55 85 56 86
REMARK SMILES IDX 82 87 83 88 92 89 84 90 85 91 91 92 93 93 86 94 87 95 88 96
REMARK SMILES IDX 89 97 90 98 66 99 67 100 76 101 68 102 69 103 75 104 77 105
REMARK SMILES IDX 70 106 71 107 72 108 73 109 74 110
REMARK H PARENT 13 15 20 22 20 23 98 60 64 71
REMARK Flexibility Score: inf
ROOT
ATOM      1  C   UNL A   1      47.342  41.172  31.387  1.00  0.00     0.188 C 
ENDROOT
BRANCH   1   2
ATOM      2  O   UNL A   1      46.382  40.190  31.026  1.00  0.00    -0.377 OA
BRANCH   2   3
ATOM      3  C   UNL A   1      45.209  40.693  30.435  1.00  0.00     0.188 C 
BRANCH   3   4
ATOM      4  C   UNL A   1      44.305  39.623  29.806  1.00  0.00     0.188 C 
BRANCH   4   5
ATOM      5  O   UNL A   1      42.973  39.929  29.404  1.00  0.00    -0.376 OA
BRANCH   5   6
ATOM      6  C   UNL A   1      42.682  40.267  28.052  1.00  0.00     0.202 C 
BRANCH   6   7
ATOM      7  C   UNL A   1      43.317  39.487  26.889  1.00  0.00     0.261 C 
BRANCH   7   8
ATOM      8  O   UNL A   1      43.632  40.272  25.732  1.00  0.00    -0.459 OA
BRANCH   8   9
ATOM      9  C   UNL A   1      44.407  41.365  25.934  1.00  0.00     0.364 C 
ATOM     10  O   UNL A   1      45.344  41.429  26.725  1.00  0.00    -0.245 OA
BRANCH   9  11
ATOM     11  C   UNL A   1      44.023  42.547  25.036  1.00  0.00     0.294 C 
ATOM     12  N   UNL A   1      45.103  45.033  20.522  1.00  0.00    -0.267 N 
ATOM     13  C   UNL A   1      45.521  45.422  21.859  1.00  0.00     0.271 C 
ATOM     14  C   UNL A   1      44.965  43.591  20.352  1.00  0.00     0.271 C 
ATOM     15  H   UNL A   1      45.205  45.838  21.080  1.00  0.00     0.357 HD
ATOM     16  C   UNL A   1      44.373  45.116  22.813  1.00  0.00     0.075 C 
ATOM     17  C   UNL A   1      44.054  42.937  21.413  1.00  0.00     0.075 C 
ATOM     18  C   UNL A   1      43.984  43.614  22.824  1.00  0.00     0.036 C 
ATOM     19  C   UNL A   1      42.581  43.444  23.465  1.00  0.00     0.268 C 
ATOM     20  C   UNL A   1      44.886  42.864  23.825  1.00  0.00     0.090 C 
ATOM     21  N   UNL A   1      42.708  42.343  24.414  1.00  0.00    -0.334 N 
ATOM     22  H   UNL A   1      42.671  41.444  23.932  1.00  0.00     0.347 HD
ATOM     23  H   UNL A   1      41.951  42.330  25.098  1.00  0.00     0.347 HD
BRANCH  12  24
ATOM     24  C   UNL A   1      44.931  46.042  19.576  1.00  0.00     0.350 C 
ATOM     25  O   UNL A   1      43.911  46.073  18.881  1.00  0.00    -0.225 OA
BRANCH  24  26
ATOM     26  C   UNL A   1      46.028  47.024  19.255  1.00  0.00     0.147 A 
ATOM     27  C   UNL A   1      44.853  49.068  20.263  1.00  0.00     0.045 C 
ATOM     28  C   UNL A   1      45.967  48.332  19.591  1.00  0.00    -0.027 A 
ATOM     29  C   UNL A   1      47.125  49.189  19.455  1.00  0.00     0.026 A 
ATOM     30  C   UNL A   1      48.355  48.690  19.300  1.00  0.00     0.018 A 
ATOM     31  C   UNL A   1      47.400  46.471  18.902  1.00  0.00     0.267 A 
ATOM     32  C   UNL A   1      49.522  49.637  19.354  1.00  0.00     0.064 C 
ATOM     33  N   UNL A   1      48.508  47.325  19.095  1.00  0.00    -0.315 N 
ATOM     34  O   UNL A   1      47.528  45.316  18.495  1.00  0.00    -0.268 OA
ATOM     35  C   UNL A   1      49.840  46.737  19.034  1.00  0.00     0.153 C 
ENDBRANCH  24  26
ENDBRANCH  12  24
ENDBRANCH   9  11
ENDBRANCH   8   9
ENDBRANCH   7   8
ENDBRANCH   6   7
ENDBRANCH   5   6
ENDBRANCH   4   5
ENDBRANCH   3   4
ENDBRANCH   2   3
ENDBRANCH   1   2
BRANCH   1  36
ATOM     36  C   UNL A   1      48.448  41.484  30.351  1.00  0.00     0.188 C 
BRANCH  36  37
ATOM     37  O   UNL A   1      48.670  40.462  29.383  1.00  0.00    -0.376 OA
BRANCH  37  38
ATOM     38  C   UNL A   1      49.590  39.419  29.685  1.00  0.00     0.202 C 
BRANCH  38  39
ATOM     39  C   UNL A   1      49.366  38.030  29.054  1.00  0.00     0.261 C 
BRANCH  39  40
ATOM     40  O   UNL A   1      48.197  37.310  29.473  1.00  0.00    -0.460 OA
BRANCH  40  41
ATOM     41  C   UNL A   1      47.244  37.062  28.550  1.00  0.00     0.338 C 
ATOM     42  O   UNL A   1      46.708  37.877  27.818  1.00  0.00    -0.246 OA
BRANCH  41  43
ATOM     43  C   UNL A   1      47.124  35.594  28.406  1.00  0.00     0.060 A 
ATOM     44  C   UNL A   1      46.812  35.069  27.145  1.00  0.00     0.016 A 
ATOM     45  C   UNL A   1      47.332  34.740  29.492  1.00  0.00     0.016 A 
ATOM     46  C   UNL A   1      46.674  33.694  26.969  1.00  0.00     0.010 A 
ATOM     47  C   UNL A   1      47.149  33.362  29.326  1.00  0.00     0.010 A 
ATOM     48  C   UNL A   1      46.781  32.841  28.072  1.00  0.00    -0.014 A 
BRANCH  48  49
ATOM     49  C   UNL A   1      46.232  31.467  27.968  1.00  0.00     0.031 A 
ATOM     50  C   UNL A   1      47.172  30.378  27.521  1.00  0.00     0.074 A 
ATOM     51  C   UNL A   1      44.964  31.175  28.308  1.00  0.00     0.049 A 
ATOM     52  N   UNL A   1      46.933  29.112  27.304  1.00  0.00    -0.248 NA
ATOM     53  C   UNL A   1      48.573  30.774  27.293  1.00  0.00     0.031 C 
ATOM     54  C   UNL A   1      43.983  32.128  28.822  1.00  0.00     0.029 A 
ATOM     55  N   UNL A   1      44.286  29.981  28.267  1.00  0.00    -0.354 N 
ATOM     56  C   UNL A   1      48.149  28.564  26.912  1.00  0.00     0.074 A 
ATOM     57  C   UNL A   1      49.117  29.636  26.893  1.00  0.00     0.031 C 
ATOM     58  C   UNL A   1      42.821  31.483  29.035  1.00  0.00     0.029 A 
ATOM     59  C   UNL A   1      42.967  30.082  28.640  1.00  0.00     0.049 A 
ATOM     60  H   UNL A   1      44.706  29.133  27.997  1.00  0.00     0.167 HD
ATOM     61  C   UNL A   1      48.435  27.279  26.601  1.00  0.00     0.037 A 
ATOM     62  C   UNL A   1      41.988  29.154  28.634  1.00  0.00     0.037 A 
ATOM     63  C   UNL A   1      47.467  26.215  26.622  1.00  0.00     0.049 A 
ATOM     64  C   UNL A   1      42.308  27.746  28.192  1.00  0.00     0.074 A 
ATOM     65  C   UNL A   1      47.658  24.877  26.328  1.00  0.00     0.029 A 
ATOM     66  N   UNL A   1      46.130  26.368  26.949  1.00  0.00    -0.354 N 
ATOM     67  N   UNL A   1      43.461  27.238  27.824  1.00  0.00    -0.248 NA
ATOM     68  C   UNL A   1      41.195  26.786  28.163  1.00  0.00     0.031 C 
ATOM     69  C   UNL A   1      46.422  24.231  26.420  1.00  0.00     0.029 A 
ATOM     70  C   UNL A   1      45.474  25.154  26.832  1.00  0.00     0.049 A 
ATOM     71  H   UNL A   1      45.707  27.213  27.225  1.00  0.00     0.167 HD
ATOM     72  C   UNL A   1      43.214  25.898  27.535  1.00  0.00     0.074 A 
ATOM     73  C   UNL A   1      41.808  25.669  27.795  1.00  0.00     0.031 C 
ATOM     74  C   UNL A   1      44.071  24.944  27.093  1.00  0.00     0.037 A 
BRANCH  61  75
ATOM     75  C   UNL A   1      49.841  26.954  26.187  1.00  0.00     0.058 A 
ATOM     76  C   UNL A   1      50.803  26.517  27.111  1.00  0.00     0.135 A 
ATOM     77  C   UNL A   1      50.217  27.027  24.835  1.00  0.00     0.135 A 
ATOM     78  F   UNL A   1      50.506  26.457  28.420  1.00  0.00    -0.206 F 
ATOM     79  C   UNL A   1      52.089  26.168  26.711  1.00  0.00     0.059 A 
ATOM     80  C   UNL A   1      51.487  26.657  24.409  1.00  0.00     0.059 A 
ATOM     81  F   UNL A   1      49.338  27.451  23.912  1.00  0.00    -0.206 F 
ATOM     82  C   UNL A   1      52.418  26.232  25.356  1.00  0.00     0.060 A 
BRANCH  82  83
ATOM     83  S   UNL A   1      54.078  25.736  24.853  1.00  0.00     0.124 S 
ATOM     84  O   UNL A   1      54.163  26.311  23.513  1.00  0.00    -0.237 OA
ATOM     85  O   UNL A   1      54.911  26.371  25.868  1.00  0.00    -0.237 OA
ATOM     86  O   UNL A   1      54.029  24.278  24.905  1.00  0.00    -0.744 OA
ENDBRANCH  82  83
ENDBRANCH  61  75
BRANCH  62  87
ATOM     87  C   UNL A   1      40.602  29.527  29.035  1.00  0.00     0.058 A 
ATOM     88  C   UNL A   1      40.258  29.713  30.382  1.00  0.00     0.135 A 
ATOM     89  C   UNL A   1      39.590  29.696  28.076  1.00  0.00     0.135 A 
ATOM     90  F   UNL A   1      41.183  29.546  31.339  1.00  0.00    -0.206 F 
ATOM     91  C   UNL A   1      38.962  30.046  30.766  1.00  0.00     0.059 A 
ATOM     92  C   UNL A   1      38.293  30.057  28.432  1.00  0.00     0.059 A 
ATOM     93  F   UNL A   1      39.863  29.531  26.773  1.00  0.00    -0.206 F 
ATOM     94  C   UNL A   1      37.988  30.222  29.782  1.00  0.00     0.060 A 
BRANCH  94  95
ATOM     95  S   UNL A   1      36.323  30.707  30.290  1.00  0.00     0.124 S 
ATOM     96  O   UNL A   1      36.043  29.741  31.346  1.00  0.00    -0.237 OA
ATOM     97  O   UNL A   1      36.528  32.086  30.723  1.00  0.00    -0.237 OA
ATOM     98  O   UNL A   1      35.540  30.551  29.069  1.00  0.00    -0.744 OA
ENDBRANCH  94  95
ENDBRANCH  62  87
BRANCH  74  99
ATOM     99  C   UNL A   1      43.524  23.559  26.869  1.00  0.00     0.058 A 
ATOM    100  C   UNL A   1      43.287  23.061  25.578  1.00  0.00     0.135 A 
ATOM    101  C   UNL A   1      43.300  22.694  27.955  1.00  0.00     0.135 A 
ATOM    102  F   UNL A   1      43.484  23.843  24.507  1.00  0.00    -0.206 F 
ATOM    103  C   UNL A   1      42.823  21.765  25.373  1.00  0.00     0.059 A 
ATOM    104  C   UNL A   1      42.867  21.385  27.771  1.00  0.00     0.059 A 
ATOM    105  F   UNL A   1      43.525  23.113  29.211  1.00  0.00    -0.206 F 
ATOM    106  C   UNL A   1      42.618  20.933  26.476  1.00  0.00     0.060 A 
BRANCH 106 107
ATOM    107  S   UNL A   1      42.039  19.248  26.188  1.00  0.00     0.124 S 
ATOM    108  O   UNL A   1      40.611  19.462  25.971  1.00  0.00    -0.237 OA
ATOM    109  O   UNL A   1      42.808  18.853  25.012  1.00  0.00    -0.237 OA
ATOM    110  O   UNL A   1      42.388  18.551  27.422  1.00  0.00    -0.744 OA
ENDBRANCH 106 107
ENDBRANCH  74  99
ENDBRANCH  48  49
ENDBRANCH  41  43
ENDBRANCH  40  41
ENDBRANCH  39  40
ENDBRANCH  38  39
ENDBRANCH  37  38
ENDBRANCH  36  37
ENDBRANCH   1  36
TORSDOF 25
ENDMDL
