MODEL 1
REMARK VINA RESULT:      -9.0      0.000      0.000
REMARK SMILES Cc1cccc2nc(C(=O)NCC(=O)OCCOCCOCCOCCOC(=O)c3ccc(-c4c5nc(c(-c6c(F)cc(S(=O)(=O)[O-])cc6F)c6ccc([nH]6)c(-c6c(F)cc(S(=O)(=O)[O-])cc6F)c6nc(c(-c7c(F)cc(S(=O)(=O)[O-])cc7F)c7ccc4[nH]7)C=C6)C=C5)cc3)cn12
REMARK SMILES IDX 22 1 21 2 20 3 19 4 18 5 17 6 16 7 15 8 13 9 14 10 12 11
REMARK SMILES IDX 11 12 9 13 10 14 8 16 1 17 2 18 3 19 97 20 4 21 6 22 96 23
REMARK SMILES IDX 5 24 7 25 23 26 24 27 25 28 26 29 27 30 28 31 29 32 30 33
REMARK SMILES IDX 31 34 95 35 32 36 94 37 33 38 34 39 35 40 88 41 36 42 93 43
REMARK SMILES IDX 87 44 89 45 37 46 92 47 86 48 85 49 38 51 72 52 51 53 71 54
REMARK SMILES IDX 52 55 55 56 70 57 90 58 53 59 54 60 69 62 91 63 56 64 39 65
REMARK SMILES IDX 40 66 49 67 41 68 42 69 48 70 50 71 43 72 44 73 45 74 46 75
REMARK SMILES IDX 47 76 73 77 74 78 83 79 75 80 76 81 82 82 84 83 77 84 78 85
REMARK SMILES IDX 79 86 80 87 81 88 57 89 58 90 67 91 59 92 60 93 66 94 68 95
REMARK SMILES IDX 61 96 62 97 63 98 64 99 65 100
REMARK H PARENT 11 15 89 50 55 61
REMARK Flexibility Score: inf
ROOT
ATOM      1  C   UNL A   1      38.273  32.979  37.779  1.00  0.00     0.188 C 
ENDROOT
BRANCH   1   2
ATOM      2  O   UNL A   1      36.957  32.748  38.257  1.00  0.00    -0.377 OA
BRANCH   2   3
ATOM      3  C   UNL A   1      36.853  31.755  39.255  1.00  0.00     0.188 C 
BRANCH   3   4
ATOM      4  C   UNL A   1      37.543  32.099  40.592  1.00  0.00     0.188 C 
BRANCH   4   5
ATOM      5  O   UNL A   1      36.786  32.500  41.729  1.00  0.00    -0.376 OA
BRANCH   5   6
ATOM      6  C   UNL A   1      35.941  31.561  42.382  1.00  0.00     0.202 C 
BRANCH   6   7
ATOM      7  C   UNL A   1      35.577  31.756  43.867  1.00  0.00     0.261 C 
BRANCH   7   8
ATOM      8  O   UNL A   1      34.329  31.169  44.291  1.00  0.00    -0.462 OA
BRANCH   8   9
ATOM      9  C   UNL A   1      33.529  31.930  45.087  1.00  0.00     0.325 C 
ATOM     10  O   UNL A   1      33.606  31.960  46.313  1.00  0.00    -0.250 OA
BRANCH   9  11
ATOM     11  C   UNL A   1      32.674  32.948  44.299  1.00  0.00     0.239 C 
BRANCH  11  12
ATOM     12  N   UNL A   1      31.212  32.921  44.336  1.00  0.00    -0.340 N 
ATOM     13  C   UNL A   1      30.314  33.825  43.841  1.00  0.00     0.272 C 
ATOM     14  O   UNL A   1      29.111  33.576  43.924  1.00  0.00    -0.267 OA
ATOM     15  H   UNL A   1      30.818  32.137  44.783  1.00  0.00     0.164 HD
BRANCH  13  16
ATOM     16  C   UNL A   1      30.825  34.998  43.148  1.00  0.00     0.147 A 
ATOM     17  C   UNL A   1      31.507  39.235  43.944  1.00  0.00     0.065 C 
ATOM     18  C   UNL A   1      31.534  38.474  42.655  1.00  0.00     0.021 A 
ATOM     19  C   UNL A   1      31.755  39.063  41.460  1.00  0.00     0.022 A 
ATOM     20  N   UNL A   1      31.321  37.086  42.671  1.00  0.00    -0.304 N 
ATOM     21  C   UNL A   1      31.760  38.263  40.245  1.00  0.00     0.006 A 
ATOM     22  C   UNL A   1      31.347  36.296  41.527  1.00  0.00     0.137 A 
ATOM     23  C   UNL A   1      31.017  36.245  43.711  1.00  0.00     0.127 A 
ATOM     24  C   UNL A   1      31.576  36.932  40.281  1.00  0.00     0.048 A 
ATOM     25  N   UNL A   1      31.099  35.040  41.798  1.00  0.00    -0.223 NA
ENDBRANCH  13  16
ENDBRANCH  11  12
ENDBRANCH   9  11
ENDBRANCH   8   9
ENDBRANCH   7   8
ENDBRANCH   6   7
ENDBRANCH   5   6
ENDBRANCH   4   5
ENDBRANCH   3   4
ENDBRANCH   2   3
ENDBRANCH   1   2
BRANCH   1  26
ATOM     26  C   UNL A   1      38.535  32.721  36.272  1.00  0.00     0.188 C 
BRANCH  26  27
ATOM     27  O   UNL A   1      37.489  32.037  35.580  1.00  0.00    -0.376 OA
BRANCH  27  28
ATOM     28  C   UNL A   1      37.670  31.498  34.275  1.00  0.00     0.202 C 
BRANCH  28  29
ATOM     29  C   UNL A   1      36.596  31.794  33.217  1.00  0.00     0.261 C 
BRANCH  29  30
ATOM     30  O   UNL A   1      36.832  31.132  31.990  1.00  0.00    -0.460 OA
BRANCH  30  31
ATOM     31  C   UNL A   1      35.999  31.508  31.009  1.00  0.00     0.338 C 
ATOM     32  O   UNL A   1      34.946  32.131  31.132  1.00  0.00    -0.246 OA
BRANCH  31  33
ATOM     33  C   UNL A   1      36.539  31.056  29.724  1.00  0.00     0.060 A 
ATOM     34  C   UNL A   1      36.505  29.671  29.566  1.00  0.00     0.016 A 
ATOM     35  C   UNL A   1      37.561  31.865  29.219  1.00  0.00     0.016 A 
ATOM     36  C   UNL A   1      37.714  29.066  29.381  1.00  0.00     0.010 A 
ATOM     37  C   UNL A   1      38.773  31.265  29.078  1.00  0.00     0.010 A 
ATOM     38  C   UNL A   1      38.837  29.891  29.298  1.00  0.00    -0.014 A 
BRANCH  38  39
ATOM     39  C   UNL A   1      40.126  29.279  29.440  1.00  0.00     0.031 A 
ATOM     40  C   UNL A   1      40.529  29.206  30.848  1.00  0.00     0.074 A 
ATOM     41  C   UNL A   1      40.804  28.795  28.388  1.00  0.00     0.049 A 
ATOM     42  N   UNL A   1      41.304  30.027  31.472  1.00  0.00    -0.248 NA
ATOM     43  C   UNL A   1      39.755  28.312  31.723  1.00  0.00     0.031 C 
ATOM     44  C   UNL A   1      40.373  28.589  27.003  1.00  0.00     0.029 A 
ATOM     45  N   UNL A   1      42.067  28.305  28.396  1.00  0.00    -0.354 N 
ATOM     46  C   UNL A   1      41.294  29.587  32.786  1.00  0.00     0.074 A 
ATOM     47  C   UNL A   1      40.128  28.758  32.921  1.00  0.00     0.031 C 
ATOM     48  C   UNL A   1      41.286  27.812  26.368  1.00  0.00     0.029 A 
ATOM     49  C   UNL A   1      42.412  27.588  27.258  1.00  0.00     0.049 A 
ATOM     50  H   UNL A   1      42.688  28.446  29.146  1.00  0.00     0.167 HD
ATOM     51  C   UNL A   1      42.398  29.692  33.572  1.00  0.00     0.037 A 
ATOM     52  C   UNL A   1      43.515  26.800  27.164  1.00  0.00     0.037 A 
ATOM     53  C   UNL A   1      43.357  30.603  32.993  1.00  0.00     0.049 A 
ATOM     54  C   UNL A   1      44.461  27.272  28.227  1.00  0.00     0.074 A 
ATOM     55  C   UNL A   1      43.327  31.948  32.676  1.00  0.00     0.029 A 
ATOM     56  N   UNL A   1      44.391  30.064  32.260  1.00  0.00    -0.354 N 
ATOM     57  N   UNL A   1      45.024  28.454  28.211  1.00  0.00    -0.248 NA
ATOM     58  C   UNL A   1      44.354  26.661  29.548  1.00  0.00     0.031 C 
ATOM     59  C   UNL A   1      44.025  32.055  31.438  1.00  0.00     0.029 A 
ATOM     60  C   UNL A   1      44.503  30.788  31.097  1.00  0.00     0.049 A 
ATOM     61  H   UNL A   1      44.951  29.298  32.523  1.00  0.00     0.167 HD
ATOM     62  C   UNL A   1      44.979  28.904  29.528  1.00  0.00     0.074 A 
ATOM     63  C   UNL A   1      44.605  27.730  30.314  1.00  0.00     0.031 C 
ATOM     64  C   UNL A   1      44.954  30.237  29.832  1.00  0.00     0.037 A 
BRANCH  51  65
ATOM     65  C   UNL A   1      42.743  28.705  34.655  1.00  0.00     0.058 A 
ATOM     66  C   UNL A   1      42.975  29.178  35.959  1.00  0.00     0.135 A 
ATOM     67  C   UNL A   1      43.088  27.351  34.429  1.00  0.00     0.135 A 
ATOM     68  F   UNL A   1      42.690  30.449  36.287  1.00  0.00    -0.206 F 
ATOM     69  C   UNL A   1      43.570  28.388  36.942  1.00  0.00     0.059 A 
ATOM     70  C   UNL A   1      43.618  26.528  35.411  1.00  0.00     0.059 A 
ATOM     71  F   UNL A   1      43.030  26.774  33.224  1.00  0.00    -0.206 F 
ATOM     72  C   UNL A   1      43.900  27.067  36.651  1.00  0.00     0.060 A 
BRANCH  72  73
ATOM     73  S   UNL A   1      44.781  26.080  37.868  1.00  0.00     0.124 S 
ATOM     74  O   UNL A   1      44.022  26.371  39.080  1.00  0.00    -0.237 OA
ATOM     75  O   UNL A   1      44.633  24.734  37.325  1.00  0.00    -0.237 OA
ATOM     76  O   UNL A   1      46.136  26.623  37.828  1.00  0.00    -0.744 OA
ENDBRANCH  72  73
ENDBRANCH  51  65
BRANCH  52  77
ATOM     77  C   UNL A   1      43.608  25.473  26.499  1.00  0.00     0.058 A 
ATOM     78  C   UNL A   1      44.481  25.240  25.423  1.00  0.00     0.135 A 
ATOM     79  C   UNL A   1      43.012  24.327  27.068  1.00  0.00     0.135 A 
ATOM     80  F   UNL A   1      45.123  26.266  24.843  1.00  0.00    -0.206 F 
ATOM     81  C   UNL A   1      44.759  23.948  24.951  1.00  0.00     0.059 A 
ATOM     82  C   UNL A   1      43.266  23.035  26.612  1.00  0.00     0.059 A 
ATOM     83  F   UNL A   1      42.222  24.422  28.148  1.00  0.00    -0.206 F 
ATOM     84  C   UNL A   1      44.155  22.849  25.563  1.00  0.00     0.060 A 
BRANCH  84  85
ATOM     85  S   UNL A   1      44.604  21.174  25.048  1.00  0.00     0.124 S 
ATOM     86  O   UNL A   1      44.472  21.256  23.597  1.00  0.00    -0.237 OA
ATOM     87  O   UNL A   1      45.965  21.050  25.558  1.00  0.00    -0.237 OA
ATOM     88  O   UNL A   1      43.613  20.334  25.715  1.00  0.00    -0.744 OA
ENDBRANCH  84  85
ENDBRANCH  52  77
BRANCH  64  89
ATOM     89  C   UNL A   1      45.184  31.233  28.716  1.00  0.00     0.058 A 
ATOM     90  C   UNL A   1      44.173  31.682  27.845  1.00  0.00     0.135 A 
ATOM     91  C   UNL A   1      46.417  31.898  28.652  1.00  0.00     0.135 A 
ATOM     92  F   UNL A   1      42.934  31.179  27.914  1.00  0.00    -0.206 F 
ATOM     93  C   UNL A   1      44.388  32.719  26.932  1.00  0.00     0.059 A 
ATOM     94  C   UNL A   1      46.645  32.953  27.772  1.00  0.00     0.059 A 
ATOM     95  F   UNL A   1      47.403  31.565  29.502  1.00  0.00    -0.206 F 
ATOM     96  C   UNL A   1      45.629  33.353  26.906  1.00  0.00     0.060 A 
BRANCH  96  97
ATOM     97  S   UNL A   1      45.882  34.747  25.785  1.00  0.00     0.124 S 
ATOM     98  O   UNL A   1      47.337  34.834  25.725  1.00  0.00    -0.237 OA
ATOM     99  O   UNL A   1      45.223  34.294  24.563  1.00  0.00    -0.237 OA
ATOM    100  O   UNL A   1      45.217  35.858  26.464  1.00  0.00    -0.744 OA
ENDBRANCH  96  97
ENDBRANCH  64  89
ENDBRANCH  38  39
ENDBRANCH  31  33
ENDBRANCH  30  31
ENDBRANCH  29  30
ENDBRANCH  28  29
ENDBRANCH  27  28
ENDBRANCH  26  27
ENDBRANCH   1  26
TORSDOF 25
ENDMDL
MODEL 2
REMARK VINA RESULT:      -8.7      1.478      2.301
REMARK SMILES Cc1cccc2nc(C(=O)NCC(=O)OCCOCCOCCOCCOC(=O)c3ccc(-c4c5nc(c(-c6c(F)cc(S(=O)(=O)[O-])cc6F)c6ccc([nH]6)c(-c6c(F)cc(S(=O)(=O)[O-])cc6F)c6nc(c(-c7c(F)cc(S(=O)(=O)[O-])cc7F)c7ccc4[nH]7)C=C6)C=C5)cc3)cn12
REMARK SMILES IDX 22 1 21 2 20 3 19 4 18 5 17 6 16 7 15 8 13 9 14 10 12 11
REMARK SMILES IDX 11 12 9 13 10 14 8 16 1 17 2 18 3 19 97 20 4 21 6 22 96 23
REMARK SMILES IDX 5 24 7 25 23 26 24 27 25 28 26 29 27 30 28 31 29 32 30 33
REMARK SMILES IDX 31 34 95 35 32 36 94 37 33 38 34 39 35 40 88 41 36 42 93 43
REMARK SMILES IDX 87 44 89 45 37 46 92 47 86 48 85 49 38 51 72 52 51 53 71 54
REMARK SMILES IDX 52 55 55 56 70 57 90 58 53 59 54 60 69 62 91 63 56 64 39 65
REMARK SMILES IDX 40 66 49 67 41 68 42 69 48 70 50 71 43 72 44 73 45 74 46 75
REMARK SMILES IDX 47 76 73 77 74 78 83 79 75 80 76 81 82 82 84 83 77 84 78 85
REMARK SMILES IDX 79 86 80 87 81 88 57 89 58 90 67 91 59 92 60 93 66 94 68 95
REMARK SMILES IDX 61 96 62 97 63 98 64 99 65 100
REMARK H PARENT 11 15 89 50 55 61
REMARK Flexibility Score: inf
ROOT
ATOM      1  C   UNL A   1      37.904  32.605  38.034  1.00  0.00     0.188 C 
ENDROOT
BRANCH   1   2
ATOM      2  O   UNL A   1      36.529  32.398  38.315  1.00  0.00    -0.377 OA
BRANCH   2   3
ATOM      3  C   UNL A   1      36.256  31.881  39.600  1.00  0.00     0.188 C 
BRANCH   3   4
ATOM      4  C   UNL A   1      36.237  32.927  40.735  1.00  0.00     0.188 C 
BRANCH   4   5
ATOM      5  O   UNL A   1      35.050  33.645  41.053  1.00  0.00    -0.376 OA
BRANCH   5   6
ATOM      6  C   UNL A   1      33.860  33.406  40.314  1.00  0.00     0.202 C 
BRANCH   6   7
ATOM      7  C   UNL A   1      32.507  33.916  40.848  1.00  0.00     0.261 C 
BRANCH   7   8
ATOM      8  O   UNL A   1      31.889  34.974  40.086  1.00  0.00    -0.462 OA
BRANCH   8   9
ATOM      9  C   UNL A   1      31.715  36.167  40.716  1.00  0.00     0.325 C 
ATOM     10  O   UNL A   1      31.939  37.259  40.198  1.00  0.00    -0.250 OA
BRANCH   9  11
ATOM     11  C   UNL A   1      30.971  36.044  42.065  1.00  0.00     0.239 C 
BRANCH  11  12
ATOM     12  N   UNL A   1      29.677  35.372  42.176  1.00  0.00    -0.340 N 
ATOM     13  C   UNL A   1      28.778  35.384  43.206  1.00  0.00     0.272 C 
ATOM     14  O   UNL A   1      27.707  34.794  43.068  1.00  0.00    -0.267 OA
ATOM     15  H   UNL A   1      29.416  34.833  41.395  1.00  0.00     0.164 HD
BRANCH  13  16
ATOM     16  C   UNL A   1      29.089  36.178  44.386  1.00  0.00     0.147 A 
ATOM     17  C   UNL A   1      28.729  40.312  45.739  1.00  0.00     0.065 C 
ATOM     18  C   UNL A   1      29.488  39.161  46.326  1.00  0.00     0.021 A 
ATOM     19  C   UNL A   1      30.258  39.278  47.429  1.00  0.00     0.022 A 
ATOM     20  N   UNL A   1      29.405  37.900  45.715  1.00  0.00    -0.304 N 
ATOM     21  C   UNL A   1      30.974  38.119  47.941  1.00  0.00     0.006 A 
ATOM     22  C   UNL A   1      30.058  36.772  46.200  1.00  0.00     0.137 A 
ATOM     23  C   UNL A   1      28.761  37.507  44.570  1.00  0.00     0.127 A 
ATOM     24  C   UNL A   1      30.867  36.914  47.356  1.00  0.00     0.048 A 
ATOM     25  N   UNL A   1      29.844  35.724  45.446  1.00  0.00    -0.223 NA
ENDBRANCH  13  16
ENDBRANCH  11  12
ENDBRANCH   9  11
ENDBRANCH   8   9
ENDBRANCH   7   8
ENDBRANCH   6   7
ENDBRANCH   5   6
ENDBRANCH   4   5
ENDBRANCH   3   4
ENDBRANCH   2   3
ENDBRANCH   1   2
BRANCH   1  26
ATOM     26  C   UNL A   1      38.347  32.507  36.551  1.00  0.00     0.188 C 
BRANCH  26  27
ATOM     27  O   UNL A   1      37.360  31.996  35.653  1.00  0.00    -0.376 OA
BRANCH  27  28
ATOM     28  C   UNL A   1      37.675  31.612  34.319  1.00  0.00     0.202 C 
BRANCH  28  29
ATOM     29  C   UNL A   1      36.645  31.911  33.219  1.00  0.00     0.261 C 
BRANCH  29  30
ATOM     30  O   UNL A   1      36.971  31.313  31.980  1.00  0.00    -0.460 OA
BRANCH  30  31
ATOM     31  C   UNL A   1      36.037  31.496  31.035  1.00  0.00     0.338 C 
ATOM     32  O   UNL A   1      34.908  31.958  31.191  1.00  0.00    -0.246 OA
BRANCH  31  33
ATOM     33  C   UNL A   1      36.571  31.052  29.744  1.00  0.00     0.060 A 
ATOM     34  C   UNL A   1      36.520  29.671  29.569  1.00  0.00     0.016 A 
ATOM     35  C   UNL A   1      37.603  31.855  29.248  1.00  0.00     0.016 A 
ATOM     36  C   UNL A   1      37.721  29.053  29.377  1.00  0.00     0.010 A 
ATOM     37  C   UNL A   1      38.808  31.242  29.099  1.00  0.00     0.010 A 
ATOM     38  C   UNL A   1      38.855  29.865  29.303  1.00  0.00    -0.014 A 
BRANCH  38  39
ATOM     39  C   UNL A   1      40.136  29.236  29.437  1.00  0.00     0.031 A 
ATOM     40  C   UNL A   1      40.547  29.156  30.842  1.00  0.00     0.074 A 
ATOM     41  C   UNL A   1      40.801  28.743  28.380  1.00  0.00     0.049 A 
ATOM     42  N   UNL A   1      41.336  29.967  31.462  1.00  0.00    -0.248 NA
ATOM     43  C   UNL A   1      39.766  28.273  31.722  1.00  0.00     0.031 C 
ATOM     44  C   UNL A   1      40.359  28.543  26.998  1.00  0.00     0.029 A 
ATOM     45  N   UNL A   1      42.057  28.236  28.380  1.00  0.00    -0.354 N 
ATOM     46  C   UNL A   1      41.328  29.526  32.776  1.00  0.00     0.074 A 
ATOM     47  C   UNL A   1      40.153  28.713  32.918  1.00  0.00     0.031 C 
ATOM     48  C   UNL A   1      41.258  27.755  26.357  1.00  0.00     0.029 A 
ATOM     49  C   UNL A   1      42.385  27.515  27.240  1.00  0.00     0.049 A 
ATOM     50  H   UNL A   1      42.684  28.368  29.127  1.00  0.00     0.167 HD
ATOM     51  C   UNL A   1      42.438  29.616  33.554  1.00  0.00     0.037 A 
ATOM     52  C   UNL A   1      43.478  26.713  27.139  1.00  0.00     0.037 A 
ATOM     53  C   UNL A   1      43.407  30.514  32.970  1.00  0.00     0.049 A 
ATOM     54  C   UNL A   1      44.436  27.171  28.196  1.00  0.00     0.074 A 
ATOM     55  C   UNL A   1      43.393  31.859  32.654  1.00  0.00     0.029 A 
ATOM     56  N   UNL A   1      44.428  29.962  32.231  1.00  0.00    -0.354 N 
ATOM     57  N   UNL A   1      45.014  28.345  28.177  1.00  0.00    -0.248 NA
ATOM     58  C   UNL A   1      44.329  26.561  29.518  1.00  0.00     0.031 C 
ATOM     59  C   UNL A   1      44.084  31.958  31.412  1.00  0.00     0.029 A 
ATOM     60  C   UNL A   1      44.542  30.685  31.067  1.00  0.00     0.049 A 
ATOM     61  H   UNL A   1      44.980  29.188  32.490  1.00  0.00     0.167 HD
ATOM     62  C   UNL A   1      44.984  28.795  29.494  1.00  0.00     0.074 A 
ATOM     63  C   UNL A   1      44.599  27.626  30.283  1.00  0.00     0.031 C 
ATOM     64  C   UNL A   1      44.979  30.129  29.800  1.00  0.00     0.037 A 
BRANCH  51  65
ATOM     65  C   UNL A   1      42.777  28.624  34.636  1.00  0.00     0.058 A 
ATOM     66  C   UNL A   1      42.957  29.085  35.952  1.00  0.00     0.135 A 
ATOM     67  C   UNL A   1      43.164  27.282  34.403  1.00  0.00     0.135 A 
ATOM     68  F   UNL A   1      42.629  30.344  36.287  1.00  0.00    -0.206 F 
ATOM     69  C   UNL A   1      43.544  28.298  36.942  1.00  0.00     0.059 A 
ATOM     70  C   UNL A   1      43.686  26.461  35.390  1.00  0.00     0.059 A 
ATOM     71  F   UNL A   1      43.158  26.720  33.190  1.00  0.00    -0.206 F 
ATOM     72  C   UNL A   1      43.917  26.990  36.645  1.00  0.00     0.060 A 
BRANCH  72  73
ATOM     73  S   UNL A   1      44.787  26.010  37.876  1.00  0.00     0.124 S 
ATOM     74  O   UNL A   1      44.139  26.451  39.107  1.00  0.00    -0.237 OA
ATOM     75  O   UNL A   1      44.485  24.650  37.442  1.00  0.00    -0.237 OA
ATOM     76  O   UNL A   1      46.178  26.421  37.714  1.00  0.00    -0.744 OA
ENDBRANCH  72  73
ENDBRANCH  51  65
BRANCH  52  77
ATOM     77  C   UNL A   1      43.548  25.385  26.473  1.00  0.00     0.058 A 
ATOM     78  C   UNL A   1      44.369  25.156  25.355  1.00  0.00     0.135 A 
ATOM     79  C   UNL A   1      42.990  24.235  27.073  1.00  0.00     0.135 A 
ATOM     80  F   UNL A   1      44.973  26.185  24.743  1.00  0.00    -0.206 F 
ATOM     81  C   UNL A   1      44.634  23.865  24.873  1.00  0.00     0.059 A 
ATOM     82  C   UNL A   1      43.232  22.944  26.607  1.00  0.00     0.059 A 
ATOM     83  F   UNL A   1      42.254  24.326  28.191  1.00  0.00    -0.206 F 
ATOM     84  C   UNL A   1      44.070  22.763  25.516  1.00  0.00     0.060 A 
BRANCH  84  85
ATOM     85  S   UNL A   1      44.507  21.090  24.983  1.00  0.00     0.124 S 
ATOM     86  O   UNL A   1      43.408  20.300  25.528  1.00  0.00    -0.237 OA
ATOM     87  O   UNL A   1      44.533  21.228  23.531  1.00  0.00    -0.237 OA
ATOM     88  O   UNL A   1      45.807  20.860  25.608  1.00  0.00    -0.744 OA
ENDBRANCH  84  85
ENDBRANCH  52  77
BRANCH  64  89
ATOM     89  C   UNL A   1      45.215  31.122  28.682  1.00  0.00     0.058 A 
ATOM     90  C   UNL A   1      44.208  31.575  27.809  1.00  0.00     0.135 A 
ATOM     91  C   UNL A   1      46.451  31.780  28.619  1.00  0.00     0.135 A 
ATOM     92  F   UNL A   1      42.967  31.077  27.877  1.00  0.00    -0.206 F 
ATOM     93  C   UNL A   1      44.429  32.609  26.895  1.00  0.00     0.059 A 
ATOM     94  C   UNL A   1      46.686  32.834  27.738  1.00  0.00     0.059 A 
ATOM     95  F   UNL A   1      47.435  31.445  29.471  1.00  0.00    -0.206 F 
ATOM     96  C   UNL A   1      45.673  33.237  26.870  1.00  0.00     0.060 A 
BRANCH  96  97
ATOM     97  S   UNL A   1      45.934  34.629  25.748  1.00  0.00     0.124 S 
ATOM     98  O   UNL A   1      44.975  34.350  24.684  1.00  0.00    -0.237 OA
ATOM     99  O   UNL A   1      45.627  35.779  26.593  1.00  0.00    -0.237 OA
ATOM    100  O   UNL A   1      47.340  34.504  25.369  1.00  0.00    -0.744 OA
ENDBRANCH  96  97
ENDBRANCH  64  89
ENDBRANCH  38  39
ENDBRANCH  31  33
ENDBRANCH  30  31
ENDBRANCH  29  30
ENDBRANCH  28  29
ENDBRANCH  27  28
ENDBRANCH  26  27
ENDBRANCH   1  26
TORSDOF 25
ENDMDL
MODEL 3
REMARK VINA RESULT:      -8.5      6.323     14.914
REMARK SMILES Cc1cccc2nc(C(=O)NCC(=O)OCCOCCOCCOCCOC(=O)c3ccc(-c4c5nc(c(-c6c(F)cc(S(=O)(=O)[O-])cc6F)c6ccc([nH]6)c(-c6c(F)cc(S(=O)(=O)[O-])cc6F)c6nc(c(-c7c(F)cc(S(=O)(=O)[O-])cc7F)c7ccc4[nH]7)C=C6)C=C5)cc3)cn12
REMARK SMILES IDX 22 1 21 2 20 3 19 4 18 5 17 6 16 7 15 8 13 9 14 10 12 11
REMARK SMILES IDX 11 12 9 13 10 14 8 16 1 17 2 18 3 19 97 20 4 21 6 22 96 23
REMARK SMILES IDX 5 24 7 25 23 26 24 27 25 28 26 29 27 30 28 31 29 32 30 33
REMARK SMILES IDX 31 34 95 35 32 36 94 37 33 38 34 39 35 40 88 41 36 42 93 43
REMARK SMILES IDX 87 44 89 45 37 46 92 47 86 48 85 49 38 51 72 52 51 53 71 54
REMARK SMILES IDX 52 55 55 56 70 57 90 58 53 59 54 60 69 62 91 63 56 64 39 65
REMARK SMILES IDX 40 66 49 67 41 68 42 69 48 70 50 71 43 72 44 73 45 74 46 75
REMARK SMILES IDX 47 76 73 77 74 78 83 79 75 80 76 81 82 82 84 83 77 84 78 85
REMARK SMILES IDX 79 86 80 87 81 88 57 89 58 90 67 91 59 92 60 93 66 94 68 95
REMARK SMILES IDX 61 96 62 97 63 98 64 99 65 100
REMARK H PARENT 11 15 89 50 55 61
REMARK Flexibility Score: inf
ROOT
ATOM      1  C   UNL A   1      33.894  29.955  26.766  1.00  0.00     0.188 C 
ENDROOT
BRANCH   1   2
ATOM      2  O   UNL A   1      33.071  28.866  26.377  1.00  0.00    -0.377 OA
BRANCH   2   3
ATOM      3  C   UNL A   1      31.793  29.227  25.901  1.00  0.00     0.188 C 
BRANCH   3   4
ATOM      4  C   UNL A   1      31.206  28.287  24.827  1.00  0.00     0.188 C 
BRANCH   4   5
ATOM      5  O   UNL A   1      30.801  28.785  23.556  1.00  0.00    -0.376 OA
BRANCH   5   6
ATOM      6  C   UNL A   1      30.714  27.900  22.446  1.00  0.00     0.202 C 
BRANCH   6   7
ATOM      7  C   UNL A   1      31.774  26.797  22.258  1.00  0.00     0.261 C 
BRANCH   7   8
ATOM      8  O   UNL A   1      31.316  25.444  22.464  1.00  0.00    -0.462 OA
BRANCH   8   9
ATOM      9  C   UNL A   1      32.229  24.549  22.929  1.00  0.00     0.325 C 
ATOM     10  O   UNL A   1      32.760  23.684  22.236  1.00  0.00    -0.250 OA
BRANCH   9  11
ATOM     11  C   UNL A   1      32.732  24.872  24.354  1.00  0.00     0.239 C 
BRANCH  11  12
ATOM     12  N   UNL A   1      31.864  24.751  25.525  1.00  0.00    -0.340 N 
ATOM     13  C   UNL A   1      31.602  23.657  26.303  1.00  0.00     0.272 C 
ATOM     14  O   UNL A   1      30.882  23.788  27.292  1.00  0.00    -0.267 OA
ATOM     15  H   UNL A   1      31.402  25.578  25.793  1.00  0.00     0.164 HD
BRANCH  13  16
ATOM     16  C   UNL A   1      32.268  22.404  25.980  1.00  0.00     0.147 A 
ATOM     17  C   UNL A   1      36.318  20.926  25.302  1.00  0.00     0.065 C 
ATOM     18  C   UNL A   1      34.993  20.277  25.045  1.00  0.00     0.021 A 
ATOM     19  C   UNL A   1      34.873  19.055  24.482  1.00  0.00     0.022 A 
ATOM     20  N   UNL A   1      33.815  20.955  25.396  1.00  0.00    -0.304 N 
ATOM     21  C   UNL A   1      33.553  18.487  24.254  1.00  0.00     0.006 A 
ATOM     22  C   UNL A   1      32.544  20.423  25.213  1.00  0.00     0.137 A 
ATOM     23  C   UNL A   1      33.634  22.211  25.917  1.00  0.00     0.127 A 
ATOM     24  C   UNL A   1      32.436  19.141  24.617  1.00  0.00     0.048 A 
ATOM     25  N   UNL A   1      31.609  21.255  25.597  1.00  0.00    -0.223 NA
ENDBRANCH  13  16
ENDBRANCH  11  12
ENDBRANCH   9  11
ENDBRANCH   8   9
ENDBRANCH   7   8
ENDBRANCH   6   7
ENDBRANCH   5   6
ENDBRANCH   4   5
ENDBRANCH   3   4
ENDBRANCH   2   3
ENDBRANCH   1   2
BRANCH   1  26
ATOM     26  C   UNL A   1      33.194  31.170  27.430  1.00  0.00     0.188 C 
BRANCH  26  27
ATOM     27  O   UNL A   1      34.034  32.299  27.675  1.00  0.00    -0.376 OA
BRANCH  27  28
ATOM     28  C   UNL A   1      35.452  32.192  27.724  1.00  0.00     0.202 C 
BRANCH  28  29
ATOM     29  C   UNL A   1      36.117  32.033  29.099  1.00  0.00     0.261 C 
BRANCH  29  30
ATOM     30  O   UNL A   1      35.219  31.595  30.100  1.00  0.00    -0.460 OA
BRANCH  30  31
ATOM     31  C   UNL A   1      34.846  32.564  30.949  1.00  0.00     0.338 C 
ATOM     32  O   UNL A   1      34.323  33.639  30.659  1.00  0.00    -0.246 OA
BRANCH  31  33
ATOM     33  C   UNL A   1      35.160  32.147  32.317  1.00  0.00     0.060 A 
ATOM     34  C   UNL A   1      35.155  33.199  33.232  1.00  0.00     0.016 A 
ATOM     35  C   UNL A   1      36.037  31.061  32.396  1.00  0.00     0.016 A 
ATOM     36  C   UNL A   1      36.334  33.426  33.881  1.00  0.00     0.010 A 
ATOM     37  C   UNL A   1      37.227  31.307  33.007  1.00  0.00     0.010 A 
ATOM     38  C   UNL A   1      37.388  32.547  33.621  1.00  0.00    -0.014 A 
BRANCH  38  39
ATOM     39  C   UNL A   1      38.705  32.949  34.018  1.00  0.00     0.031 A 
ATOM     40  C   UNL A   1      39.520  33.328  32.859  1.00  0.00     0.074 A 
ATOM     41  C   UNL A   1      39.071  33.012  35.308  1.00  0.00     0.049 A 
ATOM     42  N   UNL A   1      40.376  32.586  32.243  1.00  0.00    -0.248 NA
ATOM     43  C   UNL A   1      39.123  34.541  32.127  1.00  0.00     0.031 C 
ATOM     44  C   UNL A   1      38.260  32.909  36.523  1.00  0.00     0.029 A 
ATOM     45  N   UNL A   1      40.313  33.267  35.784  1.00  0.00    -0.354 N 
ATOM     46  C   UNL A   1      40.800  33.358  31.172  1.00  0.00     0.074 A 
ATOM     47  C   UNL A   1      39.803  34.377  30.994  1.00  0.00     0.031 C 
ATOM     48  C   UNL A   1      39.000  33.321  37.583  1.00  0.00     0.029 A 
ATOM     49  C   UNL A   1      40.356  33.583  37.136  1.00  0.00     0.049 A 
ATOM     50  H   UNL A   1      41.118  33.230  35.219  1.00  0.00     0.167 HD
ATOM     51  C   UNL A   1      42.077  33.284  30.714  1.00  0.00     0.037 A 
ATOM     52  C   UNL A   1      41.441  34.120  37.754  1.00  0.00     0.037 A 
ATOM     53  C   UNL A   1      42.738  32.103  31.218  1.00  0.00     0.049 A 
ATOM     54  C   UNL A   1      42.621  33.799  36.888  1.00  0.00     0.074 A 
ATOM     55  C   UNL A   1      42.502  30.747  31.089  1.00  0.00     0.029 A 
ATOM     56  N   UNL A   1      43.543  32.243  32.327  1.00  0.00    -0.354 N 
ATOM     57  N   UNL A   1      43.053  32.579  36.690  1.00  0.00    -0.248 NA
ATOM     58  C   UNL A   1      42.970  34.750  35.838  1.00  0.00     0.031 C 
ATOM     59  C   UNL A   1      42.781  30.196  32.374  1.00  0.00     0.029 A 
ATOM     60  C   UNL A   1      43.237  31.226  33.199  1.00  0.00     0.049 A 
ATOM     61  H   UNL A   1      44.217  32.947  32.468  1.00  0.00     0.167 HD
ATOM     62  C   UNL A   1      43.371  32.513  35.336  1.00  0.00     0.074 A 
ATOM     63  C   UNL A   1      43.351  33.900  34.876  1.00  0.00     0.031 C 
ATOM     64  C   UNL A   1      43.329  31.333  34.644  1.00  0.00     0.037 A 
BRANCH  51  65
ATOM     65  C   UNL A   1      42.814  34.452  30.115  1.00  0.00     0.058 A 
ATOM     66  C   UNL A   1      43.017  35.603  30.898  1.00  0.00     0.135 A 
ATOM     67  C   UNL A   1      43.124  34.589  28.741  1.00  0.00     0.135 A 
ATOM     68  F   UNL A   1      42.751  35.591  32.214  1.00  0.00    -0.206 F 
ATOM     69  C   UNL A   1      43.426  36.816  30.344  1.00  0.00     0.059 A 
ATOM     70  C   UNL A   1      43.597  35.766  28.183  1.00  0.00     0.059 A 
ATOM     71  F   UNL A   1      42.891  33.629  27.841  1.00  0.00    -0.206 F 
ATOM     72  C   UNL A   1      43.700  36.889  28.982  1.00  0.00     0.060 A 
BRANCH  72  73
ATOM     73  S   UNL A   1      44.107  38.474  28.238  1.00  0.00     0.124 S 
ATOM     74  O   UNL A   1      42.870  39.218  28.449  1.00  0.00    -0.237 OA
ATOM     75  O   UNL A   1      45.254  38.894  29.036  1.00  0.00    -0.237 OA
ATOM     76  O   UNL A   1      44.405  38.129  26.851  1.00  0.00    -0.744 OA
ENDBRANCH  72  73
ENDBRANCH  51  65
BRANCH  52  77
ATOM     77  C   UNL A   1      41.438  35.185  38.792  1.00  0.00     0.058 A 
ATOM     78  C   UNL A   1      42.220  35.091  39.956  1.00  0.00     0.135 A 
ATOM     79  C   UNL A   1      40.847  36.443  38.547  1.00  0.00     0.135 A 
ATOM     80  F   UNL A   1      42.851  33.945  40.252  1.00  0.00    -0.206 F 
ATOM     81  C   UNL A   1      42.416  36.183  40.815  1.00  0.00     0.059 A 
ATOM     82  C   UNL A   1      41.022  37.540  39.390  1.00  0.00     0.059 A 
ATOM     83  F   UNL A   1      40.144  36.671  37.428  1.00  0.00    -0.206 F 
ATOM     84  C   UNL A   1      41.823  37.409  40.515  1.00  0.00     0.060 A 
BRANCH  84  85
ATOM     85  S   UNL A   1      42.174  38.855  41.544  1.00  0.00     0.124 S 
ATOM     86  O   UNL A   1      42.015  39.950  40.594  1.00  0.00    -0.237 OA
ATOM     87  O   UNL A   1      41.148  38.752  42.577  1.00  0.00    -0.237 OA
ATOM     88  O   UNL A   1      43.541  38.623  42.003  1.00  0.00    -0.744 OA
ENDBRANCH  84  85
ENDBRANCH  52  77
BRANCH  64  89
ATOM     89  C   UNL A   1      43.127  30.051  35.421  1.00  0.00     0.058 A 
ATOM     90  C   UNL A   1      41.866  29.484  35.686  1.00  0.00     0.135 A 
ATOM     91  C   UNL A   1      44.251  29.273  35.737  1.00  0.00     0.135 A 
ATOM     92  F   UNL A   1      40.742  30.110  35.316  1.00  0.00    -0.206 F 
ATOM     93  C   UNL A   1      41.729  28.220  36.266  1.00  0.00     0.059 A 
ATOM     94  C   UNL A   1      44.138  27.999  36.289  1.00  0.00     0.059 A 
ATOM     95  F   UNL A   1      45.482  29.726  35.448  1.00  0.00    -0.206 F 
ATOM     96  C   UNL A   1      42.874  27.481  36.561  1.00  0.00     0.060 A 
BRANCH  96  97
ATOM     97  S   UNL A   1      42.696  25.813  37.234  1.00  0.00     0.124 S 
ATOM     98  O   UNL A   1      41.346  25.847  37.786  1.00  0.00    -0.237 OA
ATOM     99  O   UNL A   1      42.878  24.974  36.053  1.00  0.00    -0.237 OA
ATOM    100  O   UNL A   1      43.771  25.726  38.220  1.00  0.00    -0.744 OA
ENDBRANCH  96  97
ENDBRANCH  64  89
ENDBRANCH  38  39
ENDBRANCH  31  33
ENDBRANCH  30  31
ENDBRANCH  29  30
ENDBRANCH  28  29
ENDBRANCH  27  28
ENDBRANCH  26  27
ENDBRANCH   1  26
TORSDOF 25
ENDMDL
