MODEL 1
REMARK VINA RESULT:      -9.4      0.000      0.000
REMARK SMILES CCOC(=O)[C@H]1CCCN(c2cc(C(=O)OCCOCCOCCOCCOC(=O)c3ccc(-c4c5nc(c(-c6c(F)cc(S(=O)(=O)[O-])cc6F)c6ccc([nH]6)c(-c6c(F)cc(S(=O)(=O)[O-])cc6F)c6nc(c(-c7c(F)cc(S(=O)(=O)[O-])cc7F)c7ccc4[nH]7)C=C6)C=C5)cc3)c3cc(NC(=O)c4ccc(Cl)cc4)ccc3n2)C1
REMARK SMILES IDX 21 1 20 2 19 3 18 4 17 5 16 6 14 7 15 8 13 9 11 10 12 11
REMARK SMILES IDX 113 12 112 13 97 14 111 15 98 16 110 17 99 18 10 19 6 20
REMARK SMILES IDX 7 21 114 22 8 23 9 24 4 25 5 26 3 27 2 28 1 29 100 30 101 31
REMARK SMILES IDX 102 33 103 34 104 35 109 36 105 37 108 38 106 39 107 40
REMARK SMILES IDX 22 41 23 42 24 43 25 44 26 45 27 46 28 47 29 48 30 49 31 50
REMARK SMILES IDX 32 51 96 52 33 53 95 54 34 55 35 56 36 57 89 58 37 59 94 60
REMARK SMILES IDX 88 61 90 62 38 63 93 64 87 65 86 66 39 68 73 69 52 70 72 71
REMARK SMILES IDX 53 72 56 73 71 74 91 75 54 76 55 77 70 79 92 80 57 81 40 82
REMARK SMILES IDX 41 83 50 84 42 85 43 86 49 87 51 88 44 89 45 90 46 91 47 92
REMARK SMILES IDX 48 93 74 94 75 95 84 96 76 97 77 98 83 99 85 100 78 101
REMARK SMILES IDX 79 102 80 103 81 104 82 105 58 106 59 107 68 108 60 109
REMARK SMILES IDX 61 110 67 111 69 112 62 113 63 114 64 115 65 116 66 117
REMARK H PARENT 100 32 90 67 56 78
REMARK Flexibility Score: inf
ROOT
ATOM      1  C   UNL A   1      33.592  25.654  25.162  1.00  0.00     0.188 C 
ENDROOT
BRANCH   1   2
ATOM      2  C   UNL A   1      34.102  26.768  26.108  1.00  0.00     0.188 C 
BRANCH   2   3
ATOM      3  O   UNL A   1      33.924  28.104  25.691  1.00  0.00    -0.376 OA
BRANCH   3   4
ATOM      4  C   UNL A   1      33.259  29.094  26.449  1.00  0.00     0.202 C 
BRANCH   4   5
ATOM      5  C   UNL A   1      33.956  30.091  27.378  1.00  0.00     0.261 C 
BRANCH   5   6
ATOM      6  O   UNL A   1      35.173  29.637  27.967  1.00  0.00    -0.460 OA
BRANCH   6   7
ATOM      7  C   UNL A   1      36.034  30.610  28.341  1.00  0.00     0.339 C 
ATOM      8  O   UNL A   1      36.413  31.550  27.663  1.00  0.00    -0.246 OA
BRANCH   7   9
ATOM      9  C   UNL A   1      36.303  30.549  29.792  1.00  0.00     0.073 A 
ATOM     10  C   UNL A   1      35.998  31.674  31.869  1.00  0.00     0.130 A 
ATOM     11  C   UNL A   1      35.669  31.536  30.539  1.00  0.00     0.063 A 
ATOM     12  N   UNL A   1      36.979  30.943  32.428  1.00  0.00    -0.231 NA
ATOM     13  C   UNL A   1      37.554  29.951  31.728  1.00  0.00     0.074 A 
ATOM     14  C   UNL A   1      37.194  29.649  30.406  1.00  0.00     0.017 A 
ATOM     15  C   UNL A   1      38.538  29.185  32.335  1.00  0.00     0.031 A 
ATOM     16  C   UNL A   1      37.725  28.486  29.800  1.00  0.00     0.037 A 
ATOM     17  C   UNL A   1      39.124  28.087  31.694  1.00  0.00     0.028 A 
ATOM     18  C   UNL A   1      38.705  27.714  30.419  1.00  0.00     0.042 A 
BRANCH  10  19
ATOM     19  N   UNL A   1      35.367  32.615  32.637  1.00  0.00    -0.356 N 
ATOM     20  C   UNL A   1      34.459  34.838  32.155  1.00  0.00     0.118 C 
ATOM     21  C   UNL A   1      35.146  35.318  33.448  1.00  0.00     0.019 C 
ATOM     22  C   UNL A   1      34.192  33.333  32.169  1.00  0.00     0.133 C 
ATOM     23  C   UNL A   1      36.357  34.458  33.818  1.00  0.00     0.022 C 
ATOM     24  C   UNL A   1      35.969  32.982  33.901  1.00  0.00     0.118 C 
BRANCH  20  25
ATOM     25  C   UNL A   1      33.139  35.557  31.972  1.00  0.00     0.310 C 
ATOM     26  O   UNL A   1      32.647  36.327  32.788  1.00  0.00    -0.252 OA
BRANCH  25  27
ATOM     27  O   UNL A   1      32.569  35.221  30.782  1.00  0.00    -0.466 OA
BRANCH  27  28
ATOM     28  C   UNL A   1      33.422  35.346  29.632  1.00  0.00     0.229 C 
ATOM     29  C   UNL A   1      33.350  36.748  29.056  1.00  0.00     0.049 C 
ENDBRANCH  27  28
ENDBRANCH  25  27
ENDBRANCH  20  25
ENDBRANCH  10  19
BRANCH  18  30
ATOM     30  N   UNL A   1      39.261  26.547  29.871  1.00  0.00    -0.322 N 
ATOM     31  C   UNL A   1      40.115  26.328  28.812  1.00  0.00     0.255 C 
ATOM     32  H   UNL A   1      38.988  25.721  30.335  1.00  0.00     0.170 HD
ATOM     33  O   UNL A   1      40.190  25.203  28.324  1.00  0.00    -0.269 OA
BRANCH  31  34
ATOM     34  C   UNL A   1      40.972  27.398  28.255  1.00  0.00     0.040 A 
ATOM     35  C   UNL A   1      42.171  27.698  28.910  1.00  0.00     0.015 A 
ATOM     36  C   UNL A   1      40.594  28.118  27.113  1.00  0.00     0.015 A 
ATOM     37  C   UNL A   1      43.010  28.693  28.405  1.00  0.00     0.021 A 
ATOM     38  C   UNL A   1      41.451  29.089  26.590  1.00  0.00     0.021 A 
ATOM     39  C   UNL A   1      42.647  29.382  27.245  1.00  0.00     0.041 A 
ATOM     40  Cl  UNL A   1      43.698  30.584  26.600  1.00  0.00    -0.084 Cl
ENDBRANCH  31  34
ENDBRANCH  18  30
ENDBRANCH   7   9
ENDBRANCH   6   7
ENDBRANCH   5   6
ENDBRANCH   4   5
ENDBRANCH   3   4
ENDBRANCH   2   3
ENDBRANCH   1   2
BRANCH   1  41
ATOM     41  O   UNL A   1      33.889  24.297  25.436  1.00  0.00    -0.377 OA
BRANCH  41  42
ATOM     42  C   UNL A   1      35.251  23.991  25.670  1.00  0.00     0.188 C 
BRANCH  42  43
ATOM     43  C   UNL A   1      35.723  22.741  24.904  1.00  0.00     0.188 C 
BRANCH  43  44
ATOM     44  O   UNL A   1      36.353  21.658  25.573  1.00  0.00    -0.376 OA
BRANCH  44  45
ATOM     45  C   UNL A   1      37.702  21.313  25.304  1.00  0.00     0.202 C 
BRANCH  45  46
ATOM     46  C   UNL A   1      38.900  21.976  26.017  1.00  0.00     0.261 C 
BRANCH  46  47
ATOM     47  O   UNL A   1      39.729  21.156  26.843  1.00  0.00    -0.460 OA
BRANCH  47  48
ATOM     48  C   UNL A   1      40.813  20.628  26.230  1.00  0.00     0.338 C 
ATOM     49  O   UNL A   1      40.877  19.586  25.610  1.00  0.00    -0.246 OA
BRANCH  48  50
ATOM     50  C   UNL A   1      41.905  21.619  26.307  1.00  0.00     0.060 A 
ATOM     51  C   UNL A   1      43.174  21.190  26.718  1.00  0.00     0.016 A 
ATOM     52  C   UNL A   1      41.666  22.965  26.022  1.00  0.00     0.016 A 
ATOM     53  C   UNL A   1      44.205  22.110  26.877  1.00  0.00     0.010 A 
ATOM     54  C   UNL A   1      42.691  23.893  26.217  1.00  0.00     0.010 A 
ATOM     55  C   UNL A   1      43.950  23.471  26.682  1.00  0.00    -0.014 A 
BRANCH  55  56
ATOM     56  C   UNL A   1      44.920  24.464  27.193  1.00  0.00     0.031 A 
ATOM     57  C   UNL A   1      44.753  24.958  28.601  1.00  0.00     0.074 A 
ATOM     58  C   UNL A   1      45.935  24.902  26.429  1.00  0.00     0.049 A 
ATOM     59  N   UNL A   1      45.428  25.870  29.248  1.00  0.00    -0.248 NA
ATOM     60  C   UNL A   1      43.666  24.342  29.380  1.00  0.00     0.031 C 
ATOM     61  C   UNL A   1      46.210  24.463  25.064  1.00  0.00     0.029 A 
ATOM     62  N   UNL A   1      46.907  25.832  26.692  1.00  0.00    -0.354 N 
ATOM     63  C   UNL A   1      44.839  25.951  30.504  1.00  0.00     0.074 A 
ATOM     64  C   UNL A   1      43.734  25.017  30.516  1.00  0.00     0.031 C 
ATOM     65  C   UNL A   1      47.265  25.148  24.593  1.00  0.00     0.029 A 
ATOM     66  C   UNL A   1      47.716  26.095  25.613  1.00  0.00     0.049 A 
ATOM     67  H   UNL A   1      47.016  26.268  27.568  1.00  0.00     0.167 HD
ATOM     68  C   UNL A   1      45.190  26.732  31.552  1.00  0.00     0.037 A 
ATOM     69  C   UNL A   1      48.681  27.022  25.459  1.00  0.00     0.037 A 
ATOM     70  C   UNL A   1      46.282  27.669  31.517  1.00  0.00     0.049 A 
ATOM     71  C   UNL A   1      49.023  27.926  26.614  1.00  0.00     0.074 A 
ATOM     72  C   UNL A   1      46.740  28.498  32.525  1.00  0.00     0.029 A 
ATOM     73  N   UNL A   1      47.077  27.916  30.405  1.00  0.00    -0.354 N 
ATOM     74  N   UNL A   1      48.483  27.978  27.810  1.00  0.00    -0.248 NA
ATOM     75  C   UNL A   1      50.108  28.894  26.403  1.00  0.00     0.031 C 
ATOM     76  C   UNL A   1      47.771  29.288  32.005  1.00  0.00     0.029 A 
ATOM     77  C   UNL A   1      48.002  28.907  30.692  1.00  0.00     0.049 A 
ATOM     78  H   UNL A   1      46.996  27.455  29.539  1.00  0.00     0.167 HD
ATOM     79  C   UNL A   1      49.173  28.970  28.499  1.00  0.00     0.074 A 
ATOM     80  C   UNL A   1      50.180  29.482  27.590  1.00  0.00     0.031 C 
ATOM     81  C   UNL A   1      48.994  29.411  29.771  1.00  0.00     0.037 A 
BRANCH  68  82
ATOM     82  C   UNL A   1      44.344  26.637  32.794  1.00  0.00     0.058 A 
ATOM     83  C   UNL A   1      43.241  27.481  33.011  1.00  0.00     0.135 A 
ATOM     84  C   UNL A   1      44.660  25.708  33.798  1.00  0.00     0.135 A 
ATOM     85  F   UNL A   1      42.902  28.402  32.094  1.00  0.00    -0.206 F 
ATOM     86  C   UNL A   1      42.519  27.444  34.201  1.00  0.00     0.059 A 
ATOM     87  C   UNL A   1      43.931  25.630  34.980  1.00  0.00     0.059 A 
ATOM     88  F   UNL A   1      45.702  24.876  33.645  1.00  0.00    -0.206 F 
ATOM     89  C   UNL A   1      42.879  26.521  35.183  1.00  0.00     0.060 A 
BRANCH  89  90
ATOM     90  S   UNL A   1      41.962  26.513  36.738  1.00  0.00     0.124 S 
ATOM     91  O   UNL A   1      43.033  26.732  37.707  1.00  0.00    -0.237 OA
ATOM     92  O   UNL A   1      41.033  27.624  36.559  1.00  0.00    -0.237 OA
ATOM     93  O   UNL A   1      41.352  25.187  36.768  1.00  0.00    -0.744 OA
ENDBRANCH  89  90
ENDBRANCH  68  82
BRANCH  69  94
ATOM     94  C   UNL A   1      49.372  27.137  24.148  1.00  0.00     0.058 A 
ATOM     95  C   UNL A   1      50.688  26.684  23.976  1.00  0.00     0.135 A 
ATOM     96  C   UNL A   1      48.702  27.642  23.022  1.00  0.00     0.135 A 
ATOM     97  F   UNL A   1      51.376  26.207  25.024  1.00  0.00    -0.206 F 
ATOM     98  C   UNL A   1      51.311  26.715  22.732  1.00  0.00     0.059 A 
ATOM     99  C   UNL A   1      49.294  27.658  21.763  1.00  0.00     0.059 A 
ATOM    100  F   UNL A   1      47.442  28.089  23.136  1.00  0.00    -0.206 F 
ATOM    101  C   UNL A   1      50.599  27.189  21.628  1.00  0.00     0.060 A 
BRANCH 101 102
ATOM    102  S   UNL A   1      51.385  27.125  20.002  1.00  0.00     0.124 S 
ATOM    103  O   UNL A   1      52.022  25.814  20.033  1.00  0.00    -0.237 OA
ATOM    104  O   UNL A   1      50.240  27.257  19.106  1.00  0.00    -0.237 OA
ATOM    105  O   UNL A   1      52.293  28.268  20.018  1.00  0.00    -0.744 OA
ENDBRANCH 101 102
ENDBRANCH  69  94
BRANCH  81 106
ATOM    106  C   UNL A   1      49.923  30.486  30.273  1.00  0.00     0.058 A 
ATOM    107  C   UNL A   1      51.152  30.182  30.879  1.00  0.00     0.135 A 
ATOM    108  C   UNL A   1      49.604  31.842  30.088  1.00  0.00     0.135 A 
ATOM    109  F   UNL A   1      51.506  28.904  31.085  1.00  0.00    -0.206 F 
ATOM    110  C   UNL A   1      52.021  31.184  31.304  1.00  0.00     0.059 A 
ATOM    111  C   UNL A   1      50.471  32.858  30.476  1.00  0.00     0.059 A 
ATOM    112  F   UNL A   1      48.447  32.190  29.503  1.00  0.00    -0.206 F 
ATOM    113  C   UNL A   1      51.673  32.519  31.095  1.00  0.00     0.060 A 
BRANCH 113 114
ATOM    114  S   UNL A   1      52.823  33.807  31.622  1.00  0.00     0.124 S 
ATOM    115  O   UNL A   1      53.162  33.365  32.971  1.00  0.00    -0.237 OA
ATOM    116  O   UNL A   1      53.889  33.697  30.632  1.00  0.00    -0.237 OA
ATOM    117  O   UNL A   1      52.027  35.028  31.544  1.00  0.00    -0.744 OA
ENDBRANCH 113 114
ENDBRANCH  81 106
ENDBRANCH  55  56
ENDBRANCH  48  50
ENDBRANCH  47  48
ENDBRANCH  46  47
ENDBRANCH  45  46
ENDBRANCH  44  45
ENDBRANCH  43  44
ENDBRANCH  42  43
ENDBRANCH  41  42
ENDBRANCH   1  41
TORSDOF 29
ENDMDL
MODEL 2
REMARK VINA RESULT:      -8.5      4.116      7.217
REMARK SMILES CCOC(=O)[C@H]1CCCN(c2cc(C(=O)OCCOCCOCCOCCOC(=O)c3ccc(-c4c5nc(c(-c6c(F)cc(S(=O)(=O)[O-])cc6F)c6ccc([nH]6)c(-c6c(F)cc(S(=O)(=O)[O-])cc6F)c6nc(c(-c7c(F)cc(S(=O)(=O)[O-])cc7F)c7ccc4[nH]7)C=C6)C=C5)cc3)c3cc(NC(=O)c4ccc(Cl)cc4)ccc3n2)C1
REMARK SMILES IDX 21 1 20 2 19 3 18 4 17 5 16 6 14 7 15 8 13 9 11 10 12 11
REMARK SMILES IDX 113 12 112 13 97 14 111 15 98 16 110 17 99 18 10 19 6 20
REMARK SMILES IDX 7 21 114 22 8 23 9 24 4 25 5 26 3 27 2 28 1 29 100 30 101 31
REMARK SMILES IDX 102 33 103 34 104 35 109 36 105 37 108 38 106 39 107 40
REMARK SMILES IDX 22 41 23 42 24 43 25 44 26 45 27 46 28 47 29 48 30 49 31 50
REMARK SMILES IDX 32 51 96 52 33 53 95 54 34 55 35 56 36 57 89 58 37 59 94 60
REMARK SMILES IDX 88 61 90 62 38 63 93 64 87 65 86 66 39 68 73 69 52 70 72 71
REMARK SMILES IDX 53 72 56 73 71 74 91 75 54 76 55 77 70 79 92 80 57 81 40 82
REMARK SMILES IDX 41 83 50 84 42 85 43 86 49 87 51 88 44 89 45 90 46 91 47 92
REMARK SMILES IDX 48 93 74 94 75 95 84 96 76 97 77 98 83 99 85 100 78 101
REMARK SMILES IDX 79 102 80 103 81 104 82 105 58 106 59 107 68 108 60 109
REMARK SMILES IDX 61 110 67 111 69 112 62 113 63 114 64 115 65 116 66 117
REMARK H PARENT 100 32 90 67 56 78
REMARK Flexibility Score: inf
ROOT
ATOM      1  C   UNL A   1      40.313  25.448  27.541  1.00  0.00     0.188 C 
ENDROOT
BRANCH   1   2
ATOM      2  C   UNL A   1      40.754  26.867  27.106  1.00  0.00     0.188 C 
BRANCH   2   3
ATOM      3  O   UNL A   1      40.869  27.847  28.114  1.00  0.00    -0.376 OA
BRANCH   3   4
ATOM      4  C   UNL A   1      39.801  28.282  28.930  1.00  0.00     0.202 C 
BRANCH   4   5
ATOM      5  C   UNL A   1      39.180  29.680  28.873  1.00  0.00     0.261 C 
BRANCH   5   6
ATOM      6  O   UNL A   1      37.882  29.755  28.288  1.00  0.00    -0.460 OA
BRANCH   6   7
ATOM      7  C   UNL A   1      36.850  29.569  29.141  1.00  0.00     0.339 C 
ATOM      8  O   UNL A   1      36.913  29.139  30.281  1.00  0.00    -0.246 OA
BRANCH   7   9
ATOM      9  C   UNL A   1      35.612  30.179  28.616  1.00  0.00     0.073 A 
ATOM     10  C   UNL A   1      33.849  29.933  27.034  1.00  0.00     0.130 A 
ATOM     11  C   UNL A   1      34.914  29.385  27.713  1.00  0.00     0.063 A 
ATOM     12  N   UNL A   1      33.535  31.236  27.156  1.00  0.00    -0.231 NA
ATOM     13  C   UNL A   1      34.169  31.992  28.067  1.00  0.00     0.074 A 
ATOM     14  C   UNL A   1      35.181  31.489  28.898  1.00  0.00     0.017 A 
ATOM     15  C   UNL A   1      33.805  33.324  28.203  1.00  0.00     0.031 A 
ATOM     16  C   UNL A   1      35.678  32.303  29.944  1.00  0.00     0.037 A 
ATOM     17  C   UNL A   1      34.367  34.150  29.184  1.00  0.00     0.028 A 
ATOM     18  C   UNL A   1      35.300  33.637  30.081  1.00  0.00     0.042 A 
BRANCH  10  19
ATOM     19  N   UNL A   1      33.122  29.167  26.164  1.00  0.00    -0.356 N 
ATOM     20  C   UNL A   1      32.625  26.771  26.054  1.00  0.00     0.118 C 
ATOM     21  C   UNL A   1      32.953  26.847  24.551  1.00  0.00     0.019 C 
ATOM     22  C   UNL A   1      32.212  28.128  26.623  1.00  0.00     0.133 C 
ATOM     23  C   UNL A   1      33.912  27.994  24.221  1.00  0.00     0.022 C 
ATOM     24  C   UNL A   1      33.367  29.323  24.746  1.00  0.00     0.118 C 
BRANCH  20  25
ATOM     25  C   UNL A   1      31.495  25.791  26.288  1.00  0.00     0.310 C 
ATOM     26  O   UNL A   1      30.345  26.107  26.565  1.00  0.00    -0.252 OA
BRANCH  25  27
ATOM     27  O   UNL A   1      31.936  24.508  26.160  1.00  0.00    -0.466 OA
BRANCH  27  28
ATOM     28  C   UNL A   1      30.963  23.567  25.674  1.00  0.00     0.229 C 
ATOM     29  C   UNL A   1      30.259  22.876  26.827  1.00  0.00     0.049 C 
ENDBRANCH  27  28
ENDBRANCH  25  27
ENDBRANCH  20  25
ENDBRANCH  10  19
BRANCH  18  30
ATOM     30  N   UNL A   1      35.752  34.490  31.103  1.00  0.00    -0.322 N 
ATOM     31  C   UNL A   1      36.484  34.267  32.248  1.00  0.00     0.255 C 
ATOM     32  H   UNL A   1      35.496  35.433  30.974  1.00  0.00     0.170 HD
ATOM     33  O   UNL A   1      36.465  35.106  33.145  1.00  0.00    -0.269 OA
BRANCH  31  34
ATOM     34  C   UNL A   1      37.320  33.060  32.429  1.00  0.00     0.040 A 
ATOM     35  C   UNL A   1      36.828  32.024  33.229  1.00  0.00     0.015 A 
ATOM     36  C   UNL A   1      38.587  32.952  31.839  1.00  0.00     0.015 A 
ATOM     37  C   UNL A   1      37.584  30.865  33.411  1.00  0.00     0.021 A 
ATOM     38  C   UNL A   1      39.327  31.777  31.993  1.00  0.00     0.021 A 
ATOM     39  C   UNL A   1      38.829  30.746  32.790  1.00  0.00     0.041 A 
ATOM     40  Cl  UNL A   1      39.747  29.302  32.984  1.00  0.00    -0.084 Cl
ENDBRANCH  31  34
ENDBRANCH  18  30
ENDBRANCH   7   9
ENDBRANCH   6   7
ENDBRANCH   5   6
ENDBRANCH   4   5
ENDBRANCH   3   4
ENDBRANCH   2   3
ENDBRANCH   1   2
BRANCH   1  41
ATOM     41  O   UNL A   1      40.339  24.380  26.612  1.00  0.00    -0.377 OA
BRANCH  41  42
ATOM     42  C   UNL A   1      39.577  23.237  26.953  1.00  0.00     0.188 C 
BRANCH  42  43
ATOM     43  C   UNL A   1      40.293  21.917  26.610  1.00  0.00     0.188 C 
BRANCH  43  44
ATOM     44  O   UNL A   1      41.658  21.709  26.943  1.00  0.00    -0.376 OA
BRANCH  44  45
ATOM     45  C   UNL A   1      42.490  20.877  26.151  1.00  0.00     0.202 C 
BRANCH  45  46
ATOM     46  C   UNL A   1      43.747  21.394  25.419  1.00  0.00     0.261 C 
BRANCH  46  47
ATOM     47  O   UNL A   1      44.478  22.469  26.013  1.00  0.00    -0.460 OA
BRANCH  47  48
ATOM     48  C   UNL A   1      45.802  22.487  25.741  1.00  0.00     0.338 C 
ATOM     49  O   UNL A   1      46.476  21.584  25.289  1.00  0.00    -0.246 OA
BRANCH  48  50
ATOM     50  C   UNL A   1      46.288  23.867  25.944  1.00  0.00     0.060 A 
ATOM     51  C   UNL A   1      45.999  24.831  24.970  1.00  0.00     0.016 A 
ATOM     52  C   UNL A   1      47.061  24.191  27.060  1.00  0.00     0.016 A 
ATOM     53  C   UNL A   1      46.507  26.120  25.090  1.00  0.00     0.010 A 
ATOM     54  C   UNL A   1      47.601  25.475  27.163  1.00  0.00     0.010 A 
ATOM     55  C   UNL A   1      47.357  26.428  26.158  1.00  0.00    -0.014 A 
BRANCH  55  56
ATOM     56  C   UNL A   1      48.173  27.660  26.093  1.00  0.00     0.031 A 
ATOM     57  C   UNL A   1      47.657  28.889  26.785  1.00  0.00     0.074 A 
ATOM     58  C   UNL A   1      49.352  27.682  25.449  1.00  0.00     0.049 A 
ATOM     59  N   UNL A   1      48.151  30.097  26.814  1.00  0.00    -0.248 NA
ATOM     60  C   UNL A   1      46.403  28.729  27.541  1.00  0.00     0.031 C 
ATOM     61  C   UNL A   1      49.962  26.539  24.775  1.00  0.00     0.029 A 
ATOM     62  N   UNL A   1      50.232  28.712  25.241  1.00  0.00    -0.354 N 
ATOM     63  C   UNL A   1      47.262  30.847  27.574  1.00  0.00     0.074 A 
ATOM     64  C   UNL A   1      46.184  29.964  27.962  1.00  0.00     0.031 C 
ATOM     65  C   UNL A   1      51.107  26.939  24.197  1.00  0.00     0.029 A 
ATOM     66  C   UNL A   1      51.290  28.371  24.435  1.00  0.00     0.049 A 
ATOM     67  H   UNL A   1      50.118  29.608  25.632  1.00  0.00     0.167 HD
ATOM     68  C   UNL A   1      47.341  32.154  27.920  1.00  0.00     0.037 A 
ATOM     69  C   UNL A   1      52.270  29.138  23.919  1.00  0.00     0.037 A 
ATOM     70  C   UNL A   1      48.413  33.023  27.511  1.00  0.00     0.049 A 
ATOM     71  C   UNL A   1      52.314  30.604  24.262  1.00  0.00     0.074 A 
ATOM     72  C   UNL A   1      48.605  34.358  27.818  1.00  0.00     0.029 A 
ATOM     73  N   UNL A   1      49.467  32.646  26.688  1.00  0.00    -0.354 N 
ATOM     74  N   UNL A   1      51.487  31.302  25.006  1.00  0.00    -0.248 NA
ATOM     75  C   UNL A   1      53.423  31.386  23.702  1.00  0.00     0.031 C 
ATOM     76  C   UNL A   1      49.740  34.803  27.131  1.00  0.00     0.029 A 
ATOM     77  C   UNL A   1      50.296  33.731  26.449  1.00  0.00     0.049 A 
ATOM     78  H   UNL A   1      49.605  31.742  26.326  1.00  0.00     0.167 HD
ATOM     79  C   UNL A   1      51.986  32.600  25.019  1.00  0.00     0.074 A 
ATOM     80  C   UNL A   1      53.195  32.586  24.218  1.00  0.00     0.031 C 
ATOM     81  C   UNL A   1      51.492  33.702  25.642  1.00  0.00     0.037 A 
BRANCH  68  82
ATOM     82  C   UNL A   1      46.206  32.719  28.731  1.00  0.00     0.058 A 
ATOM     83  C   UNL A   1      46.197  32.671  30.136  1.00  0.00     0.135 A 
ATOM     84  C   UNL A   1      45.094  33.290  28.092  1.00  0.00     0.135 A 
ATOM     85  F   UNL A   1      47.225  32.120  30.802  1.00  0.00    -0.206 F 
ATOM     86  C   UNL A   1      45.102  33.116  30.873  1.00  0.00     0.059 A 
ATOM     87  C   UNL A   1      44.004  33.774  28.809  1.00  0.00     0.059 A 
ATOM     88  F   UNL A   1      45.047  33.363  26.753  1.00  0.00    -0.206 F 
ATOM     89  C   UNL A   1      44.007  33.658  30.198  1.00  0.00     0.060 A 
BRANCH  89  90
ATOM     90  S   UNL A   1      42.578  34.191  31.163  1.00  0.00     0.124 S 
ATOM     91  O   UNL A   1      42.531  33.168  32.204  1.00  0.00    -0.237 OA
ATOM     92  O   UNL A   1      42.977  35.524  31.603  1.00  0.00    -0.237 OA
ATOM     93  O   UNL A   1      41.483  34.154  30.198  1.00  0.00    -0.744 OA
ENDBRANCH  89  90
ENDBRANCH  68  82
BRANCH  69  94
ATOM     94  C   UNL A   1      53.273  28.519  23.012  1.00  0.00     0.058 A 
ATOM     95  C   UNL A   1      53.128  28.577  21.619  1.00  0.00     0.135 A 
ATOM     96  C   UNL A   1      54.432  27.915  23.525  1.00  0.00     0.135 A 
ATOM     97  F   UNL A   1      52.032  29.130  21.080  1.00  0.00    -0.206 F 
ATOM     98  C   UNL A   1      54.104  28.071  20.765  1.00  0.00     0.059 A 
ATOM     99  C   UNL A   1      55.434  27.427  22.692  1.00  0.00     0.059 A 
ATOM    100  F   UNL A   1      54.615  27.834  24.852  1.00  0.00    -0.206 F 
ATOM    101  C   UNL A   1      55.261  27.512  21.312  1.00  0.00     0.060 A 
BRANCH 101 102
ATOM    102  S   UNL A   1      56.564  26.955  20.191  1.00  0.00     0.124 S 
ATOM    103  O   UNL A   1      56.096  25.622  19.831  1.00  0.00    -0.237 OA
ATOM    104  O   UNL A   1      56.504  27.959  19.133  1.00  0.00    -0.237 OA
ATOM    105  O   UNL A   1      57.766  26.999  21.018  1.00  0.00    -0.744 OA
ENDBRANCH 101 102
ENDBRANCH  69  94
BRANCH  81 106
ATOM    106  C   UNL A   1      52.271  34.985  25.509  1.00  0.00     0.058 A 
ATOM    107  C   UNL A   1      51.921  35.973  24.575  1.00  0.00     0.135 A 
ATOM    108  C   UNL A   1      53.347  35.253  26.372  1.00  0.00     0.135 A 
ATOM    109  F   UNL A   1      50.905  35.768  23.723  1.00  0.00    -0.206 F 
ATOM    110  C   UNL A   1      52.624  37.172  24.488  1.00  0.00     0.059 A 
ATOM    111  C   UNL A   1      54.043  36.457  26.323  1.00  0.00     0.059 A 
ATOM    112  F   UNL A   1      53.717  34.349  27.292  1.00  0.00    -0.206 F 
ATOM    113  C   UNL A   1      53.681  37.406  25.368  1.00  0.00     0.060 A 
BRANCH 113 114
ATOM    114  S   UNL A   1      54.563  38.978  25.265  1.00  0.00     0.124 S 
ATOM    115  O   UNL A   1      53.801  39.676  24.234  1.00  0.00    -0.237 OA
ATOM    116  O   UNL A   1      54.426  39.503  26.619  1.00  0.00    -0.237 OA
ATOM    117  O   UNL A   1      55.917  38.585  24.885  1.00  0.00    -0.744 OA
ENDBRANCH 113 114
ENDBRANCH  81 106
ENDBRANCH  55  56
ENDBRANCH  48  50
ENDBRANCH  47  48
ENDBRANCH  46  47
ENDBRANCH  45  46
ENDBRANCH  44  45
ENDBRANCH  43  44
ENDBRANCH  42  43
ENDBRANCH  41  42
ENDBRANCH   1  41
TORSDOF 29
ENDMDL
MODEL 3
REMARK VINA RESULT:      -8.4      4.452      9.228
REMARK SMILES CCOC(=O)[C@H]1CCCN(c2cc(C(=O)OCCOCCOCCOCCOC(=O)c3ccc(-c4c5nc(c(-c6c(F)cc(S(=O)(=O)[O-])cc6F)c6ccc([nH]6)c(-c6c(F)cc(S(=O)(=O)[O-])cc6F)c6nc(c(-c7c(F)cc(S(=O)(=O)[O-])cc7F)c7ccc4[nH]7)C=C6)C=C5)cc3)c3cc(NC(=O)c4ccc(Cl)cc4)ccc3n2)C1
REMARK SMILES IDX 21 1 20 2 19 3 18 4 17 5 16 6 14 7 15 8 13 9 11 10 12 11
REMARK SMILES IDX 113 12 112 13 97 14 111 15 98 16 110 17 99 18 10 19 6 20
REMARK SMILES IDX 7 21 114 22 8 23 9 24 4 25 5 26 3 27 2 28 1 29 100 30 101 31
REMARK SMILES IDX 102 33 103 34 104 35 109 36 105 37 108 38 106 39 107 40
REMARK SMILES IDX 22 41 23 42 24 43 25 44 26 45 27 46 28 47 29 48 30 49 31 50
REMARK SMILES IDX 32 51 96 52 33 53 95 54 34 55 35 56 36 57 89 58 37 59 94 60
REMARK SMILES IDX 88 61 90 62 38 63 93 64 87 65 86 66 39 68 73 69 52 70 72 71
REMARK SMILES IDX 53 72 56 73 71 74 91 75 54 76 55 77 70 79 92 80 57 81 40 82
REMARK SMILES IDX 41 83 50 84 42 85 43 86 49 87 51 88 44 89 45 90 46 91 47 92
REMARK SMILES IDX 48 93 74 94 75 95 84 96 76 97 77 98 83 99 85 100 78 101
REMARK SMILES IDX 79 102 80 103 81 104 82 105 58 106 59 107 68 108 60 109
REMARK SMILES IDX 61 110 67 111 69 112 62 113 63 114 64 115 65 116 66 117
REMARK H PARENT 100 32 90 67 56 78
REMARK Flexibility Score: inf
ROOT
ATOM      1  C   UNL A   1      40.342  26.165  27.284  1.00  0.00     0.188 C 
ENDROOT
BRANCH   1   2
ATOM      2  C   UNL A   1      40.934  27.508  26.790  1.00  0.00     0.188 C 
BRANCH   2   3
ATOM      3  O   UNL A   1      41.262  28.470  27.768  1.00  0.00    -0.376 OA
BRANCH   3   4
ATOM      4  C   UNL A   1      40.314  29.232  28.487  1.00  0.00     0.202 C 
BRANCH   4   5
ATOM      5  C   UNL A   1      39.002  29.763  27.902  1.00  0.00     0.261 C 
BRANCH   5   6
ATOM      6  O   UNL A   1      37.840  28.992  28.196  1.00  0.00    -0.460 OA
BRANCH   6   7
ATOM      7  C   UNL A   1      37.059  29.476  29.187  1.00  0.00     0.339 C 
ATOM      8  O   UNL A   1      37.374  29.629  30.356  1.00  0.00    -0.246 OA
BRANCH   7   9
ATOM      9  C   UNL A   1      35.806  30.042  28.647  1.00  0.00     0.073 A 
ATOM     10  C   UNL A   1      34.071  29.731  27.045  1.00  0.00     0.130 A 
ATOM     11  C   UNL A   1      35.147  29.222  27.738  1.00  0.00     0.063 A 
ATOM     12  N   UNL A   1      33.711  31.023  27.160  1.00  0.00    -0.231 NA
ATOM     13  C   UNL A   1      34.308  31.802  28.077  1.00  0.00     0.074 A 
ATOM     14  C   UNL A   1      35.328  31.337  28.921  1.00  0.00     0.017 A 
ATOM     15  C   UNL A   1      33.896  33.121  28.205  1.00  0.00     0.031 A 
ATOM     16  C   UNL A   1      35.783  32.170  29.970  1.00  0.00     0.037 A 
ATOM     17  C   UNL A   1      34.418  33.968  29.190  1.00  0.00     0.028 A 
ATOM     18  C   UNL A   1      35.358  33.489  30.100  1.00  0.00     0.042 A 
BRANCH  10  19
ATOM     19  N   UNL A   1      33.382  28.938  26.168  1.00  0.00    -0.356 N 
ATOM     20  C   UNL A   1      33.979  26.930  24.900  1.00  0.00     0.118 C 
ATOM     21  C   UNL A   1      33.304  27.588  23.682  1.00  0.00     0.019 C 
ATOM     22  C   UNL A   1      33.451  27.486  26.222  1.00  0.00     0.133 C 
ATOM     23  C   UNL A   1      33.297  29.116  23.774  1.00  0.00     0.022 C 
ATOM     24  C   UNL A   1      32.663  29.577  25.086  1.00  0.00     0.118 C 
BRANCH  20  25
ATOM     25  C   UNL A   1      33.740  25.435  24.880  1.00  0.00     0.310 C 
ATOM     26  O   UNL A   1      34.361  24.621  25.552  1.00  0.00    -0.252 OA
BRANCH  25  27
ATOM     27  O   UNL A   1      32.748  25.118  24.002  1.00  0.00    -0.466 OA
BRANCH  27  28
ATOM     28  C   UNL A   1      31.549  24.587  24.593  1.00  0.00     0.229 C 
ATOM     29  C   UNL A   1      30.832  23.666  23.623  1.00  0.00     0.049 C 
ENDBRANCH  27  28
ENDBRANCH  25  27
ENDBRANCH  20  25
ENDBRANCH  10  19
BRANCH  18  30
ATOM     30  N   UNL A   1      35.768  34.359  31.124  1.00  0.00    -0.322 N 
ATOM     31  C   UNL A   1      36.849  34.351  31.978  1.00  0.00     0.255 C 
ATOM     32  H   UNL A   1      35.165  35.127  31.258  1.00  0.00     0.170 HD
ATOM     33  O   UNL A   1      36.811  35.030  33.001  1.00  0.00    -0.269 OA
BRANCH  31  34
ATOM     34  C   UNL A   1      38.074  33.572  31.694  1.00  0.00     0.040 A 
ATOM     35  C   UNL A   1      38.399  32.510  32.545  1.00  0.00     0.015 A 
ATOM     36  C   UNL A   1      38.911  33.891  30.616  1.00  0.00     0.015 A 
ATOM     37  C   UNL A   1      39.540  31.745  32.299  1.00  0.00     0.021 A 
ATOM     38  C   UNL A   1      40.034  33.103  30.351  1.00  0.00     0.021 A 
ATOM     39  C   UNL A   1      40.351  32.043  31.201  1.00  0.00     0.041 A 
ATOM     40  Cl  UNL A   1      41.739  31.077  30.876  1.00  0.00    -0.084 Cl
ENDBRANCH  31  34
ENDBRANCH  18  30
ENDBRANCH   7   9
ENDBRANCH   6   7
ENDBRANCH   5   6
ENDBRANCH   4   5
ENDBRANCH   3   4
ENDBRANCH   2   3
ENDBRANCH   1   2
BRANCH   1  41
ATOM     41  O   UNL A   1      39.894  25.200  26.350  1.00  0.00    -0.377 OA
BRANCH  41  42
ATOM     42  C   UNL A   1      38.954  24.256  26.828  1.00  0.00     0.188 C 
BRANCH  42  43
ATOM     43  C   UNL A   1      39.439  22.802  26.682  1.00  0.00     0.188 C 
BRANCH  43  44
ATOM     44  O   UNL A   1      40.729  22.405  27.127  1.00  0.00    -0.376 OA
BRANCH  44  45
ATOM     45  C   UNL A   1      41.663  21.814  26.240  1.00  0.00     0.202 C 
BRANCH  45  46
ATOM     46  C   UNL A   1      43.011  22.472  25.873  1.00  0.00     0.261 C 
BRANCH  46  47
ATOM     47  O   UNL A   1      43.277  23.784  26.373  1.00  0.00    -0.460 OA
BRANCH  47  48
ATOM     48  C   UNL A   1      44.083  23.836  27.457  1.00  0.00     0.338 C 
ATOM     49  O   UNL A   1      44.042  23.129  28.444  1.00  0.00    -0.246 OA
BRANCH  48  50
ATOM     50  C   UNL A   1      45.150  24.820  27.182  1.00  0.00     0.060 A 
ATOM     51  C   UNL A   1      45.797  25.430  28.265  1.00  0.00     0.016 A 
ATOM     52  C   UNL A   1      45.472  25.171  25.870  1.00  0.00     0.016 A 
ATOM     53  C   UNL A   1      46.750  26.418  28.042  1.00  0.00     0.010 A 
ATOM     54  C   UNL A   1      46.403  26.188  25.648  1.00  0.00     0.010 A 
ATOM     55  C   UNL A   1      47.013  26.839  26.735  1.00  0.00    -0.014 A 
BRANCH  55  56
ATOM     56  C   UNL A   1      47.739  28.111  26.523  1.00  0.00     0.031 A 
ATOM     57  C   UNL A   1      49.217  28.047  26.263  1.00  0.00     0.074 A 
ATOM     58  C   UNL A   1      47.097  29.291  26.544  1.00  0.00     0.049 A 
ATOM     59  N   UNL A   1      50.078  29.018  26.116  1.00  0.00    -0.248 NA
ATOM     60  C   UNL A   1      49.802  26.699  26.167  1.00  0.00     0.031 C 
ATOM     61  C   UNL A   1      45.663  29.463  26.751  1.00  0.00     0.029 A 
ATOM     62  N   UNL A   1      47.580  30.567  26.409  1.00  0.00    -0.354 N 
ATOM     63  C   UNL A   1      51.309  28.402  25.928  1.00  0.00     0.074 A 
ATOM     64  C   UNL A   1      51.086  26.974  26.009  1.00  0.00     0.031 C 
ATOM     65  C   UNL A   1      45.382  30.777  26.763  1.00  0.00     0.029 A 
ATOM     66  C   UNL A   1      46.623  31.534  26.597  1.00  0.00     0.049 A 
ATOM     67  H   UNL A   1      48.520  30.770  26.199  1.00  0.00     0.167 HD
ATOM     68  C   UNL A   1      52.515  28.975  25.704  1.00  0.00     0.037 A 
ATOM     69  C   UNL A   1      46.746  32.874  26.664  1.00  0.00     0.037 A 
ATOM     70  C   UNL A   1      52.721  30.398  25.643  1.00  0.00     0.049 A 
ATOM     71  C   UNL A   1      48.103  33.498  26.473  1.00  0.00     0.074 A 
ATOM     72  C   UNL A   1      53.895  31.090  25.404  1.00  0.00     0.029 A 
ATOM     73  N   UNL A   1      51.730  31.351  25.844  1.00  0.00    -0.354 N 
ATOM     74  N   UNL A   1      49.260  32.911  26.265  1.00  0.00    -0.248 NA
ATOM     75  C   UNL A   1      48.174  34.964  26.521  1.00  0.00     0.031 C 
ATOM     76  C   UNL A   1      53.626  32.458  25.520  1.00  0.00     0.029 A 
ATOM     77  C   UNL A   1      52.271  32.624  25.766  1.00  0.00     0.049 A 
ATOM     78  H   UNL A   1      50.782  31.151  26.017  1.00  0.00     0.167 HD
ATOM     79  C   UNL A   1      50.192  33.936  26.138  1.00  0.00     0.074 A 
ATOM     80  C   UNL A   1      49.461  35.180  26.280  1.00  0.00     0.031 C 
ATOM     81  C   UNL A   1      51.530  33.854  25.918  1.00  0.00     0.037 A 
BRANCH  68  82
ATOM     82  C   UNL A   1      53.698  28.055  25.568  1.00  0.00     0.058 A 
ATOM     83  C   UNL A   1      54.182  27.642  24.315  1.00  0.00     0.135 A 
ATOM     84  C   UNL A   1      54.338  27.551  26.711  1.00  0.00     0.135 A 
ATOM     85  F   UNL A   1      53.597  28.076  23.186  1.00  0.00    -0.206 F 
ATOM     86  C   UNL A   1      55.220  26.721  24.202  1.00  0.00     0.059 A 
ATOM     87  C   UNL A   1      55.401  26.657  26.623  1.00  0.00     0.059 A 
ATOM     88  F   UNL A   1      53.920  27.910  27.935  1.00  0.00    -0.206 F 
ATOM     89  C   UNL A   1      55.817  26.228  25.363  1.00  0.00     0.060 A 
BRANCH  89  90
ATOM     90  S   UNL A   1      57.133  25.002  25.204  1.00  0.00     0.124 S 
ATOM     91  O   UNL A   1      56.407  23.762  25.467  1.00  0.00    -0.237 OA
ATOM     92  O   UNL A   1      57.576  25.197  23.828  1.00  0.00    -0.237 OA
ATOM     93  O   UNL A   1      58.092  25.397  26.231  1.00  0.00    -0.744 OA
ENDBRANCH  89  90
ENDBRANCH  68  82
BRANCH  69  94
ATOM     94  C   UNL A   1      45.541  33.699  26.941  1.00  0.00     0.058 A 
ATOM     95  C   UNL A   1      45.136  33.980  28.253  1.00  0.00     0.135 A 
ATOM     96  C   UNL A   1      44.808  34.278  25.892  1.00  0.00     0.135 A 
ATOM     97  F   UNL A   1      45.794  33.439  29.289  1.00  0.00    -0.206 F 
ATOM     98  C   UNL A   1      44.057  34.818  28.518  1.00  0.00     0.059 A 
ATOM     99  C   UNL A   1      43.742  35.140  26.131  1.00  0.00     0.059 A 
ATOM    100  F   UNL A   1      45.154  34.036  24.618  1.00  0.00    -0.206 F 
ATOM    101  C   UNL A   1      43.375  35.405  27.449  1.00  0.00     0.060 A 
BRANCH 101 102
ATOM    102  S   UNL A   1      42.044  36.572  27.811  1.00  0.00     0.124 S 
ATOM    103  O   UNL A   1      40.875  35.702  27.794  1.00  0.00    -0.237 OA
ATOM    104  O   UNL A   1      42.438  37.086  29.120  1.00  0.00    -0.237 OA
ATOM    105  O   UNL A   1      42.129  37.535  26.717  1.00  0.00    -0.744 OA
ENDBRANCH 101 102
ENDBRANCH  69  94
BRANCH  81 106
ATOM    106  C   UNL A   1      52.294  35.146  25.787  1.00  0.00     0.058 A 
ATOM    107  C   UNL A   1      53.017  35.692  26.860  1.00  0.00     0.135 A 
ATOM    108  C   UNL A   1      52.353  35.813  24.552  1.00  0.00     0.135 A 
ATOM    109  F   UNL A   1      52.992  35.100  28.064  1.00  0.00    -0.206 F 
ATOM    110  C   UNL A   1      53.752  36.867  26.718  1.00  0.00     0.059 A 
ATOM    111  C   UNL A   1      53.107  36.969  24.379  1.00  0.00     0.059 A 
ATOM    112  F   UNL A   1      51.691  35.328  23.490  1.00  0.00    -0.206 F 
ATOM    113  C   UNL A   1      53.794  37.496  25.472  1.00  0.00     0.060 A 
BRANCH 113 114
ATOM    114  S   UNL A   1      54.777  38.999  25.294  1.00  0.00     0.124 S 
ATOM    115  O   UNL A   1      55.906  38.522  24.503  1.00  0.00    -0.237 OA
ATOM    116  O   UNL A   1      53.854  39.896  24.607  1.00  0.00    -0.237 OA
ATOM    117  O   UNL A   1      55.089  39.367  26.672  1.00  0.00    -0.744 OA
ENDBRANCH 113 114
ENDBRANCH  81 106
ENDBRANCH  55  56
ENDBRANCH  48  50
ENDBRANCH  47  48
ENDBRANCH  46  47
ENDBRANCH  45  46
ENDBRANCH  44  45
ENDBRANCH  43  44
ENDBRANCH  42  43
ENDBRANCH  41  42
ENDBRANCH   1  41
TORSDOF 29
ENDMDL
