MODEL 1
REMARK VINA RESULT:      -9.3      0.000      0.000
REMARK SMILES CCn1c(N2CCC(C(=O)OCCOCCOCCOCCOC(=O)c3ccc(-c4c5nc(c(-c6c(F)cc(S(=O)(=O)[O-])cc6F)c6ccc([nH]6)c(-c6c(F)cc(S(=O)(=O)[O-])cc6F)c6nc(c(-c7c(F)cc(S(=O)(=O)[O-])cc7F)c7ccc4[nH]7)C=C6)C=C5)cc3)CC2)nc2cc(C)ccc21
REMARK SMILES IDX 18 1 17 2 16 3 15 4 14 5 13 6 12 7 11 8 9 9 10 10 8 11 5 12
REMARK SMILES IDX 6 13 93 14 7 15 92 16 4 17 3 18 101 19 94 20 95 21 100 22
REMARK SMILES IDX 96 23 99 24 97 25 98 26 2 27 1 28 19 29 20 30 21 31 22 32
REMARK SMILES IDX 23 33 24 34 25 35 26 36 27 37 91 38 28 39 90 40 29 41 30 42
REMARK SMILES IDX 31 43 84 44 32 45 89 46 83 47 85 48 33 49 88 50 82 51 81 52
REMARK SMILES IDX 34 54 68 55 47 56 67 57 48 58 51 59 66 60 86 61 49 62 50 63
REMARK SMILES IDX 65 65 87 66 52 67 35 68 36 69 45 70 37 71 38 72 44 73 46 74
REMARK SMILES IDX 39 75 40 76 41 77 42 78 43 79 69 80 70 81 79 82 71 83 72 84
REMARK SMILES IDX 78 85 80 86 73 87 74 88 75 89 76 90 77 91 53 92 54 93 63 94
REMARK SMILES IDX 55 95 56 96 62 97 64 98 57 99 58 100 59 101 60 102 61 103
REMARK H PARENT 85 53 51 64
REMARK Flexibility Score: inf
ROOT
ATOM      1  C   UNL A   1      33.814  34.081  32.102  1.00  0.00     0.188 C 
ENDROOT
BRANCH   1   2
ATOM      2  O   UNL A   1      35.140  33.587  32.183  1.00  0.00    -0.377 OA
BRANCH   2   3
ATOM      3  C   UNL A   1      35.857  33.673  33.395  1.00  0.00     0.188 C 
BRANCH   3   4
ATOM      4  C   UNL A   1      37.019  32.699  33.612  1.00  0.00     0.188 C 
BRANCH   4   5
ATOM      5  O   UNL A   1      38.270  33.005  33.036  1.00  0.00    -0.376 OA
BRANCH   5   6
ATOM      6  C   UNL A   1      39.445  33.130  33.833  1.00  0.00     0.202 C 
BRANCH   6   7
ATOM      7  C   UNL A   1      39.660  34.148  34.967  1.00  0.00     0.261 C 
BRANCH   7   8
ATOM      8  O   UNL A   1      39.718  33.627  36.303  1.00  0.00    -0.463 OA
BRANCH   8   9
ATOM      9  C   UNL A   1      39.489  34.548  37.272  1.00  0.00     0.309 C 
ATOM     10  O   UNL A   1      39.941  35.691  37.260  1.00  0.00    -0.252 OA
BRANCH   9  11
ATOM     11  C   UNL A   1      38.515  34.122  38.341  1.00  0.00     0.103 C 
ATOM     12  N   UNL A   1      37.345  33.216  40.794  1.00  0.00    -0.342 N 
ATOM     13  C   UNL A   1      37.097  32.493  39.550  1.00  0.00     0.120 C 
ATOM     14  C   UNL A   1      37.804  34.607  40.690  1.00  0.00     0.120 C 
ATOM     15  C   UNL A   1      38.266  32.638  38.582  1.00  0.00     0.037 C 
ATOM     16  C   UNL A   1      38.917  34.761  39.665  1.00  0.00     0.037 C 
BRANCH  12  17
ATOM     17  C   UNL A   1      37.667  32.482  41.885  1.00  0.00     0.206 A 
ATOM     18  N   UNL A   1      36.707  31.862  42.662  1.00  0.00    -0.310 N 
ATOM     19  C   UNL A   1      37.360  31.114  43.620  1.00  0.00     0.070 A 
ATOM     20  N   UNL A   1      38.874  32.137  42.266  1.00  0.00    -0.213 NA
ATOM     21  C   UNL A   1      38.707  31.340  43.362  1.00  0.00     0.091 A 
ATOM     22  C   UNL A   1      36.929  30.274  44.653  1.00  0.00     0.029 A 
ATOM     23  C   UNL A   1      39.681  30.744  44.176  1.00  0.00     0.034 A 
ATOM     24  C   UNL A   1      37.915  29.688  45.458  1.00  0.00     0.006 A 
ATOM     25  C   UNL A   1      39.279  29.919  45.238  1.00  0.00    -0.049 A 
ATOM     26  C   UNL A   1      40.321  29.295  46.117  1.00  0.00     0.044 C 
BRANCH  18  27
ATOM     27  C   UNL A   1      35.281  31.839  42.401  1.00  0.00     0.122 C 
ATOM     28  C   UNL A   1      34.586  33.172  42.624  1.00  0.00     0.028 C 
ENDBRANCH  18  27
ENDBRANCH  12  17
ENDBRANCH   9  11
ENDBRANCH   8   9
ENDBRANCH   7   8
ENDBRANCH   6   7
ENDBRANCH   5   6
ENDBRANCH   4   5
ENDBRANCH   3   4
ENDBRANCH   2   3
ENDBRANCH   1   2
BRANCH   1  29
ATOM     29  C   UNL A   1      33.566  35.376  31.322  1.00  0.00     0.188 C 
BRANCH  29  30
ATOM     30  O   UNL A   1      32.682  35.171  30.220  1.00  0.00    -0.376 OA
BRANCH  30  31
ATOM     31  C   UNL A   1      33.265  35.215  28.922  1.00  0.00     0.202 C 
BRANCH  31  32
ATOM     32  C   UNL A   1      33.167  33.901  28.134  1.00  0.00     0.261 C 
BRANCH  32  33
ATOM     33  O   UNL A   1      34.029  32.874  28.647  1.00  0.00    -0.460 OA
BRANCH  33  34
ATOM     34  C   UNL A   1      34.106  31.715  27.952  1.00  0.00     0.338 C 
ATOM     35  O   UNL A   1      33.244  31.238  27.234  1.00  0.00    -0.246 OA
BRANCH  34  36
ATOM     36  C   UNL A   1      35.543  31.347  27.938  1.00  0.00     0.060 A 
ATOM     37  C   UNL A   1      35.945  30.034  27.670  1.00  0.00     0.016 A 
ATOM     38  C   UNL A   1      36.453  32.271  28.470  1.00  0.00     0.016 A 
ATOM     39  C   UNL A   1      37.223  29.627  28.035  1.00  0.00     0.010 A 
ATOM     40  C   UNL A   1      37.735  31.858  28.837  1.00  0.00     0.010 A 
ATOM     41  C   UNL A   1      38.111  30.525  28.654  1.00  0.00    -0.014 A 
BRANCH  41  42
ATOM     42  C   UNL A   1      39.474  30.040  28.913  1.00  0.00     0.031 A 
ATOM     43  C   UNL A   1      39.822  29.971  30.362  1.00  0.00     0.074 A 
ATOM     44  C   UNL A   1      40.344  29.521  28.022  1.00  0.00     0.049 A 
ATOM     45  N   UNL A   1      40.780  30.557  31.005  1.00  0.00    -0.248 NA
ATOM     46  C   UNL A   1      38.907  29.192  31.212  1.00  0.00     0.031 C 
ATOM     47  C   UNL A   1      40.090  29.145  26.632  1.00  0.00     0.029 A 
ATOM     48  N   UNL A   1      41.645  29.131  28.218  1.00  0.00    -0.354 N 
ATOM     49  C   UNL A   1      40.698  30.079  32.310  1.00  0.00     0.074 A 
ATOM     50  C   UNL A   1      39.461  29.347  32.411  1.00  0.00     0.031 C 
ATOM     51  C   UNL A   1      41.138  28.428  26.165  1.00  0.00     0.029 A 
ATOM     52  C   UNL A   1      42.174  28.367  27.186  1.00  0.00     0.049 A 
ATOM     53  H   UNL A   1      42.159  29.372  29.022  1.00  0.00     0.167 HD
ATOM     54  C   UNL A   1      41.732  30.142  33.190  1.00  0.00     0.037 A 
ATOM     55  C   UNL A   1      43.341  27.672  27.186  1.00  0.00     0.037 A 
ATOM     56  C   UNL A   1      42.721  31.111  32.818  1.00  0.00     0.049 A 
ATOM     57  C   UNL A   1      44.198  28.198  28.277  1.00  0.00     0.074 A 
ATOM     58  C   UNL A   1      42.724  32.477  32.626  1.00  0.00     0.029 A 
ATOM     59  N   UNL A   1      43.910  30.656  32.304  1.00  0.00    -0.354 N 
ATOM     60  N   UNL A   1      44.771  29.370  28.287  1.00  0.00    -0.248 NA
ATOM     61  C   UNL A   1      44.184  27.503  29.556  1.00  0.00     0.031 C 
ATOM     62  C   UNL A   1      43.704  32.718  31.621  1.00  0.00     0.029 A 
ATOM     63  C   UNL A   1      44.242  31.481  31.260  1.00  0.00     0.049 A 
ATOM     64  H   UNL A   1      44.427  29.883  32.624  1.00  0.00     0.167 HD
ATOM     65  C   UNL A   1      44.845  29.722  29.624  1.00  0.00     0.074 A 
ATOM     66  C   UNL A   1      44.589  28.490  30.357  1.00  0.00     0.031 C 
ATOM     67  C   UNL A   1      44.840  31.028  30.020  1.00  0.00     0.037 A 
BRANCH  54  68
ATOM     68  C   UNL A   1      41.975  29.086  34.237  1.00  0.00     0.058 A 
ATOM     69  C   UNL A   1      42.196  27.749  33.862  1.00  0.00     0.135 A 
ATOM     70  C   UNL A   1      41.738  29.310  35.613  1.00  0.00     0.135 A 
ATOM     71  F   UNL A   1      42.395  27.425  32.574  1.00  0.00    -0.206 F 
ATOM     72  C   UNL A   1      42.148  26.701  34.783  1.00  0.00     0.059 A 
ATOM     73  C   UNL A   1      41.744  28.291  36.556  1.00  0.00     0.059 A 
ATOM     74  F   UNL A   1      41.398  30.518  36.084  1.00  0.00    -0.206 F 
ATOM     75  C   UNL A   1      41.909  26.984  36.126  1.00  0.00     0.060 A 
BRANCH  75  76
ATOM     76  S   UNL A   1      41.730  25.629  37.301  1.00  0.00     0.124 S 
ATOM     77  O   UNL A   1      40.357  25.821  37.754  1.00  0.00    -0.237 OA
ATOM     78  O   UNL A   1      41.970  24.462  36.460  1.00  0.00    -0.237 OA
ATOM     79  O   UNL A   1      42.767  25.906  38.291  1.00  0.00    -0.744 OA
ENDBRANCH  75  76
ENDBRANCH  54  68
BRANCH  55  80
ATOM     80  C   UNL A   1      43.682  26.421  26.452  1.00  0.00     0.058 A 
ATOM     81  C   UNL A   1      44.798  26.345  25.597  1.00  0.00     0.135 A 
ATOM     82  C   UNL A   1      43.064  25.193  26.766  1.00  0.00     0.135 A 
ATOM     83  F   UNL A   1      45.477  27.455  25.269  1.00  0.00    -0.206 F 
ATOM     84  C   UNL A   1      45.286  25.126  25.108  1.00  0.00     0.059 A 
ATOM     85  C   UNL A   1      43.518  23.971  26.276  1.00  0.00     0.059 A 
ATOM     86  F   UNL A   1      42.047  25.133  27.638  1.00  0.00    -0.206 F 
ATOM     87  C   UNL A   1      44.646  23.940  25.466  1.00  0.00     0.060 A 
BRANCH  87  88
ATOM     88  S   UNL A   1      45.355  22.356  24.962  1.00  0.00     0.124 S 
ATOM     89  O   UNL A   1      46.242  22.751  23.874  1.00  0.00    -0.237 OA
ATOM     90  O   UNL A   1      46.006  21.909  26.188  1.00  0.00    -0.237 OA
ATOM     91  O   UNL A   1      44.187  21.574  24.560  1.00  0.00    -0.744 OA
ENDBRANCH  87  88
ENDBRANCH  55  80
BRANCH  67  92
ATOM     92  C   UNL A   1      45.195  32.093  29.018  1.00  0.00     0.058 A 
ATOM     93  C   UNL A   1      46.504  32.518  28.737  1.00  0.00     0.135 A 
ATOM     94  C   UNL A   1      44.170  32.571  28.182  1.00  0.00     0.135 A 
ATOM     95  F   UNL A   1      47.550  32.038  29.429  1.00  0.00    -0.206 F 
ATOM     96  C   UNL A   1      46.777  33.391  27.681  1.00  0.00     0.059 A 
ATOM     97  C   UNL A   1      44.425  33.412  27.104  1.00  0.00     0.059 A 
ATOM     98  F   UNL A   1      42.903  32.162  28.370  1.00  0.00    -0.206 F 
ATOM     99  C   UNL A   1      45.733  33.818  26.860  1.00  0.00     0.060 A 
BRANCH  99 100
ATOM    100  S   UNL A   1      46.115  34.830  25.413  1.00  0.00     0.124 S 
ATOM    101  O   UNL A   1      45.836  36.179  25.894  1.00  0.00    -0.237 OA
ATOM    102  O   UNL A   1      47.519  34.514  25.174  1.00  0.00    -0.237 OA
ATOM    103  O   UNL A   1      45.196  34.333  24.391  1.00  0.00    -0.744 OA
ENDBRANCH  99 100
ENDBRANCH  67  92
ENDBRANCH  41  42
ENDBRANCH  34  36
ENDBRANCH  33  34
ENDBRANCH  32  33
ENDBRANCH  31  32
ENDBRANCH  30  31
ENDBRANCH  29  30
ENDBRANCH   1  29
TORSDOF 25
ENDMDL
MODEL 2
REMARK VINA RESULT:      -8.8      9.555     16.889
REMARK SMILES CCn1c(N2CCC(C(=O)OCCOCCOCCOCCOC(=O)c3ccc(-c4c5nc(c(-c6c(F)cc(S(=O)(=O)[O-])cc6F)c6ccc([nH]6)c(-c6c(F)cc(S(=O)(=O)[O-])cc6F)c6nc(c(-c7c(F)cc(S(=O)(=O)[O-])cc7F)c7ccc4[nH]7)C=C6)C=C5)cc3)CC2)nc2cc(C)ccc21
REMARK SMILES IDX 18 1 17 2 16 3 15 4 14 5 13 6 12 7 11 8 9 9 10 10 8 11 5 12
REMARK SMILES IDX 6 13 93 14 7 15 92 16 4 17 3 18 101 19 94 20 95 21 100 22
REMARK SMILES IDX 96 23 99 24 97 25 98 26 2 27 1 28 19 29 20 30 21 31 22 32
REMARK SMILES IDX 23 33 24 34 25 35 26 36 27 37 91 38 28 39 90 40 29 41 30 42
REMARK SMILES IDX 31 43 84 44 32 45 89 46 83 47 85 48 33 49 88 50 82 51 81 52
REMARK SMILES IDX 34 54 68 55 47 56 67 57 48 58 51 59 66 60 86 61 49 62 50 63
REMARK SMILES IDX 65 65 87 66 52 67 35 68 36 69 45 70 37 71 38 72 44 73 46 74
REMARK SMILES IDX 39 75 40 76 41 77 42 78 43 79 69 80 70 81 79 82 71 83 72 84
REMARK SMILES IDX 78 85 80 86 73 87 74 88 75 89 76 90 77 91 53 92 54 93 63 94
REMARK SMILES IDX 55 95 56 96 62 97 64 98 57 99 58 100 59 101 60 102 61 103
REMARK H PARENT 85 53 51 64
REMARK Flexibility Score: inf
ROOT
ATOM      1  C   UNL A   1      41.799  44.980  17.909  1.00  0.00     0.188 C 
ENDROOT
BRANCH   1   2
ATOM      2  O   UNL A   1      41.546  46.370  17.787  1.00  0.00    -0.377 OA
BRANCH   2   3
ATOM      3  C   UNL A   1      42.321  47.157  16.908  1.00  0.00     0.188 C 
BRANCH   3   4
ATOM      4  C   UNL A   1      42.980  48.420  17.469  1.00  0.00     0.188 C 
BRANCH   4   5
ATOM      5  O   UNL A   1      43.672  49.269  16.579  1.00  0.00    -0.376 OA
BRANCH   5   6
ATOM      6  C   UNL A   1      45.078  49.475  16.692  1.00  0.00     0.202 C 
BRANCH   6   7
ATOM      7  C   UNL A   1      45.768  50.508  17.599  1.00  0.00     0.261 C 
BRANCH   7   8
ATOM      8  O   UNL A   1      46.538  49.995  18.697  1.00  0.00    -0.463 OA
BRANCH   8   9
ATOM      9  C   UNL A   1      45.798  49.417  19.676  1.00  0.00     0.309 C 
ATOM     10  O   UNL A   1      44.767  49.901  20.140  1.00  0.00    -0.252 OA
BRANCH   9  11
ATOM     11  C   UNL A   1      46.255  48.043  20.095  1.00  0.00     0.103 C 
ATOM     12  N   UNL A   1      46.625  45.580  21.511  1.00  0.00    -0.342 N 
ATOM     13  C   UNL A   1      47.769  46.438  21.217  1.00  0.00     0.120 C 
ATOM     14  C   UNL A   1      45.411  45.768  20.705  1.00  0.00     0.120 C 
ATOM     15  C   UNL A   1      47.357  47.904  21.139  1.00  0.00     0.037 C 
ATOM     16  C   UNL A   1      45.048  47.238  20.565  1.00  0.00     0.037 C 
BRANCH  12  17
ATOM     17  C   UNL A   1      46.528  45.083  22.766  1.00  0.00     0.206 A 
ATOM     18  N   UNL A   1      47.191  43.933  23.154  1.00  0.00    -0.310 N 
ATOM     19  C   UNL A   1      46.974  43.759  24.505  1.00  0.00     0.070 A 
ATOM     20  N   UNL A   1      45.949  45.661  23.793  1.00  0.00    -0.213 NA
ATOM     21  C   UNL A   1      46.168  44.835  24.858  1.00  0.00     0.091 A 
ATOM     22  C   UNL A   1      47.397  42.806  25.439  1.00  0.00     0.029 A 
ATOM     23  C   UNL A   1      45.722  44.967  26.182  1.00  0.00     0.034 A 
ATOM     24  C   UNL A   1      46.941  42.952  26.756  1.00  0.00     0.006 A 
ATOM     25  C   UNL A   1      46.106  44.010  27.134  1.00  0.00    -0.049 A 
ATOM     26  C   UNL A   1      45.616  44.144  28.545  1.00  0.00     0.044 C 
BRANCH  18  27
ATOM     27  C   UNL A   1      48.107  43.161  22.340  1.00  0.00     0.122 C 
ATOM     28  C   UNL A   1      47.532  41.850  21.827  1.00  0.00     0.028 C 
ENDBRANCH  18  27
ENDBRANCH  12  17
ENDBRANCH   9  11
ENDBRANCH   8   9
ENDBRANCH   7   8
ENDBRANCH   6   7
ENDBRANCH   5   6
ENDBRANCH   4   5
ENDBRANCH   3   4
ENDBRANCH   2   3
ENDBRANCH   1   2
BRANCH   1  29
ATOM     29  C   UNL A   1      40.628  44.057  18.262  1.00  0.00     0.188 C 
BRANCH  29  30
ATOM     30  O   UNL A   1      40.816  43.422  19.527  1.00  0.00    -0.376 OA
BRANCH  30  31
ATOM     31  C   UNL A   1      42.091  43.589  20.137  1.00  0.00     0.202 C 
BRANCH  31  32
ATOM     32  C   UNL A   1      42.730  42.289  20.646  1.00  0.00     0.261 C 
BRANCH  32  33
ATOM     33  O   UNL A   1      42.186  41.852  21.902  1.00  0.00    -0.460 OA
BRANCH  33  34
ATOM     34  C   UNL A   1      41.932  42.797  22.838  1.00  0.00     0.338 C 
ATOM     35  O   UNL A   1      41.236  43.787  22.703  1.00  0.00    -0.246 OA
BRANCH  34  36
ATOM     36  C   UNL A   1      42.347  42.203  24.133  1.00  0.00     0.060 A 
ATOM     37  C   UNL A   1      43.685  42.234  24.540  1.00  0.00     0.016 A 
ATOM     38  C   UNL A   1      41.425  41.376  24.790  1.00  0.00     0.016 A 
ATOM     39  C   UNL A   1      44.113  41.359  25.532  1.00  0.00     0.010 A 
ATOM     40  C   UNL A   1      41.860  40.499  25.785  1.00  0.00     0.010 A 
ATOM     41  C   UNL A   1      43.212  40.462  26.134  1.00  0.00    -0.014 A 
BRANCH  41  42
ATOM     42  C   UNL A   1      43.726  39.645  27.243  1.00  0.00     0.031 A 
ATOM     43  C   UNL A   1      44.858  38.753  26.857  1.00  0.00     0.074 A 
ATOM     44  C   UNL A   1      43.401  39.738  28.549  1.00  0.00     0.049 A 
ATOM     45  N   UNL A   1      44.950  37.465  26.937  1.00  0.00    -0.248 NA
ATOM     46  C   UNL A   1      46.011  39.408  26.219  1.00  0.00     0.031 C 
ATOM     47  C   UNL A   1      42.609  40.775  29.208  1.00  0.00     0.029 A 
ATOM     48  N   UNL A   1      43.805  38.943  29.593  1.00  0.00    -0.354 N 
ATOM     49  C   UNL A   1      46.245  37.160  26.525  1.00  0.00     0.074 A 
ATOM     50  C   UNL A   1      46.806  38.369  25.979  1.00  0.00     0.031 C 
ATOM     51  C   UNL A   1      42.733  40.646  30.548  1.00  0.00     0.029 A 
ATOM     52  C   UNL A   1      43.537  39.472  30.849  1.00  0.00     0.049 A 
ATOM     53  H   UNL A   1      44.248  38.074  29.462  1.00  0.00     0.167 HD
ATOM     54  C   UNL A   1      46.863  35.986  26.825  1.00  0.00     0.037 A 
ATOM     55  C   UNL A   1      43.996  39.027  32.048  1.00  0.00     0.037 A 
ATOM     56  C   UNL A   1      45.942  34.952  27.196  1.00  0.00     0.049 A 
ATOM     57  C   UNL A   1      44.466  37.629  31.880  1.00  0.00     0.074 A 
ATOM     58  C   UNL A   1      44.893  34.310  26.570  1.00  0.00     0.029 A 
ATOM     59  N   UNL A   1      45.856  34.608  28.522  1.00  0.00    -0.354 N 
ATOM     60  N   UNL A   1      43.696  36.598  31.670  1.00  0.00    -0.248 NA
ATOM     61  C   UNL A   1      45.884  37.406  31.642  1.00  0.00     0.031 C 
ATOM     62  C   UNL A   1      43.980  33.972  27.610  1.00  0.00     0.029 A 
ATOM     63  C   UNL A   1      44.527  34.428  28.810  1.00  0.00     0.049 A 
ATOM     64  H   UNL A   1      46.608  34.508  29.149  1.00  0.00     0.167 HD
ATOM     65  C   UNL A   1      44.466  35.723  30.920  1.00  0.00     0.074 A 
ATOM     66  C   UNL A   1      45.831  36.215  31.044  1.00  0.00     0.031 C 
ATOM     67  C   UNL A   1      43.897  34.841  30.048  1.00  0.00     0.037 A 
BRANCH  54  68
ATOM     68  C   UNL A   1      48.346  35.886  27.068  1.00  0.00     0.058 A 
ATOM     69  C   UNL A   1      49.140  35.033  26.281  1.00  0.00     0.135 A 
ATOM     70  C   UNL A   1      48.964  36.410  28.228  1.00  0.00     0.135 A 
ATOM     71  F   UNL A   1      48.637  34.455  25.179  1.00  0.00    -0.206 F 
ATOM     72  C   UNL A   1      50.446  34.695  26.639  1.00  0.00     0.059 A 
ATOM     73  C   UNL A   1      50.280  36.133  28.572  1.00  0.00     0.059 A 
ATOM     74  F   UNL A   1      48.283  37.137  29.123  1.00  0.00    -0.206 F 
ATOM     75  C   UNL A   1      51.001  35.242  27.794  1.00  0.00     0.060 A 
BRANCH  75  76
ATOM     76  S   UNL A   1      52.643  34.720  28.325  1.00  0.00     0.124 S 
ATOM     77  O   UNL A   1      52.347  33.439  28.954  1.00  0.00    -0.237 OA
ATOM     78  O   UNL A   1      53.368  34.662  27.060  1.00  0.00    -0.237 OA
ATOM     79  O   UNL A   1      53.057  35.789  29.229  1.00  0.00    -0.744 OA
ENDBRANCH  75  76
ENDBRANCH  54  68
BRANCH  55  80
ATOM     80  C   UNL A   1      44.274  39.807  33.287  1.00  0.00     0.058 A 
ATOM     81  C   UNL A   1      43.935  39.316  34.562  1.00  0.00     0.135 A 
ATOM     82  C   UNL A   1      45.108  40.944  33.269  1.00  0.00     0.135 A 
ATOM     83  F   UNL A   1      43.177  38.216  34.684  1.00  0.00    -0.206 F 
ATOM     84  C   UNL A   1      44.415  39.899  35.742  1.00  0.00     0.059 A 
ATOM     85  C   UNL A   1      45.581  41.553  34.428  1.00  0.00     0.059 A 
ATOM     86  F   UNL A   1      45.566  41.448  32.113  1.00  0.00    -0.206 F 
ATOM     87  C   UNL A   1      45.251  41.012  35.664  1.00  0.00     0.060 A 
BRANCH  87  88
ATOM     88  S   UNL A   1      45.993  41.679  37.171  1.00  0.00     0.124 S 
ATOM     89  O   UNL A   1      45.299  42.954  37.313  1.00  0.00    -0.237 OA
ATOM     90  O   UNL A   1      45.660  40.656  38.155  1.00  0.00    -0.237 OA
ATOM     91  O   UNL A   1      47.412  41.777  36.835  1.00  0.00    -0.744 OA
ENDBRANCH  87  88
ENDBRANCH  55  80
BRANCH  67  92
ATOM     92  C   UNL A   1      42.441  34.497  30.207  1.00  0.00     0.058 A 
ATOM     93  C   UNL A   1      41.392  35.141  29.532  1.00  0.00     0.135 A 
ATOM     94  C   UNL A   1      42.120  33.343  30.944  1.00  0.00     0.135 A 
ATOM     95  F   UNL A   1      41.627  36.195  28.734  1.00  0.00    -0.206 F 
ATOM     96  C   UNL A   1      40.080  34.666  29.599  1.00  0.00     0.059 A 
ATOM     97  C   UNL A   1      40.826  32.833  30.994  1.00  0.00     0.059 A 
ATOM     98  F   UNL A   1      43.089  32.655  31.573  1.00  0.00    -0.206 F 
ATOM     99  C   UNL A   1      39.811  33.501  30.318  1.00  0.00     0.060 A 
BRANCH  99 100
ATOM    100  S   UNL A   1      38.141  32.815  30.281  1.00  0.00     0.124 S 
ATOM    101  O   UNL A   1      37.441  33.744  29.400  1.00  0.00    -0.237 OA
ATOM    102  O   UNL A   1      38.367  31.476  29.748  1.00  0.00    -0.237 OA
ATOM    103  O   UNL A   1      37.720  32.851  31.681  1.00  0.00    -0.744 OA
ENDBRANCH  99 100
ENDBRANCH  67  92
ENDBRANCH  41  42
ENDBRANCH  34  36
ENDBRANCH  33  34
ENDBRANCH  32  33
ENDBRANCH  31  32
ENDBRANCH  30  31
ENDBRANCH  29  30
ENDBRANCH   1  29
TORSDOF 25
ENDMDL
MODEL 3
REMARK VINA RESULT:      -8.6      5.403     13.590
REMARK SMILES CCn1c(N2CCC(C(=O)OCCOCCOCCOCCOC(=O)c3ccc(-c4c5nc(c(-c6c(F)cc(S(=O)(=O)[O-])cc6F)c6ccc([nH]6)c(-c6c(F)cc(S(=O)(=O)[O-])cc6F)c6nc(c(-c7c(F)cc(S(=O)(=O)[O-])cc7F)c7ccc4[nH]7)C=C6)C=C5)cc3)CC2)nc2cc(C)ccc21
REMARK SMILES IDX 18 1 17 2 16 3 15 4 14 5 13 6 12 7 11 8 9 9 10 10 8 11 5 12
REMARK SMILES IDX 6 13 93 14 7 15 92 16 4 17 3 18 101 19 94 20 95 21 100 22
REMARK SMILES IDX 96 23 99 24 97 25 98 26 2 27 1 28 19 29 20 30 21 31 22 32
REMARK SMILES IDX 23 33 24 34 25 35 26 36 27 37 91 38 28 39 90 40 29 41 30 42
REMARK SMILES IDX 31 43 84 44 32 45 89 46 83 47 85 48 33 49 88 50 82 51 81 52
REMARK SMILES IDX 34 54 68 55 47 56 67 57 48 58 51 59 66 60 86 61 49 62 50 63
REMARK SMILES IDX 65 65 87 66 52 67 35 68 36 69 45 70 37 71 38 72 44 73 46 74
REMARK SMILES IDX 39 75 40 76 41 77 42 78 43 79 69 80 70 81 79 82 71 83 72 84
REMARK SMILES IDX 78 85 80 86 73 87 74 88 75 89 76 90 77 91 53 92 54 93 63 94
REMARK SMILES IDX 55 95 56 96 62 97 64 98 57 99 58 100 59 101 60 102 61 103
REMARK H PARENT 85 53 51 64
REMARK Flexibility Score: inf
ROOT
ATOM      1  C   UNL A   1      42.954  19.411  25.916  1.00  0.00     0.188 C 
ENDROOT
BRANCH   1   2
ATOM      2  O   UNL A   1      41.649  19.355  25.364  1.00  0.00    -0.377 OA
BRANCH   2   3
ATOM      3  C   UNL A   1      40.528  19.675  26.159  1.00  0.00     0.188 C 
BRANCH   3   4
ATOM      4  C   UNL A   1      40.458  21.080  26.767  1.00  0.00     0.188 C 
BRANCH   4   5
ATOM      5  O   UNL A   1      39.467  21.967  26.297  1.00  0.00    -0.376 OA
BRANCH   5   6
ATOM      6  C   UNL A   1      38.506  21.561  25.327  1.00  0.00     0.202 C 
BRANCH   6   7
ATOM      7  C   UNL A   1      37.009  21.318  25.587  1.00  0.00     0.261 C 
BRANCH   7   8
ATOM      8  O   UNL A   1      36.098  21.718  24.551  1.00  0.00    -0.463 OA
BRANCH   8   9
ATOM      9  C   UNL A   1      34.789  21.597  24.884  1.00  0.00     0.309 C 
ATOM     10  O   UNL A   1      34.323  20.663  25.533  1.00  0.00    -0.252 OA
BRANCH   9  11
ATOM     11  C   UNL A   1      33.923  22.773  24.507  1.00  0.00     0.103 C 
ATOM     12  N   UNL A   1      32.869  25.414  24.163  1.00  0.00    -0.342 N 
ATOM     13  C   UNL A   1      32.084  24.393  24.851  1.00  0.00     0.120 C 
ATOM     14  C   UNL A   1      33.958  24.958  23.290  1.00  0.00     0.120 C 
ATOM     15  C   UNL A   1      32.984  23.376  25.545  1.00  0.00     0.037 C 
ATOM     16  C   UNL A   1      34.807  23.887  23.957  1.00  0.00     0.037 C 
BRANCH  12  17
ATOM     17  C   UNL A   1      32.935  26.639  24.737  1.00  0.00     0.206 A 
ATOM     18  N   UNL A   1      31.963  27.600  24.531  1.00  0.00    -0.310 N 
ATOM     19  C   UNL A   1      32.265  28.681  25.333  1.00  0.00     0.070 A 
ATOM     20  N   UNL A   1      33.798  27.030  25.645  1.00  0.00    -0.213 NA
ATOM     21  C   UNL A   1      33.433  28.301  25.984  1.00  0.00     0.091 A 
ATOM     22  C   UNL A   1      31.651  29.917  25.564  1.00  0.00     0.029 A 
ATOM     23  C   UNL A   1      34.052  29.187  26.878  1.00  0.00     0.034 A 
ATOM     24  C   UNL A   1      32.283  30.791  26.459  1.00  0.00     0.006 A 
ATOM     25  C   UNL A   1      33.475  30.446  27.108  1.00  0.00    -0.049 A 
ATOM     26  C   UNL A   1      34.146  31.398  28.051  1.00  0.00     0.044 C 
BRANCH  18  27
ATOM     27  C   UNL A   1      30.743  27.430  23.767  1.00  0.00     0.122 C 
ATOM     28  C   UNL A   1      30.967  27.170  22.286  1.00  0.00     0.028 C 
ENDBRANCH  18  27
ENDBRANCH  12  17
ENDBRANCH   9  11
ENDBRANCH   8   9
ENDBRANCH   7   8
ENDBRANCH   6   7
ENDBRANCH   5   6
ENDBRANCH   4   5
ENDBRANCH   3   4
ENDBRANCH   2   3
ENDBRANCH   1   2
BRANCH   1  29
ATOM     29  C   UNL A   1      44.078  20.015  25.067  1.00  0.00     0.188 C 
BRANCH  29  30
ATOM     30  O   UNL A   1      43.900  21.418  24.872  1.00  0.00    -0.376 OA
BRANCH  30  31
ATOM     31  C   UNL A   1      43.983  22.235  26.035  1.00  0.00     0.202 C 
BRANCH  31  32
ATOM     32  C   UNL A   1      44.346  23.701  25.761  1.00  0.00     0.261 C 
BRANCH  32  33
ATOM     33  O   UNL A   1      43.486  24.628  26.442  1.00  0.00    -0.460 OA
BRANCH  33  34
ATOM     34  C   UNL A   1      43.075  25.721  25.758  1.00  0.00     0.338 C 
ATOM     35  O   UNL A   1      42.526  25.734  24.670  1.00  0.00    -0.246 OA
BRANCH  34  36
ATOM     36  C   UNL A   1      43.079  26.836  26.737  1.00  0.00     0.060 A 
ATOM     37  C   UNL A   1      41.980  27.693  26.852  1.00  0.00     0.016 A 
ATOM     38  C   UNL A   1      44.304  27.171  27.330  1.00  0.00     0.016 A 
ATOM     39  C   UNL A   1      42.144  28.928  27.469  1.00  0.00     0.010 A 
ATOM     40  C   UNL A   1      44.465  28.412  27.947  1.00  0.00     0.010 A 
ATOM     41  C   UNL A   1      43.395  29.310  27.986  1.00  0.00    -0.014 A 
BRANCH  41  42
ATOM     42  C   UNL A   1      43.454  30.588  28.711  1.00  0.00     0.031 A 
ATOM     43  C   UNL A   1      44.316  31.612  28.054  1.00  0.00     0.074 A 
ATOM     44  C   UNL A   1      42.711  30.963  29.773  1.00  0.00     0.049 A 
ATOM     45  N   UNL A   1      45.354  32.230  28.518  1.00  0.00    -0.248 NA
ATOM     46  C   UNL A   1      44.006  31.915  26.648  1.00  0.00     0.031 C 
ATOM     47  C   UNL A   1      41.554  30.280  30.348  1.00  0.00     0.029 A 
ATOM     48  N   UNL A   1      42.795  32.114  30.515  1.00  0.00    -0.354 N 
ATOM     49  C   UNL A   1      45.721  33.136  27.525  1.00  0.00     0.074 A 
ATOM     50  C   UNL A   1      44.943  32.813  26.356  1.00  0.00     0.031 C 
ATOM     51  C   UNL A   1      40.941  31.105  31.228  1.00  0.00     0.029 A 
ATOM     52  C   UNL A   1      41.706  32.337  31.348  1.00  0.00     0.049 A 
ATOM     53  H   UNL A   1      43.561  32.730  30.461  1.00  0.00     0.167 HD
ATOM     54  C   UNL A   1      46.501  34.223  27.763  1.00  0.00     0.037 A 
ATOM     55  C   UNL A   1      41.408  33.471  32.034  1.00  0.00     0.037 A 
ATOM     56  C   UNL A   1      47.255  34.112  28.979  1.00  0.00     0.049 A 
ATOM     57  C   UNL A   1      42.638  34.296  32.130  1.00  0.00     0.074 A 
ATOM     58  C   UNL A   1      48.216  33.243  29.453  1.00  0.00     0.029 A 
ATOM     59  N   UNL A   1      46.850  34.853  30.060  1.00  0.00    -0.354 N 
ATOM     60  N   UNL A   1      43.684  34.007  32.852  1.00  0.00    -0.248 NA
ATOM     61  C   UNL A   1      42.833  35.353  31.147  1.00  0.00     0.031 C 
ATOM     62  C   UNL A   1      48.027  33.202  30.864  1.00  0.00     0.029 A 
ATOM     63  C   UNL A   1      46.960  34.050  31.167  1.00  0.00     0.049 A 
ATOM     64  H   UNL A   1      46.539  35.786  30.045  1.00  0.00     0.167 HD
ATOM     65  C   UNL A   1      44.755  34.561  32.170  1.00  0.00     0.074 A 
ATOM     66  C   UNL A   1      44.160  35.478  31.208  1.00  0.00     0.031 C 
ATOM     67  C   UNL A   1      46.009  34.031  32.260  1.00  0.00     0.037 A 
BRANCH  54  68
ATOM     68  C   UNL A   1      46.333  35.524  27.023  1.00  0.00     0.058 A 
ATOM     69  C   UNL A   1      47.375  36.028  26.224  1.00  0.00     0.135 A 
ATOM     70  C   UNL A   1      45.269  36.417  27.286  1.00  0.00     0.135 A 
ATOM     71  F   UNL A   1      48.449  35.272  25.945  1.00  0.00    -0.206 F 
ATOM     72  C   UNL A   1      47.379  37.341  25.750  1.00  0.00     0.059 A 
ATOM     73  C   UNL A   1      45.223  37.708  26.777  1.00  0.00     0.059 A 
ATOM     74  F   UNL A   1      44.275  36.103  28.128  1.00  0.00    -0.206 F 
ATOM     75  C   UNL A   1      46.302  38.176  26.044  1.00  0.00     0.060 A 
BRANCH  75  76
ATOM     76  S   UNL A   1      46.353  39.904  25.535  1.00  0.00     0.124 S 
ATOM     77  O   UNL A   1      47.277  40.464  26.515  1.00  0.00    -0.237 OA
ATOM     78  O   UNL A   1      46.851  39.805  24.168  1.00  0.00    -0.237 OA
ATOM     79  O   UNL A   1      44.962  40.331  25.660  1.00  0.00    -0.744 OA
ENDBRANCH  75  76
ENDBRANCH  54  68
BRANCH  55  80
ATOM     80  C   UNL A   1      40.070  34.005  32.417  1.00  0.00     0.058 A 
ATOM     81  C   UNL A   1      39.115  34.369  31.451  1.00  0.00     0.135 A 
ATOM     82  C   UNL A   1      39.605  33.935  33.746  1.00  0.00     0.135 A 
ATOM     83  F   UNL A   1      39.451  34.427  30.153  1.00  0.00    -0.206 F 
ATOM     84  C   UNL A   1      37.776  34.621  31.778  1.00  0.00     0.059 A 
ATOM     85  C   UNL A   1      38.284  34.201  34.099  1.00  0.00     0.059 A 
ATOM     86  F   UNL A   1      40.403  33.516  34.739  1.00  0.00    -0.206 F 
ATOM     87  C   UNL A   1      37.366  34.520  33.107  1.00  0.00     0.060 A 
BRANCH  87  88
ATOM     88  S   UNL A   1      35.615  34.697  33.517  1.00  0.00     0.124 S 
ATOM     89  O   UNL A   1      35.653  34.807  34.971  1.00  0.00    -0.237 OA
ATOM     90  O   UNL A   1      35.251  35.910  32.793  1.00  0.00    -0.237 OA
ATOM     91  O   UNL A   1      35.020  33.465  33.002  1.00  0.00    -0.744 OA
ENDBRANCH  87  88
ENDBRANCH  55  80
BRANCH  67  92
ATOM     92  C   UNL A   1      46.337  33.130  33.419  1.00  0.00     0.058 A 
ATOM     93  C   UNL A   1      46.043  31.758  33.470  1.00  0.00     0.135 A 
ATOM     94  C   UNL A   1      47.145  33.653  34.444  1.00  0.00     0.135 A 
ATOM     95  F   UNL A   1      45.355  31.161  32.483  1.00  0.00    -0.206 F 
ATOM     96  C   UNL A   1      46.521  30.947  34.502  1.00  0.00     0.059 A 
ATOM     97  C   UNL A   1      47.660  32.856  35.462  1.00  0.00     0.059 A 
ATOM     98  F   UNL A   1      47.500  34.950  34.425  1.00  0.00    -0.206 F 
ATOM     99  C   UNL A   1      47.342  31.502  35.484  1.00  0.00     0.060 A 
BRANCH  99 100
ATOM    100  S   UNL A   1      48.071  30.419  36.732  1.00  0.00     0.124 S 
ATOM    101  O   UNL A   1      48.133  31.288  37.902  1.00  0.00    -0.237 OA
ATOM    102  O   UNL A   1      47.106  29.327  36.797  1.00  0.00    -0.237 OA
ATOM    103  O   UNL A   1      49.366  30.054  36.161  1.00  0.00    -0.744 OA
ENDBRANCH  99 100
ENDBRANCH  67  92
ENDBRANCH  41  42
ENDBRANCH  34  36
ENDBRANCH  33  34
ENDBRANCH  32  33
ENDBRANCH  31  32
ENDBRANCH  30  31
ENDBRANCH  29  30
ENDBRANCH   1  29
TORSDOF 25
ENDMDL
