MODEL 1
REMARK VINA RESULT:      -9.4      0.000      0.000
REMARK SMILES O=C(OCCOCCOCCOCCOC(=O)c1cn(C2CN(C(=O)[C@@H]3CC=CCC3)C2)nn1)c1ccc(-c2c3nc(c(-c4c(F)cc(S(=O)(=O)[O-])cc4F)c4ccc([nH]4)c(-c4c(F)cc(S(=O)(=O)[O-])cc4F)c4nc(c(-c5c(F)cc(S(=O)(=O)[O-])cc5F)c5ccc2[nH]5)C=C4)C=C3)cc1
REMARK SMILES IDX 8 1 7 2 6 3 5 4 4 5 3 6 2 7 1 8 35 9 36 10 100 11 37 12
REMARK SMILES IDX 99 13 38 14 39 15 40 16 93 17 41 18 98 19 92 20 94 21 42 22
REMARK SMILES IDX 97 23 91 24 90 25 43 27 77 28 56 29 76 30 57 31 60 32 75 33
REMARK SMILES IDX 95 34 58 35 59 36 74 38 96 39 61 40 44 41 45 42 54 43 46 44
REMARK SMILES IDX 47 45 53 46 55 47 48 48 49 49 50 50 51 51 52 52 78 53 79 54
REMARK SMILES IDX 88 55 80 56 81 57 87 58 89 59 82 60 83 61 84 62 85 63 86 64
REMARK SMILES IDX 62 65 63 66 72 67 64 68 65 69 71 70 73 71 66 72 67 73 68 74
REMARK SMILES IDX 69 75 70 76 9 77 10 78 11 79 12 80 13 81 14 82 15 83 16 84
REMARK SMILES IDX 17 85 18 86 19 87 34 88 20 89 33 90 21 91 22 92 32 93 23 94
REMARK SMILES IDX 24 95 25 96 26 97 27 98 31 99 28 100 30 101 29 102
REMARK H PARENT 94 26 60 37
REMARK Flexibility Score: inf
ROOT
ATOM      1  C   UNL A   1      44.892  18.726  25.048  1.00  0.00     0.188 C 
ENDROOT
BRANCH   1   2
ATOM      2  C   UNL A   1      46.209  19.403  25.451  1.00  0.00     0.188 C 
BRANCH   2   3
ATOM      3  O   UNL A   1      46.458  20.794  25.359  1.00  0.00    -0.376 OA
BRANCH   3   4
ATOM      4  C   UNL A   1      46.472  21.635  24.227  1.00  0.00     0.202 C 
BRANCH   4   5
ATOM      5  C   UNL A   1      46.269  23.152  24.208  1.00  0.00     0.261 C 
BRANCH   5   6
ATOM      6  O   UNL A   1      44.974  23.644  23.898  1.00  0.00    -0.460 OA
BRANCH   6   7
ATOM      7  C   UNL A   1      43.851  23.590  24.645  1.00  0.00     0.338 C 
ATOM      8  O   UNL A   1      43.045  22.690  24.419  1.00  0.00    -0.246 OA
BRANCH   7   9
ATOM      9  C   UNL A   1      43.468  24.656  25.608  1.00  0.00     0.060 A 
ATOM     10  C   UNL A   1      43.753  26.018  25.475  1.00  0.00     0.016 A 
ATOM     11  C   UNL A   1      42.768  24.213  26.748  1.00  0.00     0.016 A 
ATOM     12  C   UNL A   1      43.495  26.894  26.508  1.00  0.00     0.010 A 
ATOM     13  C   UNL A   1      42.492  25.085  27.785  1.00  0.00     0.010 A 
ATOM     14  C   UNL A   1      42.974  26.389  27.690  1.00  0.00    -0.014 A 
BRANCH  14  15
ATOM     15  C   UNL A   1      43.247  27.185  28.872  1.00  0.00     0.031 A 
ATOM     16  C   UNL A   1      42.290  28.273  29.202  1.00  0.00     0.074 A 
ATOM     17  C   UNL A   1      44.353  26.875  29.578  1.00  0.00     0.049 A 
ATOM     18  N   UNL A   1      42.530  29.524  29.437  1.00  0.00    -0.248 NA
ATOM     19  C   UNL A   1      40.858  27.931  29.188  1.00  0.00     0.031 C 
ATOM     20  C   UNL A   1      45.226  25.701  29.406  1.00  0.00     0.029 A 
ATOM     21  N   UNL A   1      44.862  27.462  30.689  1.00  0.00    -0.354 N 
ATOM     22  C   UNL A   1      41.308  30.079  29.812  1.00  0.00     0.074 A 
ATOM     23  C   UNL A   1      40.298  29.095  29.517  1.00  0.00     0.031 C 
ATOM     24  C   UNL A   1      45.947  25.519  30.528  1.00  0.00     0.029 A 
ATOM     25  C   UNL A   1      45.679  26.622  31.428  1.00  0.00     0.049 A 
ATOM     26  H   UNL A   1      44.670  28.393  30.944  1.00  0.00     0.167 HD
ATOM     27  C   UNL A   1      41.212  31.216  30.552  1.00  0.00     0.037 A 
ATOM     28  C   UNL A   1      45.971  26.750  32.742  1.00  0.00     0.037 A 
ATOM     29  C   UNL A   1      42.385  32.038  30.464  1.00  0.00     0.049 A 
ATOM     30  C   UNL A   1      45.715  28.168  33.109  1.00  0.00     0.074 A 
ATOM     31  C   UNL A   1      43.025  32.702  29.435  1.00  0.00     0.029 A 
ATOM     32  N   UNL A   1      43.276  32.029  31.507  1.00  0.00    -0.354 N 
ATOM     33  N   UNL A   1      46.390  29.179  32.627  1.00  0.00    -0.248 NA
ATOM     34  C   UNL A   1      44.416  28.506  33.672  1.00  0.00     0.031 C 
ATOM     35  C   UNL A   1      44.413  32.632  29.750  1.00  0.00     0.029 A 
ATOM     36  C   UNL A   1      44.533  31.947  30.960  1.00  0.00     0.049 A 
ATOM     37  H   UNL A   1      43.056  32.073  32.466  1.00  0.00     0.167 HD
ATOM     38  C   UNL A   1      45.460  30.198  32.469  1.00  0.00     0.074 A 
ATOM     39  C   UNL A   1      44.287  29.756  33.218  1.00  0.00     0.031 C 
ATOM     40  C   UNL A   1      45.618  31.173  31.524  1.00  0.00     0.037 A 
BRANCH  27  41
ATOM     41  C   UNL A   1      40.158  31.394  31.612  1.00  0.00     0.058 A 
ATOM     42  C   UNL A   1      39.273  32.487  31.573  1.00  0.00     0.135 A 
ATOM     43  C   UNL A   1      40.170  30.653  32.816  1.00  0.00     0.135 A 
ATOM     44  F   UNL A   1      39.210  33.275  30.487  1.00  0.00    -0.206 F 
ATOM     45  C   UNL A   1      38.482  32.840  32.669  1.00  0.00     0.059 A 
ATOM     46  C   UNL A   1      39.352  30.951  33.897  1.00  0.00     0.059 A 
ATOM     47  F   UNL A   1      41.048  29.662  33.025  1.00  0.00    -0.206 F 
ATOM     48  C   UNL A   1      38.543  32.073  33.831  1.00  0.00     0.060 A 
BRANCH  48  49
ATOM     49  S   UNL A   1      37.624  32.590  35.294  1.00  0.00     0.124 S 
ATOM     50  O   UNL A   1      38.401  33.746  35.726  1.00  0.00    -0.237 OA
ATOM     51  O   UNL A   1      36.304  32.875  34.742  1.00  0.00    -0.237 OA
ATOM     52  O   UNL A   1      37.694  31.419  36.163  1.00  0.00    -0.744 OA
ENDBRANCH  48  49
ENDBRANCH  27  41
BRANCH  28  53
ATOM     53  C   UNL A   1      45.985  25.618  33.707  1.00  0.00     0.058 A 
ATOM     54  C   UNL A   1      44.823  24.892  34.002  1.00  0.00     0.135 A 
ATOM     55  C   UNL A   1      47.195  25.084  34.209  1.00  0.00     0.135 A 
ATOM     56  F   UNL A   1      43.637  25.302  33.526  1.00  0.00    -0.206 F 
ATOM     57  C   UNL A   1      44.858  23.705  34.744  1.00  0.00     0.059 A 
ATOM     58  C   UNL A   1      47.252  23.921  34.970  1.00  0.00     0.059 A 
ATOM     59  F   UNL A   1      48.381  25.633  33.906  1.00  0.00    -0.206 F 
ATOM     60  C   UNL A   1      46.079  23.225  35.219  1.00  0.00     0.060 A 
BRANCH  60  61
ATOM     61  S   UNL A   1      46.148  21.633  36.070  1.00  0.00     0.124 S 
ATOM     62  O   UNL A   1      45.192  20.841  35.302  1.00  0.00    -0.237 OA
ATOM     63  O   UNL A   1      47.551  21.264  35.916  1.00  0.00    -0.237 OA
ATOM     64  O   UNL A   1      45.736  21.956  37.433  1.00  0.00    -0.744 OA
ENDBRANCH  60  61
ENDBRANCH  28  53
BRANCH  40  65
ATOM     65  C   UNL A   1      46.943  31.250  30.802  1.00  0.00     0.058 A 
ATOM     66  C   UNL A   1      48.059  31.932  31.321  1.00  0.00     0.135 A 
ATOM     67  C   UNL A   1      47.152  30.464  29.661  1.00  0.00     0.135 A 
ATOM     68  F   UNL A   1      47.974  32.603  32.475  1.00  0.00    -0.206 F 
ATOM     69  C   UNL A   1      49.312  31.872  30.714  1.00  0.00     0.059 A 
ATOM     70  C   UNL A   1      48.404  30.363  29.053  1.00  0.00     0.059 A 
ATOM     71  F   UNL A   1      46.148  29.726  29.160  1.00  0.00    -0.206 F 
ATOM     72  C   UNL A   1      49.479  31.078  29.581  1.00  0.00     0.060 A 
BRANCH  72  73
ATOM     73  S   UNL A   1      51.133  30.910  28.872  1.00  0.00     0.124 S 
ATOM     74  O   UNL A   1      51.659  32.264  28.992  1.00  0.00    -0.237 OA
ATOM     75  O   UNL A   1      51.751  29.910  29.741  1.00  0.00    -0.237 OA
ATOM     76  O   UNL A   1      50.874  30.457  27.507  1.00  0.00    -0.744 OA
ENDBRANCH  72  73
ENDBRANCH  40  65
ENDBRANCH  14  15
ENDBRANCH   7   9
ENDBRANCH   6   7
ENDBRANCH   5   6
ENDBRANCH   4   5
ENDBRANCH   3   4
ENDBRANCH   2   3
ENDBRANCH   1   2
BRANCH   1  77
ATOM     77  O   UNL A   1      44.321  17.855  26.012  1.00  0.00    -0.377 OA
BRANCH  77  78
ATOM     78  C   UNL A   1      43.100  18.312  26.545  1.00  0.00     0.188 C 
BRANCH  78  79
ATOM     79  C   UNL A   1      42.376  19.380  25.700  1.00  0.00     0.188 C 
BRANCH  79  80
ATOM     80  O   UNL A   1      41.766  20.542  26.252  1.00  0.00    -0.376 OA
BRANCH  80  81
ATOM     81  C   UNL A   1      40.376  20.618  26.511  1.00  0.00     0.202 C 
BRANCH  81  82
ATOM     82  C   UNL A   1      39.660  21.935  26.191  1.00  0.00     0.261 C 
BRANCH  82  83
ATOM     83  O   UNL A   1      38.238  21.900  26.373  1.00  0.00    -0.458 OA
BRANCH  83  84
ATOM     84  C   UNL A   1      37.557  22.944  25.810  1.00  0.00     0.360 C 
ATOM     85  O   UNL A   1      38.040  24.020  25.516  1.00  0.00    -0.244 OA
BRANCH  84  86
ATOM     86  C   UNL A   1      36.188  22.573  25.487  1.00  0.00     0.190 A 
ATOM     87  C   UNL A   1      34.996  23.036  26.008  1.00  0.00     0.147 A 
ATOM     88  N   UNL A   1      35.917  21.569  24.586  1.00  0.00    -0.123 NA
ATOM     89  N   UNL A   1      34.044  22.325  25.326  1.00  0.00    -0.245 N 
ATOM     90  N   UNL A   1      34.609  21.377  24.558  1.00  0.00    -0.066 NA
BRANCH  89  91
ATOM     91  C   UNL A   1      32.679  22.679  25.086  1.00  0.00     0.148 C 
ATOM     92  C   UNL A   1      31.827  23.212  26.241  1.00  0.00     0.148 C 
ATOM     93  C   UNL A   1      32.666  24.109  24.502  1.00  0.00     0.148 C 
ATOM     94  N   UNL A   1      31.588  24.387  25.412  1.00  0.00    -0.338 N 
ATOM     95  C   UNL A   1      30.711  25.410  25.601  1.00  0.00     0.226 C 
ATOM     96  O   UNL A   1      29.850  25.350  26.482  1.00  0.00    -0.275 OA
BRANCH  95  97
ATOM     97  C   UNL A   1      30.830  26.659  24.732  1.00  0.00     0.083 C 
ATOM     98  C   UNL A   1      31.307  27.903  25.491  1.00  0.00     0.040 C 
ATOM     99  C   UNL A   1      29.551  26.943  23.933  1.00  0.00     0.018 C 
ATOM    100  C   UNL A   1      31.200  29.159  24.664  1.00  0.00    -0.030 C 
ATOM    101  C   UNL A   1      29.780  28.061  22.917  1.00  0.00     0.028 C 
ATOM    102  C   UNL A   1      30.532  29.222  23.502  1.00  0.00    -0.031 C 
ENDBRANCH  95  97
ENDBRANCH  89  91
ENDBRANCH  84  86
ENDBRANCH  83  84
ENDBRANCH  82  83
ENDBRANCH  81  82
ENDBRANCH  80  81
ENDBRANCH  79  80
ENDBRANCH  78  79
ENDBRANCH  77  78
ENDBRANCH   1  77
TORSDOF 25
ENDMDL
MODEL 2
REMARK VINA RESULT:      -9.1      3.707     10.714
REMARK SMILES O=C(OCCOCCOCCOCCOC(=O)c1cn(C2CN(C(=O)[C@@H]3CC=CCC3)C2)nn1)c1ccc(-c2c3nc(c(-c4c(F)cc(S(=O)(=O)[O-])cc4F)c4ccc([nH]4)c(-c4c(F)cc(S(=O)(=O)[O-])cc4F)c4nc(c(-c5c(F)cc(S(=O)(=O)[O-])cc5F)c5ccc2[nH]5)C=C4)C=C3)cc1
REMARK SMILES IDX 8 1 7 2 6 3 5 4 4 5 3 6 2 7 1 8 35 9 36 10 100 11 37 12
REMARK SMILES IDX 99 13 38 14 39 15 40 16 93 17 41 18 98 19 92 20 94 21 42 22
REMARK SMILES IDX 97 23 91 24 90 25 43 27 77 28 56 29 76 30 57 31 60 32 75 33
REMARK SMILES IDX 95 34 58 35 59 36 74 38 96 39 61 40 44 41 45 42 54 43 46 44
REMARK SMILES IDX 47 45 53 46 55 47 48 48 49 49 50 50 51 51 52 52 78 53 79 54
REMARK SMILES IDX 88 55 80 56 81 57 87 58 89 59 82 60 83 61 84 62 85 63 86 64
REMARK SMILES IDX 62 65 63 66 72 67 64 68 65 69 71 70 73 71 66 72 67 73 68 74
REMARK SMILES IDX 69 75 70 76 9 77 10 78 11 79 12 80 13 81 14 82 15 83 16 84
REMARK SMILES IDX 17 85 18 86 19 87 34 88 20 89 33 90 21 91 22 92 32 93 23 94
REMARK SMILES IDX 24 95 25 96 26 97 27 98 31 99 28 100 30 101 29 102
REMARK H PARENT 94 26 60 37
REMARK Flexibility Score: inf
ROOT
ATOM      1  C   UNL A   1      33.445  26.871  24.339  1.00  0.00     0.188 C 
ENDROOT
BRANCH   1   2
ATOM      2  C   UNL A   1      32.114  27.528  24.730  1.00  0.00     0.188 C 
BRANCH   2   3
ATOM      3  O   UNL A   1      31.706  27.786  26.061  1.00  0.00    -0.376 OA
BRANCH   3   4
ATOM      4  C   UNL A   1      32.188  28.739  26.983  1.00  0.00     0.202 C 
BRANCH   4   5
ATOM      5  C   UNL A   1      33.002  29.996  26.662  1.00  0.00     0.261 C 
BRANCH   5   6
ATOM      6  O   UNL A   1      34.381  29.996  26.998  1.00  0.00    -0.460 OA
BRANCH   6   7
ATOM      7  C   UNL A   1      34.988  30.549  28.069  1.00  0.00     0.338 C 
ATOM      8  O   UNL A   1      34.503  31.572  28.548  1.00  0.00    -0.246 OA
BRANCH   7   9
ATOM      9  C   UNL A   1      36.297  30.076  28.590  1.00  0.00     0.060 A 
ATOM     10  C   UNL A   1      36.538  29.593  29.879  1.00  0.00     0.016 A 
ATOM     11  C   UNL A   1      37.368  30.149  27.676  1.00  0.00     0.016 A 
ATOM     12  C   UNL A   1      37.824  29.338  30.305  1.00  0.00     0.010 A 
ATOM     13  C   UNL A   1      38.661  29.883  28.090  1.00  0.00     0.010 A 
ATOM     14  C   UNL A   1      38.874  29.598  29.437  1.00  0.00    -0.014 A 
BRANCH  14  15
ATOM     15  C   UNL A   1      40.151  29.858  30.075  1.00  0.00     0.031 A 
ATOM     16  C   UNL A   1      41.102  28.723  30.193  1.00  0.00     0.074 A 
ATOM     17  C   UNL A   1      40.372  31.113  30.515  1.00  0.00     0.049 A 
ATOM     18  N   UNL A   1      41.715  28.281  31.244  1.00  0.00    -0.248 NA
ATOM     19  C   UNL A   1      41.339  27.922  28.980  1.00  0.00     0.031 C 
ATOM     20  C   UNL A   1      39.550  32.310  30.262  1.00  0.00     0.029 A 
ATOM     21  N   UNL A   1      41.445  31.625  31.168  1.00  0.00    -0.354 N 
ATOM     22  C   UNL A   1      42.578  27.286  30.788  1.00  0.00     0.074 A 
ATOM     23  C   UNL A   1      42.214  27.017  29.420  1.00  0.00     0.031 C 
ATOM     24  C   UNL A   1      40.290  33.411  30.492  1.00  0.00     0.029 A 
ATOM     25  C   UNL A   1      41.573  32.996  31.022  1.00  0.00     0.049 A 
ATOM     26  H   UNL A   1      42.070  31.074  31.692  1.00  0.00     0.167 HD
ATOM     27  C   UNL A   1      43.686  26.900  31.476  1.00  0.00     0.037 A 
ATOM     28  C   UNL A   1      42.713  33.708  31.170  1.00  0.00     0.037 A 
ATOM     29  C   UNL A   1      43.605  27.204  32.876  1.00  0.00     0.049 A 
ATOM     30  C   UNL A   1      43.636  32.887  31.996  1.00  0.00     0.074 A 
ATOM     31  C   UNL A   1      42.770  26.812  33.904  1.00  0.00     0.029 A 
ATOM     32  N   UNL A   1      44.296  28.289  33.356  1.00  0.00    -0.354 N 
ATOM     33  N   UNL A   1      43.407  32.563  33.242  1.00  0.00    -0.248 NA
ATOM     34  C   UNL A   1      44.605  32.045  31.310  1.00  0.00     0.031 C 
ATOM     35  C   UNL A   1      42.658  27.951  34.752  1.00  0.00     0.029 A 
ATOM     36  C   UNL A   1      43.447  28.961  34.200  1.00  0.00     0.049 A 
ATOM     37  H   UNL A   1      45.223  28.538  33.136  1.00  0.00     0.167 HD
ATOM     38  C   UNL A   1      43.892  31.269  33.380  1.00  0.00     0.074 A 
ATOM     39  C   UNL A   1      44.703  31.043  32.187  1.00  0.00     0.031 C 
ATOM     40  C   UNL A   1      43.374  30.403  34.303  1.00  0.00     0.037 A 
BRANCH  27  41
ATOM     41  C   UNL A   1      44.973  26.540  30.783  1.00  0.00     0.058 A 
ATOM     42  C   UNL A   1      45.755  27.528  30.157  1.00  0.00     0.135 A 
ATOM     43  C   UNL A   1      45.323  25.201  30.494  1.00  0.00     0.135 A 
ATOM     44  F   UNL A   1      45.483  28.830  30.340  1.00  0.00    -0.206 F 
ATOM     45  C   UNL A   1      46.790  27.205  29.275  1.00  0.00     0.059 A 
ATOM     46  C   UNL A   1      46.382  24.857  29.665  1.00  0.00     0.059 A 
ATOM     47  F   UNL A   1      44.587  24.170  30.931  1.00  0.00    -0.206 F 
ATOM     48  C   UNL A   1      47.083  25.866  29.025  1.00  0.00     0.060 A 
BRANCH  48  49
ATOM     49  S   UNL A   1      48.329  25.437  27.795  1.00  0.00     0.124 S 
ATOM     50  O   UNL A   1      47.700  24.298  27.135  1.00  0.00    -0.237 OA
ATOM     51  O   UNL A   1      48.419  26.663  27.009  1.00  0.00    -0.237 OA
ATOM     52  O   UNL A   1      49.505  25.129  28.604  1.00  0.00    -0.744 OA
ENDBRANCH  48  49
ENDBRANCH  27  41
BRANCH  28  53
ATOM     53  C   UNL A   1      43.145  34.792  30.246  1.00  0.00     0.058 A 
ATOM     54  C   UNL A   1      43.198  34.594  28.860  1.00  0.00     0.135 A 
ATOM     55  C   UNL A   1      43.317  36.123  30.691  1.00  0.00     0.135 A 
ATOM     56  F   UNL A   1      42.998  33.370  28.348  1.00  0.00    -0.206 F 
ATOM     57  C   UNL A   1      43.402  35.653  27.967  1.00  0.00     0.059 A 
ATOM     58  C   UNL A   1      43.547  37.188  29.826  1.00  0.00     0.059 A 
ATOM     59  F   UNL A   1      43.185  36.452  31.986  1.00  0.00    -0.206 F 
ATOM     60  C   UNL A   1      43.571  36.948  28.460  1.00  0.00     0.060 A 
BRANCH  60  61
ATOM     61  S   UNL A   1      43.711  38.335  27.312  1.00  0.00     0.124 S 
ATOM     62  O   UNL A   1      44.996  38.067  26.675  1.00  0.00    -0.237 OA
ATOM     63  O   UNL A   1      42.532  38.157  26.471  1.00  0.00    -0.237 OA
ATOM     64  O   UNL A   1      43.681  39.506  28.184  1.00  0.00    -0.744 OA
ENDBRANCH  60  61
ENDBRANCH  28  53
BRANCH  40  65
ATOM     65  C   UNL A   1      42.412  30.955  35.328  1.00  0.00     0.058 A 
ATOM     66  C   UNL A   1      42.834  31.586  36.512  1.00  0.00     0.135 A 
ATOM     67  C   UNL A   1      41.045  31.023  35.024  1.00  0.00     0.135 A 
ATOM     68  F   UNL A   1      44.135  31.676  36.813  1.00  0.00    -0.206 F 
ATOM     69  C   UNL A   1      41.939  32.217  37.376  1.00  0.00     0.059 A 
ATOM     70  C   UNL A   1      40.135  31.675  35.857  1.00  0.00     0.059 A 
ATOM     71  F   UNL A   1      40.587  30.508  33.871  1.00  0.00    -0.206 F 
ATOM     72  C   UNL A   1      40.589  32.263  37.037  1.00  0.00     0.060 A 
BRANCH  72  73
ATOM     73  S   UNL A   1      39.456  33.186  38.100  1.00  0.00     0.124 S 
ATOM     74  O   UNL A   1      40.371  33.868  39.007  1.00  0.00    -0.237 OA
ATOM     75  O   UNL A   1      38.753  34.043  37.147  1.00  0.00    -0.237 OA
ATOM     76  O   UNL A   1      38.632  32.143  38.707  1.00  0.00    -0.744 OA
ENDBRANCH  72  73
ENDBRANCH  40  65
ENDBRANCH  14  15
ENDBRANCH   7   9
ENDBRANCH   6   7
ENDBRANCH   5   6
ENDBRANCH   4   5
ENDBRANCH   3   4
ENDBRANCH   2   3
ENDBRANCH   1   2
BRANCH   1  77
ATOM     77  O   UNL A   1      33.781  25.686  25.043  1.00  0.00    -0.377 OA
BRANCH  77  78
ATOM     78  C   UNL A   1      34.398  24.702  24.245  1.00  0.00     0.188 C 
BRANCH  78  79
ATOM     79  C   UNL A   1      35.061  23.548  25.025  1.00  0.00     0.188 C 
BRANCH  79  80
ATOM     80  O   UNL A   1      35.985  23.744  26.090  1.00  0.00    -0.376 OA
BRANCH  80  81
ATOM     81  C   UNL A   1      37.361  23.987  25.864  1.00  0.00     0.202 C 
BRANCH  81  82
ATOM     82  C   UNL A   1      38.365  22.960  26.399  1.00  0.00     0.261 C 
BRANCH  82  83
ATOM     83  O   UNL A   1      38.923  22.095  25.401  1.00  0.00    -0.458 OA
BRANCH  83  84
ATOM     84  C   UNL A   1      39.629  21.030  25.888  1.00  0.00     0.360 C 
ATOM     85  O   UNL A   1      39.305  19.863  25.779  1.00  0.00    -0.244 OA
BRANCH  84  86
ATOM     86  C   UNL A   1      40.898  21.451  26.462  1.00  0.00     0.190 A 
ATOM     87  C   UNL A   1      41.977  22.078  25.869  1.00  0.00     0.147 A 
ATOM     88  N   UNL A   1      41.212  21.177  27.773  1.00  0.00    -0.123 NA
ATOM     89  N   UNL A   1      42.875  22.218  26.893  1.00  0.00    -0.245 N 
ATOM     90  N   UNL A   1      42.450  21.581  27.998  1.00  0.00    -0.066 NA
BRANCH  89  91
ATOM     91  C   UNL A   1      43.934  23.173  27.016  1.00  0.00     0.148 C 
ATOM     92  C   UNL A   1      44.830  23.461  25.809  1.00  0.00     0.148 C 
ATOM     93  C   UNL A   1      43.319  24.576  26.813  1.00  0.00     0.148 C 
ATOM     94  N   UNL A   1      44.442  24.858  25.959  1.00  0.00    -0.338 N 
ATOM     95  C   UNL A   1      44.946  25.962  25.346  1.00  0.00     0.226 C 
ATOM     96  O   UNL A   1      45.976  25.896  24.670  1.00  0.00    -0.275 OA
BRANCH  95  97
ATOM     97  C   UNL A   1      44.198  27.287  25.470  1.00  0.00     0.083 C 
ATOM     98  C   UNL A   1      44.653  28.151  26.653  1.00  0.00     0.040 C 
ATOM     99  C   UNL A   1      42.675  27.105  25.461  1.00  0.00     0.018 C 
ATOM    100  C   UNL A   1      43.753  29.338  26.879  1.00  0.00    -0.030 C 
ATOM    101  C   UNL A   1      41.965  28.455  25.364  1.00  0.00     0.028 C 
ATOM    102  C   UNL A   1      42.558  29.481  26.286  1.00  0.00    -0.031 C 
ENDBRANCH  95  97
ENDBRANCH  89  91
ENDBRANCH  84  86
ENDBRANCH  83  84
ENDBRANCH  82  83
ENDBRANCH  81  82
ENDBRANCH  80  81
ENDBRANCH  79  80
ENDBRANCH  78  79
ENDBRANCH  77  78
ENDBRANCH   1  77
TORSDOF 25
ENDMDL
MODEL 3
REMARK VINA RESULT:      -9.1      3.785      7.323
REMARK SMILES O=C(OCCOCCOCCOCCOC(=O)c1cn(C2CN(C(=O)[C@@H]3CC=CCC3)C2)nn1)c1ccc(-c2c3nc(c(-c4c(F)cc(S(=O)(=O)[O-])cc4F)c4ccc([nH]4)c(-c4c(F)cc(S(=O)(=O)[O-])cc4F)c4nc(c(-c5c(F)cc(S(=O)(=O)[O-])cc5F)c5ccc2[nH]5)C=C4)C=C3)cc1
REMARK SMILES IDX 8 1 7 2 6 3 5 4 4 5 3 6 2 7 1 8 35 9 36 10 100 11 37 12
REMARK SMILES IDX 99 13 38 14 39 15 40 16 93 17 41 18 98 19 92 20 94 21 42 22
REMARK SMILES IDX 97 23 91 24 90 25 43 27 77 28 56 29 76 30 57 31 60 32 75 33
REMARK SMILES IDX 95 34 58 35 59 36 74 38 96 39 61 40 44 41 45 42 54 43 46 44
REMARK SMILES IDX 47 45 53 46 55 47 48 48 49 49 50 50 51 51 52 52 78 53 79 54
REMARK SMILES IDX 88 55 80 56 81 57 87 58 89 59 82 60 83 61 84 62 85 63 86 64
REMARK SMILES IDX 62 65 63 66 72 67 64 68 65 69 71 70 73 71 66 72 67 73 68 74
REMARK SMILES IDX 69 75 70 76 9 77 10 78 11 79 12 80 13 81 14 82 15 83 16 84
REMARK SMILES IDX 17 85 18 86 19 87 34 88 20 89 33 90 21 91 22 92 32 93 23 94
REMARK SMILES IDX 24 95 25 96 26 97 27 98 31 99 28 100 30 101 29 102
REMARK H PARENT 94 26 60 37
REMARK Flexibility Score: inf
ROOT
ATOM      1  C   UNL A   1      45.566  19.458  25.316  1.00  0.00     0.188 C 
ENDROOT
BRANCH   1   2
ATOM      2  C   UNL A   1      46.227  20.599  24.531  1.00  0.00     0.188 C 
BRANCH   2   3
ATOM      3  O   UNL A   1      45.940  21.973  24.716  1.00  0.00    -0.376 OA
BRANCH   3   4
ATOM      4  C   UNL A   1      44.986  22.790  24.073  1.00  0.00     0.202 C 
BRANCH   4   5
ATOM      5  C   UNL A   1      43.723  23.391  24.696  1.00  0.00     0.261 C 
BRANCH   5   6
ATOM      6  O   UNL A   1      43.867  24.559  25.489  1.00  0.00    -0.460 OA
BRANCH   6   7
ATOM      7  C   UNL A   1      42.920  25.443  25.867  1.00  0.00     0.338 C 
ATOM      8  O   UNL A   1      41.748  25.072  25.871  1.00  0.00    -0.246 OA
BRANCH   7   9
ATOM      9  C   UNL A   1      43.208  26.880  26.115  1.00  0.00     0.060 A 
ATOM     10  C   UNL A   1      44.414  27.402  26.593  1.00  0.00     0.016 A 
ATOM     11  C   UNL A   1      42.141  27.761  25.845  1.00  0.00     0.016 A 
ATOM     12  C   UNL A   1      44.514  28.731  26.943  1.00  0.00     0.010 A 
ATOM     13  C   UNL A   1      42.236  29.100  26.180  1.00  0.00     0.010 A 
ATOM     14  C   UNL A   1      43.386  29.532  26.838  1.00  0.00    -0.014 A 
BRANCH  14  15
ATOM     15  C   UNL A   1      43.373  30.694  27.707  1.00  0.00     0.031 A 
ATOM     16  C   UNL A   1      44.149  31.884  27.272  1.00  0.00     0.074 A 
ATOM     17  C   UNL A   1      42.657  30.599  28.845  1.00  0.00     0.049 A 
ATOM     18  N   UNL A   1      45.041  32.557  27.927  1.00  0.00    -0.248 NA
ATOM     19  C   UNL A   1      43.958  32.335  25.883  1.00  0.00     0.031 C 
ATOM     20  C   UNL A   1      41.727  29.524  29.233  1.00  0.00     0.029 A 
ATOM     21  N   UNL A   1      42.496  31.503  29.843  1.00  0.00    -0.354 N 
ATOM     22  C   UNL A   1      45.366  33.642  27.115  1.00  0.00     0.074 A 
ATOM     23  C   UNL A   1      44.774  33.387  25.827  1.00  0.00     0.031 C 
ATOM     24  C   UNL A   1      40.908  29.976  30.202  1.00  0.00     0.029 A 
ATOM     25  C   UNL A   1      41.340  31.306  30.580  1.00  0.00     0.049 A 
ATOM     26  H   UNL A   1      43.137  32.228  30.024  1.00  0.00     0.167 HD
ATOM     27  C   UNL A   1      45.904  34.792  27.604  1.00  0.00     0.037 A 
ATOM     28  C   UNL A   1      40.698  32.241  31.317  1.00  0.00     0.037 A 
ATOM     29  C   UNL A   1      46.563  34.605  28.865  1.00  0.00     0.049 A 
ATOM     30  C   UNL A   1      41.685  33.311  31.620  1.00  0.00     0.074 A 
ATOM     31  C   UNL A   1      47.647  33.860  29.288  1.00  0.00     0.029 A 
ATOM     32  N   UNL A   1      45.923  35.006  30.010  1.00  0.00    -0.354 N 
ATOM     33  N   UNL A   1      42.751  33.133  32.356  1.00  0.00    -0.248 NA
ATOM     34  C   UNL A   1      41.731  34.469  30.740  1.00  0.00     0.031 C 
ATOM     35  C   UNL A   1      47.331  33.460  30.617  1.00  0.00     0.029 A 
ATOM     36  C   UNL A   1      46.084  34.000  30.931  1.00  0.00     0.049 A 
ATOM     37  H   UNL A   1      45.439  35.853  30.146  1.00  0.00     0.167 HD
ATOM     38  C   UNL A   1      43.739  33.907  31.763  1.00  0.00     0.074 A 
ATOM     39  C   UNL A   1      43.027  34.779  30.833  1.00  0.00     0.031 C 
ATOM     40  C   UNL A   1      45.064  33.585  31.871  1.00  0.00     0.037 A 
BRANCH  27  41
ATOM     41  C   UNL A   1      45.525  36.145  27.064  1.00  0.00     0.058 A 
ATOM     42  C   UNL A   1      46.502  37.009  26.536  1.00  0.00     0.135 A 
ATOM     43  C   UNL A   1      44.253  36.718  27.295  1.00  0.00     0.135 A 
ATOM     44  F   UNL A   1      47.751  36.571  26.311  1.00  0.00    -0.206 F 
ATOM     45  C   UNL A   1      46.241  38.360  26.290  1.00  0.00     0.059 A 
ATOM     46  C   UNL A   1      43.956  38.043  27.007  1.00  0.00     0.059 A 
ATOM     47  F   UNL A   1      43.273  36.036  27.902  1.00  0.00    -0.206 F 
ATOM     48  C   UNL A   1      44.968  38.868  26.545  1.00  0.00     0.060 A 
BRANCH  48  49
ATOM     49  S   UNL A   1      44.654  40.633  26.353  1.00  0.00     0.124 S 
ATOM     50  O   UNL A   1      43.210  40.647  26.152  1.00  0.00    -0.237 OA
ATOM     51  O   UNL A   1      45.130  41.170  27.624  1.00  0.00    -0.237 OA
ATOM     52  O   UNL A   1      45.460  40.990  25.188  1.00  0.00    -0.744 OA
ENDBRANCH  48  49
ENDBRANCH  27  41
BRANCH  28  53
ATOM     53  C   UNL A   1      39.222  32.428  31.326  1.00  0.00     0.058 A 
ATOM     54  C   UNL A   1      38.459  32.181  32.476  1.00  0.00     0.135 A 
ATOM     55  C   UNL A   1      38.546  33.059  30.256  1.00  0.00     0.135 A 
ATOM     56  F   UNL A   1      39.033  31.628  33.556  1.00  0.00    -0.206 F 
ATOM     57  C   UNL A   1      37.110  32.543  32.562  1.00  0.00     0.059 A 
ATOM     58  C   UNL A   1      37.200  33.404  30.308  1.00  0.00     0.059 A 
ATOM     59  F   UNL A   1      39.195  33.438  29.144  1.00  0.00    -0.206 F 
ATOM     60  C   UNL A   1      36.490  33.160  31.474  1.00  0.00     0.060 A 
BRANCH  60  61
ATOM     61  S   UNL A   1      34.786  33.740  31.622  1.00  0.00     0.124 S 
ATOM     62  O   UNL A   1      34.110  32.556  32.140  1.00  0.00    -0.237 OA
ATOM     63  O   UNL A   1      34.923  34.856  32.552  1.00  0.00    -0.237 OA
ATOM     64  O   UNL A   1      34.431  34.111  30.255  1.00  0.00    -0.744 OA
ENDBRANCH  60  61
ENDBRANCH  28  53
BRANCH  40  65
ATOM     65  C   UNL A   1      45.449  32.494  32.840  1.00  0.00     0.058 A 
ATOM     66  C   UNL A   1      45.549  31.140  32.470  1.00  0.00     0.135 A 
ATOM     67  C   UNL A   1      45.913  32.839  34.117  1.00  0.00     0.135 A 
ATOM     68  F   UNL A   1      45.245  30.748  31.227  1.00  0.00    -0.206 F 
ATOM     69  C   UNL A   1      46.045  30.168  33.337  1.00  0.00     0.059 A 
ATOM     70  C   UNL A   1      46.442  31.889  34.992  1.00  0.00     0.059 A 
ATOM     71  F   UNL A   1      45.918  34.124  34.506  1.00  0.00    -0.206 F 
ATOM     72  C   UNL A   1      46.496  30.552  34.598  1.00  0.00     0.060 A 
BRANCH  72  73
ATOM     73  S   UNL A   1      47.249  29.307  35.670  1.00  0.00     0.124 S 
ATOM     74  O   UNL A   1      46.979  28.072  34.944  1.00  0.00    -0.237 OA
ATOM     75  O   UNL A   1      48.649  29.725  35.710  1.00  0.00    -0.237 OA
ATOM     76  O   UNL A   1      46.529  29.463  36.931  1.00  0.00    -0.744 OA
ENDBRANCH  72  73
ENDBRANCH  40  65
ENDBRANCH  14  15
ENDBRANCH   7   9
ENDBRANCH   6   7
ENDBRANCH   5   6
ENDBRANCH   4   5
ENDBRANCH   3   4
ENDBRANCH   2   3
ENDBRANCH   1   2
BRANCH   1  77
ATOM     77  O   UNL A   1      44.179  19.607  25.576  1.00  0.00    -0.377 OA
BRANCH  77  78
ATOM     78  C   UNL A   1      43.532  18.407  25.932  1.00  0.00     0.188 C 
BRANCH  78  79
ATOM     79  C   UNL A   1      42.605  18.503  27.160  1.00  0.00     0.188 C 
BRANCH  79  80
ATOM     80  O   UNL A   1      41.608  19.506  27.320  1.00  0.00    -0.376 OA
BRANCH  80  81
ATOM     81  C   UNL A   1      41.083  20.234  26.226  1.00  0.00     0.202 C 
BRANCH  81  82
ATOM     82  C   UNL A   1      40.155  21.415  26.531  1.00  0.00     0.261 C 
BRANCH  82  83
ATOM     83  O   UNL A   1      39.095  21.602  25.584  1.00  0.00    -0.458 OA
BRANCH  83  84
ATOM     84  C   UNL A   1      38.173  22.551  25.927  1.00  0.00     0.360 C 
ATOM     85  O   UNL A   1      38.431  23.693  26.257  1.00  0.00    -0.244 OA
BRANCH  84  86
ATOM     86  C   UNL A   1      36.814  22.067  25.737  1.00  0.00     0.190 A 
ATOM     87  C   UNL A   1      35.616  22.586  26.184  1.00  0.00     0.147 A 
ATOM     88  N   UNL A   1      36.567  20.882  25.084  1.00  0.00    -0.123 NA
ATOM     89  N   UNL A   1      34.681  21.708  25.704  1.00  0.00    -0.245 N 
ATOM     90  N   UNL A   1      35.270  20.638  25.140  1.00  0.00    -0.066 NA
BRANCH  89  91
ATOM     91  C   UNL A   1      33.296  21.948  25.438  1.00  0.00     0.148 C 
ATOM     92  C   UNL A   1      32.425  22.596  26.517  1.00  0.00     0.148 C 
ATOM     93  C   UNL A   1      33.198  23.275  24.653  1.00  0.00     0.148 C 
ATOM     94  N   UNL A   1      32.113  23.623  25.531  1.00  0.00    -0.338 N 
ATOM     95  C   UNL A   1      31.182  24.614  25.584  1.00  0.00     0.226 C 
ATOM     96  O   UNL A   1      30.334  24.637  26.479  1.00  0.00    -0.275 OA
BRANCH  95  97
ATOM     97  C   UNL A   1      31.223  25.728  24.541  1.00  0.00     0.083 C 
ATOM     98  C   UNL A   1      30.300  26.911  24.856  1.00  0.00     0.040 C 
ATOM     99  C   UNL A   1      31.002  25.207  23.115  1.00  0.00     0.018 C 
ATOM    100  C   UNL A   1      30.195  27.882  23.708  1.00  0.00    -0.030 C 
ATOM    101  C   UNL A   1      31.268  26.304  22.086  1.00  0.00     0.028 C 
ATOM    102  C   UNL A   1      30.647  27.615  22.473  1.00  0.00    -0.031 C 
ENDBRANCH  95  97
ENDBRANCH  89  91
ENDBRANCH  84  86
ENDBRANCH  83  84
ENDBRANCH  82  83
ENDBRANCH  81  82
ENDBRANCH  80  81
ENDBRANCH  79  80
ENDBRANCH  78  79
ENDBRANCH  77  78
ENDBRANCH   1  77
TORSDOF 25
ENDMDL
