MODEL 1
REMARK VINA RESULT:      -8.9      0.000      0.000
REMARK SMILES C[C@@H](NC(=O)C[C@H]1CCCCO1)C(=O)OCCOCCOCCOCCOC(=O)c1ccc(-c2c3nc(c(-c4c(F)cc(S(=O)(=O)[O-])cc4F)c4ccc([nH]4)c(-c4c(F)cc(S(=O)(=O)[O-])cc4F)c4nc(c(-c5c(F)cc(S(=O)(=O)[O-])cc5F)c5ccc2[nH]5)C=C4)C=C3)cc1
REMARK SMILES IDX 21 1 20 2 19 3 18 4 17 5 16 6 15 7 13 8 14 9 2 10 1 11 3 12
REMARK SMILES IDX 4 13 5 15 6 16 7 17 8 18 12 19 9 20 11 21 10 22 22 23 23 24
REMARK SMILES IDX 24 25 25 26 26 27 27 28 28 29 29 30 30 31 31 32 95 33 32 34
REMARK SMILES IDX 94 35 33 36 34 37 35 38 88 39 36 40 93 41 87 42 89 43 37 44
REMARK SMILES IDX 92 45 86 46 85 47 38 49 72 50 51 51 71 52 52 53 55 54 70 55
REMARK SMILES IDX 90 56 53 57 54 58 69 60 91 61 56 62 39 63 40 64 49 65 41 66
REMARK SMILES IDX 42 67 48 68 50 69 43 70 44 71 45 72 46 73 47 74 73 75 74 76
REMARK SMILES IDX 83 77 75 78 76 79 82 80 84 81 77 82 78 83 79 84 80 85 81 86
REMARK SMILES IDX 57 87 58 88 67 89 59 90 60 91 66 92 68 93 61 94 62 95 63 96
REMARK SMILES IDX 64 97 65 98
REMARK H PARENT 3 14 89 48 55 59
REMARK Flexibility Score: inf
ROOT
ATOM      1  O   UNL A   1      34.363  32.310  29.154  1.00  0.00    -0.377 OA
ENDROOT
BRANCH   1   2
ATOM      2  C   UNL A   1      35.248  31.769  28.184  1.00  0.00     0.188 C 
BRANCH   2   3
ATOM      3  C   UNL A   1      35.145  30.284  27.826  1.00  0.00     0.188 C 
BRANCH   3   4
ATOM      4  O   UNL A   1      34.101  30.034  26.917  1.00  0.00    -0.376 OA
BRANCH   4   5
ATOM      5  C   UNL A   1      33.863  28.701  26.518  1.00  0.00     0.202 C 
BRANCH   5   6
ATOM      6  C   UNL A   1      33.680  28.304  25.044  1.00  0.00     0.261 C 
BRANCH   6   7
ATOM      7  O   UNL A   1      33.977  26.954  24.651  1.00  0.00    -0.462 OA
BRANCH   7   8
ATOM      8  C   UNL A   1      32.917  26.180  24.308  1.00  0.00     0.328 C 
ATOM      9  O   UNL A   1      32.563  25.199  24.955  1.00  0.00    -0.250 OA
BRANCH   8  10
ATOM     10  C   UNL A   1      32.276  26.542  22.953  1.00  0.00     0.189 C 
ATOM     11  C   UNL A   1      32.860  26.074  21.627  1.00  0.00     0.043 C 
BRANCH  10  12
ATOM     12  N   UNL A   1      30.815  26.459  22.978  1.00  0.00    -0.343 N 
ATOM     13  C   UNL A   1      29.858  27.309  23.437  1.00  0.00     0.223 C 
ATOM     14  H   UNL A   1      30.457  25.629  22.589  1.00  0.00     0.164 HD
ATOM     15  O   UNL A   1      28.712  26.853  23.501  1.00  0.00    -0.275 OA
BRANCH  13  16
ATOM     16  C   UNL A   1      30.109  28.782  23.688  1.00  0.00     0.132 C 
BRANCH  16  17
ATOM     17  C   UNL A   1      29.148  29.809  23.091  1.00  0.00     0.127 C 
ATOM     18  C   UNL A   1      29.306  31.204  23.700  1.00  0.00     0.033 C 
ATOM     19  O   UNL A   1      29.254  29.919  21.676  1.00  0.00    -0.378 OA
ATOM     20  C   UNL A   1      28.203  32.119  23.167  1.00  0.00     0.005 C 
ATOM     21  C   UNL A   1      28.138  30.634  21.134  1.00  0.00     0.160 C 
ATOM     22  C   UNL A   1      28.110  32.065  21.644  1.00  0.00     0.029 C 
ENDBRANCH  16  17
ENDBRANCH  13  16
ENDBRANCH  10  12
ENDBRANCH   8  10
ENDBRANCH   7   8
ENDBRANCH   6   7
ENDBRANCH   5   6
ENDBRANCH   4   5
ENDBRANCH   3   4
ENDBRANCH   2   3
ENDBRANCH   1   2
BRANCH   1  23
ATOM     23  C   UNL A   1      34.368  33.700  29.472  1.00  0.00     0.188 C 
BRANCH  23  24
ATOM     24  C   UNL A   1      35.141  34.243  30.687  1.00  0.00     0.188 C 
BRANCH  24  25
ATOM     25  O   UNL A   1      36.444  33.742  30.961  1.00  0.00    -0.376 OA
BRANCH  25  26
ATOM     26  C   UNL A   1      36.652  33.010  32.161  1.00  0.00     0.202 C 
BRANCH  26  27
ATOM     27  C   UNL A   1      36.007  31.636  32.245  1.00  0.00     0.261 C 
BRANCH  27  28
ATOM     28  O   UNL A   1      36.974  30.602  32.468  1.00  0.00    -0.460 OA
BRANCH  28  29
ATOM     29  C   UNL A   1      37.178  29.786  31.407  1.00  0.00     0.338 C 
ATOM     30  O   UNL A   1      36.353  29.118  30.814  1.00  0.00    -0.246 OA
BRANCH  29  31
ATOM     31  C   UNL A   1      38.576  29.912  30.969  1.00  0.00     0.060 A 
ATOM     32  C   UNL A   1      38.828  30.319  29.653  1.00  0.00     0.016 A 
ATOM     33  C   UNL A   1      39.616  29.517  31.812  1.00  0.00     0.016 A 
ATOM     34  C   UNL A   1      40.123  30.262  29.148  1.00  0.00     0.010 A 
ATOM     35  C   UNL A   1      40.911  29.454  31.304  1.00  0.00     0.010 A 
ATOM     36  C   UNL A   1      41.158  29.776  29.957  1.00  0.00    -0.014 A 
BRANCH  36  37
ATOM     37  C   UNL A   1      42.461  29.416  29.360  1.00  0.00     0.031 A 
ATOM     38  C   UNL A   1      42.632  28.032  28.802  1.00  0.00     0.074 A 
ATOM     39  C   UNL A   1      43.475  30.295  29.343  1.00  0.00     0.049 A 
ATOM     40  N   UNL A   1      43.709  27.446  28.355  1.00  0.00    -0.248 NA
ATOM     41  C   UNL A   1      41.422  27.193  28.751  1.00  0.00     0.031 C 
ATOM     42  C   UNL A   1      43.397  31.672  29.821  1.00  0.00     0.029 A 
ATOM     43  N   UNL A   1      44.776  30.149  28.940  1.00  0.00    -0.354 N 
ATOM     44  C   UNL A   1      43.316  26.165  27.991  1.00  0.00     0.074 A 
ATOM     45  C   UNL A   1      41.906  26.049  28.291  1.00  0.00     0.031 C 
ATOM     46  C   UNL A   1      44.611  32.238  29.721  1.00  0.00     0.029 A 
ATOM     47  C   UNL A   1      45.555  31.248  29.209  1.00  0.00     0.049 A 
ATOM     48  H   UNL A   1      45.119  29.338  28.499  1.00  0.00     0.167 HD
ATOM     49  C   UNL A   1      44.070  25.177  27.454  1.00  0.00     0.037 A 
ATOM     50  C   UNL A   1      46.888  31.417  29.094  1.00  0.00     0.037 A 
ATOM     51  C   UNL A   1      45.472  25.314  27.164  1.00  0.00     0.049 A 
ATOM     52  C   UNL A   1      47.720  30.285  28.550  1.00  0.00     0.074 A 
ATOM     53  C   UNL A   1      46.327  24.391  26.589  1.00  0.00     0.029 A 
ATOM     54  N   UNL A   1      46.231  26.443  27.445  1.00  0.00    -0.354 N 
ATOM     55  N   UNL A   1      47.336  29.087  28.176  1.00  0.00    -0.248 NA
ATOM     56  C   UNL A   1      49.162  30.526  28.408  1.00  0.00     0.031 C 
ATOM     57  C   UNL A   1      47.614  24.937  26.581  1.00  0.00     0.029 A 
ATOM     58  C   UNL A   1      47.551  26.227  27.086  1.00  0.00     0.049 A 
ATOM     59  H   UNL A   1      45.882  27.274  27.842  1.00  0.00     0.167 HD
ATOM     60  C   UNL A   1      48.483  28.442  27.726  1.00  0.00     0.074 A 
ATOM     61  C   UNL A   1      49.573  29.385  27.869  1.00  0.00     0.031 C 
ATOM     62  C   UNL A   1      48.621  27.185  27.231  1.00  0.00     0.037 A 
BRANCH  49  63
ATOM     63  C   UNL A   1      43.400  23.855  27.188  1.00  0.00     0.058 A 
ATOM     64  C   UNL A   1      42.945  23.491  25.910  1.00  0.00     0.135 A 
ATOM     65  C   UNL A   1      43.224  22.931  28.231  1.00  0.00     0.135 A 
ATOM     66  F   UNL A   1      43.072  24.342  24.879  1.00  0.00    -0.206 F 
ATOM     67  C   UNL A   1      42.307  22.275  25.683  1.00  0.00     0.059 A 
ATOM     68  C   UNL A   1      42.618  21.696  28.021  1.00  0.00     0.059 A 
ATOM     69  F   UNL A   1      43.635  23.227  29.474  1.00  0.00    -0.206 F 
ATOM     70  C   UNL A   1      42.147  21.385  26.747  1.00  0.00     0.060 A 
BRANCH  70  71
ATOM     71  S   UNL A   1      41.308  19.816  26.439  1.00  0.00     0.124 S 
ATOM     72  O   UNL A   1      41.522  19.119  27.704  1.00  0.00    -0.237 OA
ATOM     73  O   UNL A   1      39.938  20.244  26.175  1.00  0.00    -0.237 OA
ATOM     74  O   UNL A   1      42.023  19.267  25.292  1.00  0.00    -0.744 OA
ENDBRANCH  70  71
ENDBRANCH  49  63
BRANCH  50  75
ATOM     75  C   UNL A   1      47.506  32.699  29.522  1.00  0.00     0.058 A 
ATOM     76  C   UNL A   1      47.960  32.883  30.835  1.00  0.00     0.135 A 
ATOM     77  C   UNL A   1      47.684  33.755  28.614  1.00  0.00     0.135 A 
ATOM     78  F   UNL A   1      47.806  31.906  31.741  1.00  0.00    -0.206 F 
ATOM     79  C   UNL A   1      48.565  34.070  31.235  1.00  0.00     0.059 A 
ATOM     80  C   UNL A   1      48.310  34.941  28.983  1.00  0.00     0.059 A 
ATOM     81  F   UNL A   1      47.278  33.623  27.341  1.00  0.00    -0.206 F 
ATOM     82  C   UNL A   1      48.742  35.090  30.299  1.00  0.00     0.060 A 
BRANCH  82  83
ATOM     83  S   UNL A   1      49.589  36.599  30.818  1.00  0.00     0.124 S 
ATOM     84  O   UNL A   1      50.317  36.137  31.994  1.00  0.00    -0.237 OA
ATOM     85  O   UNL A   1      50.400  36.908  29.645  1.00  0.00    -0.237 OA
ATOM     86  O   UNL A   1      48.493  37.527  31.077  1.00  0.00    -0.744 OA
ENDBRANCH  82  83
ENDBRANCH  50  75
BRANCH  62  87
ATOM     87  C   UNL A   1      49.989  26.762  26.768  1.00  0.00     0.058 A 
ATOM     88  C   UNL A   1      50.897  26.121  27.624  1.00  0.00     0.135 A 
ATOM     89  C   UNL A   1      50.358  26.924  25.422  1.00  0.00     0.135 A 
ATOM     90  F   UNL A   1      50.597  25.949  28.921  1.00  0.00    -0.206 F 
ATOM     91  C   UNL A   1      52.128  25.665  27.165  1.00  0.00     0.059 A 
ATOM     92  C   UNL A   1      51.571  26.448  24.935  1.00  0.00     0.059 A 
ATOM     93  F   UNL A   1      49.522  27.522  24.559  1.00  0.00    -0.206 F 
ATOM     94  C   UNL A   1      52.452  25.824  25.815  1.00  0.00     0.060 A 
BRANCH  94  95
ATOM     95  S   UNL A   1      54.026  25.171  25.221  1.00  0.00     0.124 S 
ATOM     96  O   UNL A   1      53.622  23.879  24.676  1.00  0.00    -0.237 OA
ATOM     97  O   UNL A   1      54.430  26.175  24.242  1.00  0.00    -0.237 OA
ATOM     98  O   UNL A   1      54.847  25.113  26.428  1.00  0.00    -0.744 OA
ENDBRANCH  94  95
ENDBRANCH  62  87
ENDBRANCH  36  37
ENDBRANCH  29  31
ENDBRANCH  28  29
ENDBRANCH  27  28
ENDBRANCH  26  27
ENDBRANCH  25  26
ENDBRANCH  24  25
ENDBRANCH  23  24
ENDBRANCH   1  23
TORSDOF 26
ENDMDL
MODEL 2
REMARK VINA RESULT:      -8.4      2.567      4.387
REMARK SMILES C[C@@H](NC(=O)C[C@H]1CCCCO1)C(=O)OCCOCCOCCOCCOC(=O)c1ccc(-c2c3nc(c(-c4c(F)cc(S(=O)(=O)[O-])cc4F)c4ccc([nH]4)c(-c4c(F)cc(S(=O)(=O)[O-])cc4F)c4nc(c(-c5c(F)cc(S(=O)(=O)[O-])cc5F)c5ccc2[nH]5)C=C4)C=C3)cc1
REMARK SMILES IDX 21 1 20 2 19 3 18 4 17 5 16 6 15 7 13 8 14 9 2 10 1 11 3 12
REMARK SMILES IDX 4 13 5 15 6 16 7 17 8 18 12 19 9 20 11 21 10 22 22 23 23 24
REMARK SMILES IDX 24 25 25 26 26 27 27 28 28 29 29 30 30 31 31 32 95 33 32 34
REMARK SMILES IDX 94 35 33 36 34 37 35 38 88 39 36 40 93 41 87 42 89 43 37 44
REMARK SMILES IDX 92 45 86 46 85 47 38 49 72 50 51 51 71 52 52 53 55 54 70 55
REMARK SMILES IDX 90 56 53 57 54 58 69 60 91 61 56 62 39 63 40 64 49 65 41 66
REMARK SMILES IDX 42 67 48 68 50 69 43 70 44 71 45 72 46 73 47 74 73 75 74 76
REMARK SMILES IDX 83 77 75 78 76 79 82 80 84 81 77 82 78 83 79 84 80 85 81 86
REMARK SMILES IDX 57 87 58 88 67 89 59 90 60 91 66 92 68 93 61 94 62 95 63 96
REMARK SMILES IDX 64 97 65 98
REMARK H PARENT 3 14 89 48 55 59
REMARK Flexibility Score: inf
ROOT
ATOM      1  O   UNL A   1      33.545  29.951  27.617  1.00  0.00    -0.377 OA
ENDROOT
BRANCH   1   2
ATOM      2  C   UNL A   1      34.273  29.066  26.778  1.00  0.00     0.188 C 
BRANCH   2   3
ATOM      3  C   UNL A   1      33.646  27.725  26.387  1.00  0.00     0.188 C 
BRANCH   3   4
ATOM      4  O   UNL A   1      32.324  27.876  25.932  1.00  0.00    -0.376 OA
BRANCH   4   5
ATOM      5  C   UNL A   1      31.510  26.726  25.841  1.00  0.00     0.202 C 
BRANCH   5   6
ATOM      6  C   UNL A   1      31.813  25.581  24.862  1.00  0.00     0.261 C 
BRANCH   6   7
ATOM      7  O   UNL A   1      32.926  25.716  23.963  1.00  0.00    -0.462 OA
BRANCH   7   8
ATOM      8  C   UNL A   1      33.668  24.600  23.750  1.00  0.00     0.328 C 
ATOM      9  O   UNL A   1      34.812  24.628  23.306  1.00  0.00    -0.250 OA
BRANCH   8  10
ATOM     10  C   UNL A   1      32.907  23.278  23.973  1.00  0.00     0.189 C 
ATOM     11  C   UNL A   1      32.341  22.462  22.818  1.00  0.00     0.043 C 
BRANCH  10  12
ATOM     12  N   UNL A   1      33.524  22.436  24.999  1.00  0.00    -0.343 N 
ATOM     13  C   UNL A   1      33.195  21.217  25.502  1.00  0.00     0.223 C 
ATOM     14  H   UNL A   1      34.333  22.828  25.402  1.00  0.00     0.164 HD
ATOM     15  O   UNL A   1      33.805  20.865  26.517  1.00  0.00    -0.275 OA
BRANCH  13  16
ATOM     16  C   UNL A   1      32.276  20.246  24.789  1.00  0.00     0.132 C 
BRANCH  16  17
ATOM     17  C   UNL A   1      32.686  18.778  24.686  1.00  0.00     0.127 C 
ATOM     18  C   UNL A   1      34.160  18.591  24.321  1.00  0.00     0.033 C 
ATOM     19  O   UNL A   1      32.416  18.037  25.871  1.00  0.00    -0.378 OA
ATOM     20  C   UNL A   1      34.440  17.107  24.079  1.00  0.00     0.005 C 
ATOM     21  C   UNL A   1      32.510  16.630  25.626  1.00  0.00     0.160 C 
ATOM     22  C   UNL A   1      33.923  16.241  25.225  1.00  0.00     0.029 C 
ENDBRANCH  16  17
ENDBRANCH  13  16
ENDBRANCH  10  12
ENDBRANCH   8  10
ENDBRANCH   7   8
ENDBRANCH   6   7
ENDBRANCH   5   6
ENDBRANCH   4   5
ENDBRANCH   3   4
ENDBRANCH   2   3
ENDBRANCH   1   2
BRANCH   1  23
ATOM     23  C   UNL A   1      33.221  31.275  27.197  1.00  0.00     0.188 C 
BRANCH  23  24
ATOM     24  C   UNL A   1      33.864  32.507  27.858  1.00  0.00     0.188 C 
BRANCH  24  25
ATOM     25  O   UNL A   1      35.208  32.426  28.316  1.00  0.00    -0.376 OA
BRANCH  25  26
ATOM     26  C   UNL A   1      35.480  32.718  29.679  1.00  0.00     0.202 C 
BRANCH  26  27
ATOM     27  C   UNL A   1      35.432  31.550  30.652  1.00  0.00     0.261 C 
BRANCH  27  28
ATOM     28  O   UNL A   1      36.646  31.427  31.403  1.00  0.00    -0.460 OA
BRANCH  28  29
ATOM     29  C   UNL A   1      37.197  30.191  31.381  1.00  0.00     0.338 C 
ATOM     30  O   UNL A   1      36.659  29.133  31.648  1.00  0.00    -0.246 OA
BRANCH  29  31
ATOM     31  C   UNL A   1      38.566  30.285  30.852  1.00  0.00     0.060 A 
ATOM     32  C   UNL A   1      38.738  30.406  29.467  1.00  0.00     0.016 A 
ATOM     33  C   UNL A   1      39.662  30.135  31.703  1.00  0.00     0.016 A 
ATOM     34  C   UNL A   1      40.012  30.304  28.918  1.00  0.00     0.010 A 
ATOM     35  C   UNL A   1      40.936  30.026  31.152  1.00  0.00     0.010 A 
ATOM     36  C   UNL A   1      41.106  30.057  29.756  1.00  0.00    -0.014 A 
BRANCH  36  37
ATOM     37  C   UNL A   1      42.402  29.638  29.181  1.00  0.00     0.031 A 
ATOM     38  C   UNL A   1      42.537  28.231  28.676  1.00  0.00     0.074 A 
ATOM     39  C   UNL A   1      43.441  30.487  29.140  1.00  0.00     0.049 A 
ATOM     40  N   UNL A   1      43.600  27.598  28.259  1.00  0.00    -0.248 NA
ATOM     41  C   UNL A   1      41.305  27.424  28.648  1.00  0.00     0.031 C 
ATOM     42  C   UNL A   1      43.399  31.883  29.565  1.00  0.00     0.029 A 
ATOM     43  N   UNL A   1      44.739  30.290  28.750  1.00  0.00    -0.354 N 
ATOM     44  C   UNL A   1      43.173  26.316  27.939  1.00  0.00     0.074 A 
ATOM     45  C   UNL A   1      41.759  26.251  28.234  1.00  0.00     0.031 C 
ATOM     46  C   UNL A   1      44.629  32.411  29.453  1.00  0.00     0.029 A 
ATOM     47  C   UNL A   1      45.548  31.376  28.984  1.00  0.00     0.049 A 
ATOM     48  H   UNL A   1      45.062  29.454  28.343  1.00  0.00     0.167 HD
ATOM     49  C   UNL A   1      43.901  25.288  27.444  1.00  0.00     0.037 A 
ATOM     50  C   UNL A   1      46.885  31.503  28.873  1.00  0.00     0.037 A 
ATOM     51  C   UNL A   1      45.309  25.375  27.160  1.00  0.00     0.049 A 
ATOM     52  C   UNL A   1      47.689  30.329  28.377  1.00  0.00     0.074 A 
ATOM     53  C   UNL A   1      46.141  24.408  26.625  1.00  0.00     0.029 A 
ATOM     54  N   UNL A   1      46.098  26.491  27.404  1.00  0.00    -0.354 N 
ATOM     55  N   UNL A   1      47.273  29.129  28.044  1.00  0.00    -0.248 NA
ATOM     56  C   UNL A   1      49.137  30.524  28.235  1.00  0.00     0.031 C 
ATOM     57  C   UNL A   1      47.443  24.917  26.605  1.00  0.00     0.029 A 
ATOM     58  C   UNL A   1      47.413  26.226  27.062  1.00  0.00     0.049 A 
ATOM     59  H   UNL A   1      45.770  27.346  27.767  1.00  0.00     0.167 HD
ATOM     60  C   UNL A   1      48.404  28.435  27.626  1.00  0.00     0.074 A 
ATOM     61  C   UNL A   1      49.520  29.352  27.743  1.00  0.00     0.031 C 
ATOM     62  C   UNL A   1      48.509  27.158  27.179  1.00  0.00     0.037 A 
BRANCH  49  63
ATOM     63  C   UNL A   1      43.197  23.976  27.223  1.00  0.00     0.058 A 
ATOM     64  C   UNL A   1      42.952  23.074  28.270  1.00  0.00     0.135 A 
ATOM     65  C   UNL A   1      42.748  23.624  25.939  1.00  0.00     0.135 A 
ATOM     66  F   UNL A   1      43.374  23.350  29.515  1.00  0.00    -0.206 F 
ATOM     67  C   UNL A   1      42.320  21.854  28.048  1.00  0.00     0.059 A 
ATOM     68  C   UNL A   1      42.085  22.425  25.699  1.00  0.00     0.059 A 
ATOM     69  F   UNL A   1      42.958  24.446  24.900  1.00  0.00    -0.206 F 
ATOM     70  C   UNL A   1      41.892  21.538  26.756  1.00  0.00     0.060 A 
BRANCH  70  71
ATOM     71  S   UNL A   1      41.082  19.948  26.482  1.00  0.00     0.124 S 
ATOM     72  O   UNL A   1      41.200  19.331  27.800  1.00  0.00    -0.237 OA
ATOM     73  O   UNL A   1      39.736  20.348  26.087  1.00  0.00    -0.237 OA
ATOM     74  O   UNL A   1      41.885  19.334  25.430  1.00  0.00    -0.744 OA
ENDBRANCH  70  71
ENDBRANCH  49  63
BRANCH  50  75
ATOM     75  C   UNL A   1      47.537  32.782  29.257  1.00  0.00     0.058 A 
ATOM     76  C   UNL A   1      47.728  33.809  28.323  1.00  0.00     0.135 A 
ATOM     77  C   UNL A   1      47.951  33.014  30.578  1.00  0.00     0.135 A 
ATOM     78  F   UNL A   1      47.355  33.632  27.046  1.00  0.00    -0.206 F 
ATOM     79  C   UNL A   1      48.312  35.019  28.682  1.00  0.00     0.059 A 
ATOM     80  C   UNL A   1      48.512  34.226  30.968  1.00  0.00     0.059 A 
ATOM     81  F   UNL A   1      47.777  32.067  31.514  1.00  0.00    -0.206 F 
ATOM     82  C   UNL A   1      48.693  35.221  30.009  1.00  0.00     0.060 A 
BRANCH  82  83
ATOM     83  S   UNL A   1      49.387  36.823  30.473  1.00  0.00     0.124 S 
ATOM     84  O   UNL A   1      49.923  37.291  29.200  1.00  0.00    -0.237 OA
ATOM     85  O   UNL A   1      48.210  37.529  30.970  1.00  0.00    -0.237 OA
ATOM     86  O   UNL A   1      50.378  36.478  31.487  1.00  0.00    -0.744 OA
ENDBRANCH  82  83
ENDBRANCH  50  75
BRANCH  62  87
ATOM     87  C   UNL A   1      49.867  26.680  26.742  1.00  0.00     0.058 A 
ATOM     88  C   UNL A   1      50.792  26.143  27.648  1.00  0.00     0.135 A 
ATOM     89  C   UNL A   1      50.209  26.681  25.379  1.00  0.00     0.135 A 
ATOM     90  F   UNL A   1      50.519  26.125  28.962  1.00  0.00    -0.206 F 
ATOM     91  C   UNL A   1      52.014  25.632  27.222  1.00  0.00     0.059 A 
ATOM     92  C   UNL A   1      51.411  26.148  24.926  1.00  0.00     0.059 A 
ATOM     93  F   UNL A   1      49.355  27.175  24.468  1.00  0.00    -0.206 F 
ATOM     94  C   UNL A   1      52.310  25.630  25.856  1.00  0.00     0.060 A 
BRANCH  94  95
ATOM     95  S   UNL A   1      53.872  24.908  25.311  1.00  0.00     0.124 S 
ATOM     96  O   UNL A   1      53.480  23.528  25.042  1.00  0.00    -0.237 OA
ATOM     97  O   UNL A   1      54.197  25.715  24.141  1.00  0.00    -0.237 OA
ATOM     98  O   UNL A   1      54.753  25.096  26.461  1.00  0.00    -0.744 OA
ENDBRANCH  94  95
ENDBRANCH  62  87
ENDBRANCH  36  37
ENDBRANCH  29  31
ENDBRANCH  28  29
ENDBRANCH  27  28
ENDBRANCH  26  27
ENDBRANCH  25  26
ENDBRANCH  24  25
ENDBRANCH  23  24
ENDBRANCH   1  23
TORSDOF 26
ENDMDL
MODEL 3
REMARK VINA RESULT:      -8.0      7.761     11.788
REMARK SMILES C[C@@H](NC(=O)C[C@H]1CCCCO1)C(=O)OCCOCCOCCOCCOC(=O)c1ccc(-c2c3nc(c(-c4c(F)cc(S(=O)(=O)[O-])cc4F)c4ccc([nH]4)c(-c4c(F)cc(S(=O)(=O)[O-])cc4F)c4nc(c(-c5c(F)cc(S(=O)(=O)[O-])cc5F)c5ccc2[nH]5)C=C4)C=C3)cc1
REMARK SMILES IDX 21 1 20 2 19 3 18 4 17 5 16 6 15 7 13 8 14 9 2 10 1 11 3 12
REMARK SMILES IDX 4 13 5 15 6 16 7 17 8 18 12 19 9 20 11 21 10 22 22 23 23 24
REMARK SMILES IDX 24 25 25 26 26 27 27 28 28 29 29 30 30 31 31 32 95 33 32 34
REMARK SMILES IDX 94 35 33 36 34 37 35 38 88 39 36 40 93 41 87 42 89 43 37 44
REMARK SMILES IDX 92 45 86 46 85 47 38 49 72 50 51 51 71 52 52 53 55 54 70 55
REMARK SMILES IDX 90 56 53 57 54 58 69 60 91 61 56 62 39 63 40 64 49 65 41 66
REMARK SMILES IDX 42 67 48 68 50 69 43 70 44 71 45 72 46 73 47 74 73 75 74 76
REMARK SMILES IDX 83 77 75 78 76 79 82 80 84 81 77 82 78 83 79 84 80 85 81 86
REMARK SMILES IDX 57 87 58 88 67 89 59 90 60 91 66 92 68 93 61 94 62 95 63 96
REMARK SMILES IDX 64 97 65 98
REMARK H PARENT 3 14 89 48 55 59
REMARK Flexibility Score: inf
ROOT
ATOM      1  O   UNL A   1      36.628  34.139  33.043  1.00  0.00    -0.377 OA
ENDROOT
BRANCH   1   2
ATOM      2  C   UNL A   1      35.823  34.310  31.885  1.00  0.00     0.188 C 
BRANCH   2   3
ATOM      3  C   UNL A   1      34.440  33.657  31.835  1.00  0.00     0.188 C 
BRANCH   3   4
ATOM      4  O   UNL A   1      33.613  34.251  30.865  1.00  0.00    -0.376 OA
BRANCH   4   5
ATOM      5  C   UNL A   1      34.153  34.499  29.584  1.00  0.00     0.202 C 
BRANCH   5   6
ATOM      6  C   UNL A   1      33.544  33.902  28.305  1.00  0.00     0.261 C 
BRANCH   6   7
ATOM      7  O   UNL A   1      34.364  33.062  27.477  1.00  0.00    -0.462 OA
BRANCH   7   8
ATOM      8  C   UNL A   1      34.746  31.876  28.013  1.00  0.00     0.328 C 
ATOM      9  O   UNL A   1      35.525  31.784  28.958  1.00  0.00    -0.250 OA
BRANCH   8  10
ATOM     10  C   UNL A   1      34.237  30.637  27.249  1.00  0.00     0.189 C 
ATOM     11  C   UNL A   1      34.546  29.218  27.706  1.00  0.00     0.043 C 
BRANCH  10  12
ATOM     12  N   UNL A   1      32.857  30.785  26.786  1.00  0.00    -0.343 N 
ATOM     13  C   UNL A   1      32.184  30.255  25.730  1.00  0.00     0.223 C 
ATOM     14  H   UNL A   1      32.311  31.384  27.345  1.00  0.00     0.164 HD
ATOM     15  O   UNL A   1      31.075  30.743  25.492  1.00  0.00    -0.275 OA
BRANCH  13  16
ATOM     16  C   UNL A   1      32.651  29.021  24.984  1.00  0.00     0.132 C 
BRANCH  16  17
ATOM     17  C   UNL A   1      31.764  27.778  24.982  1.00  0.00     0.127 C 
ATOM     18  C   UNL A   1      30.641  27.843  23.943  1.00  0.00     0.033 C 
ATOM     19  O   UNL A   1      32.492  26.571  24.785  1.00  0.00    -0.378 OA
ATOM     20  C   UNL A   1      29.712  26.642  24.122  1.00  0.00     0.005 C 
ATOM     21  C   UNL A   1      31.688  25.431  25.108  1.00  0.00     0.160 C 
ATOM     22  C   UNL A   1      30.490  25.330  24.180  1.00  0.00     0.029 C 
ENDBRANCH  16  17
ENDBRANCH  13  16
ENDBRANCH  10  12
ENDBRANCH   8  10
ENDBRANCH   7   8
ENDBRANCH   6   7
ENDBRANCH   5   6
ENDBRANCH   4   5
ENDBRANCH   3   4
ENDBRANCH   2   3
ENDBRANCH   1   2
BRANCH   1  23
ATOM     23  C   UNL A   1      37.561  33.064  33.147  1.00  0.00     0.188 C 
BRANCH  23  24
ATOM     24  C   UNL A   1      37.241  31.801  33.964  1.00  0.00     0.188 C 
BRANCH  24  25
ATOM     25  O   UNL A   1      36.971  30.582  33.282  1.00  0.00    -0.376 OA
BRANCH  25  26
ATOM     26  C   UNL A   1      36.577  30.640  31.919  1.00  0.00     0.202 C 
BRANCH  26  27
ATOM     27  C   UNL A   1      36.850  29.406  31.073  1.00  0.00     0.261 C 
BRANCH  27  28
ATOM     28  O   UNL A   1      38.226  29.317  30.683  1.00  0.00    -0.460 OA
BRANCH  28  29
ATOM     29  C   UNL A   1      38.510  29.894  29.492  1.00  0.00     0.338 C 
ATOM     30  O   UNL A   1      38.038  29.624  28.404  1.00  0.00    -0.246 OA
BRANCH  29  31
ATOM     31  C   UNL A   1      39.420  31.028  29.714  1.00  0.00     0.060 A 
ATOM     32  C   UNL A   1      40.759  30.757  30.022  1.00  0.00     0.016 A 
ATOM     33  C   UNL A   1      38.927  32.333  29.734  1.00  0.00     0.016 A 
ATOM     34  C   UNL A   1      41.598  31.790  30.426  1.00  0.00     0.010 A 
ATOM     35  C   UNL A   1      39.765  33.367  30.145  1.00  0.00     0.010 A 
ATOM     36  C   UNL A   1      41.086  33.089  30.542  1.00  0.00    -0.014 A 
BRANCH  36  37
ATOM     37  C   UNL A   1      41.855  34.129  31.256  1.00  0.00     0.031 A 
ATOM     38  C   UNL A   1      41.764  34.182  32.754  1.00  0.00     0.074 A 
ATOM     39  C   UNL A   1      42.593  35.023  30.579  1.00  0.00     0.049 A 
ATOM     40  N   UNL A   1      42.233  35.076  33.582  1.00  0.00    -0.248 NA
ATOM     41  C   UNL A   1      41.035  33.080  33.405  1.00  0.00     0.031 C 
ATOM     42  C   UNL A   1      42.779  35.030  29.132  1.00  0.00     0.029 A 
ATOM     43  N   UNL A   1      43.295  36.115  31.016  1.00  0.00    -0.354 N 
ATOM     44  C   UNL A   1      41.840  34.660  34.847  1.00  0.00     0.074 A 
ATOM     45  C   UNL A   1      41.072  33.446  34.677  1.00  0.00     0.031 C 
ATOM     46  C   UNL A   1      43.514  36.102  28.791  1.00  0.00     0.029 A 
ATOM     47  C   UNL A   1      43.814  36.873  29.995  1.00  0.00     0.049 A 
ATOM     48  H   UNL A   1      43.416  36.335  31.969  1.00  0.00     0.167 HD
ATOM     49  C   UNL A   1      42.099  35.242  36.041  1.00  0.00     0.037 A 
ATOM     50  C   UNL A   1      44.426  38.074  30.029  1.00  0.00     0.037 A 
ATOM     51  C   UNL A   1      42.865  36.452  36.186  1.00  0.00     0.049 A 
ATOM     52  C   UNL A   1      44.653  38.737  31.362  1.00  0.00     0.074 A 
ATOM     53  C   UNL A   1      43.218  37.113  37.348  1.00  0.00     0.029 A 
ATOM     54  N   UNL A   1      43.381  37.193  35.130  1.00  0.00    -0.354 N 
ATOM     55  N   UNL A   1      44.308  38.321  32.558  1.00  0.00    -0.248 NA
ATOM     56  C   UNL A   1      45.355  40.027  31.354  1.00  0.00     0.031 C 
ATOM     57  C   UNL A   1      43.893  38.286  36.993  1.00  0.00     0.029 A 
ATOM     58  C   UNL A   1      44.021  38.322  35.612  1.00  0.00     0.049 A 
ATOM     59  H   UNL A   1      43.303  36.950  34.179  1.00  0.00     0.167 HD
ATOM     60  C   UNL A   1      44.777  39.282  33.447  1.00  0.00     0.074 A 
ATOM     61  C   UNL A   1      45.435  40.298  32.651  1.00  0.00     0.031 C 
ATOM     62  C   UNL A   1      44.678  39.318  34.800  1.00  0.00     0.037 A 
BRANCH  49  63
ATOM     63  C   UNL A   1      41.514  34.603  37.271  1.00  0.00     0.058 A 
ATOM     64  C   UNL A   1      42.177  33.580  37.969  1.00  0.00     0.135 A 
ATOM     65  C   UNL A   1      40.272  35.032  37.767  1.00  0.00     0.135 A 
ATOM     66  F   UNL A   1      43.360  33.118  37.530  1.00  0.00    -0.206 F 
ATOM     67  C   UNL A   1      41.614  32.981  39.092  1.00  0.00     0.059 A 
ATOM     68  C   UNL A   1      39.706  34.471  38.907  1.00  0.00     0.059 A 
ATOM     69  F   UNL A   1      39.592  36.004  37.139  1.00  0.00    -0.206 F 
ATOM     70  C   UNL A   1      40.376  33.433  39.552  1.00  0.00     0.060 A 
BRANCH  70  71
ATOM     71  S   UNL A   1      39.654  32.639  41.004  1.00  0.00     0.124 S 
ATOM     72  O   UNL A   1      39.222  33.796  41.783  1.00  0.00    -0.237 OA
ATOM     73  O   UNL A   1      38.586  31.834  40.419  1.00  0.00    -0.237 OA
ATOM     74  O   UNL A   1      40.767  31.885  41.569  1.00  0.00    -0.744 OA
ENDBRANCH  70  71
ENDBRANCH  49  63
BRANCH  50  75
ATOM     75  C   UNL A   1      44.841  38.723  28.758  1.00  0.00     0.058 A 
ATOM     76  C   UNL A   1      43.964  39.555  28.048  1.00  0.00     0.135 A 
ATOM     77  C   UNL A   1      46.136  38.548  28.246  1.00  0.00     0.135 A 
ATOM     78  F   UNL A   1      42.713  39.748  28.493  1.00  0.00    -0.206 F 
ATOM     79  C   UNL A   1      44.355  40.188  26.873  1.00  0.00     0.059 A 
ATOM     80  C   UNL A   1      46.560  39.192  27.088  1.00  0.00     0.059 A 
ATOM     81  F   UNL A   1      47.018  37.772  28.896  1.00  0.00    -0.206 F 
ATOM     82  C   UNL A   1      45.658  40.007  26.405  1.00  0.00     0.060 A 
BRANCH  82  83
ATOM     83  S   UNL A   1      46.169  40.889  24.914  1.00  0.00     0.124 S 
ATOM     84  O   UNL A   1      47.151  41.825  25.449  1.00  0.00    -0.237 OA
ATOM     85  O   UNL A   1      46.700  39.807  24.091  1.00  0.00    -0.237 OA
ATOM     86  O   UNL A   1      44.926  41.483  24.433  1.00  0.00    -0.744 OA
ENDBRANCH  82  83
ENDBRANCH  50  75
BRANCH  62  87
ATOM     87  C   UNL A   1      45.329  40.469  35.519  1.00  0.00     0.058 A 
ATOM     88  C   UNL A   1      44.643  41.664  35.781  1.00  0.00     0.135 A 
ATOM     89  C   UNL A   1      46.632  40.336  36.028  1.00  0.00     0.135 A 
ATOM     90  F   UNL A   1      43.399  41.846  35.310  1.00  0.00    -0.206 F 
ATOM     91  C   UNL A   1      45.228  42.692  36.513  1.00  0.00     0.059 A 
ATOM     92  C   UNL A   1      47.225  41.337  36.789  1.00  0.00     0.059 A 
ATOM     93  F   UNL A   1      47.329  39.209  35.814  1.00  0.00    -0.206 F 
ATOM     94  C   UNL A   1      46.517  42.515  37.022  1.00  0.00     0.060 A 
BRANCH  94  95
ATOM     95  S   UNL A   1      47.239  43.831  38.024  1.00  0.00     0.124 S 
ATOM     96  O   UNL A   1      48.166  44.445  37.078  1.00  0.00    -0.237 OA
ATOM     97  O   UNL A   1      46.071  44.630  38.376  1.00  0.00    -0.237 OA
ATOM     98  O   UNL A   1      47.860  43.112  39.133  1.00  0.00    -0.744 OA
ENDBRANCH  94  95
ENDBRANCH  62  87
ENDBRANCH  36  37
ENDBRANCH  29  31
ENDBRANCH  28  29
ENDBRANCH  27  28
ENDBRANCH  26  27
ENDBRANCH  25  26
ENDBRANCH  24  25
ENDBRANCH  23  24
ENDBRANCH   1  23
TORSDOF 26
ENDMDL
