MODEL 1
REMARK VINA RESULT:      -9.8      0.000      0.000
REMARK SMILES COc1cc(Cl)c(C)cc1N1C(=O)C[C@H](Nc2cc(C(=O)OCCOCCOCCOCCOC(=O)c3ccc(-c4c5nc(c(-c6c(F)cc(S(=O)(=O)[O-])cc6F)c6ccc([nH]6)c(-c6c(F)cc(S(=O)(=O)[O-])cc6F)c6nc(c(-c7c(F)cc(S(=O)(=O)[O-])cc7F)c7ccc4[nH]7)C=C6)C=C5)cc3)ccc2C)C1=O
REMARK SMILES IDX 27 1 26 2 25 3 24 4 23 5 22 6 20 7 21 8 19 9 17 10 18 11
REMARK SMILES IDX 105 12 104 13 106 14 103 15 16 16 15 18 11 19 12 20 107 21
REMARK SMILES IDX 13 22 14 23 108 24 10 25 3 26 4 27 5 28 9 29 6 30 7 31 8 32
REMARK SMILES IDX 2 33 1 34 28 35 29 36 30 37 31 38 32 39 33 40 34 41 35 42
REMARK SMILES IDX 36 43 37 44 38 45 102 46 39 47 101 48 40 49 41 50 42 51
REMARK SMILES IDX 95 52 43 53 100 54 94 55 96 56 44 57 99 58 93 59 92 60 45 62
REMARK SMILES IDX 79 63 58 64 78 65 59 66 62 67 77 68 97 69 60 70 61 71 76 73
REMARK SMILES IDX 98 74 63 75 46 76 47 77 56 78 48 79 49 80 55 81 57 82 50 83
REMARK SMILES IDX 51 84 52 85 53 86 54 87 80 88 81 89 90 90 82 91 83 92 89 93
REMARK SMILES IDX 91 94 84 95 85 96 86 97 87 98 88 99 64 100 65 101 74 102
REMARK SMILES IDX 66 103 67 104 73 105 75 106 68 107 69 108 70 109 71 110
REMARK SMILES IDX 72 111
REMARK H PARENT 16 17 96 61 62 72
REMARK Flexibility Score: inf
ROOT
ATOM      1  C   UNL A   1      40.786  26.354  26.747  1.00  0.00     0.188 C 
ENDROOT
BRANCH   1   2
ATOM      2  C   UNL A   1      41.641  27.597  27.061  1.00  0.00     0.188 C 
BRANCH   2   3
ATOM      3  O   UNL A   1      41.052  28.890  27.073  1.00  0.00    -0.376 OA
BRANCH   3   4
ATOM      4  C   UNL A   1      39.683  28.988  27.425  1.00  0.00     0.202 C 
BRANCH   4   5
ATOM      5  C   UNL A   1      39.154  28.412  28.736  1.00  0.00     0.261 C 
BRANCH   5   6
ATOM      6  O   UNL A   1      38.087  29.078  29.393  1.00  0.00    -0.460 OA
BRANCH   6   7
ATOM      7  C   UNL A   1      38.370  30.238  30.008  1.00  0.00     0.338 C 
ATOM      8  O   UNL A   1      39.411  30.600  30.514  1.00  0.00    -0.246 OA
BRANCH   7   9
ATOM      9  C   UNL A   1      37.243  31.130  29.689  1.00  0.00     0.062 A 
ATOM     10  C   UNL A   1      35.366  31.783  28.282  1.00  0.00     0.038 A 
ATOM     11  C   UNL A   1      36.309  30.828  28.689  1.00  0.00     0.041 A 
ATOM     12  C   UNL A   1      35.436  33.073  28.851  1.00  0.00    -0.028 A 
ATOM     13  C   UNL A   1      36.380  33.357  29.858  1.00  0.00     0.006 A 
ATOM     14  C   UNL A   1      34.530  34.199  28.441  1.00  0.00     0.046 C 
ATOM     15  C   UNL A   1      37.268  32.385  30.291  1.00  0.00     0.016 A 
BRANCH  10  16
ATOM     16  N   UNL A   1      34.527  31.527  27.192  1.00  0.00    -0.373 N 
ATOM     17  H   UNL A   1      34.768  31.837  26.289  1.00  0.00     0.161 HD
BRANCH  16  18
ATOM     18  C   UNL A   1      33.276  30.786  27.421  1.00  0.00     0.179 C 
ATOM     19  N   UNL A   1      32.206  29.279  25.974  1.00  0.00    -0.245 N 
ATOM     20  C   UNL A   1      31.541  30.462  25.804  1.00  0.00     0.236 C 
ATOM     21  C   UNL A   1      33.314  29.409  26.772  1.00  0.00     0.256 C 
ATOM     22  O   UNL A   1      30.592  30.688  25.061  1.00  0.00    -0.274 OA
ATOM     23  C   UNL A   1      32.119  31.490  26.727  1.00  0.00     0.136 C 
ATOM     24  O   UNL A   1      34.255  28.633  26.872  1.00  0.00    -0.272 OA
BRANCH  19  25
ATOM     25  C   UNL A   1      31.857  28.082  25.315  1.00  0.00     0.094 A 
ATOM     26  C   UNL A   1      32.178  27.877  23.964  1.00  0.00     0.144 A 
ATOM     27  C   UNL A   1      31.804  26.697  23.317  1.00  0.00     0.069 A 
ATOM     28  C   UNL A   1      31.119  25.703  24.017  1.00  0.00     0.047 A 
ATOM     29  C   UNL A   1      31.186  27.067  26.013  1.00  0.00     0.035 A 
ATOM     30  Cl  UNL A   1      30.714  24.249  23.175  1.00  0.00    -0.084 Cl
ATOM     31  C   UNL A   1      30.784  25.882  25.369  1.00  0.00    -0.030 A 
ATOM     32  C   UNL A   1      29.995  24.858  26.133  1.00  0.00     0.046 C 
BRANCH  26  33
ATOM     33  O   UNL A   1      32.865  28.790  23.209  1.00  0.00    -0.495 OA
ATOM     34  C   UNL A   1      34.262  28.518  23.140  1.00  0.00     0.278 C 
ENDBRANCH  26  33
ENDBRANCH  19  25
ENDBRANCH  16  18
ENDBRANCH  10  16
ENDBRANCH   7   9
ENDBRANCH   6   7
ENDBRANCH   5   6
ENDBRANCH   4   5
ENDBRANCH   3   4
ENDBRANCH   2   3
ENDBRANCH   1   2
BRANCH   1  35
ATOM     35  O   UNL A   1      41.126  25.705  25.530  1.00  0.00    -0.377 OA
BRANCH  35  36
ATOM     36  C   UNL A   1      42.526  25.543  25.313  1.00  0.00     0.188 C 
BRANCH  36  37
ATOM     37  C   UNL A   1      43.010  24.081  25.252  1.00  0.00     0.188 C 
BRANCH  37  38
ATOM     38  O   UNL A   1      44.127  23.897  24.387  1.00  0.00    -0.376 OA
BRANCH  38  39
ATOM     39  C   UNL A   1      45.190  23.082  24.869  1.00  0.00     0.202 C 
BRANCH  39  40
ATOM     40  C   UNL A   1      45.733  23.524  26.229  1.00  0.00     0.261 C 
BRANCH  40  41
ATOM     41  O   UNL A   1      46.428  24.773  26.091  1.00  0.00    -0.460 OA
BRANCH  41  42
ATOM     42  C   UNL A   1      45.829  25.806  26.747  1.00  0.00     0.338 C 
ATOM     43  O   UNL A   1      45.683  26.920  26.276  1.00  0.00    -0.246 OA
BRANCH  42  44
ATOM     44  C   UNL A   1      45.513  25.390  28.143  1.00  0.00     0.060 A 
ATOM     45  C   UNL A   1      44.188  25.152  28.530  1.00  0.00     0.016 A 
ATOM     46  C   UNL A   1      46.505  25.459  29.117  1.00  0.00     0.016 A 
ATOM     47  C   UNL A   1      43.838  25.108  29.896  1.00  0.00     0.010 A 
ATOM     48  C   UNL A   1      46.145  25.468  30.454  1.00  0.00     0.010 A 
ATOM     49  C   UNL A   1      44.810  25.322  30.878  1.00  0.00    -0.014 A 
BRANCH  49  50
ATOM     50  C   UNL A   1      44.559  25.587  32.319  1.00  0.00     0.031 A 
ATOM     51  C   UNL A   1      44.056  26.948  32.752  1.00  0.00     0.074 A 
ATOM     52  C   UNL A   1      44.441  24.559  33.207  1.00  0.00     0.049 A 
ATOM     53  N   UNL A   1      43.537  27.186  33.908  1.00  0.00    -0.248 NA
ATOM     54  C   UNL A   1      44.067  28.166  31.936  1.00  0.00     0.031 C 
ATOM     55  C   UNL A   1      43.544  24.567  34.374  1.00  0.00     0.029 A 
ATOM     56  N   UNL A   1      44.929  23.251  33.233  1.00  0.00    -0.354 N 
ATOM     57  C   UNL A   1      42.854  28.374  33.883  1.00  0.00     0.074 A 
ATOM     58  C   UNL A   1      43.302  28.996  32.662  1.00  0.00     0.031 C 
ATOM     59  C   UNL A   1      43.527  23.381  34.987  1.00  0.00     0.029 A 
ATOM     60  C   UNL A   1      44.685  22.687  34.507  1.00  0.00     0.049 A 
ATOM     61  H   UNL A   1      45.373  22.793  32.482  1.00  0.00     0.167 HD
ATOM     62  C   UNL A   1      41.934  28.608  34.867  1.00  0.00     0.037 A 
ATOM     63  C   UNL A   1      45.696  22.377  35.378  1.00  0.00     0.037 A 
ATOM     64  C   UNL A   1      42.067  27.630  35.963  1.00  0.00     0.049 A 
ATOM     65  C   UNL A   1      45.707  23.245  36.626  1.00  0.00     0.074 A 
ATOM     66  C   UNL A   1      41.234  26.693  36.549  1.00  0.00     0.029 A 
ATOM     67  N   UNL A   1      43.323  27.439  36.544  1.00  0.00    -0.354 N 
ATOM     68  N   UNL A   1      45.154  24.431  36.660  1.00  0.00    -0.248 NA
ATOM     69  C   UNL A   1      46.217  22.862  37.941  1.00  0.00     0.031 C 
ATOM     70  C   UNL A   1      42.013  25.905  37.444  1.00  0.00     0.029 A 
ATOM     71  C   UNL A   1      43.314  26.385  37.432  1.00  0.00     0.049 A 
ATOM     72  H   UNL A   1      44.115  27.988  36.345  1.00  0.00     0.167 HD
ATOM     73  C   UNL A   1      45.139  24.922  37.931  1.00  0.00     0.074 A 
ATOM     74  C   UNL A   1      45.876  23.930  38.693  1.00  0.00     0.031 C 
ATOM     75  C   UNL A   1      44.486  26.080  38.251  1.00  0.00     0.037 A 
BRANCH  62  76
ATOM     76  C   UNL A   1      40.830  29.664  34.850  1.00  0.00     0.058 A 
ATOM     77  C   UNL A   1      39.766  29.590  33.915  1.00  0.00     0.135 A 
ATOM     78  C   UNL A   1      40.791  30.814  35.668  1.00  0.00     0.135 A 
ATOM     79  F   UNL A   1      39.674  28.580  33.039  1.00  0.00    -0.206 F 
ATOM     80  C   UNL A   1      38.750  30.551  33.820  1.00  0.00     0.059 A 
ATOM     81  C   UNL A   1      39.758  31.761  35.626  1.00  0.00     0.059 A 
ATOM     82  F   UNL A   1      41.779  31.111  36.519  1.00  0.00    -0.206 F 
ATOM     83  C   UNL A   1      38.742  31.627  34.692  1.00  0.00     0.060 A 
BRANCH  83  84
ATOM     84  S   UNL A   1      37.401  32.832  34.604  1.00  0.00     0.124 S 
ATOM     85  O   UNL A   1      37.018  32.969  36.006  1.00  0.00    -0.237 OA
ATOM     86  O   UNL A   1      38.057  33.992  34.009  1.00  0.00    -0.237 OA
ATOM     87  O   UNL A   1      36.411  32.178  33.751  1.00  0.00    -0.744 OA
ENDBRANCH  83  84
ENDBRANCH  62  76
BRANCH  63  88
ATOM     88  C   UNL A   1      46.783  21.607  34.718  1.00  0.00     0.058 A 
ATOM     89  C   UNL A   1      47.990  22.328  34.608  1.00  0.00     0.135 A 
ATOM     90  C   UNL A   1      46.871  20.226  34.950  1.00  0.00     0.135 A 
ATOM     91  F   UNL A   1      47.950  23.643  34.338  1.00  0.00    -0.206 F 
ATOM     92  C   UNL A   1      49.199  21.780  35.017  1.00  0.00     0.059 A 
ATOM     93  C   UNL A   1      48.078  19.651  35.354  1.00  0.00     0.059 A 
ATOM     94  F   UNL A   1      45.756  19.485  35.027  1.00  0.00    -0.206 F 
ATOM     95  C   UNL A   1      49.209  20.464  35.478  1.00  0.00     0.060 A 
BRANCH  95  96
ATOM     96  S   UNL A   1      50.610  19.942  36.501  1.00  0.00     0.124 S 
ATOM     97  O   UNL A   1      49.962  19.613  37.764  1.00  0.00    -0.237 OA
ATOM     98  O   UNL A   1      51.132  18.811  35.734  1.00  0.00    -0.237 OA
ATOM     99  O   UNL A   1      51.470  21.121  36.517  1.00  0.00    -0.744 OA
ENDBRANCH  95  96
ENDBRANCH  63  88
BRANCH  75 100
ATOM    100  C   UNL A   1      44.822  27.013  39.397  1.00  0.00     0.058 A 
ATOM    101  C   UNL A   1      44.657  26.673  40.750  1.00  0.00     0.135 A 
ATOM    102  C   UNL A   1      45.548  28.213  39.163  1.00  0.00     0.135 A 
ATOM    103  F   UNL A   1      44.056  25.534  41.120  1.00  0.00    -0.206 F 
ATOM    104  C   UNL A   1      45.152  27.466  41.788  1.00  0.00     0.059 A 
ATOM    105  C   UNL A   1      46.094  28.989  40.181  1.00  0.00     0.059 A 
ATOM    106  F   UNL A   1      45.790  28.664  37.923  1.00  0.00    -0.206 F 
ATOM    107  C   UNL A   1      45.878  28.615  41.495  1.00  0.00     0.060 A 
BRANCH 107 108
ATOM    108  S   UNL A   1      46.589  29.577  42.840  1.00  0.00     0.124 S 
ATOM    109  O   UNL A   1      45.582  29.402  43.883  1.00  0.00    -0.237 OA
ATOM    110  O   UNL A   1      47.862  28.901  43.074  1.00  0.00    -0.237 OA
ATOM    111  O   UNL A   1      46.695  30.921  42.283  1.00  0.00    -0.744 OA
ENDBRANCH 107 108
ENDBRANCH  75 100
ENDBRANCH  49  50
ENDBRANCH  42  44
ENDBRANCH  41  42
ENDBRANCH  40  41
ENDBRANCH  39  40
ENDBRANCH  38  39
ENDBRANCH  37  38
ENDBRANCH  36  37
ENDBRANCH  35  36
ENDBRANCH   1  35
TORSDOF 27
ENDMDL
MODEL 2
REMARK VINA RESULT:      -9.5      1.407      2.403
REMARK SMILES COc1cc(Cl)c(C)cc1N1C(=O)C[C@H](Nc2cc(C(=O)OCCOCCOCCOCCOC(=O)c3ccc(-c4c5nc(c(-c6c(F)cc(S(=O)(=O)[O-])cc6F)c6ccc([nH]6)c(-c6c(F)cc(S(=O)(=O)[O-])cc6F)c6nc(c(-c7c(F)cc(S(=O)(=O)[O-])cc7F)c7ccc4[nH]7)C=C6)C=C5)cc3)ccc2C)C1=O
REMARK SMILES IDX 27 1 26 2 25 3 24 4 23 5 22 6 20 7 21 8 19 9 17 10 18 11
REMARK SMILES IDX 105 12 104 13 106 14 103 15 16 16 15 18 11 19 12 20 107 21
REMARK SMILES IDX 13 22 14 23 108 24 10 25 3 26 4 27 5 28 9 29 6 30 7 31 8 32
REMARK SMILES IDX 2 33 1 34 28 35 29 36 30 37 31 38 32 39 33 40 34 41 35 42
REMARK SMILES IDX 36 43 37 44 38 45 102 46 39 47 101 48 40 49 41 50 42 51
REMARK SMILES IDX 95 52 43 53 100 54 94 55 96 56 44 57 99 58 93 59 92 60 45 62
REMARK SMILES IDX 79 63 58 64 78 65 59 66 62 67 77 68 97 69 60 70 61 71 76 73
REMARK SMILES IDX 98 74 63 75 46 76 47 77 56 78 48 79 49 80 55 81 57 82 50 83
REMARK SMILES IDX 51 84 52 85 53 86 54 87 80 88 81 89 90 90 82 91 83 92 89 93
REMARK SMILES IDX 91 94 84 95 85 96 86 97 87 98 88 99 64 100 65 101 74 102
REMARK SMILES IDX 66 103 67 104 73 105 75 106 68 107 69 108 70 109 71 110
REMARK SMILES IDX 72 111
REMARK H PARENT 16 17 96 61 62 72
REMARK Flexibility Score: inf
ROOT
ATOM      1  C   UNL A   1      40.398  26.393  26.721  1.00  0.00     0.188 C 
ENDROOT
BRANCH   1   2
ATOM      2  C   UNL A   1      41.116  27.645  27.261  1.00  0.00     0.188 C 
BRANCH   2   3
ATOM      3  O   UNL A   1      40.449  28.899  27.289  1.00  0.00    -0.376 OA
BRANCH   3   4
ATOM      4  C   UNL A   1      39.059  28.900  27.566  1.00  0.00     0.202 C 
BRANCH   4   5
ATOM      5  C   UNL A   1      38.520  29.287  28.940  1.00  0.00     0.261 C 
BRANCH   5   6
ATOM      6  O   UNL A   1      37.180  29.747  29.044  1.00  0.00    -0.460 OA
BRANCH   6   7
ATOM      7  C   UNL A   1      36.958  31.053  28.823  1.00  0.00     0.338 C 
ATOM      8  O   UNL A   1      37.757  31.962  28.749  1.00  0.00    -0.246 OA
BRANCH   7   9
ATOM      9  C   UNL A   1      35.556  31.137  28.381  1.00  0.00     0.062 A 
ATOM     10  C   UNL A   1      33.748  30.508  26.877  1.00  0.00     0.038 A 
ATOM     11  C   UNL A   1      35.024  30.278  27.410  1.00  0.00     0.041 A 
ATOM     12  C   UNL A   1      33.053  31.666  27.289  1.00  0.00    -0.028 A 
ATOM     13  C   UNL A   1      33.602  32.515  28.269  1.00  0.00     0.006 A 
ATOM     14  C   UNL A   1      31.713  32.058  26.732  1.00  0.00     0.046 C 
ATOM     15  C   UNL A   1      34.840  32.243  28.829  1.00  0.00     0.016 A 
BRANCH  10  16
ATOM     16  N   UNL A   1      33.277  29.732  25.812  1.00  0.00    -0.373 N 
ATOM     17  H   UNL A   1      33.529  29.945  24.885  1.00  0.00     0.161 HD
BRANCH  16  18
ATOM     18  C   UNL A   1      32.396  28.590  26.105  1.00  0.00     0.179 C 
ATOM     19  N   UNL A   1      32.564  26.392  25.295  1.00  0.00    -0.245 N 
ATOM     20  C   UNL A   1      31.622  26.989  24.502  1.00  0.00     0.236 C 
ATOM     21  C   UNL A   1      33.172  27.280  26.147  1.00  0.00     0.256 C 
ATOM     22  O   UNL A   1      30.999  26.487  23.574  1.00  0.00    -0.274 OA
ATOM     23  C   UNL A   1      31.401  28.394  24.971  1.00  0.00     0.136 C 
ATOM     24  O   UNL A   1      34.225  27.130  26.751  1.00  0.00    -0.272 OA
BRANCH  19  25
ATOM     25  C   UNL A   1      32.946  25.041  25.176  1.00  0.00     0.094 A 
ATOM     26  C   UNL A   1      32.384  24.052  25.998  1.00  0.00     0.144 A 
ATOM     27  C   UNL A   1      32.790  22.721  25.887  1.00  0.00     0.069 A 
ATOM     28  C   UNL A   1      33.751  22.360  24.942  1.00  0.00     0.047 A 
ATOM     29  C   UNL A   1      33.896  24.663  24.216  1.00  0.00     0.035 A 
ATOM     30  Cl  UNL A   1      34.189  20.692  24.824  1.00  0.00    -0.084 Cl
ATOM     31  C   UNL A   1      34.331  23.328  24.107  1.00  0.00    -0.030 A 
ATOM     32  C   UNL A   1      35.411  22.982  23.122  1.00  0.00     0.046 C 
BRANCH  26  33
ATOM     33  O   UNL A   1      31.422  24.315  26.937  1.00  0.00    -0.495 OA
ATOM     34  C   UNL A   1      30.284  23.463  26.823  1.00  0.00     0.278 C 
ENDBRANCH  26  33
ENDBRANCH  19  25
ENDBRANCH  16  18
ENDBRANCH  10  16
ENDBRANCH   7   9
ENDBRANCH   6   7
ENDBRANCH   5   6
ENDBRANCH   4   5
ENDBRANCH   3   4
ENDBRANCH   2   3
ENDBRANCH   1   2
BRANCH   1  35
ATOM     35  O   UNL A   1      40.909  25.917  25.484  1.00  0.00    -0.377 OA
BRANCH  35  36
ATOM     36  C   UNL A   1      42.322  25.724  25.458  1.00  0.00     0.188 C 
BRANCH  36  37
ATOM     37  C   UNL A   1      42.777  24.252  25.413  1.00  0.00     0.188 C 
BRANCH  37  38
ATOM     38  O   UNL A   1      43.874  24.033  24.530  1.00  0.00    -0.376 OA
BRANCH  38  39
ATOM     39  C   UNL A   1      44.876  23.119  24.961  1.00  0.00     0.202 C 
BRANCH  39  40
ATOM     40  C   UNL A   1      45.547  23.520  26.276  1.00  0.00     0.261 C 
BRANCH  40  41
ATOM     41  O   UNL A   1      46.311  24.721  26.083  1.00  0.00    -0.460 OA
BRANCH  41  42
ATOM     42  C   UNL A   1      45.810  25.798  26.750  1.00  0.00     0.338 C 
ATOM     43  O   UNL A   1      45.773  26.927  26.292  1.00  0.00    -0.246 OA
BRANCH  42  44
ATOM     44  C   UNL A   1      45.449  25.398  28.139  1.00  0.00     0.060 A 
ATOM     45  C   UNL A   1      44.106  25.333  28.534  1.00  0.00     0.016 A 
ATOM     46  C   UNL A   1      46.447  25.310  29.106  1.00  0.00     0.016 A 
ATOM     47  C   UNL A   1      43.762  25.306  29.901  1.00  0.00     0.010 A 
ATOM     48  C   UNL A   1      46.099  25.338  30.446  1.00  0.00     0.010 A 
ATOM     49  C   UNL A   1      44.760  25.365  30.879  1.00  0.00    -0.014 A 
BRANCH  49  50
ATOM     50  C   UNL A   1      44.556  25.628  32.327  1.00  0.00     0.031 A 
ATOM     51  C   UNL A   1      44.062  26.987  32.777  1.00  0.00     0.074 A 
ATOM     52  C   UNL A   1      44.471  24.600  33.218  1.00  0.00     0.049 A 
ATOM     53  N   UNL A   1      43.580  27.224  33.949  1.00  0.00    -0.248 NA
ATOM     54  C   UNL A   1      44.042  28.205  31.961  1.00  0.00     0.031 C 
ATOM     55  C   UNL A   1      43.613  24.605  34.414  1.00  0.00     0.029 A 
ATOM     56  N   UNL A   1      44.964  23.294  33.228  1.00  0.00    -0.354 N 
ATOM     57  C   UNL A   1      42.893  28.409  33.947  1.00  0.00     0.074 A 
ATOM     58  C   UNL A   1      43.298  29.033  32.712  1.00  0.00     0.031 C 
ATOM     59  C   UNL A   1      43.621  23.419  35.028  1.00  0.00     0.029 A 
ATOM     60  C   UNL A   1      44.765  22.729  34.509  1.00  0.00     0.049 A 
ATOM     61  H   UNL A   1      45.385  22.838  32.463  1.00  0.00     0.167 HD
ATOM     62  C   UNL A   1      42.005  28.640  34.961  1.00  0.00     0.037 A 
ATOM     63  C   UNL A   1      45.805  22.422  35.347  1.00  0.00     0.037 A 
ATOM     64  C   UNL A   1      42.178  27.663  36.052  1.00  0.00     0.049 A 
ATOM     65  C   UNL A   1      45.854  23.291  36.594  1.00  0.00     0.074 A 
ATOM     66  C   UNL A   1      41.368  26.722  36.665  1.00  0.00     0.029 A 
ATOM     67  N   UNL A   1      43.454  27.476  36.591  1.00  0.00    -0.354 N 
ATOM     68  N   UNL A   1      45.298  24.475  36.646  1.00  0.00    -0.248 NA
ATOM     69  C   UNL A   1      46.409  22.910  37.891  1.00  0.00     0.031 C 
ATOM     70  C   UNL A   1      42.179  25.937  37.534  1.00  0.00     0.029 A 
ATOM     71  C   UNL A   1      43.478  26.422  37.479  1.00  0.00     0.049 A 
ATOM     72  H   UNL A   1      44.236  28.028  36.366  1.00  0.00     0.167 HD
ATOM     73  C   UNL A   1      45.323  24.966  37.917  1.00  0.00     0.074 A 
ATOM     74  C   UNL A   1      46.088  23.976  38.654  1.00  0.00     0.031 C 
ATOM     75  C   UNL A   1      44.677  26.121  38.259  1.00  0.00     0.037 A 
BRANCH  62  76
ATOM     76  C   UNL A   1      40.897  29.692  34.981  1.00  0.00     0.058 A 
ATOM     77  C   UNL A   1      40.892  30.725  35.951  1.00  0.00     0.135 A 
ATOM     78  C   UNL A   1      39.770  29.703  34.130  1.00  0.00     0.135 A 
ATOM     79  F   UNL A   1      41.871  30.836  36.860  1.00  0.00    -0.206 F 
ATOM     80  C   UNL A   1      39.881  31.691  36.050  1.00  0.00     0.059 A 
ATOM     81  C   UNL A   1      38.773  30.688  34.176  1.00  0.00     0.059 A 
ATOM     82  F   UNL A   1      39.547  28.731  33.239  1.00  0.00    -0.206 F 
ATOM     83  C   UNL A   1      38.831  31.677  35.145  1.00  0.00     0.060 A 
BRANCH  83  84
ATOM     84  S   UNL A   1      37.560  32.956  35.240  1.00  0.00     0.124 S 
ATOM     85  O   UNL A   1      36.674  32.590  34.140  1.00  0.00    -0.237 OA
ATOM     86  O   UNL A   1      37.020  32.765  36.582  1.00  0.00    -0.237 OA
ATOM     87  O   UNL A   1      38.310  34.195  35.047  1.00  0.00    -0.744 OA
ENDBRANCH  83  84
ENDBRANCH  62  76
BRANCH  63  88
ATOM     88  C   UNL A   1      46.872  21.657  34.651  1.00  0.00     0.058 A 
ATOM     89  C   UNL A   1      48.077  22.377  34.515  1.00  0.00     0.135 A 
ATOM     90  C   UNL A   1      46.964  20.273  34.869  1.00  0.00     0.135 A 
ATOM     91  F   UNL A   1      48.033  23.694  34.258  1.00  0.00    -0.206 F 
ATOM     92  C   UNL A   1      49.296  21.822  34.887  1.00  0.00     0.059 A 
ATOM     93  C   UNL A   1      48.180  19.692  35.235  1.00  0.00     0.059 A 
ATOM     94  F   UNL A   1      45.850  19.534  34.969  1.00  0.00    -0.206 F 
ATOM     95  C   UNL A   1      49.315  20.503  35.336  1.00  0.00     0.060 A 
BRANCH  95  96
ATOM     96  S   UNL A   1      50.743  19.969  36.316  1.00  0.00     0.124 S 
ATOM     97  O   UNL A   1      51.226  18.825  35.554  1.00  0.00    -0.237 OA
ATOM     98  O   UNL A   1      51.587  21.163  36.285  1.00  0.00    -0.237 OA
ATOM     99  O   UNL A   1      50.159  19.664  37.618  1.00  0.00    -0.744 OA
ENDBRANCH  95  96
ENDBRANCH  63  88
BRANCH  75 100
ATOM    100  C   UNL A   1      45.047  27.055  39.393  1.00  0.00     0.058 A 
ATOM    101  C   UNL A   1      45.569  28.345  39.200  1.00  0.00     0.135 A 
ATOM    102  C   UNL A   1      44.664  26.755  40.730  1.00  0.00     0.135 A 
ATOM    103  F   UNL A   1      45.905  28.791  37.982  1.00  0.00    -0.206 F 
ATOM    104  C   UNL A   1      45.720  29.257  40.246  1.00  0.00     0.059 A 
ATOM    105  C   UNL A   1      44.758  27.668  41.776  1.00  0.00     0.059 A 
ATOM    106  F   UNL A   1      44.145  25.566  41.069  1.00  0.00    -0.206 F 
ATOM    107  C   UNL A   1      45.301  28.916  41.528  1.00  0.00     0.060 A 
BRANCH 107 108
ATOM    108  S   UNL A   1      45.416  30.135  42.848  1.00  0.00     0.124 S 
ATOM    109  O   UNL A   1      44.840  31.312  42.204  1.00  0.00    -0.237 OA
ATOM    110  O   UNL A   1      44.606  29.534  43.904  1.00  0.00    -0.237 OA
ATOM    111  O   UNL A   1      46.846  30.204  43.128  1.00  0.00    -0.744 OA
ENDBRANCH 107 108
ENDBRANCH  75 100
ENDBRANCH  49  50
ENDBRANCH  42  44
ENDBRANCH  41  42
ENDBRANCH  40  41
ENDBRANCH  39  40
ENDBRANCH  38  39
ENDBRANCH  37  38
ENDBRANCH  36  37
ENDBRANCH  35  36
ENDBRANCH   1  35
TORSDOF 27
ENDMDL
MODEL 3
REMARK VINA RESULT:      -8.0      4.747      6.870
REMARK SMILES COc1cc(Cl)c(C)cc1N1C(=O)C[C@H](Nc2cc(C(=O)OCCOCCOCCOCCOC(=O)c3ccc(-c4c5nc(c(-c6c(F)cc(S(=O)(=O)[O-])cc6F)c6ccc([nH]6)c(-c6c(F)cc(S(=O)(=O)[O-])cc6F)c6nc(c(-c7c(F)cc(S(=O)(=O)[O-])cc7F)c7ccc4[nH]7)C=C6)C=C5)cc3)ccc2C)C1=O
REMARK SMILES IDX 27 1 26 2 25 3 24 4 23 5 22 6 20 7 21 8 19 9 17 10 18 11
REMARK SMILES IDX 105 12 104 13 106 14 103 15 16 16 15 18 11 19 12 20 107 21
REMARK SMILES IDX 13 22 14 23 108 24 10 25 3 26 4 27 5 28 9 29 6 30 7 31 8 32
REMARK SMILES IDX 2 33 1 34 28 35 29 36 30 37 31 38 32 39 33 40 34 41 35 42
REMARK SMILES IDX 36 43 37 44 38 45 102 46 39 47 101 48 40 49 41 50 42 51
REMARK SMILES IDX 95 52 43 53 100 54 94 55 96 56 44 57 99 58 93 59 92 60 45 62
REMARK SMILES IDX 79 63 58 64 78 65 59 66 62 67 77 68 97 69 60 70 61 71 76 73
REMARK SMILES IDX 98 74 63 75 46 76 47 77 56 78 48 79 49 80 55 81 57 82 50 83
REMARK SMILES IDX 51 84 52 85 53 86 54 87 80 88 81 89 90 90 82 91 83 92 89 93
REMARK SMILES IDX 91 94 84 95 85 96 86 97 87 98 88 99 64 100 65 101 74 102
REMARK SMILES IDX 66 103 67 104 73 105 75 106 68 107 69 108 70 109 71 110
REMARK SMILES IDX 72 111
REMARK H PARENT 16 17 96 61 62 72
REMARK Flexibility Score: inf
ROOT
ATOM      1  C   UNL A   1      40.288  25.663  27.376  1.00  0.00     0.188 C 
ENDROOT
BRANCH   1   2
ATOM      2  C   UNL A   1      40.557  27.022  28.052  1.00  0.00     0.188 C 
BRANCH   2   3
ATOM      3  O   UNL A   1      39.745  28.148  27.751  1.00  0.00    -0.376 OA
BRANCH   3   4
ATOM      4  C   UNL A   1      38.453  28.204  28.332  1.00  0.00     0.202 C 
BRANCH   4   5
ATOM      5  C   UNL A   1      38.205  28.916  29.658  1.00  0.00     0.261 C 
BRANCH   5   6
ATOM      6  O   UNL A   1      37.033  29.704  29.801  1.00  0.00    -0.460 OA
BRANCH   6   7
ATOM      7  C   UNL A   1      36.921  30.790  29.019  1.00  0.00     0.338 C 
ATOM      8  O   UNL A   1      37.790  31.524  28.601  1.00  0.00    -0.246 OA
BRANCH   7   9
ATOM      9  C   UNL A   1      35.541  30.754  28.505  1.00  0.00     0.062 A 
ATOM     10  C   UNL A   1      33.813  29.790  27.086  1.00  0.00     0.038 A 
ATOM     11  C   UNL A   1      35.063  29.700  27.714  1.00  0.00     0.041 A 
ATOM     12  C   UNL A   1      33.090  30.997  27.209  1.00  0.00    -0.028 A 
ATOM     13  C   UNL A   1      33.585  32.044  28.011  1.00  0.00     0.006 A 
ATOM     14  C   UNL A   1      31.776  31.238  26.521  1.00  0.00     0.046 C 
ATOM     15  C   UNL A   1      34.796  31.918  28.673  1.00  0.00     0.016 A 
BRANCH  10  16
ATOM     16  N   UNL A   1      33.400  28.798  26.190  1.00  0.00    -0.373 N 
ATOM     17  H   UNL A   1      33.394  28.968  25.219  1.00  0.00     0.161 HD
BRANCH  16  18
ATOM     18  C   UNL A   1      32.974  27.494  26.724  1.00  0.00     0.179 C 
ATOM     19  N   UNL A   1      32.191  25.630  25.530  1.00  0.00    -0.245 N 
ATOM     20  C   UNL A   1      31.064  26.252  25.990  1.00  0.00     0.236 C 
ATOM     21  C   UNL A   1      33.330  26.357  25.776  1.00  0.00     0.256 C 
ATOM     22  O   UNL A   1      29.899  25.911  25.821  1.00  0.00    -0.274 OA
ATOM     23  C   UNL A   1      31.456  27.439  26.816  1.00  0.00     0.136 C 
ATOM     24  O   UNL A   1      34.425  26.226  25.247  1.00  0.00    -0.272 OA
BRANCH  19  25
ATOM     25  C   UNL A   1      32.178  24.431  24.788  1.00  0.00     0.094 A 
ATOM     26  C   UNL A   1      31.986  24.440  23.398  1.00  0.00     0.144 A 
ATOM     27  C   UNL A   1      31.950  23.243  22.680  1.00  0.00     0.069 A 
ATOM     28  C   UNL A   1      32.121  22.026  23.340  1.00  0.00     0.047 A 
ATOM     29  C   UNL A   1      32.370  23.203  25.438  1.00  0.00     0.035 A 
ATOM     30  Cl  UNL A   1      32.104  20.579  22.395  1.00  0.00    -0.084 Cl
ATOM     31  C   UNL A   1      32.315  21.988  24.730  1.00  0.00    -0.030 A 
ATOM     32  C   UNL A   1      32.442  20.691  25.478  1.00  0.00     0.046 C 
BRANCH  26  33
ATOM     33  O   UNL A   1      31.830  25.588  22.669  1.00  0.00    -0.495 OA
ATOM     34  C   UNL A   1      32.975  25.912  21.885  1.00  0.00     0.278 C 
ENDBRANCH  26  33
ENDBRANCH  19  25
ENDBRANCH  16  18
ENDBRANCH  10  16
ENDBRANCH   7   9
ENDBRANCH   6   7
ENDBRANCH   5   6
ENDBRANCH   4   5
ENDBRANCH   3   4
ENDBRANCH   2   3
ENDBRANCH   1   2
BRANCH   1  35
ATOM     35  O   UNL A   1      40.884  25.523  26.095  1.00  0.00    -0.377 OA
BRANCH  35  36
ATOM     36  C   UNL A   1      42.197  26.069  25.986  1.00  0.00     0.188 C 
BRANCH  36  37
ATOM     37  C   UNL A   1      43.317  25.196  26.583  1.00  0.00     0.188 C 
BRANCH  37  38
ATOM     38  O   UNL A   1      44.465  25.107  25.743  1.00  0.00    -0.376 OA
BRANCH  38  39
ATOM     39  C   UNL A   1      45.633  24.521  26.306  1.00  0.00     0.202 C 
BRANCH  39  40
ATOM     40  C   UNL A   1      46.570  25.533  26.967  1.00  0.00     0.261 C 
BRANCH  40  41
ATOM     41  O   UNL A   1      47.376  26.172  25.964  1.00  0.00    -0.460 OA
BRANCH  41  42
ATOM     42  C   UNL A   1      47.265  27.529  25.960  1.00  0.00     0.338 C 
ATOM     43  O   UNL A   1      47.918  28.265  25.240  1.00  0.00    -0.246 OA
BRANCH  42  44
ATOM     44  C   UNL A   1      46.335  27.955  27.044  1.00  0.00     0.060 A 
ATOM     45  C   UNL A   1      45.035  28.381  26.737  1.00  0.00     0.016 A 
ATOM     46  C   UNL A   1      46.828  28.146  28.331  1.00  0.00     0.016 A 
ATOM     47  C   UNL A   1      44.279  29.106  27.682  1.00  0.00     0.010 A 
ATOM     48  C   UNL A   1      46.100  28.906  29.232  1.00  0.00     0.010 A 
ATOM     49  C   UNL A   1      44.828  29.427  28.927  1.00  0.00    -0.014 A 
BRANCH  49  50
ATOM     50  C   UNL A   1      44.283  30.407  29.901  1.00  0.00     0.031 A 
ATOM     51  C   UNL A   1      44.512  31.887  29.679  1.00  0.00     0.074 A 
ATOM     52  C   UNL A   1      43.310  30.046  30.785  1.00  0.00     0.049 A 
ATOM     53  N   UNL A   1      43.850  32.815  30.282  1.00  0.00    -0.248 NA
ATOM     54  C   UNL A   1      45.486  32.475  28.754  1.00  0.00     0.031 C 
ATOM     55  C   UNL A   1      42.231  30.936  31.244  1.00  0.00     0.029 A 
ATOM     56  N   UNL A   1      42.938  28.829  31.359  1.00  0.00    -0.354 N 
ATOM     57  C   UNL A   1      44.008  34.009  29.629  1.00  0.00     0.074 A 
ATOM     58  C   UNL A   1      45.120  33.767  28.745  1.00  0.00     0.031 C 
ATOM     59  C   UNL A   1      41.342  30.281  31.995  1.00  0.00     0.029 A 
ATOM     60  C   UNL A   1      41.994  29.066  32.385  1.00  0.00     0.049 A 
ATOM     61  H   UNL A   1      43.279  27.944  31.091  1.00  0.00     0.167 HD
ATOM     62  C   UNL A   1      43.103  35.003  29.878  1.00  0.00     0.037 A 
ATOM     63  C   UNL A   1      42.276  28.847  33.708  1.00  0.00     0.037 A 
ATOM     64  C   UNL A   1      42.273  34.685  31.056  1.00  0.00     0.049 A 
ATOM     65  C   UNL A   1      42.332  30.122  34.534  1.00  0.00     0.074 A 
ATOM     66  C   UNL A   1      40.918  34.522  31.287  1.00  0.00     0.029 A 
ATOM     67  N   UNL A   1      42.909  34.333  32.250  1.00  0.00    -0.354 N 
ATOM     68  N   UNL A   1      42.566  31.294  33.999  1.00  0.00    -0.248 NA
ATOM     69  C   UNL A   1      42.042  30.241  35.961  1.00  0.00     0.031 C 
ATOM     70  C   UNL A   1      40.751  34.019  32.609  1.00  0.00     0.029 A 
ATOM     71  C   UNL A   1      42.003  33.909  33.198  1.00  0.00     0.049 A 
ATOM     72  H   UNL A   1      43.881  34.381  32.395  1.00  0.00     0.167 HD
ATOM     73  C   UNL A   1      42.384  32.288  34.914  1.00  0.00     0.074 A 
ATOM     74  C   UNL A   1      42.118  31.575  36.151  1.00  0.00     0.031 C 
ATOM     75  C   UNL A   1      42.427  33.609  34.564  1.00  0.00     0.037 A 
BRANCH  62  76
ATOM     76  C   UNL A   1      42.867  36.254  29.033  1.00  0.00     0.058 A 
ATOM     77  C   UNL A   1      43.544  37.466  29.322  1.00  0.00     0.135 A 
ATOM     78  C   UNL A   1      41.937  36.359  27.976  1.00  0.00     0.135 A 
ATOM     79  F   UNL A   1      44.435  37.548  30.321  1.00  0.00    -0.206 F 
ATOM     80  C   UNL A   1      43.337  38.657  28.614  1.00  0.00     0.059 A 
ATOM     81  C   UNL A   1      41.750  37.525  27.220  1.00  0.00     0.059 A 
ATOM     82  F   UNL A   1      41.121  35.351  27.649  1.00  0.00    -0.206 F 
ATOM     83  C   UNL A   1      42.450  38.676  27.549  1.00  0.00     0.060 A 
BRANCH  83  84
ATOM     84  S   UNL A   1      42.228  40.197  26.604  1.00  0.00     0.124 S 
ATOM     85  O   UNL A   1      40.927  39.982  25.977  1.00  0.00    -0.237 OA
ATOM     86  O   UNL A   1      42.271  41.222  27.641  1.00  0.00    -0.237 OA
ATOM     87  O   UNL A   1      43.366  40.197  25.687  1.00  0.00    -0.744 OA
ENDBRANCH  83  84
ENDBRANCH  62  76
BRANCH  63  88
ATOM     88  C   UNL A   1      42.895  27.514  33.931  1.00  0.00     0.058 A 
ATOM     89  C   UNL A   1      44.290  27.573  34.129  1.00  0.00     0.135 A 
ATOM     90  C   UNL A   1      42.177  26.547  34.652  1.00  0.00     0.135 A 
ATOM     91  F   UNL A   1      45.020  28.452  33.424  1.00  0.00    -0.206 F 
ATOM     92  C   UNL A   1      44.894  26.934  35.205  1.00  0.00     0.059 A 
ATOM     93  C   UNL A   1      42.767  25.885  35.731  1.00  0.00     0.059 A 
ATOM     94  F   UNL A   1      40.854  26.422  34.475  1.00  0.00    -0.206 F 
ATOM     95  C   UNL A   1      44.098  26.167  36.054  1.00  0.00     0.060 A 
BRANCH  95  96
ATOM     96  S   UNL A   1      44.740  25.804  37.709  1.00  0.00     0.124 S 
ATOM     97  O   UNL A   1      44.620  24.354  37.773  1.00  0.00    -0.237 OA
ATOM     98  O   UNL A   1      46.101  26.331  37.621  1.00  0.00    -0.237 OA
ATOM     99  O   UNL A   1      43.848  26.555  38.586  1.00  0.00    -0.744 OA
ENDBRANCH  95  96
ENDBRANCH  63  88
BRANCH  75 100
ATOM    100  C   UNL A   1      42.799  34.766  35.469  1.00  0.00     0.058 A 
ATOM    101  C   UNL A   1      41.862  35.652  36.025  1.00  0.00     0.135 A 
ATOM    102  C   UNL A   1      44.116  34.877  35.995  1.00  0.00     0.135 A 
ATOM    103  F   UNL A   1      40.568  35.613  35.678  1.00  0.00    -0.206 F 
ATOM    104  C   UNL A   1      42.202  36.586  37.006  1.00  0.00     0.059 A 
ATOM    105  C   UNL A   1      44.464  35.764  37.009  1.00  0.00     0.059 A 
ATOM    106  F   UNL A   1      45.118  34.095  35.568  1.00  0.00    -0.206 F 
ATOM    107  C   UNL A   1      43.501  36.627  37.500  1.00  0.00     0.060 A 
BRANCH 107 108
ATOM    108  S   UNL A   1      43.903  37.773  38.830  1.00  0.00     0.124 S 
ATOM    109  O   UNL A   1      45.158  37.213  39.324  1.00  0.00    -0.237 OA
ATOM    110  O   UNL A   1      44.016  39.047  38.126  1.00  0.00    -0.237 OA
ATOM    111  O   UNL A   1      42.762  37.664  39.733  1.00  0.00    -0.744 OA
ENDBRANCH 107 108
ENDBRANCH  75 100
ENDBRANCH  49  50
ENDBRANCH  42  44
ENDBRANCH  41  42
ENDBRANCH  40  41
ENDBRANCH  39  40
ENDBRANCH  38  39
ENDBRANCH  37  38
ENDBRANCH  36  37
ENDBRANCH  35  36
ENDBRANCH   1  35
TORSDOF 27
ENDMDL
