MODEL 1
REMARK VINA RESULT:      -6.7      0.000      0.000
REMARK SMILES COc1ccc(OC)c([C@H](C(=O)OCCOCCOCCOCCOC(=O)c2ccc(-c3c4nc(c(-c5c(F)cc(S(=O)(=O)[O-])cc5F)c5ccc([nH]5)c(-c5c(F)cc(S(=O)(=O)[O-])cc5F)c5nc(c(-c6c(F)cc(S(=O)(=O)[O-])cc6F)c6ccc3[nH]6)C=C5)C=C4)cc2)[NH+]2CC[NH+](Cc3nccn3C)CC2)c1
REMARK SMILES IDX 19 1 18 2 17 3 16 4 15 5 14 6 13 7 11 8 12 9 10 10 9 11 3 12
REMARK SMILES IDX 4 13 107 14 5 15 6 16 2 17 1 18 7 19 8 20 94 21 95 22 106 23
REMARK SMILES IDX 96 25 105 26 97 27 98 29 99 30 100 31 103 32 101 33 102 34
REMARK SMILES IDX 104 35 20 36 21 37 22 38 23 39 24 40 25 41 26 42 27 43 28 44
REMARK SMILES IDX 29 45 93 46 30 47 92 48 31 49 32 50 33 51 86 52 34 53 91 54
REMARK SMILES IDX 85 55 87 56 35 57 90 58 84 59 83 60 36 62 70 63 49 64 69 65
REMARK SMILES IDX 50 66 53 67 68 68 88 69 51 70 52 71 67 73 89 74 54 75 37 76
REMARK SMILES IDX 38 77 47 78 39 79 40 80 46 81 48 82 41 83 42 84 43 85 44 86
REMARK SMILES IDX 45 87 71 88 72 89 81 90 73 91 74 92 80 93 82 94 75 95 76 96
REMARK SMILES IDX 77 97 78 98 79 99 55 100 56 101 65 102 57 103 58 104 64 105
REMARK SMILES IDX 66 106 59 107 60 108 61 109 62 110 63 111
REMARK H PARENT 94 24 97 28 87 61 53 72
REMARK Flexibility Score: inf
ROOT
ATOM      1  O   UNL A   1      33.940  34.221  31.910  1.00  0.00    -0.377 OA
ENDROOT
BRANCH   1   2
ATOM      2  C   UNL A   1      34.216  34.928  33.099  1.00  0.00     0.188 C 
BRANCH   2   3
ATOM      3  C   UNL A   1      35.572  34.649  33.726  1.00  0.00     0.188 C 
BRANCH   3   4
ATOM      4  O   UNL A   1      36.731  35.262  33.182  1.00  0.00    -0.376 OA
BRANCH   4   5
ATOM      5  C   UNL A   1      37.826  34.375  32.924  1.00  0.00     0.202 C 
BRANCH   5   6
ATOM      6  C   UNL A   1      38.161  33.381  34.057  1.00  0.00     0.261 C 
BRANCH   6   7
ATOM      7  O   UNL A   1      39.442  32.714  33.920  1.00  0.00    -0.459 OA
BRANCH   7   8
ATOM      8  C   UNL A   1      39.604  31.843  32.878  1.00  0.00     0.370 C 
ATOM      9  O   UNL A   1      38.664  31.262  32.350  1.00  0.00    -0.245 OA
BRANCH   8  10
ATOM     10  C   UNL A   1      41.136  31.636  32.565  1.00  0.00     0.330 C 
BRANCH  10  11
ATOM     11  C   UNL A   1      41.847  33.000  32.439  1.00  0.00     0.067 A 
ATOM     12  C   UNL A   1      42.757  34.636  30.789  1.00  0.00     0.119 A 
ATOM     13  C   UNL A   1      43.169  35.449  31.823  1.00  0.00     0.050 A 
ATOM     14  C   UNL A   1      42.107  33.450  31.110  1.00  0.00     0.060 A 
ATOM     15  C   UNL A   1      42.974  35.034  33.141  1.00  0.00     0.051 A 
ATOM     16  C   UNL A   1      42.347  33.811  33.471  1.00  0.00     0.128 A 
BRANCH  12  17
ATOM     17  O   UNL A   1      43.026  35.058  29.516  1.00  0.00    -0.497 OA
ATOM     18  C   UNL A   1      42.605  36.383  29.182  1.00  0.00     0.278 C 
ENDBRANCH  12  17
BRANCH  16  19
ATOM     19  O   UNL A   1      42.457  33.595  34.815  1.00  0.00    -0.496 OA
ATOM     20  C   UNL A   1      43.251  34.429  35.626  1.00  0.00     0.278 C 
ENDBRANCH  16  19
ENDBRANCH  10  11
BRANCH  10  21
ATOM     21  N   UNL A   1      41.770  30.712  33.539  1.00  0.00    -0.310 N 
ATOM     22  C   UNL A   1      41.010  29.592  34.077  1.00  0.00     0.325 C 
ATOM     23  C   UNL A   1      43.209  30.458  33.510  1.00  0.00     0.325 C 
ATOM     24  H   UNL A   1      41.688  31.446  34.243  1.00  0.00     0.349 HD
ATOM     25  C   UNL A   1      41.444  28.198  33.559  1.00  0.00     0.324 C 
ATOM     26  C   UNL A   1      43.707  29.037  33.128  1.00  0.00     0.324 C 
ATOM     27  N   UNL A   1      42.878  27.899  33.511  1.00  0.00    -0.319 N 
ATOM     28  H   UNL A   1      42.977  27.266  32.717  1.00  0.00     0.348 HD
BRANCH  27  29
ATOM     29  C   UNL A   1      43.384  27.061  34.594  1.00  0.00     0.339 C 
BRANCH  29  30
ATOM     30  C   UNL A   1      44.702  26.415  34.307  1.00  0.00     0.164 A 
ATOM     31  N   UNL A   1      45.021  25.817  33.172  1.00  0.00    -0.236 NA
ATOM     32  N   UNL A   1      45.731  26.294  35.215  1.00  0.00    -0.333 N 
ATOM     33  C   UNL A   1      46.224  25.208  33.391  1.00  0.00     0.131 A 
ATOM     34  C   UNL A   1      46.681  25.480  34.656  1.00  0.00     0.107 A 
ATOM     35  C   UNL A   1      45.832  26.838  36.549  1.00  0.00     0.151 C 
ENDBRANCH  29  30
ENDBRANCH  27  29
ENDBRANCH  10  21
ENDBRANCH   8  10
ENDBRANCH   7   8
ENDBRANCH   6   7
ENDBRANCH   5   6
ENDBRANCH   4   5
ENDBRANCH   3   4
ENDBRANCH   2   3
ENDBRANCH   1   2
BRANCH   1  36
ATOM     36  C   UNL A   1      34.528  32.930  31.844  1.00  0.00     0.188 C 
BRANCH  36  37
ATOM     37  C   UNL A   1      34.844  32.340  30.451  1.00  0.00     0.188 C 
BRANCH  37  38
ATOM     38  O   UNL A   1      34.497  33.148  29.325  1.00  0.00    -0.376 OA
BRANCH  38  39
ATOM     39  C   UNL A   1      35.466  33.193  28.276  1.00  0.00     0.202 C 
BRANCH  39  40
ATOM     40  C   UNL A   1      36.675  32.254  28.441  1.00  0.00     0.261 C 
BRANCH  40  41
ATOM     41  O   UNL A   1      36.502  30.933  27.914  1.00  0.00    -0.460 OA
BRANCH  41  42
ATOM     42  C   UNL A   1      36.763  29.892  28.734  1.00  0.00     0.338 C 
ATOM     43  O   UNL A   1      35.942  29.212  29.329  1.00  0.00    -0.246 OA
BRANCH  42  44
ATOM     44  C   UNL A   1      38.196  29.557  28.578  1.00  0.00     0.060 A 
ATOM     45  C   UNL A   1      38.760  29.655  27.296  1.00  0.00     0.016 A 
ATOM     46  C   UNL A   1      39.009  29.307  29.689  1.00  0.00     0.016 A 
ATOM     47  C   UNL A   1      40.144  29.562  27.135  1.00  0.00     0.010 A 
ATOM     48  C   UNL A   1      40.386  29.145  29.518  1.00  0.00     0.010 A 
ATOM     49  C   UNL A   1      40.958  29.267  28.240  1.00  0.00    -0.014 A 
BRANCH  49  50
ATOM     50  C   UNL A   1      42.338  28.785  28.005  1.00  0.00     0.031 A 
ATOM     51  C   UNL A   1      43.429  29.814  28.115  1.00  0.00     0.074 A 
ATOM     52  C   UNL A   1      42.625  27.507  27.702  1.00  0.00     0.049 A 
ATOM     53  N   UNL A   1      44.717  29.684  27.951  1.00  0.00    -0.248 NA
ATOM     54  C   UNL A   1      43.001  31.182  28.468  1.00  0.00     0.031 C 
ATOM     55  C   UNL A   1      41.658  26.416  27.599  1.00  0.00     0.029 A 
ATOM     56  N   UNL A   1      43.832  26.914  27.416  1.00  0.00    -0.354 N 
ATOM     57  C   UNL A   1      45.250  30.944  28.195  1.00  0.00     0.074 A 
ATOM     58  C   UNL A   1      44.152  31.831  28.496  1.00  0.00     0.031 C 
ATOM     59  C   UNL A   1      42.309  25.287  27.253  1.00  0.00     0.029 A 
ATOM     60  C   UNL A   1      43.732  25.582  27.087  1.00  0.00     0.049 A 
ATOM     61  H   UNL A   1      44.688  27.397  27.443  1.00  0.00     0.167 HD
ATOM     62  C   UNL A   1      46.545  31.331  28.171  1.00  0.00     0.037 A 
ATOM     63  C   UNL A   1      44.683  24.716  26.678  1.00  0.00     0.037 A 
ATOM     64  C   UNL A   1      47.629  30.461  27.818  1.00  0.00     0.049 A 
ATOM     65  C   UNL A   1      46.111  25.195  26.559  1.00  0.00     0.074 A 
ATOM     66  C   UNL A   1      48.977  30.755  27.745  1.00  0.00     0.029 A 
ATOM     67  N   UNL A   1      47.482  29.131  27.452  1.00  0.00    -0.354 N 
ATOM     68  N   UNL A   1      46.611  26.378  26.833  1.00  0.00    -0.248 NA
ATOM     69  C   UNL A   1      47.105  24.226  26.073  1.00  0.00     0.031 C 
ATOM     70  C   UNL A   1      49.643  29.613  27.287  1.00  0.00     0.029 A 
ATOM     71  C   UNL A   1      48.715  28.595  27.126  1.00  0.00     0.049 A 
ATOM     72  H   UNL A   1      46.629  28.642  27.429  1.00  0.00     0.167 HD
ATOM     73  C   UNL A   1      47.976  26.287  26.577  1.00  0.00     0.074 A 
ATOM     74  C   UNL A   1      48.227  24.931  26.136  1.00  0.00     0.031 C 
ATOM     75  C   UNL A   1      48.939  27.236  26.697  1.00  0.00     0.037 A 
BRANCH  62  76
ATOM     76  C   UNL A   1      46.832  32.767  28.495  1.00  0.00     0.058 A 
ATOM     77  C   UNL A   1      47.065  33.715  27.485  1.00  0.00     0.135 A 
ATOM     78  C   UNL A   1      46.892  33.198  29.829  1.00  0.00     0.135 A 
ATOM     79  F   UNL A   1      47.054  33.345  26.194  1.00  0.00    -0.206 F 
ATOM     80  C   UNL A   1      47.370  35.037  27.788  1.00  0.00     0.059 A 
ATOM     81  C   UNL A   1      47.170  34.521  30.154  1.00  0.00     0.059 A 
ATOM     82  F   UNL A   1      46.697  32.326  30.831  1.00  0.00    -0.206 F 
ATOM     83  C   UNL A   1      47.420  35.430  29.126  1.00  0.00     0.060 A 
BRANCH  83  84
ATOM     84  S   UNL A   1      47.814  37.150  29.503  1.00  0.00     0.124 S 
ATOM     85  O   UNL A   1      49.273  37.132  29.448  1.00  0.00    -0.237 OA
ATOM     86  O   UNL A   1      47.147  37.867  28.421  1.00  0.00    -0.237 OA
ATOM     87  O   UNL A   1      47.239  37.347  30.830  1.00  0.00    -0.744 OA
ENDBRANCH  83  84
ENDBRANCH  62  76
BRANCH  63  88
ATOM     88  C   UNL A   1      44.328  23.311  26.329  1.00  0.00     0.058 A 
ATOM     89  C   UNL A   1      43.848  22.418  27.300  1.00  0.00     0.135 A 
ATOM     90  C   UNL A   1      44.486  22.824  25.021  1.00  0.00     0.135 A 
ATOM     91  F   UNL A   1      43.698  22.825  28.569  1.00  0.00    -0.206 F 
ATOM     92  C   UNL A   1      43.548  21.092  26.991  1.00  0.00     0.059 A 
ATOM     93  C   UNL A   1      44.169  21.511  24.682  1.00  0.00     0.059 A 
ATOM     94  F   UNL A   1      44.942  23.634  24.054  1.00  0.00    -0.206 F 
ATOM     95  C   UNL A   1      43.710  20.650  25.677  1.00  0.00     0.060 A 
BRANCH  95  96
ATOM     96  S   UNL A   1      43.270  18.942  25.278  1.00  0.00     0.124 S 
ATOM     97  O   UNL A   1      41.852  18.917  25.616  1.00  0.00    -0.237 OA
ATOM     98  O   UNL A   1      43.590  18.869  23.856  1.00  0.00    -0.237 OA
ATOM     99  O   UNL A   1      44.141  18.160  26.150  1.00  0.00    -0.744 OA
ENDBRANCH  95  96
ENDBRANCH  63  88
BRANCH  75 100
ATOM    100  C   UNL A   1      50.355  26.845  26.381  1.00  0.00     0.058 A 
ATOM    101  C   UNL A   1      50.961  27.190  25.164  1.00  0.00     0.135 A 
ATOM    102  C   UNL A   1      51.143  26.196  27.347  1.00  0.00     0.135 A 
ATOM    103  F   UNL A   1      50.251  27.809  24.206  1.00  0.00    -0.206 F 
ATOM    104  C   UNL A   1      52.296  26.895  24.909  1.00  0.00     0.059 A 
ATOM    105  C   UNL A   1      52.486  25.916  27.125  1.00  0.00     0.059 A 
ATOM    106  F   UNL A   1      50.614  25.857  28.534  1.00  0.00    -0.206 F 
ATOM    107  C   UNL A   1      53.052  26.263  25.899  1.00  0.00     0.060 A 
BRANCH 107 108
ATOM    108  S   UNL A   1      54.798  25.935  25.577  1.00  0.00     0.124 S 
ATOM    109  O   UNL A   1      54.889  26.200  24.145  1.00  0.00    -0.237 OA
ATOM    110  O   UNL A   1      55.464  26.902  26.444  1.00  0.00    -0.237 OA
ATOM    111  O   UNL A   1      54.960  24.538  25.968  1.00  0.00    -0.744 OA
ENDBRANCH 107 108
ENDBRANCH  75 100
ENDBRANCH  49  50
ENDBRANCH  42  44
ENDBRANCH  41  42
ENDBRANCH  40  41
ENDBRANCH  39  40
ENDBRANCH  38  39
ENDBRANCH  37  38
ENDBRANCH  36  37
ENDBRANCH   1  36
TORSDOF 29
ENDMDL
MODEL 2
REMARK VINA RESULT:      -5.9      6.105     12.860
REMARK SMILES COc1ccc(OC)c([C@H](C(=O)OCCOCCOCCOCCOC(=O)c2ccc(-c3c4nc(c(-c5c(F)cc(S(=O)(=O)[O-])cc5F)c5ccc([nH]5)c(-c5c(F)cc(S(=O)(=O)[O-])cc5F)c5nc(c(-c6c(F)cc(S(=O)(=O)[O-])cc6F)c6ccc3[nH]6)C=C5)C=C4)cc2)[NH+]2CC[NH+](Cc3nccn3C)CC2)c1
REMARK SMILES IDX 19 1 18 2 17 3 16 4 15 5 14 6 13 7 11 8 12 9 10 10 9 11 3 12
REMARK SMILES IDX 4 13 107 14 5 15 6 16 2 17 1 18 7 19 8 20 94 21 95 22 106 23
REMARK SMILES IDX 96 25 105 26 97 27 98 29 99 30 100 31 103 32 101 33 102 34
REMARK SMILES IDX 104 35 20 36 21 37 22 38 23 39 24 40 25 41 26 42 27 43 28 44
REMARK SMILES IDX 29 45 93 46 30 47 92 48 31 49 32 50 33 51 86 52 34 53 91 54
REMARK SMILES IDX 85 55 87 56 35 57 90 58 84 59 83 60 36 62 70 63 49 64 69 65
REMARK SMILES IDX 50 66 53 67 68 68 88 69 51 70 52 71 67 73 89 74 54 75 37 76
REMARK SMILES IDX 38 77 47 78 39 79 40 80 46 81 48 82 41 83 42 84 43 85 44 86
REMARK SMILES IDX 45 87 71 88 72 89 81 90 73 91 74 92 80 93 82 94 75 95 76 96
REMARK SMILES IDX 77 97 78 98 79 99 55 100 56 101 65 102 57 103 58 104 64 105
REMARK SMILES IDX 66 106 59 107 60 108 61 109 62 110 63 111
REMARK H PARENT 94 24 97 28 87 61 53 72
REMARK Flexibility Score: inf
ROOT
ATOM      1  O   UNL A   1      41.259  19.692  26.046  1.00  0.00    -0.377 OA
ENDROOT
BRANCH   1   2
ATOM      2  C   UNL A   1      39.893  19.908  25.770  1.00  0.00     0.188 C 
BRANCH   2   3
ATOM      3  C   UNL A   1      39.471  21.363  25.650  1.00  0.00     0.188 C 
BRANCH   3   4
ATOM      4  O   UNL A   1      38.098  21.703  25.768  1.00  0.00    -0.376 OA
BRANCH   4   5
ATOM      5  C   UNL A   1      37.835  22.994  26.331  1.00  0.00     0.202 C 
BRANCH   5   6
ATOM      6  C   UNL A   1      36.900  23.903  25.505  1.00  0.00     0.261 C 
BRANCH   6   7
ATOM      7  O   UNL A   1      35.817  24.505  26.260  1.00  0.00    -0.459 OA
BRANCH   7   8
ATOM      8  C   UNL A   1      34.720  24.944  25.570  1.00  0.00     0.370 C 
ATOM      9  O   UNL A   1      34.616  26.090  25.154  1.00  0.00    -0.245 OA
BRANCH   8  10
ATOM     10  C   UNL A   1      33.620  23.815  25.507  1.00  0.00     0.330 C 
BRANCH  10  11
ATOM     11  C   UNL A   1      32.423  24.280  24.650  1.00  0.00     0.067 A 
ATOM     12  C   UNL A   1      31.704  25.986  22.978  1.00  0.00     0.119 A 
ATOM     13  C   UNL A   1      30.442  25.433  22.956  1.00  0.00     0.050 A 
ATOM     14  C   UNL A   1      32.658  25.405  23.805  1.00  0.00     0.060 A 
ATOM     15  C   UNL A   1      30.151  24.355  23.794  1.00  0.00     0.051 A 
ATOM     16  C   UNL A   1      31.108  23.785  24.664  1.00  0.00     0.128 A 
BRANCH  12  17
ATOM     17  O   UNL A   1      31.921  27.079  22.183  1.00  0.00    -0.497 OA
ATOM     18  C   UNL A   1      31.311  28.302  22.600  1.00  0.00     0.278 C 
ENDBRANCH  12  17
BRANCH  16  19
ATOM     19  O   UNL A   1      30.495  22.878  25.479  1.00  0.00    -0.496 OA
ATOM     20  C   UNL A   1      30.424  23.076  26.871  1.00  0.00     0.278 C 
ENDBRANCH  16  19
ENDBRANCH  10  11
BRANCH  10  21
ATOM     21  N   UNL A   1      34.197  22.515  25.084  1.00  0.00    -0.310 N 
ATOM     22  C   UNL A   1      34.392  21.455  26.062  1.00  0.00     0.325 C 
ATOM     23  C   UNL A   1      33.993  22.006  23.729  1.00  0.00     0.325 C 
ATOM     24  H   UNL A   1      35.105  22.976  25.012  1.00  0.00     0.349 HD
ATOM     25  C   UNL A   1      33.423  20.254  25.927  1.00  0.00     0.324 C 
ATOM     26  C   UNL A   1      33.139  20.721  23.538  1.00  0.00     0.324 C 
ATOM     27  N   UNL A   1      33.186  19.710  24.587  1.00  0.00    -0.319 N 
ATOM     28  H   UNL A   1      32.225  19.369  24.620  1.00  0.00     0.348 HD
BRANCH  27  29
ATOM     29  C   UNL A   1      33.903  18.478  24.271  1.00  0.00     0.339 C 
BRANCH  29  30
ATOM     30  C   UNL A   1      33.299  17.245  24.863  1.00  0.00     0.164 A 
ATOM     31  N   UNL A   1      32.005  17.048  25.044  1.00  0.00    -0.236 NA
ATOM     32  N   UNL A   1      34.018  16.183  25.367  1.00  0.00    -0.333 N 
ATOM     33  C   UNL A   1      31.895  15.898  25.772  1.00  0.00     0.131 A 
ATOM     34  C   UNL A   1      33.132  15.347  25.995  1.00  0.00     0.107 A 
ATOM     35  C   UNL A   1      35.443  15.956  25.335  1.00  0.00     0.151 C 
ENDBRANCH  29  30
ENDBRANCH  27  29
ENDBRANCH  10  21
ENDBRANCH   8  10
ENDBRANCH   7   8
ENDBRANCH   6   7
ENDBRANCH   5   6
ENDBRANCH   4   5
ENDBRANCH   3   4
ENDBRANCH   2   3
ENDBRANCH   1   2
BRANCH   1  36
ATOM     36  C   UNL A   1      41.995  20.872  26.331  1.00  0.00     0.188 C 
BRANCH  36  37
ATOM     37  C   UNL A   1      42.026  21.380  27.791  1.00  0.00     0.188 C 
BRANCH  37  38
ATOM     38  O   UNL A   1      43.178  22.131  28.179  1.00  0.00    -0.376 OA
BRANCH  38  39
ATOM     39  C   UNL A   1      42.927  23.474  28.597  1.00  0.00     0.202 C 
BRANCH  39  40
ATOM     40  C   UNL A   1      41.898  24.254  27.758  1.00  0.00     0.261 C 
BRANCH  40  41
ATOM     41  O   UNL A   1      42.437  25.305  26.947  1.00  0.00    -0.460 OA
BRANCH  41  42
ATOM     42  C   UNL A   1      43.420  24.984  26.078  1.00  0.00     0.338 C 
ATOM     43  O   UNL A   1      43.372  24.127  25.210  1.00  0.00    -0.246 OA
BRANCH  42  44
ATOM     44  C   UNL A   1      44.463  26.028  26.189  1.00  0.00     0.060 A 
ATOM     45  C   UNL A   1      44.891  26.399  27.475  1.00  0.00     0.016 A 
ATOM     46  C   UNL A   1      45.123  26.519  25.057  1.00  0.00     0.016 A 
ATOM     47  C   UNL A   1      46.014  27.213  27.626  1.00  0.00     0.010 A 
ATOM     48  C   UNL A   1      46.206  27.390  25.209  1.00  0.00     0.010 A 
ATOM     49  C   UNL A   1      46.652  27.744  26.493  1.00  0.00    -0.014 A 
BRANCH  49  50
ATOM     50  C   UNL A   1      47.569  28.895  26.660  1.00  0.00     0.031 A 
ATOM     51  C   UNL A   1      49.038  28.576  26.685  1.00  0.00     0.074 A 
ATOM     52  C   UNL A   1      47.136  30.161  26.791  1.00  0.00     0.049 A 
ATOM     53  N   UNL A   1      50.061  29.373  26.829  1.00  0.00    -0.248 NA
ATOM     54  C   UNL A   1      49.399  27.155  26.517  1.00  0.00     0.031 C 
ATOM     55  C   UNL A   1      45.741  30.596  26.750  1.00  0.00     0.029 A 
ATOM     56  N   UNL A   1      47.843  31.322  26.994  1.00  0.00    -0.354 N 
ATOM     57  C   UNL A   1      51.181  28.555  26.753  1.00  0.00     0.074 A 
ATOM     58  C   UNL A   1      50.718  27.199  26.574  1.00  0.00     0.031 C 
ATOM     59  C   UNL A   1      45.693  31.929  26.942  1.00  0.00     0.029 A 
ATOM     60  C   UNL A   1      47.050  32.437  27.143  1.00  0.00     0.049 A 
ATOM     61  H   UNL A   1      48.826  31.354  27.029  1.00  0.00     0.167 HD
ATOM     62  C   UNL A   1      52.485  28.901  26.825  1.00  0.00     0.037 A 
ATOM     63  C   UNL A   1      47.390  33.710  27.432  1.00  0.00     0.037 A 
ATOM     64  C   UNL A   1      52.941  30.241  27.058  1.00  0.00     0.049 A 
ATOM     65  C   UNL A   1      48.850  34.059  27.611  1.00  0.00     0.074 A 
ATOM     66  C   UNL A   1      54.240  30.699  27.167  1.00  0.00     0.029 A 
ATOM     67  N   UNL A   1      52.107  31.333  27.245  1.00  0.00    -0.354 N 
ATOM     68  N   UNL A   1      49.905  33.284  27.496  1.00  0.00    -0.248 NA
ATOM     69  C   UNL A   1      49.169  35.450  27.963  1.00  0.00     0.031 C 
ATOM     70  C   UNL A   1      54.191  32.065  27.469  1.00  0.00     0.029 A 
ATOM     71  C   UNL A   1      52.864  32.464  27.495  1.00  0.00     0.049 A 
ATOM     72  H   UNL A   1      51.124  31.308  27.205  1.00  0.00     0.167 HD
ATOM     73  C   UNL A   1      51.008  34.099  27.735  1.00  0.00     0.074 A 
ATOM     74  C   UNL A   1      50.495  35.428  27.992  1.00  0.00     0.031 C 
ATOM     75  C   UNL A   1      52.327  33.780  27.740  1.00  0.00     0.037 A 
BRANCH  62  76
ATOM     76  C   UNL A   1      53.492  27.796  26.694  1.00  0.00     0.058 A 
ATOM     77  C   UNL A   1      53.887  27.028  27.801  1.00  0.00     0.135 A 
ATOM     78  C   UNL A   1      54.080  27.513  25.452  1.00  0.00     0.135 A 
ATOM     79  F   UNL A   1      53.380  27.284  29.018  1.00  0.00    -0.206 F 
ATOM     80  C   UNL A   1      54.848  26.030  27.685  1.00  0.00     0.059 A 
ATOM     81  C   UNL A   1      55.025  26.502  25.308  1.00  0.00     0.059 A 
ATOM     82  F   UNL A   1      53.751  28.233  24.368  1.00  0.00    -0.206 F 
ATOM     83  C   UNL A   1      55.411  25.776  26.434  1.00  0.00     0.060 A 
BRANCH  83  84
ATOM     84  S   UNL A   1      56.655  24.476  26.299  1.00  0.00     0.124 S 
ATOM     85  O   UNL A   1      56.077  23.432  27.139  1.00  0.00    -0.237 OA
ATOM     86  O   UNL A   1      56.666  24.202  24.865  1.00  0.00    -0.237 OA
ATOM     87  O   UNL A   1      57.863  25.107  26.823  1.00  0.00    -0.744 OA
ENDBRANCH  83  84
ENDBRANCH  62  76
BRANCH  63  88
ATOM     88  C   UNL A   1      46.341  34.757  27.593  1.00  0.00     0.058 A 
ATOM     89  C   UNL A   1      45.846  35.467  26.488  1.00  0.00     0.135 A 
ATOM     90  C   UNL A   1      45.829  35.085  28.859  1.00  0.00     0.135 A 
ATOM     91  F   UNL A   1      46.314  35.207  25.259  1.00  0.00    -0.206 F 
ATOM     92  C   UNL A   1      44.891  36.472  26.633  1.00  0.00     0.059 A 
ATOM     93  C   UNL A   1      44.857  36.068  29.025  1.00  0.00     0.059 A 
ATOM     94  F   UNL A   1      46.268  34.438  29.949  1.00  0.00    -0.206 F 
ATOM     95  C   UNL A   1      44.401  36.763  27.907  1.00  0.00     0.060 A 
BRANCH  95  96
ATOM     96  S   UNL A   1      43.126  38.033  28.075  1.00  0.00     0.124 S 
ATOM     97  O   UNL A   1      43.295  38.438  29.465  1.00  0.00    -0.237 OA
ATOM     98  O   UNL A   1      43.534  39.010  27.070  1.00  0.00    -0.237 OA
ATOM     99  O   UNL A   1      41.893  37.312  27.772  1.00  0.00    -0.744 OA
ENDBRANCH  95  96
ENDBRANCH  63  88
BRANCH  75 100
ATOM    100  C   UNL A   1      53.315  34.883  27.999  1.00  0.00     0.058 A 
ATOM    101  C   UNL A   1      53.793  35.156  29.289  1.00  0.00     0.135 A 
ATOM    102  C   UNL A   1      53.858  35.613  26.928  1.00  0.00     0.135 A 
ATOM    103  F   UNL A   1      53.305  34.488  30.347  1.00  0.00    -0.206 F 
ATOM    104  C   UNL A   1      54.767  36.124  29.511  1.00  0.00     0.059 A 
ATOM    105  C   UNL A   1      54.852  36.565  27.124  1.00  0.00     0.059 A 
ATOM    106  F   UNL A   1      53.445  35.380  25.672  1.00  0.00    -0.206 F 
ATOM    107  C   UNL A   1      55.295  36.819  28.421  1.00  0.00     0.060 A 
BRANCH 107 108
ATOM    108  S   UNL A   1      56.597  38.034  28.717  1.00  0.00     0.124 S 
ATOM    109  O   UNL A   1      55.897  39.286  28.454  1.00  0.00    -0.237 OA
ATOM    110  O   UNL A   1      56.947  37.784  30.112  1.00  0.00    -0.237 OA
ATOM    111  O   UNL A   1      57.626  37.673  27.746  1.00  0.00    -0.744 OA
ENDBRANCH 107 108
ENDBRANCH  75 100
ENDBRANCH  49  50
ENDBRANCH  42  44
ENDBRANCH  41  42
ENDBRANCH  40  41
ENDBRANCH  39  40
ENDBRANCH  38  39
ENDBRANCH  37  38
ENDBRANCH  36  37
ENDBRANCH   1  36
TORSDOF 29
ENDMDL
MODEL 3
REMARK VINA RESULT:      -5.8      5.038     14.172
REMARK SMILES COc1ccc(OC)c([C@H](C(=O)OCCOCCOCCOCCOC(=O)c2ccc(-c3c4nc(c(-c5c(F)cc(S(=O)(=O)[O-])cc5F)c5ccc([nH]5)c(-c5c(F)cc(S(=O)(=O)[O-])cc5F)c5nc(c(-c6c(F)cc(S(=O)(=O)[O-])cc6F)c6ccc3[nH]6)C=C5)C=C4)cc2)[NH+]2CC[NH+](Cc3nccn3C)CC2)c1
REMARK SMILES IDX 19 1 18 2 17 3 16 4 15 5 14 6 13 7 11 8 12 9 10 10 9 11 3 12
REMARK SMILES IDX 4 13 107 14 5 15 6 16 2 17 1 18 7 19 8 20 94 21 95 22 106 23
REMARK SMILES IDX 96 25 105 26 97 27 98 29 99 30 100 31 103 32 101 33 102 34
REMARK SMILES IDX 104 35 20 36 21 37 22 38 23 39 24 40 25 41 26 42 27 43 28 44
REMARK SMILES IDX 29 45 93 46 30 47 92 48 31 49 32 50 33 51 86 52 34 53 91 54
REMARK SMILES IDX 85 55 87 56 35 57 90 58 84 59 83 60 36 62 70 63 49 64 69 65
REMARK SMILES IDX 50 66 53 67 68 68 88 69 51 70 52 71 67 73 89 74 54 75 37 76
REMARK SMILES IDX 38 77 47 78 39 79 40 80 46 81 48 82 41 83 42 84 43 85 44 86
REMARK SMILES IDX 45 87 71 88 72 89 81 90 73 91 74 92 80 93 82 94 75 95 76 96
REMARK SMILES IDX 77 97 78 98 79 99 55 100 56 101 65 102 57 103 58 104 64 105
REMARK SMILES IDX 66 106 59 107 60 108 61 109 62 110 63 111
REMARK H PARENT 94 24 97 28 87 61 53 72
REMARK Flexibility Score: inf
ROOT
ATOM      1  O   UNL A   1      54.650  22.905  33.060  1.00  0.00    -0.377 OA
ENDROOT
BRANCH   1   2
ATOM      2  C   UNL A   1      53.896  21.900  32.417  1.00  0.00     0.188 C 
BRANCH   2   3
ATOM      3  C   UNL A   1      52.473  21.727  32.921  1.00  0.00     0.188 C 
BRANCH   3   4
ATOM      4  O   UNL A   1      51.845  20.459  32.813  1.00  0.00    -0.376 OA
BRANCH   4   5
ATOM      5  C   UNL A   1      50.927  20.141  33.865  1.00  0.00     0.202 C 
BRANCH   5   6
ATOM      6  C   UNL A   1      49.436  20.390  33.548  1.00  0.00     0.261 C 
BRANCH   6   7
ATOM      7  O   UNL A   1      48.507  19.663  34.392  1.00  0.00    -0.459 OA
BRANCH   7   8
ATOM      8  C   UNL A   1      47.516  20.371  35.014  1.00  0.00     0.370 C 
ATOM      9  O   UNL A   1      46.332  20.075  34.918  1.00  0.00    -0.245 OA
BRANCH   8  10
ATOM     10  C   UNL A   1      48.115  21.635  35.742  1.00  0.00     0.330 C 
BRANCH  10  11
ATOM     11  C   UNL A   1      47.441  22.924  35.224  1.00  0.00     0.067 A 
ATOM     12  C   UNL A   1      45.265  24.142  35.127  1.00  0.00     0.119 A 
ATOM     13  C   UNL A   1      45.863  25.150  34.402  1.00  0.00     0.050 A 
ATOM     14  C   UNL A   1      46.054  23.069  35.525  1.00  0.00     0.060 A 
ATOM     15  C   UNL A   1      47.208  25.036  34.048  1.00  0.00     0.051 A 
ATOM     16  C   UNL A   1      48.003  23.928  34.419  1.00  0.00     0.128 A 
BRANCH  12  17
ATOM     17  O   UNL A   1      43.930  24.272  35.397  1.00  0.00    -0.497 OA
ATOM     18  C   UNL A   1      43.486  25.568  35.801  1.00  0.00     0.278 C 
ENDBRANCH  12  17
BRANCH  16  19
ATOM     19  O   UNL A   1      49.211  24.007  33.787  1.00  0.00    -0.496 OA
ATOM     20  C   UNL A   1      49.955  25.203  33.779  1.00  0.00     0.278 C 
ENDBRANCH  16  19
ENDBRANCH  10  11
BRANCH  10  21
ATOM     21  N   UNL A   1      48.073  21.484  37.218  1.00  0.00    -0.310 N 
ATOM     22  C   UNL A   1      47.810  20.179  37.807  1.00  0.00     0.325 C 
ATOM     23  C   UNL A   1      48.873  22.346  38.087  1.00  0.00     0.325 C 
ATOM     24  H   UNL A   1      47.169  21.955  37.211  1.00  0.00     0.349 HD
ATOM     25  C   UNL A   1      49.029  19.511  38.490  1.00  0.00     0.324 C 
ATOM     26  C   UNL A   1      50.029  21.710  38.907  1.00  0.00     0.324 C 
ATOM     27  N   UNL A   1      49.861  20.337  39.370  1.00  0.00    -0.319 N 
ATOM     28  H   UNL A   1      50.798  19.946  39.272  1.00  0.00     0.348 HD
BRANCH  27  29
ATOM     29  C   UNL A   1      49.638  20.157  40.801  1.00  0.00     0.339 C 
BRANCH  29  30
ATOM     30  C   UNL A   1      50.782  19.525  41.527  1.00  0.00     0.164 A 
ATOM     31  N   UNL A   1      51.875  19.053  40.954  1.00  0.00    -0.236 NA
ATOM     32  N   UNL A   1      50.814  19.285  42.884  1.00  0.00    -0.333 N 
ATOM     33  C   UNL A   1      52.568  18.403  41.935  1.00  0.00     0.131 A 
ATOM     34  C   UNL A   1      51.924  18.523  43.142  1.00  0.00     0.107 A 
ATOM     35  C   UNL A   1      49.861  19.673  43.897  1.00  0.00     0.151 C 
ENDBRANCH  29  30
ENDBRANCH  27  29
ENDBRANCH  10  21
ENDBRANCH   8  10
ENDBRANCH   7   8
ENDBRANCH   6   7
ENDBRANCH   5   6
ENDBRANCH   4   5
ENDBRANCH   3   4
ENDBRANCH   2   3
ENDBRANCH   1   2
BRANCH   1  36
ATOM     36  C   UNL A   1      53.872  23.928  33.664  1.00  0.00     0.188 C 
BRANCH  36  37
ATOM     37  C   UNL A   1      53.777  25.294  32.947  1.00  0.00     0.188 C 
BRANCH  37  38
ATOM     38  O   UNL A   1      54.997  25.825  32.425  1.00  0.00    -0.376 OA
BRANCH  38  39
ATOM     39  C   UNL A   1      55.016  26.052  31.015  1.00  0.00     0.202 C 
BRANCH  39  40
ATOM     40  C   UNL A   1      53.698  25.766  30.273  1.00  0.00     0.261 C 
BRANCH  40  41
ATOM     41  O   UNL A   1      52.981  26.923  29.827  1.00  0.00    -0.460 OA
BRANCH  41  42
ATOM     42  C   UNL A   1      52.312  26.834  28.656  1.00  0.00     0.338 C 
ATOM     43  O   UNL A   1      52.718  26.325  27.624  1.00  0.00    -0.246 OA
BRANCH  42  44
ATOM     44  C   UNL A   1      50.909  27.225  28.921  1.00  0.00     0.060 A 
ATOM     45  C   UNL A   1      50.245  27.994  27.952  1.00  0.00     0.016 A 
ATOM     46  C   UNL A   1      50.208  26.715  30.020  1.00  0.00     0.016 A 
ATOM     47  C   UNL A   1      48.868  28.202  28.054  1.00  0.00     0.010 A 
ATOM     48  C   UNL A   1      48.844  26.982  30.156  1.00  0.00     0.010 A 
ATOM     49  C   UNL A   1      48.170  27.730  29.177  1.00  0.00    -0.014 A 
BRANCH  49  50
ATOM     50  C   UNL A   1      46.827  28.283  29.470  1.00  0.00     0.031 A 
ATOM     51  C   UNL A   1      45.657  27.402  29.129  1.00  0.00     0.074 A 
ATOM     52  C   UNL A   1      46.639  29.503  30.003  1.00  0.00     0.049 A 
ATOM     53  N   UNL A   1      44.378  27.626  29.263  1.00  0.00    -0.248 NA
ATOM     54  C   UNL A   1      45.982  26.078  28.564  1.00  0.00     0.031 C 
ATOM     55  C   UNL A   1      47.694  30.432  30.404  1.00  0.00     0.029 A 
ATOM     56  N   UNL A   1      45.474  30.172  30.294  1.00  0.00    -0.354 N 
ATOM     57  C   UNL A   1      43.752  26.470  28.815  1.00  0.00     0.074 A 
ATOM     58  C   UNL A   1      44.782  25.555  28.384  1.00  0.00     0.031 C 
ATOM     59  C   UNL A   1      47.126  31.562  30.871  1.00  0.00     0.029 A 
ATOM     60  C   UNL A   1      45.671  31.444  30.780  1.00  0.00     0.049 A 
ATOM     61  H   UNL A   1      44.582  29.779  30.165  1.00  0.00     0.167 HD
ATOM     62  C   UNL A   1      42.430  26.192  28.767  1.00  0.00     0.037 A 
ATOM     63  C   UNL A   1      44.773  32.403  31.090  1.00  0.00     0.037 A 
ATOM     64  C   UNL A   1      41.407  27.123  29.144  1.00  0.00     0.049 A 
ATOM     65  C   UNL A   1      43.299  32.107  30.932  1.00  0.00     0.074 A 
ATOM     66  C   UNL A   1      40.036  26.950  29.117  1.00  0.00     0.029 A 
ATOM     67  N   UNL A   1      41.645  28.414  29.592  1.00  0.00    -0.354 N 
ATOM     68  N   UNL A   1      42.716  30.996  30.546  1.00  0.00    -0.248 NA
ATOM     69  C   UNL A   1      42.360  33.195  31.245  1.00  0.00     0.031 C 
ATOM     70  C   UNL A   1      39.442  28.157  29.504  1.00  0.00     0.029 A 
ATOM     71  C   UNL A   1      40.444  29.061  29.821  1.00  0.00     0.049 A 
ATOM     72  H   UNL A   1      42.536  28.810  29.727  1.00  0.00     0.167 HD
ATOM     73  C   UNL A   1      41.347  31.242  30.596  1.00  0.00     0.074 A 
ATOM     74  C   UNL A   1      41.186  32.605  31.057  1.00  0.00     0.031 C 
ATOM     75  C   UNL A   1      40.313  30.418  30.290  1.00  0.00     0.037 A 
BRANCH  62  76
ATOM     76  C   UNL A   1      42.037  24.841  28.245  1.00  0.00     0.058 A 
ATOM     77  C   UNL A   1      42.301  23.669  28.971  1.00  0.00     0.135 A 
ATOM     78  C   UNL A   1      41.406  24.716  26.999  1.00  0.00     0.135 A 
ATOM     79  F   UNL A   1      42.936  23.732  30.153  1.00  0.00    -0.206 F 
ATOM     80  C   UNL A   1      41.971  22.415  28.468  1.00  0.00     0.059 A 
ATOM     81  C   UNL A   1      41.043  23.474  26.488  1.00  0.00     0.059 A 
ATOM     82  F   UNL A   1      41.150  25.806  26.257  1.00  0.00    -0.206 F 
ATOM     83  C   UNL A   1      41.343  22.329  27.225  1.00  0.00     0.060 A 
BRANCH  83  84
ATOM     84  S   UNL A   1      40.919  20.696  26.587  1.00  0.00     0.124 S 
ATOM     85  O   UNL A   1      39.612  20.947  25.989  1.00  0.00    -0.237 OA
ATOM     86  O   UNL A   1      42.006  20.436  25.647  1.00  0.00    -0.237 OA
ATOM     87  O   UNL A   1      40.912  19.856  27.781  1.00  0.00    -0.744 OA
ENDBRANCH  83  84
ENDBRANCH  62  76
BRANCH  63  88
ATOM     88  C   UNL A   1      45.226  33.741  31.564  1.00  0.00     0.058 A 
ATOM     89  C   UNL A   1      45.399  34.010  32.931  1.00  0.00     0.135 A 
ATOM     90  C   UNL A   1      45.473  34.788  30.661  1.00  0.00     0.135 A 
ATOM     91  F   UNL A   1      45.159  33.052  33.838  1.00  0.00    -0.206 F 
ATOM     92  C   UNL A   1      45.788  35.268  33.386  1.00  0.00     0.059 A 
ATOM     93  C   UNL A   1      45.886  36.046  31.089  1.00  0.00     0.059 A 
ATOM     94  F   UNL A   1      45.322  34.586  29.342  1.00  0.00    -0.206 F 
ATOM     95  C   UNL A   1      46.032  36.280  32.455  1.00  0.00     0.060 A 
BRANCH  95  96
ATOM     96  S   UNL A   1      46.584  37.893  33.055  1.00  0.00     0.124 S 
ATOM     97  O   UNL A   1      45.528  38.233  34.001  1.00  0.00    -0.237 OA
ATOM     98  O   UNL A   1      47.885  37.574  33.635  1.00  0.00    -0.237 OA
ATOM     99  O   UNL A   1      46.630  38.703  31.841  1.00  0.00    -0.744 OA
ENDBRANCH  95  96
ENDBRANCH  63  88
BRANCH  75 100
ATOM    100  C   UNL A   1      38.917  30.945  30.471  1.00  0.00     0.058 A 
ATOM    101  C   UNL A   1      38.392  31.221  31.742  1.00  0.00     0.135 A 
ATOM    102  C   UNL A   1      38.130  31.265  29.351  1.00  0.00     0.135 A 
ATOM    103  F   UNL A   1      39.102  30.931  32.845  1.00  0.00    -0.206 F 
ATOM    104  C   UNL A   1      37.129  31.783  31.899  1.00  0.00     0.059 A 
ATOM    105  C   UNL A   1      36.877  31.854  29.483  1.00  0.00     0.059 A 
ATOM    106  F   UNL A   1      38.593  31.035  28.112  1.00  0.00    -0.206 F 
ATOM    107  C   UNL A   1      36.382  32.102  30.763  1.00  0.00     0.060 A 
BRANCH 107 108
ATOM    108  S   UNL A   1      34.768  32.882  30.978  1.00  0.00     0.124 S 
ATOM    109  O   UNL A   1      35.134  34.291  31.079  1.00  0.00    -0.237 OA
ATOM    110  O   UNL A   1      34.068  32.494  29.758  1.00  0.00    -0.237 OA
ATOM    111  O   UNL A   1      34.259  32.277  32.205  1.00  0.00    -0.744 OA
ENDBRANCH 107 108
ENDBRANCH  75 100
ENDBRANCH  49  50
ENDBRANCH  42  44
ENDBRANCH  41  42
ENDBRANCH  40  41
ENDBRANCH  39  40
ENDBRANCH  38  39
ENDBRANCH  37  38
ENDBRANCH  36  37
ENDBRANCH   1  36
TORSDOF 29
ENDMDL
