MODEL 1
REMARK VINA RESULT:      -6.9      0.000      0.000
REMARK SMILES C[C@H](NC(=O)c1cccc(NC(=O)c2ccccc2C(=O)OCCOCCOCCOCCOC(=O)c2ccc(-c3c4nc(c(-c5c(F)cc(S(=O)(=O)[O-])cc5F)c5ccc([nH]5)c(-c5c(F)cc(S(=O)(=O)[O-])cc5F)c5nc(c(-c6c(F)cc(S(=O)(=O)[O-])cc6F)c6ccc3[nH]6)C=C5)C=C4)cc2)c1)c1ccccc1
REMARK SMILES IDX 27 1 26 2 25 3 24 4 23 5 22 6 20 7 21 8 19 9 14 10 15 11
REMARK SMILES IDX 16 12 18 13 17 14 12 15 11 16 13 18 10 19 6 20 7 21 103 22
REMARK SMILES IDX 8 23 9 24 4 25 3 26 5 28 2 29 1 30 104 31 105 32 109 33
REMARK SMILES IDX 106 34 108 35 107 36 28 37 29 38 30 39 31 40 32 41 33 42
REMARK SMILES IDX 34 43 35 44 36 45 37 46 38 47 102 48 39 49 101 50 40 51
REMARK SMILES IDX 41 52 42 53 95 54 43 55 100 56 94 57 96 58 44 59 99 60 93 61
REMARK SMILES IDX 92 62 45 64 79 65 58 66 78 67 59 68 62 69 77 70 97 71 60 72
REMARK SMILES IDX 61 73 76 75 98 76 63 77 46 78 47 79 56 80 48 81 49 82 55 83
REMARK SMILES IDX 57 84 50 85 51 86 52 87 53 88 54 89 80 90 81 91 90 92 82 93
REMARK SMILES IDX 83 94 89 95 91 96 84 97 85 98 86 99 87 100 88 101 64 102
REMARK SMILES IDX 65 103 74 104 66 105 67 106 73 107 75 108 68 109 69 110
REMARK SMILES IDX 70 111 71 112 72 113
REMARK H PARENT 11 17 3 27 96 63 62 74
REMARK Flexibility Score: inf
ROOT
ATOM      1  C   UNL A   1      37.721  29.476  29.107  1.00  0.00     0.188 C 
ENDROOT
BRANCH   1   2
ATOM      2  C   UNL A   1      38.043  28.269  30.017  1.00  0.00     0.188 C 
BRANCH   2   3
ATOM      3  O   UNL A   1      39.291  27.596  29.966  1.00  0.00    -0.376 OA
BRANCH   3   4
ATOM      4  C   UNL A   1      39.626  26.709  28.921  1.00  0.00     0.202 C 
BRANCH   4   5
ATOM      5  C   UNL A   1      41.036  26.162  28.699  1.00  0.00     0.261 C 
BRANCH   5   6
ATOM      6  O   UNL A   1      42.153  26.914  29.140  1.00  0.00    -0.460 OA
BRANCH   6   7
ATOM      7  C   UNL A   1      43.293  26.735  28.473  1.00  0.00     0.339 C 
ATOM      8  O   UNL A   1      43.763  25.675  28.083  1.00  0.00    -0.246 OA
BRANCH   7   9
ATOM      9  C   UNL A   1      43.839  28.063  28.130  1.00  0.00     0.072 A 
ATOM     10  C   UNL A   1      43.994  28.584  26.830  1.00  0.00     0.054 A 
ATOM     11  C   UNL A   1      44.616  29.845  26.702  1.00  0.00     0.015 A 
ATOM     12  C   UNL A   1      45.044  30.571  27.818  1.00  0.00     0.001 A 
ATOM     13  C   UNL A   1      44.266  28.809  29.248  1.00  0.00     0.016 A 
ATOM     14  C   UNL A   1      44.869  30.052  29.093  1.00  0.00     0.001 A 
BRANCH  10  15
ATOM     15  C   UNL A   1      43.682  27.922  25.527  1.00  0.00     0.256 C 
ATOM     16  N   UNL A   1      44.470  27.005  24.857  1.00  0.00    -0.322 N 
ATOM     17  H   UNL A   1      44.089  26.709  23.999  1.00  0.00     0.170 HD
ATOM     18  O   UNL A   1      42.604  28.227  25.003  1.00  0.00    -0.269 OA
BRANCH  16  19
ATOM     19  C   UNL A   1      45.706  26.413  25.158  1.00  0.00     0.042 A 
ATOM     20  C   UNL A   1      47.981  26.823  25.918  1.00  0.00     0.041 A 
ATOM     21  C   UNL A   1      48.016  25.494  26.379  1.00  0.00     0.014 A 
ATOM     22  C   UNL A   1      46.833  27.256  25.250  1.00  0.00     0.040 A 
ATOM     23  C   UNL A   1      46.971  24.609  26.116  1.00  0.00     0.003 A 
ATOM     24  C   UNL A   1      45.830  25.064  25.466  1.00  0.00     0.026 A 
BRANCH  20  25
ATOM     25  C   UNL A   1      49.251  27.582  26.061  1.00  0.00     0.251 C 
ATOM     26  N   UNL A   1      50.325  27.314  26.859  1.00  0.00    -0.346 N 
ATOM     27  H   UNL A   1      50.947  28.076  26.818  1.00  0.00     0.164 HD
ATOM     28  O   UNL A   1      49.356  28.590  25.351  1.00  0.00    -0.269 OA
BRANCH  26  29
ATOM     29  C   UNL A   1      50.886  26.294  27.754  1.00  0.00     0.109 C 
ATOM     30  C   UNL A   1      52.390  26.148  27.795  1.00  0.00     0.036 C 
BRANCH  29  31
ATOM     31  C   UNL A   1      50.244  26.368  29.141  1.00  0.00    -0.026 A 
ATOM     32  C   UNL A   1      50.182  25.277  30.025  1.00  0.00     0.006 A 
ATOM     33  C   UNL A   1      49.611  27.564  29.531  1.00  0.00     0.006 A 
ATOM     34  C   UNL A   1      49.456  25.358  31.219  1.00  0.00     0.000 A 
ATOM     35  C   UNL A   1      48.894  27.646  30.728  1.00  0.00     0.000 A 
ATOM     36  C   UNL A   1      48.803  26.539  31.565  1.00  0.00     0.000 A 
ENDBRANCH  29  31
ENDBRANCH  26  29
ENDBRANCH  20  25
ENDBRANCH  16  19
ENDBRANCH  10  15
ENDBRANCH   7   9
ENDBRANCH   6   7
ENDBRANCH   5   6
ENDBRANCH   4   5
ENDBRANCH   3   4
ENDBRANCH   2   3
ENDBRANCH   1   2
BRANCH   1  37
ATOM     37  O   UNL A   1      36.629  29.274  28.220  1.00  0.00    -0.377 OA
BRANCH  37  38
ATOM     38  C   UNL A   1      35.407  29.898  28.584  1.00  0.00     0.188 C 
BRANCH  38  39
ATOM     39  C   UNL A   1      34.318  29.903  27.496  1.00  0.00     0.188 C 
BRANCH  39  40
ATOM     40  O   UNL A   1      33.790  31.199  27.254  1.00  0.00    -0.376 OA
BRANCH  40  41
ATOM     41  C   UNL A   1      34.489  32.329  27.742  1.00  0.00     0.202 C 
BRANCH  41  42
ATOM     42  C   UNL A   1      33.705  33.360  28.572  1.00  0.00     0.261 C 
BRANCH  42  43
ATOM     43  O   UNL A   1      34.448  34.097  29.554  1.00  0.00    -0.460 OA
BRANCH  43  44
ATOM     44  C   UNL A   1      35.004  33.398  30.567  1.00  0.00     0.338 C 
ATOM     45  O   UNL A   1      34.443  32.592  31.287  1.00  0.00    -0.246 OA
BRANCH  44  46
ATOM     46  C   UNL A   1      36.469  33.605  30.517  1.00  0.00     0.060 A 
ATOM     47  C   UNL A   1      37.190  33.059  29.447  1.00  0.00     0.016 A 
ATOM     48  C   UNL A   1      37.129  34.323  31.518  1.00  0.00     0.016 A 
ATOM     49  C   UNL A   1      38.578  33.175  29.409  1.00  0.00     0.010 A 
ATOM     50  C   UNL A   1      38.523  34.419  31.490  1.00  0.00     0.010 A 
ATOM     51  C   UNL A   1      39.256  33.804  30.461  1.00  0.00    -0.014 A 
BRANCH  51  52
ATOM     52  C   UNL A   1      40.722  33.613  30.588  1.00  0.00     0.031 A 
ATOM     53  C   UNL A   1      41.219  32.465  31.427  1.00  0.00     0.074 A 
ATOM     54  C   UNL A   1      41.592  34.402  29.933  1.00  0.00     0.049 A 
ATOM     55  N   UNL A   1      42.445  32.093  31.686  1.00  0.00    -0.248 NA
ATOM     56  C   UNL A   1      40.190  31.622  32.059  1.00  0.00     0.031 C 
ATOM     57  C   UNL A   1      41.231  35.519  29.062  1.00  0.00     0.029 A 
ATOM     58  N   UNL A   1      42.964  34.382  29.904  1.00  0.00    -0.354 N 
ATOM     59  C   UNL A   1      42.336  30.980  32.514  1.00  0.00     0.074 A 
ATOM     60  C   UNL A   1      40.925  30.758  32.743  1.00  0.00     0.031 C 
ATOM     61  C   UNL A   1      42.356  36.083  28.589  1.00  0.00     0.029 A 
ATOM     62  C   UNL A   1      43.516  35.388  29.148  1.00  0.00     0.049 A 
ATOM     63  H   UNL A   1      43.503  33.709  30.380  1.00  0.00     0.167 HD
ATOM     64  C   UNL A   1      43.321  30.208  33.028  1.00  0.00     0.037 A 
ATOM     65  C   UNL A   1      44.807  35.720  28.948  1.00  0.00     0.037 A 
ATOM     66  C   UNL A   1      44.724  30.436  32.797  1.00  0.00     0.049 A 
ATOM     67  C   UNL A   1      45.889  34.882  29.584  1.00  0.00     0.074 A 
ATOM     68  C   UNL A   1      45.802  29.701  33.256  1.00  0.00     0.029 A 
ATOM     69  N   UNL A   1      45.244  31.486  32.052  1.00  0.00    -0.354 N 
ATOM     70  N   UNL A   1      45.773  33.815  30.340  1.00  0.00    -0.248 NA
ATOM     71  C   UNL A   1      47.278  35.290  29.333  1.00  0.00     0.031 C 
ATOM     72  C   UNL A   1      46.975  30.341  32.841  1.00  0.00     0.029 A 
ATOM     73  C   UNL A   1      46.628  31.434  32.065  1.00  0.00     0.049 A 
ATOM     74  H   UNL A   1      44.708  32.165  31.584  1.00  0.00     0.167 HD
ATOM     75  C   UNL A   1      47.072  33.409  30.629  1.00  0.00     0.074 A 
ATOM     76  C   UNL A   1      47.957  34.335  29.952  1.00  0.00     0.031 C 
ATOM     77  C   UNL A   1      47.497  32.365  31.386  1.00  0.00     0.037 A 
BRANCH  64  78
ATOM     78  C   UNL A   1      42.919  29.062  33.919  1.00  0.00     0.058 A 
ATOM     79  C   UNL A   1      42.780  27.753  33.431  1.00  0.00     0.135 A 
ATOM     80  C   UNL A   1      42.700  29.275  35.290  1.00  0.00     0.135 A 
ATOM     81  F   UNL A   1      42.957  27.494  32.126  1.00  0.00    -0.206 F 
ATOM     82  C   UNL A   1      42.416  26.700  34.266  1.00  0.00     0.059 A 
ATOM     83  C   UNL A   1      42.366  28.232  36.149  1.00  0.00     0.059 A 
ATOM     84  F   UNL A   1      42.812  30.507  35.809  1.00  0.00    -0.206 F 
ATOM     85  C   UNL A   1      42.214  26.950  35.624  1.00  0.00     0.060 A 
BRANCH  85  86
ATOM     86  S   UNL A   1      41.754  25.571  36.695  1.00  0.00     0.124 S 
ATOM     87  O   UNL A   1      40.428  25.236  36.186  1.00  0.00    -0.237 OA
ATOM     88  O   UNL A   1      42.805  24.598  36.415  1.00  0.00    -0.237 OA
ATOM     89  O   UNL A   1      41.783  26.153  38.033  1.00  0.00    -0.744 OA
ENDBRANCH  85  86
ENDBRANCH  64  78
BRANCH  65  90
ATOM     90  C   UNL A   1      45.152  36.906  28.117  1.00  0.00     0.058 A 
ATOM     91  C   UNL A   1      44.992  38.211  28.604  1.00  0.00     0.135 A 
ATOM     92  C   UNL A   1      45.645  36.753  26.810  1.00  0.00     0.135 A 
ATOM     93  F   UNL A   1      44.512  38.411  29.841  1.00  0.00    -0.206 F 
ATOM     94  C   UNL A   1      45.294  39.323  27.824  1.00  0.00     0.059 A 
ATOM     95  C   UNL A   1      45.983  37.848  26.022  1.00  0.00     0.059 A 
ATOM     96  F   UNL A   1      45.826  35.526  26.298  1.00  0.00    -0.206 F 
ATOM     97  C   UNL A   1      45.795  39.130  26.536  1.00  0.00     0.060 A 
BRANCH  97  98
ATOM     98  S   UNL A   1      46.242  40.580  25.556  1.00  0.00     0.124 S 
ATOM     99  O   UNL A   1      46.523  39.983  24.256  1.00  0.00    -0.237 OA
ATOM    100  O   UNL A   1      45.030  41.388  25.643  1.00  0.00    -0.237 OA
ATOM    101  O   UNL A   1      47.398  41.121  26.267  1.00  0.00    -0.744 OA
ENDBRANCH  97  98
ENDBRANCH  65  90
BRANCH  77 102
ATOM    102  C   UNL A   1      48.983  32.143  31.492  1.00  0.00     0.058 A 
ATOM    103  C   UNL A   1      49.747  32.705  32.527  1.00  0.00     0.135 A 
ATOM    104  C   UNL A   1      49.648  31.328  30.559  1.00  0.00     0.135 A 
ATOM    105  F   UNL A   1      49.166  33.493  33.445  1.00  0.00    -0.206 F 
ATOM    106  C   UNL A   1      51.121  32.501  32.611  1.00  0.00     0.059 A 
ATOM    107  C   UNL A   1      51.014  31.082  30.644  1.00  0.00     0.059 A 
ATOM    108  F   UNL A   1      48.966  30.752  29.557  1.00  0.00    -0.206 F 
ATOM    109  C   UNL A   1      51.746  31.688  31.663  1.00  0.00     0.060 A 
BRANCH 109 110
ATOM    110  S   UNL A   1      53.528  31.427  31.787  1.00  0.00     0.124 S 
ATOM    111  O   UNL A   1      53.843  30.913  30.459  1.00  0.00    -0.237 OA
ATOM    112  O   UNL A   1      54.020  32.770  32.081  1.00  0.00    -0.237 OA
ATOM    113  O   UNL A   1      53.657  30.467  32.878  1.00  0.00    -0.744 OA
ENDBRANCH 109 110
ENDBRANCH  77 102
ENDBRANCH  51  52
ENDBRANCH  44  46
ENDBRANCH  43  44
ENDBRANCH  42  43
ENDBRANCH  41  42
ENDBRANCH  40  41
ENDBRANCH  39  40
ENDBRANCH  38  39
ENDBRANCH  37  38
ENDBRANCH   1  37
TORSDOF 28
ENDMDL
MODEL 2
REMARK VINA RESULT:      -6.8      6.304      8.358
REMARK SMILES C[C@H](NC(=O)c1cccc(NC(=O)c2ccccc2C(=O)OCCOCCOCCOCCOC(=O)c2ccc(-c3c4nc(c(-c5c(F)cc(S(=O)(=O)[O-])cc5F)c5ccc([nH]5)c(-c5c(F)cc(S(=O)(=O)[O-])cc5F)c5nc(c(-c6c(F)cc(S(=O)(=O)[O-])cc6F)c6ccc3[nH]6)C=C5)C=C4)cc2)c1)c1ccccc1
REMARK SMILES IDX 27 1 26 2 25 3 24 4 23 5 22 6 20 7 21 8 19 9 14 10 15 11
REMARK SMILES IDX 16 12 18 13 17 14 12 15 11 16 13 18 10 19 6 20 7 21 103 22
REMARK SMILES IDX 8 23 9 24 4 25 3 26 5 28 2 29 1 30 104 31 105 32 109 33
REMARK SMILES IDX 106 34 108 35 107 36 28 37 29 38 30 39 31 40 32 41 33 42
REMARK SMILES IDX 34 43 35 44 36 45 37 46 38 47 102 48 39 49 101 50 40 51
REMARK SMILES IDX 41 52 42 53 95 54 43 55 100 56 94 57 96 58 44 59 99 60 93 61
REMARK SMILES IDX 92 62 45 64 79 65 58 66 78 67 59 68 62 69 77 70 97 71 60 72
REMARK SMILES IDX 61 73 76 75 98 76 63 77 46 78 47 79 56 80 48 81 49 82 55 83
REMARK SMILES IDX 57 84 50 85 51 86 52 87 53 88 54 89 80 90 81 91 90 92 82 93
REMARK SMILES IDX 83 94 89 95 91 96 84 97 85 98 86 99 87 100 88 101 64 102
REMARK SMILES IDX 65 103 74 104 66 105 67 106 73 107 75 108 68 109 69 110
REMARK SMILES IDX 70 111 71 112 72 113
REMARK H PARENT 11 17 3 27 96 63 62 74
REMARK Flexibility Score: inf
ROOT
ATOM      1  C   UNL A   1      37.361  32.856  29.456  1.00  0.00     0.188 C 
ENDROOT
BRANCH   1   2
ATOM      2  C   UNL A   1      37.033  31.366  29.210  1.00  0.00     0.188 C 
BRANCH   2   3
ATOM      3  O   UNL A   1      37.960  30.330  29.496  1.00  0.00    -0.376 OA
BRANCH   3   4
ATOM      4  C   UNL A   1      37.604  29.184  30.239  1.00  0.00     0.202 C 
BRANCH   4   5
ATOM      5  C   UNL A   1      38.616  28.314  30.984  1.00  0.00     0.261 C 
BRANCH   5   6
ATOM      6  O   UNL A   1      39.412  27.393  30.258  1.00  0.00    -0.460 OA
BRANCH   6   7
ATOM      7  C   UNL A   1      40.588  27.839  29.817  1.00  0.00     0.339 C 
ATOM      8  O   UNL A   1      41.272  28.728  30.305  1.00  0.00    -0.246 OA
BRANCH   7   9
ATOM      9  C   UNL A   1      41.025  26.965  28.710  1.00  0.00     0.072 A 
ATOM     10  C   UNL A   1      42.287  26.350  28.590  1.00  0.00     0.054 A 
ATOM     11  C   UNL A   1      42.546  25.616  27.412  1.00  0.00     0.015 A 
ATOM     12  C   UNL A   1      41.584  25.477  26.405  1.00  0.00     0.001 A 
ATOM     13  C   UNL A   1      40.060  26.810  27.693  1.00  0.00     0.016 A 
ATOM     14  C   UNL A   1      40.340  26.074  26.547  1.00  0.00     0.001 A 
BRANCH  10  15
ATOM     15  C   UNL A   1      43.459  26.459  29.511  1.00  0.00     0.256 C 
ATOM     16  N   UNL A   1      44.269  27.565  29.688  1.00  0.00    -0.322 N 
ATOM     17  H   UNL A   1      45.003  27.418  30.327  1.00  0.00     0.170 HD
ATOM     18  O   UNL A   1      43.722  25.455  30.183  1.00  0.00    -0.269 OA
BRANCH  16  19
ATOM     19  C   UNL A   1      44.252  28.855  29.137  1.00  0.00     0.042 A 
ATOM     20  C   UNL A   1      44.986  31.156  29.423  1.00  0.00     0.041 A 
ATOM     21  C   UNL A   1      44.899  31.309  28.027  1.00  0.00     0.014 A 
ATOM     22  C   UNL A   1      44.600  29.934  29.976  1.00  0.00     0.040 A 
ATOM     23  C   UNL A   1      44.373  30.300  27.221  1.00  0.00     0.003 A 
ATOM     24  C   UNL A   1      44.011  29.084  27.787  1.00  0.00     0.026 A 
BRANCH  20  25
ATOM     25  C   UNL A   1      45.342  32.386  30.179  1.00  0.00     0.251 C 
ATOM     26  N   UNL A   1      44.547  33.440  30.528  1.00  0.00    -0.346 N 
ATOM     27  H   UNL A   1      45.112  34.150  30.908  1.00  0.00     0.164 HD
ATOM     28  O   UNL A   1      46.518  32.463  30.556  1.00  0.00    -0.269 OA
BRANCH  26  29
ATOM     29  C   UNL A   1      43.150  33.891  30.539  1.00  0.00     0.109 C 
ATOM     30  C   UNL A   1      42.509  34.220  29.211  1.00  0.00     0.036 C 
BRANCH  29  31
ATOM     31  C   UNL A   1      42.288  32.986  31.423  1.00  0.00    -0.026 A 
ATOM     32  C   UNL A   1      42.788  32.283  32.532  1.00  0.00     0.006 A 
ATOM     33  C   UNL A   1      40.941  32.779  31.068  1.00  0.00     0.006 A 
ATOM     34  C   UNL A   1      41.992  31.357  33.217  1.00  0.00     0.000 A 
ATOM     35  C   UNL A   1      40.144  31.861  31.759  1.00  0.00     0.000 A 
ATOM     36  C   UNL A   1      40.674  31.139  32.824  1.00  0.00     0.000 A 
ENDBRANCH  29  31
ENDBRANCH  26  29
ENDBRANCH  20  25
ENDBRANCH  16  19
ENDBRANCH  10  15
ENDBRANCH   7   9
ENDBRANCH   6   7
ENDBRANCH   5   6
ENDBRANCH   4   5
ENDBRANCH   3   4
ENDBRANCH   2   3
ENDBRANCH   1   2
BRANCH   1  37
ATOM     37  O   UNL A   1      36.440  33.768  28.875  1.00  0.00    -0.377 OA
BRANCH  37  38
ATOM     38  C   UNL A   1      35.454  33.201  28.025  1.00  0.00     0.188 C 
BRANCH  38  39
ATOM     39  C   UNL A   1      34.074  33.881  28.069  1.00  0.00     0.188 C 
BRANCH  39  40
ATOM     40  O   UNL A   1      34.090  35.114  28.774  1.00  0.00    -0.376 OA
BRANCH  40  41
ATOM     41  C   UNL A   1      33.265  35.264  29.915  1.00  0.00     0.202 C 
BRANCH  41  42
ATOM     42  C   UNL A   1      33.939  35.274  31.298  1.00  0.00     0.261 C 
BRANCH  42  43
ATOM     43  O   UNL A   1      33.593  34.206  32.192  1.00  0.00    -0.460 OA
BRANCH  43  44
ATOM     44  C   UNL A   1      34.334  33.079  32.130  1.00  0.00     0.338 C 
ATOM     45  O   UNL A   1      34.344  32.264  31.226  1.00  0.00    -0.246 OA
BRANCH  44  46
ATOM     46  C   UNL A   1      35.305  33.107  33.248  1.00  0.00     0.060 A 
ATOM     47  C   UNL A   1      35.165  34.090  34.236  1.00  0.00     0.016 A 
ATOM     48  C   UNL A   1      36.350  32.181  33.317  1.00  0.00     0.016 A 
ATOM     49  C   UNL A   1      36.104  34.188  35.261  1.00  0.00     0.010 A 
ATOM     50  C   UNL A   1      37.303  32.295  34.333  1.00  0.00     0.010 A 
ATOM     51  C   UNL A   1      37.209  33.329  35.281  1.00  0.00    -0.014 A 
BRANCH  51  52
ATOM     52  C   UNL A   1      38.366  33.664  36.149  1.00  0.00     0.031 A 
ATOM     53  C   UNL A   1      38.265  33.353  37.619  1.00  0.00     0.074 A 
ATOM     54  C   UNL A   1      39.499  34.180  35.640  1.00  0.00     0.049 A 
ATOM     55  N   UNL A   1      39.136  33.547  38.573  1.00  0.00    -0.248 NA
ATOM     56  C   UNL A   1      37.006  32.736  38.073  1.00  0.00     0.031 C 
ATOM     57  C   UNL A   1      39.729  34.487  34.230  1.00  0.00     0.029 A 
ATOM     58  N   UNL A   1      40.669  34.538  36.260  1.00  0.00    -0.354 N 
ATOM     59  C   UNL A   1      38.533  33.086  39.738  1.00  0.00     0.074 A 
ATOM     60  C   UNL A   1      37.207  32.634  39.378  1.00  0.00     0.031 C 
ATOM     61  C   UNL A   1      40.966  34.997  34.093  1.00  0.00     0.029 A 
ATOM     62  C   UNL A   1      41.602  35.081  35.408  1.00  0.00     0.049 A 
ATOM     63  H   UNL A   1      40.828  34.418  37.224  1.00  0.00     0.167 HD
ATOM     64  C   UNL A   1      39.040  33.034  40.992  1.00  0.00     0.037 A 
ATOM     65  C   UNL A   1      42.818  35.601  35.665  1.00  0.00     0.037 A 
ATOM     66  C   UNL A   1      40.360  33.488  41.342  1.00  0.00     0.049 A 
ATOM     67  C   UNL A   1      43.338  35.592  37.082  1.00  0.00     0.074 A 
ATOM     68  C   UNL A   1      40.978  33.463  42.580  1.00  0.00     0.029 A 
ATOM     69  N   UNL A   1      41.263  34.062  40.457  1.00  0.00    -0.354 N 
ATOM     70  N   UNL A   1      42.769  35.125  38.169  1.00  0.00    -0.248 NA
ATOM     71  C   UNL A   1      44.669  36.173  37.304  1.00  0.00     0.031 C 
ATOM     72  C   UNL A   1      42.229  34.077  42.456  1.00  0.00     0.029 A 
ATOM     73  C   UNL A   1      42.420  34.422  41.129  1.00  0.00     0.049 A 
ATOM     74  H   UNL A   1      41.104  34.193  39.495  1.00  0.00     0.167 HD
ATOM     75  C   UNL A   1      43.685  35.331  39.197  1.00  0.00     0.074 A 
ATOM     76  C   UNL A   1      44.851  35.947  38.597  1.00  0.00     0.031 C 
ATOM     77  C   UNL A   1      43.573  35.037  40.517  1.00  0.00     0.037 A 
BRANCH  64  78
ATOM     78  C   UNL A   1      38.153  32.498  42.084  1.00  0.00     0.058 A 
ATOM     79  C   UNL A   1      37.162  33.284  42.693  1.00  0.00     0.135 A 
ATOM     80  C   UNL A   1      38.278  31.163  42.505  1.00  0.00     0.135 A 
ATOM     81  F   UNL A   1      37.011  34.572  42.345  1.00  0.00    -0.206 F 
ATOM     82  C   UNL A   1      36.342  32.774  43.695  1.00  0.00     0.059 A 
ATOM     83  C   UNL A   1      37.449  30.624  43.484  1.00  0.00     0.059 A 
ATOM     84  F   UNL A   1      39.213  30.368  41.962  1.00  0.00    -0.206 F 
ATOM     85  C   UNL A   1      36.492  31.441  44.082  1.00  0.00     0.060 A 
BRANCH  85  86
ATOM     86  S   UNL A   1      35.413  30.792  45.376  1.00  0.00     0.124 S 
ATOM     87  O   UNL A   1      36.103  29.559  45.740  1.00  0.00    -0.237 OA
ATOM     88  O   UNL A   1      35.450  31.858  46.373  1.00  0.00    -0.237 OA
ATOM     89  O   UNL A   1      34.133  30.617  44.697  1.00  0.00    -0.744 OA
ENDBRANCH  85  86
ENDBRANCH  64  78
BRANCH  65  90
ATOM     90  C   UNL A   1      43.628  36.186  34.561  1.00  0.00     0.058 A 
ATOM     91  C   UNL A   1      44.621  35.439  33.910  1.00  0.00     0.135 A 
ATOM     92  C   UNL A   1      43.428  37.511  34.141  1.00  0.00     0.135 A 
ATOM     93  F   UNL A   1      44.861  34.173  34.282  1.00  0.00    -0.206 F 
ATOM     94  C   UNL A   1      45.395  35.988  32.892  1.00  0.00     0.059 A 
ATOM     95  C   UNL A   1      44.168  38.072  33.105  1.00  0.00     0.059 A 
ATOM     96  F   UNL A   1      42.485  38.267  34.726  1.00  0.00    -0.206 F 
ATOM     97  C   UNL A   1      45.156  37.303  32.493  1.00  0.00     0.060 A 
BRANCH  97  98
ATOM     98  S   UNL A   1      46.124  37.982  31.128  1.00  0.00     0.124 S 
ATOM     99  O   UNL A   1      46.241  36.828  30.245  1.00  0.00    -0.237 OA
ATOM    100  O   UNL A   1      45.265  39.064  30.657  1.00  0.00    -0.237 OA
ATOM    101  O   UNL A   1      47.361  38.411  31.776  1.00  0.00    -0.744 OA
ENDBRANCH  97  98
ENDBRANCH  65  90
BRANCH  77 102
ATOM    102  C   UNL A   1      44.756  35.342  41.399  1.00  0.00     0.058 A 
ATOM    103  C   UNL A   1      44.890  36.570  42.065  1.00  0.00     0.135 A 
ATOM    104  C   UNL A   1      45.756  34.375  41.605  1.00  0.00     0.135 A 
ATOM    105  F   UNL A   1      43.967  37.530  41.904  1.00  0.00    -0.206 F 
ATOM    106  C   UNL A   1      45.991  36.844  42.871  1.00  0.00     0.059 A 
ATOM    107  C   UNL A   1      46.847  34.615  42.435  1.00  0.00     0.059 A 
ATOM    108  F   UNL A   1      45.672  33.177  41.007  1.00  0.00    -0.206 F 
ATOM    109  C   UNL A   1      46.965  35.860  43.049  1.00  0.00     0.060 A 
BRANCH 109 110
ATOM    110  S   UNL A   1      48.385  36.228  44.101  1.00  0.00     0.124 S 
ATOM    111  O   UNL A   1      49.499  35.893  43.220  1.00  0.00    -0.237 OA
ATOM    112  O   UNL A   1      48.204  37.649  44.383  1.00  0.00    -0.237 OA
ATOM    113  O   UNL A   1      48.201  35.341  45.245  1.00  0.00    -0.744 OA
ENDBRANCH 109 110
ENDBRANCH  77 102
ENDBRANCH  51  52
ENDBRANCH  44  46
ENDBRANCH  43  44
ENDBRANCH  42  43
ENDBRANCH  41  42
ENDBRANCH  40  41
ENDBRANCH  39  40
ENDBRANCH  38  39
ENDBRANCH  37  38
ENDBRANCH   1  37
TORSDOF 28
ENDMDL
MODEL 3
REMARK VINA RESULT:      -6.8      6.545     10.757
REMARK SMILES C[C@H](NC(=O)c1cccc(NC(=O)c2ccccc2C(=O)OCCOCCOCCOCCOC(=O)c2ccc(-c3c4nc(c(-c5c(F)cc(S(=O)(=O)[O-])cc5F)c5ccc([nH]5)c(-c5c(F)cc(S(=O)(=O)[O-])cc5F)c5nc(c(-c6c(F)cc(S(=O)(=O)[O-])cc6F)c6ccc3[nH]6)C=C5)C=C4)cc2)c1)c1ccccc1
REMARK SMILES IDX 27 1 26 2 25 3 24 4 23 5 22 6 20 7 21 8 19 9 14 10 15 11
REMARK SMILES IDX 16 12 18 13 17 14 12 15 11 16 13 18 10 19 6 20 7 21 103 22
REMARK SMILES IDX 8 23 9 24 4 25 3 26 5 28 2 29 1 30 104 31 105 32 109 33
REMARK SMILES IDX 106 34 108 35 107 36 28 37 29 38 30 39 31 40 32 41 33 42
REMARK SMILES IDX 34 43 35 44 36 45 37 46 38 47 102 48 39 49 101 50 40 51
REMARK SMILES IDX 41 52 42 53 95 54 43 55 100 56 94 57 96 58 44 59 99 60 93 61
REMARK SMILES IDX 92 62 45 64 79 65 58 66 78 67 59 68 62 69 77 70 97 71 60 72
REMARK SMILES IDX 61 73 76 75 98 76 63 77 46 78 47 79 56 80 48 81 49 82 55 83
REMARK SMILES IDX 57 84 50 85 51 86 52 87 53 88 54 89 80 90 81 91 90 92 82 93
REMARK SMILES IDX 83 94 89 95 91 96 84 97 85 98 86 99 87 100 88 101 64 102
REMARK SMILES IDX 65 103 74 104 66 105 67 106 73 107 75 108 68 109 69 110
REMARK SMILES IDX 70 111 71 112 72 113
REMARK H PARENT 11 17 3 27 96 63 62 74
REMARK Flexibility Score: inf
ROOT
ATOM      1  C   UNL A   1      38.765  31.926  30.257  1.00  0.00     0.188 C 
ENDROOT
BRANCH   1   2
ATOM      2  C   UNL A   1      38.524  30.400  30.219  1.00  0.00     0.188 C 
BRANCH   2   3
ATOM      3  O   UNL A   1      39.552  29.464  30.505  1.00  0.00    -0.376 OA
BRANCH   3   4
ATOM      4  C   UNL A   1      40.318  28.854  29.488  1.00  0.00     0.202 C 
BRANCH   4   5
ATOM      5  C   UNL A   1      39.832  27.659  28.669  1.00  0.00     0.261 C 
BRANCH   5   6
ATOM      6  O   UNL A   1      40.205  26.348  29.058  1.00  0.00    -0.460 OA
BRANCH   6   7
ATOM      7  C   UNL A   1      41.192  25.779  28.367  1.00  0.00     0.339 C 
ATOM      8  O   UNL A   1      42.355  26.149  28.297  1.00  0.00    -0.246 OA
BRANCH   7   9
ATOM      9  C   UNL A   1      40.689  24.507  27.809  1.00  0.00     0.072 A 
ATOM     10  C   UNL A   1      41.293  23.243  27.955  1.00  0.00     0.054 A 
ATOM     11  C   UNL A   1      40.704  22.155  27.274  1.00  0.00     0.015 A 
ATOM     12  C   UNL A   1      39.549  22.310  26.500  1.00  0.00     0.001 A 
ATOM     13  C   UNL A   1      39.519  24.649  27.034  1.00  0.00     0.016 A 
ATOM     14  C   UNL A   1      38.956  23.559  26.381  1.00  0.00     0.001 A 
BRANCH  10  15
ATOM     15  C   UNL A   1      42.567  22.904  28.660  1.00  0.00     0.256 C 
ATOM     16  N   UNL A   1      43.823  22.807  28.094  1.00  0.00    -0.322 N 
ATOM     17  H   UNL A   1      44.526  22.547  28.733  1.00  0.00     0.170 HD
ATOM     18  O   UNL A   1      42.479  22.695  29.876  1.00  0.00    -0.269 OA
BRANCH  16  19
ATOM     19  C   UNL A   1      44.296  23.003  26.787  1.00  0.00     0.042 A 
ATOM     20  C   UNL A   1      45.839  24.266  25.394  1.00  0.00     0.041 A 
ATOM     21  C   UNL A   1      45.825  23.190  24.486  1.00  0.00     0.014 A 
ATOM     22  C   UNL A   1      45.017  24.185  26.520  1.00  0.00     0.040 A 
ATOM     23  C   UNL A   1      44.964  22.108  24.661  1.00  0.00     0.003 A 
ATOM     24  C   UNL A   1      44.168  22.037  25.797  1.00  0.00     0.026 A 
BRANCH  20  25
ATOM     25  C   UNL A   1      46.625  25.452  24.965  1.00  0.00     0.251 C 
ATOM     26  N   UNL A   1      46.596  26.725  25.457  1.00  0.00    -0.346 N 
ATOM     27  H   UNL A   1      47.139  27.302  24.874  1.00  0.00     0.164 HD
ATOM     28  O   UNL A   1      47.428  25.259  24.044  1.00  0.00    -0.269 OA
BRANCH  26  29
ATOM     29  C   UNL A   1      46.044  27.540  26.547  1.00  0.00     0.109 C 
ATOM     30  C   UNL A   1      46.916  28.636  27.113  1.00  0.00     0.036 C 
BRANCH  29  31
ATOM     31  C   UNL A   1      44.621  28.002  26.222  1.00  0.00    -0.026 A 
ATOM     32  C   UNL A   1      44.000  29.095  26.850  1.00  0.00     0.006 A 
ATOM     33  C   UNL A   1      43.859  27.251  25.307  1.00  0.00     0.006 A 
ATOM     34  C   UNL A   1      42.649  29.384  26.621  1.00  0.00     0.000 A 
ATOM     35  C   UNL A   1      42.513  27.547  25.072  1.00  0.00     0.000 A 
ATOM     36  C   UNL A   1      41.903  28.603  25.741  1.00  0.00     0.000 A 
ENDBRANCH  29  31
ENDBRANCH  26  29
ENDBRANCH  20  25
ENDBRANCH  16  19
ENDBRANCH  10  15
ENDBRANCH   7   9
ENDBRANCH   6   7
ENDBRANCH   5   6
ENDBRANCH   4   5
ENDBRANCH   3   4
ENDBRANCH   2   3
ENDBRANCH   1   2
BRANCH   1  37
ATOM     37  O   UNL A   1      37.821  32.693  29.524  1.00  0.00    -0.377 OA
BRANCH  37  38
ATOM     38  C   UNL A   1      37.031  31.978  28.587  1.00  0.00     0.188 C 
BRANCH  38  39
ATOM     39  C   UNL A   1      35.848  32.759  27.987  1.00  0.00     0.188 C 
BRANCH  39  40
ATOM     40  O   UNL A   1      35.723  34.067  28.526  1.00  0.00    -0.376 OA
BRANCH  40  41
ATOM     41  C   UNL A   1      34.493  34.456  29.109  1.00  0.00     0.202 C 
BRANCH  41  42
ATOM     42  C   UNL A   1      34.504  34.922  30.575  1.00  0.00     0.261 C 
BRANCH  42  43
ATOM     43  O   UNL A   1      33.934  34.028  31.541  1.00  0.00    -0.460 OA
BRANCH  43  44
ATOM     44  C   UNL A   1      34.545  32.838  31.723  1.00  0.00     0.338 C 
ATOM     45  O   UNL A   1      34.585  31.913  30.932  1.00  0.00    -0.246 OA
BRANCH  44  46
ATOM     46  C   UNL A   1      35.354  32.922  32.961  1.00  0.00     0.060 A 
ATOM     47  C   UNL A   1      35.144  34.002  33.829  1.00  0.00     0.016 A 
ATOM     48  C   UNL A   1      36.316  31.953  33.259  1.00  0.00     0.016 A 
ATOM     49  C   UNL A   1      35.938  34.148  34.965  1.00  0.00     0.010 A 
ATOM     50  C   UNL A   1      37.126  32.114  34.387  1.00  0.00     0.010 A 
ATOM     51  C   UNL A   1      36.972  33.238  35.217  1.00  0.00    -0.014 A 
BRANCH  51  52
ATOM     52  C   UNL A   1      38.017  33.593  36.209  1.00  0.00     0.031 A 
ATOM     53  C   UNL A   1      39.269  34.267  35.711  1.00  0.00     0.074 A 
ATOM     54  C   UNL A   1      37.840  33.376  37.524  1.00  0.00     0.049 A 
ATOM     55  N   UNL A   1      40.316  34.674  36.378  1.00  0.00    -0.248 NA
ATOM     56  C   UNL A   1      39.348  34.514  34.261  1.00  0.00     0.031 C 
ATOM     57  C   UNL A   1      36.656  32.768  38.129  1.00  0.00     0.029 A 
ATOM     58  N   UNL A   1      38.663  33.643  38.589  1.00  0.00    -0.354 N 
ATOM     59  C   UNL A   1      41.180  35.218  35.432  1.00  0.00     0.074 A 
ATOM     60  C   UNL A   1      40.549  35.057  34.141  1.00  0.00     0.031 C 
ATOM     61  C   UNL A   1      36.833  32.701  39.460  1.00  0.00     0.029 A 
ATOM     62  C   UNL A   1      38.154  33.232  39.797  1.00  0.00     0.049 A 
ATOM     63  H   UNL A   1      39.537  34.088  38.496  1.00  0.00     0.167 HD
ATOM     64  C   UNL A   1      42.383  35.807  35.624  1.00  0.00     0.037 A 
ATOM     65  C   UNL A   1      38.701  33.264  41.029  1.00  0.00     0.037 A 
ATOM     66  C   UNL A   1      43.005  35.962  36.913  1.00  0.00     0.049 A 
ATOM     67  C   UNL A   1      40.072  33.868  41.210  1.00  0.00     0.074 A 
ATOM     68  C   UNL A   1      44.214  36.561  37.219  1.00  0.00     0.029 A 
ATOM     69  N   UNL A   1      42.473  35.503  38.111  1.00  0.00    -0.354 N 
ATOM     70  N   UNL A   1      40.865  34.405  40.312  1.00  0.00    -0.248 NA
ATOM     71  C   UNL A   1      40.619  33.875  42.574  1.00  0.00     0.031 C 
ATOM     72  C   UNL A   1      44.442  36.409  38.591  1.00  0.00     0.029 A 
ATOM     73  C   UNL A   1      43.344  35.779  39.152  1.00  0.00     0.049 A 
ATOM     74  H   UNL A   1      41.604  35.049  38.205  1.00  0.00     0.167 HD
ATOM     75  C   UNL A   1      41.989  34.840  41.008  1.00  0.00     0.074 A 
ATOM     76  C   UNL A   1      41.765  34.518  42.403  1.00  0.00     0.031 C 
ATOM     77  C   UNL A   1      43.107  35.451  40.537  1.00  0.00     0.037 A 
BRANCH  64  78
ATOM     78  C   UNL A   1      43.123  36.299  34.408  1.00  0.00     0.058 A 
ATOM     79  C   UNL A   1      43.072  37.641  33.998  1.00  0.00     0.135 A 
ATOM     80  C   UNL A   1      43.921  35.417  33.661  1.00  0.00     0.135 A 
ATOM     81  F   UNL A   1      42.309  38.523  34.661  1.00  0.00    -0.206 F 
ATOM     82  C   UNL A   1      43.767  38.085  32.877  1.00  0.00     0.059 A 
ATOM     83  C   UNL A   1      44.649  35.847  32.555  1.00  0.00     0.059 A 
ATOM     84  F   UNL A   1      44.002  34.123  34.004  1.00  0.00    -0.206 F 
ATOM     85  C   UNL A   1      44.555  37.181  32.164  1.00  0.00     0.060 A 
BRANCH  85  86
ATOM     86  S   UNL A   1      45.460  37.777  30.720  1.00  0.00     0.124 S 
ATOM     87  O   UNL A   1      45.762  36.528  30.028  1.00  0.00    -0.237 OA
ATOM     88  O   UNL A   1      44.475  38.638  30.072  1.00  0.00    -0.237 OA
ATOM     89  O   UNL A   1      46.609  38.467  31.297  1.00  0.00    -0.744 OA
ENDBRANCH  85  86
ENDBRANCH  64  78
BRANCH  65  90
ATOM     90  C   UNL A   1      37.959  32.699  42.190  1.00  0.00     0.058 A 
ATOM     91  C   UNL A   1      37.184  33.515  43.027  1.00  0.00     0.135 A 
ATOM     92  C   UNL A   1      38.018  31.328  42.488  1.00  0.00     0.135 A 
ATOM     93  F   UNL A   1      37.104  34.833  42.794  1.00  0.00    -0.206 F 
ATOM     94  C   UNL A   1      36.505  32.996  44.125  1.00  0.00     0.059 A 
ATOM     95  C   UNL A   1      37.325  30.781  43.562  1.00  0.00     0.059 A 
ATOM     96  F   UNL A   1      38.740  30.502  41.714  1.00  0.00    -0.206 F 
ATOM     97  C   UNL A   1      36.577  31.625  44.380  1.00  0.00     0.060 A 
BRANCH  97  98
ATOM     98  S   UNL A   1      35.641  30.955  45.772  1.00  0.00     0.124 S 
ATOM     99  O   UNL A   1      36.239  31.661  46.898  1.00  0.00    -0.237 OA
ATOM    100  O   UNL A   1      34.275  31.336  45.428  1.00  0.00    -0.237 OA
ATOM    101  O   UNL A   1      35.919  29.523  45.703  1.00  0.00    -0.744 OA
ENDBRANCH  97  98
ENDBRANCH  65  90
BRANCH  77 102
ATOM    102  C   UNL A   1      44.157  35.847  41.542  1.00  0.00     0.058 A 
ATOM    103  C   UNL A   1      44.140  37.095  42.183  1.00  0.00     0.135 A 
ATOM    104  C   UNL A   1      45.181  34.948  41.891  1.00  0.00     0.135 A 
ATOM    105  F   UNL A   1      43.188  37.993  41.888  1.00  0.00    -0.206 F 
ATOM    106  C   UNL A   1      45.121  37.454  43.104  1.00  0.00     0.059 A 
ATOM    107  C   UNL A   1      46.150  35.271  42.834  1.00  0.00     0.059 A 
ATOM    108  F   UNL A   1      45.238  33.734  41.321  1.00  0.00    -0.206 F 
ATOM    109  C   UNL A   1      46.123  36.535  43.421  1.00  0.00     0.060 A 
BRANCH 109 110
ATOM    110  S   UNL A   1      47.385  37.011  44.621  1.00  0.00     0.124 S 
ATOM    111  O   UNL A   1      47.238  38.462  44.642  1.00  0.00    -0.237 OA
ATOM    112  O   UNL A   1      46.949  36.311  45.826  1.00  0.00    -0.237 OA
ATOM    113  O   UNL A   1      48.623  36.515  44.029  1.00  0.00    -0.744 OA
ENDBRANCH 109 110
ENDBRANCH  77 102
ENDBRANCH  51  52
ENDBRANCH  44  46
ENDBRANCH  43  44
ENDBRANCH  42  43
ENDBRANCH  41  42
ENDBRANCH  40  41
ENDBRANCH  39  40
ENDBRANCH  38  39
ENDBRANCH  37  38
ENDBRANCH   1  37
TORSDOF 28
ENDMDL
