MODEL 1
REMARK VINA RESULT:     -10.1      0.000      0.000
REMARK SMILES Cc1ccc(-c2cccc(F)c2C(=O)OCCOCCOCCOCCOC(=O)c2ccc(-c3c4nc(c(-c5c(F)cc(S(=O)(=O)[O-])cc5F)c5ccc([nH]5)c(-c5c(F)cc(S(=O)(=O)[O-])cc5F)c5nc(c(-c6c(F)cc(S(=O)(=O)[O-])cc6F)c6ccc3[nH]6)C=C5)C=C4)cc2)c(C)c1
REMARK SMILES IDX 22 1 21 2 20 3 19 4 18 5 17 6 16 7 15 8 13 9 14 10 12 11
REMARK SMILES IDX 6 12 7 13 8 14 10 15 9 16 11 17 5 18 1 19 2 20 3 21 98 22
REMARK SMILES IDX 4 23 96 24 97 25 23 26 24 27 25 28 26 29 27 30 28 31 29 32
REMARK SMILES IDX 30 33 31 34 95 35 32 36 94 37 33 38 34 39 35 40 88 41 36 42
REMARK SMILES IDX 93 43 87 44 89 45 37 46 92 47 86 48 85 49 38 51 72 52 51 53
REMARK SMILES IDX 71 54 52 55 55 56 70 57 90 58 53 59 54 60 69 62 91 63 56 64
REMARK SMILES IDX 39 65 40 66 49 67 41 68 42 69 48 70 50 71 43 72 44 73 45 74
REMARK SMILES IDX 46 75 47 76 73 77 74 78 83 79 75 80 76 81 82 82 84 83 77 84
REMARK SMILES IDX 78 85 79 86 80 87 81 88 57 89 58 90 67 91 59 92 60 93 66 94
REMARK SMILES IDX 68 95 61 96 62 97 63 98 64 99 65 100
REMARK H PARENT 89 50 55 61
REMARK Flexibility Score: inf
ROOT
ATOM      1  C   UNL A   1      38.271  22.700  25.631  1.00  0.00     0.188 C 
ENDROOT
BRANCH   1   2
ATOM      2  O   UNL A   1      37.268  22.853  24.642  1.00  0.00    -0.377 OA
BRANCH   2   3
ATOM      3  C   UNL A   1      35.920  22.599  25.023  1.00  0.00     0.188 C 
BRANCH   3   4
ATOM      4  C   UNL A   1      35.304  23.113  26.351  1.00  0.00     0.188 C 
BRANCH   4   5
ATOM      5  O   UNL A   1      33.998  23.655  26.208  1.00  0.00    -0.376 OA
BRANCH   5   6
ATOM      6  C   UNL A   1      32.912  22.871  26.672  1.00  0.00     0.202 C 
BRANCH   6   7
ATOM      7  C   UNL A   1      31.592  23.621  26.869  1.00  0.00     0.261 C 
BRANCH   7   8
ATOM      8  O   UNL A   1      31.665  25.026  26.586  1.00  0.00    -0.460 OA
BRANCH   8   9
ATOM      9  C   UNL A   1      30.865  25.555  25.632  1.00  0.00     0.341 C 
ATOM     10  O   UNL A   1      29.727  25.957  25.792  1.00  0.00    -0.246 OA
BRANCH   9  11
ATOM     11  C   UNL A   1      31.657  25.649  24.374  1.00  0.00     0.103 A 
ATOM     12  C   UNL A   1      32.547  26.716  24.086  1.00  0.00    -0.001 A 
ATOM     13  C   UNL A   1      33.207  26.703  22.837  1.00  0.00     0.010 A 
ATOM     14  C   UNL A   1      33.059  25.645  21.937  1.00  0.00     0.004 A 
ATOM     15  C   UNL A   1      31.525  24.593  23.458  1.00  0.00     0.138 A 
ATOM     16  C   UNL A   1      32.232  24.578  22.260  1.00  0.00     0.040 A 
ATOM     17  F   UNL A   1      30.716  23.555  23.712  1.00  0.00    -0.206 F 
BRANCH  12  18
ATOM     18  C   UNL A   1      32.874  27.808  25.031  1.00  0.00    -0.014 A 
ATOM     19  C   UNL A   1      34.161  31.025  27.643  1.00  0.00     0.044 C 
ATOM     20  C   UNL A   1      33.674  29.885  26.799  1.00  0.00    -0.051 A 
ATOM     21  C   UNL A   1      34.304  28.642  26.833  1.00  0.00     0.004 A 
ATOM     22  C   UNL A   1      32.610  30.073  25.914  1.00  0.00     0.007 A 
ATOM     23  C   UNL A   1      33.910  27.622  25.960  1.00  0.00     0.009 A 
ATOM     24  C   UNL A   1      32.174  29.041  25.061  1.00  0.00    -0.043 A 
ATOM     25  C   UNL A   1      30.931  29.328  24.260  1.00  0.00     0.045 C 
ENDBRANCH  12  18
ENDBRANCH   9  11
ENDBRANCH   8   9
ENDBRANCH   7   8
ENDBRANCH   6   7
ENDBRANCH   5   6
ENDBRANCH   4   5
ENDBRANCH   3   4
ENDBRANCH   2   3
ENDBRANCH   1   2
BRANCH   1  26
ATOM     26  C   UNL A   1      38.784  21.252  25.758  1.00  0.00     0.188 C 
BRANCH  26  27
ATOM     27  O   UNL A   1      39.727  21.082  26.811  1.00  0.00    -0.376 OA
BRANCH  27  28
ATOM     28  C   UNL A   1      41.091  20.876  26.489  1.00  0.00     0.202 C 
BRANCH  28  29
ATOM     29  C   UNL A   1      42.036  22.072  26.296  1.00  0.00     0.261 C 
BRANCH  29  30
ATOM     30  O   UNL A   1      41.453  23.378  26.337  1.00  0.00    -0.460 OA
BRANCH  30  31
ATOM     31  C   UNL A   1      42.242  24.438  26.068  1.00  0.00     0.338 C 
ATOM     32  O   UNL A   1      42.985  24.581  25.113  1.00  0.00    -0.246 OA
BRANCH  31  33
ATOM     33  C   UNL A   1      41.865  25.491  27.034  1.00  0.00     0.060 A 
ATOM     34  C   UNL A   1      42.446  26.762  26.920  1.00  0.00     0.016 A 
ATOM     35  C   UNL A   1      40.876  25.245  27.990  1.00  0.00     0.016 A 
ATOM     36  C   UNL A   1      42.046  27.788  27.772  1.00  0.00     0.010 A 
ATOM     37  C   UNL A   1      40.503  26.262  28.869  1.00  0.00     0.010 A 
ATOM     38  C   UNL A   1      41.108  27.526  28.779  1.00  0.00    -0.014 A 
BRANCH  38  39
ATOM     39  C   UNL A   1      40.948  28.491  29.889  1.00  0.00     0.031 A 
ATOM     40  C   UNL A   1      41.945  28.426  31.010  1.00  0.00     0.074 A 
ATOM     41  C   UNL A   1      39.972  29.414  29.885  1.00  0.00     0.049 A 
ATOM     42  N   UNL A   1      42.005  29.125  32.111  1.00  0.00    -0.248 NA
ATOM     43  C   UNL A   1      43.025  27.433  30.865  1.00  0.00     0.031 C 
ATOM     44  C   UNL A   1      38.994  29.608  28.817  1.00  0.00     0.029 A 
ATOM     45  N   UNL A   1      39.651  30.368  30.816  1.00  0.00    -0.354 N 
ATOM     46  C   UNL A   1      43.132  28.667  32.782  1.00  0.00     0.074 A 
ATOM     47  C   UNL A   1      43.697  27.597  31.993  1.00  0.00     0.031 C 
ATOM     48  C   UNL A   1      38.180  30.625  29.153  1.00  0.00     0.029 A 
ATOM     49  C   UNL A   1      38.559  31.128  30.474  1.00  0.00     0.049 A 
ATOM     50  H   UNL A   1      40.155  30.496  31.653  1.00  0.00     0.167 HD
ATOM     51  C   UNL A   1      43.659  29.114  33.945  1.00  0.00     0.037 A 
ATOM     52  C   UNL A   1      37.935  32.107  31.158  1.00  0.00     0.037 A 
ATOM     53  C   UNL A   1      43.071  30.162  34.734  1.00  0.00     0.049 A 
ATOM     54  C   UNL A   1      38.464  32.507  32.513  1.00  0.00     0.074 A 
ATOM     55  C   UNL A   1      43.500  30.671  35.945  1.00  0.00     0.029 A 
ATOM     56  N   UNL A   1      41.919  30.858  34.390  1.00  0.00    -0.354 N 
ATOM     57  N   UNL A   1      39.520  32.057  33.151  1.00  0.00    -0.248 NA
ATOM     58  C   UNL A   1      37.717  33.539  33.243  1.00  0.00     0.031 C 
ATOM     59  C   UNL A   1      42.580  31.638  36.360  1.00  0.00     0.029 A 
ATOM     60  C   UNL A   1      41.611  31.777  35.377  1.00  0.00     0.049 A 
ATOM     61  H   UNL A   1      41.399  30.718  33.567  1.00  0.00     0.167 HD
ATOM     62  C   UNL A   1      39.581  32.772  34.343  1.00  0.00     0.074 A 
ATOM     63  C   UNL A   1      38.457  33.687  34.334  1.00  0.00     0.031 C 
ATOM     64  C   UNL A   1      40.486  32.682  35.351  1.00  0.00     0.037 A 
BRANCH  51  65
ATOM     65  C   UNL A   1      44.917  28.450  34.431  1.00  0.00     0.058 A 
ATOM     66  C   UNL A   1      46.178  28.952  34.070  1.00  0.00     0.135 A 
ATOM     67  C   UNL A   1      44.878  27.312  35.255  1.00  0.00     0.135 A 
ATOM     68  F   UNL A   1      46.275  30.044  33.296  1.00  0.00    -0.206 F 
ATOM     69  C   UNL A   1      47.352  28.345  34.501  1.00  0.00     0.059 A 
ATOM     70  C   UNL A   1      46.041  26.707  35.723  1.00  0.00     0.059 A 
ATOM     71  F   UNL A   1      43.700  26.808  35.655  1.00  0.00    -0.206 F 
ATOM     72  C   UNL A   1      47.275  27.227  35.331  1.00  0.00     0.060 A 
BRANCH  72  73
ATOM     73  S   UNL A   1      48.810  26.492  35.931  1.00  0.00     0.124 S 
ATOM     74  O   UNL A   1      48.348  25.209  36.448  1.00  0.00    -0.237 OA
ATOM     75  O   UNL A   1      49.618  26.437  34.716  1.00  0.00    -0.237 OA
ATOM     76  O   UNL A   1      49.272  27.446  36.936  1.00  0.00    -0.744 OA
ENDBRANCH  72  73
ENDBRANCH  51  65
BRANCH  52  77
ATOM     77  C   UNL A   1      36.759  32.792  30.557  1.00  0.00     0.058 A 
ATOM     78  C   UNL A   1      36.909  33.781  29.573  1.00  0.00     0.135 A 
ATOM     79  C   UNL A   1      35.459  32.503  30.997  1.00  0.00     0.135 A 
ATOM     80  F   UNL A   1      38.131  34.094  29.114  1.00  0.00    -0.206 F 
ATOM     81  C   UNL A   1      35.819  34.488  29.076  1.00  0.00     0.059 A 
ATOM     82  C   UNL A   1      34.349  33.180  30.499  1.00  0.00     0.059 A 
ATOM     83  F   UNL A   1      35.261  31.551  31.922  1.00  0.00    -0.206 F 
ATOM     84  C   UNL A   1      34.543  34.187  29.555  1.00  0.00     0.060 A 
BRANCH  84  85
ATOM     85  S   UNL A   1      33.148  35.154  28.938  1.00  0.00     0.124 S 
ATOM     86  O   UNL A   1      33.828  36.305  28.350  1.00  0.00    -0.237 OA
ATOM     87  O   UNL A   1      32.530  34.230  27.993  1.00  0.00    -0.237 OA
ATOM     88  O   UNL A   1      32.371  35.434  30.141  1.00  0.00    -0.744 OA
ENDBRANCH  84  85
ENDBRANCH  52  77
BRANCH  64  89
ATOM     89  C   UNL A   1      40.325  33.607  36.526  1.00  0.00     0.058 A 
ATOM     90  C   UNL A   1      39.432  33.288  37.563  1.00  0.00     0.135 A 
ATOM     91  C   UNL A   1      40.972  34.852  36.580  1.00  0.00     0.135 A 
ATOM     92  F   UNL A   1      38.779  32.115  37.558  1.00  0.00    -0.206 F 
ATOM     93  C   UNL A   1      39.168  34.179  38.597  1.00  0.00     0.059 A 
ATOM     94  C   UNL A   1      40.747  35.747  37.623  1.00  0.00     0.059 A 
ATOM     95  F   UNL A   1      41.841  35.202  35.620  1.00  0.00    -0.206 F 
ATOM     96  C   UNL A   1      39.828  35.408  38.617  1.00  0.00     0.060 A 
BRANCH  96  97
ATOM     97  S   UNL A   1      39.472  36.552  39.967  1.00  0.00     0.124 S 
ATOM     98  O   UNL A   1      40.797  36.761  40.541  1.00  0.00    -0.237 OA
ATOM     99  O   UNL A   1      38.900  37.694  39.258  1.00  0.00    -0.237 OA
ATOM    100  O   UNL A   1      38.535  35.810  40.804  1.00  0.00    -0.744 OA
ENDBRANCH  96  97
ENDBRANCH  64  89
ENDBRANCH  38  39
ENDBRANCH  31  33
ENDBRANCH  30  31
ENDBRANCH  29  30
ENDBRANCH  28  29
ENDBRANCH  27  28
ENDBRANCH  26  27
ENDBRANCH   1  26
TORSDOF 24
ENDMDL
MODEL 2
REMARK VINA RESULT:      -9.8      4.861     10.827
REMARK SMILES Cc1ccc(-c2cccc(F)c2C(=O)OCCOCCOCCOCCOC(=O)c2ccc(-c3c4nc(c(-c5c(F)cc(S(=O)(=O)[O-])cc5F)c5ccc([nH]5)c(-c5c(F)cc(S(=O)(=O)[O-])cc5F)c5nc(c(-c6c(F)cc(S(=O)(=O)[O-])cc6F)c6ccc3[nH]6)C=C5)C=C4)cc2)c(C)c1
REMARK SMILES IDX 22 1 21 2 20 3 19 4 18 5 17 6 16 7 15 8 13 9 14 10 12 11
REMARK SMILES IDX 6 12 7 13 8 14 10 15 9 16 11 17 5 18 1 19 2 20 3 21 98 22
REMARK SMILES IDX 4 23 96 24 97 25 23 26 24 27 25 28 26 29 27 30 28 31 29 32
REMARK SMILES IDX 30 33 31 34 95 35 32 36 94 37 33 38 34 39 35 40 88 41 36 42
REMARK SMILES IDX 93 43 87 44 89 45 37 46 92 47 86 48 85 49 38 51 72 52 51 53
REMARK SMILES IDX 71 54 52 55 55 56 70 57 90 58 53 59 54 60 69 62 91 63 56 64
REMARK SMILES IDX 39 65 40 66 49 67 41 68 42 69 48 70 50 71 43 72 44 73 45 74
REMARK SMILES IDX 46 75 47 76 73 77 74 78 83 79 75 80 76 81 82 82 84 83 77 84
REMARK SMILES IDX 78 85 79 86 80 87 81 88 57 89 58 90 67 91 59 92 60 93 66 94
REMARK SMILES IDX 68 95 61 96 62 97 63 98 64 99 65 100
REMARK H PARENT 89 50 55 61
REMARK Flexibility Score: inf
ROOT
ATOM      1  C   UNL A   1      33.272  35.571  29.664  1.00  0.00     0.188 C 
ENDROOT
BRANCH   1   2
ATOM      2  O   UNL A   1      32.688  34.449  29.026  1.00  0.00    -0.377 OA
BRANCH   2   3
ATOM      3  C   UNL A   1      33.527  33.644  28.205  1.00  0.00     0.188 C 
BRANCH   3   4
ATOM      4  C   UNL A   1      33.606  32.099  28.333  1.00  0.00     0.188 C 
BRANCH   4   5
ATOM      5  O   UNL A   1      34.432  31.482  27.354  1.00  0.00    -0.376 OA
BRANCH   5   6
ATOM      6  C   UNL A   1      34.305  30.082  27.180  1.00  0.00     0.202 C 
BRANCH   6   7
ATOM      7  C   UNL A   1      32.923  29.593  26.741  1.00  0.00     0.261 C 
BRANCH   7   8
ATOM      8  O   UNL A   1      32.952  28.454  25.867  1.00  0.00    -0.460 OA
BRANCH   8   9
ATOM      9  C   UNL A   1      32.175  27.381  26.146  1.00  0.00     0.341 C 
ATOM     10  O   UNL A   1      31.370  27.296  27.056  1.00  0.00    -0.246 OA
BRANCH   9  11
ATOM     11  C   UNL A   1      32.409  26.361  25.087  1.00  0.00     0.103 A 
ATOM     12  C   UNL A   1      31.677  26.312  23.872  1.00  0.00    -0.001 A 
ATOM     13  C   UNL A   1      31.972  25.267  22.968  1.00  0.00     0.010 A 
ATOM     14  C   UNL A   1      32.999  24.352  23.212  1.00  0.00     0.004 A 
ATOM     15  C   UNL A   1      33.440  25.435  25.310  1.00  0.00     0.138 A 
ATOM     16  C   UNL A   1      33.748  24.451  24.376  1.00  0.00     0.040 A 
ATOM     17  F   UNL A   1      34.171  25.473  26.434  1.00  0.00    -0.206 F 
BRANCH  12  18
ATOM     18  C   UNL A   1      30.667  27.315  23.465  1.00  0.00    -0.014 A 
ATOM     19  C   UNL A   1      27.610  30.276  22.622  1.00  0.00     0.044 C 
ATOM     20  C   UNL A   1      28.651  29.221  22.844  1.00  0.00    -0.051 A 
ATOM     21  C   UNL A   1      28.311  27.966  23.347  1.00  0.00     0.004 A 
ATOM     22  C   UNL A   1      29.998  29.505  22.605  1.00  0.00     0.007 A 
ATOM     23  C   UNL A   1      29.305  27.031  23.654  1.00  0.00     0.009 A 
ATOM     24  C   UNL A   1      31.006  28.556  22.868  1.00  0.00    -0.043 A 
ATOM     25  C   UNL A   1      32.398  28.934  22.435  1.00  0.00     0.045 C 
ENDBRANCH  12  18
ENDBRANCH   9  11
ENDBRANCH   8   9
ENDBRANCH   7   8
ENDBRANCH   6   7
ENDBRANCH   5   6
ENDBRANCH   4   5
ENDBRANCH   3   4
ENDBRANCH   2   3
ENDBRANCH   1   2
BRANCH   1  26
ATOM     26  C   UNL A   1      32.841  35.726  31.136  1.00  0.00     0.188 C 
BRANCH  26  27
ATOM     27  O   UNL A   1      33.609  36.693  31.845  1.00  0.00    -0.376 OA
BRANCH  27  28
ATOM     28  C   UNL A   1      34.504  36.259  32.853  1.00  0.00     0.202 C 
BRANCH  28  29
ATOM     29  C   UNL A   1      34.760  34.760  33.077  1.00  0.00     0.261 C 
BRANCH  29  30
ATOM     30  O   UNL A   1      35.524  34.072  32.082  1.00  0.00    -0.460 OA
BRANCH  30  31
ATOM     31  C   UNL A   1      35.177  32.807  31.772  1.00  0.00     0.338 C 
ATOM     32  O   UNL A   1      34.052  32.339  31.734  1.00  0.00    -0.246 OA
BRANCH  31  33
ATOM     33  C   UNL A   1      36.402  32.153  31.268  1.00  0.00     0.060 A 
ATOM     34  C   UNL A   1      37.141  31.330  32.131  1.00  0.00     0.016 A 
ATOM     35  C   UNL A   1      36.765  32.282  29.925  1.00  0.00     0.016 A 
ATOM     36  C   UNL A   1      38.254  30.643  31.652  1.00  0.00     0.010 A 
ATOM     37  C   UNL A   1      37.903  31.625  29.456  1.00  0.00     0.010 A 
ATOM     38  C   UNL A   1      38.664  30.827  30.326  1.00  0.00    -0.014 A 
BRANCH  38  39
ATOM     39  C   UNL A   1      40.018  30.394  29.919  1.00  0.00     0.031 A 
ATOM     40  C   UNL A   1      41.128  31.400  30.032  1.00  0.00     0.074 A 
ATOM     41  C   UNL A   1      40.261  29.142  29.498  1.00  0.00     0.049 A 
ATOM     42  N   UNL A   1      42.388  31.288  29.707  1.00  0.00    -0.248 NA
ATOM     43  C   UNL A   1      40.763  32.713  30.591  1.00  0.00     0.031 C 
ATOM     44  C   UNL A   1      39.272  28.070  29.415  1.00  0.00     0.029 A 
ATOM     45  N   UNL A   1      41.426  28.563  29.065  1.00  0.00    -0.354 N 
ATOM     46  C   UNL A   1      42.966  32.509  30.033  1.00  0.00     0.074 A 
ATOM     47  C   UNL A   1      41.914  33.363  30.532  1.00  0.00     0.031 C 
ATOM     48  C   UNL A   1      39.876  26.957  28.959  1.00  0.00     0.029 A 
ATOM     49  C   UNL A   1      41.283  27.250  28.687  1.00  0.00     0.049 A 
ATOM     50  H   UNL A   1      42.286  29.043  29.028  1.00  0.00     0.167 HD
ATOM     51  C   UNL A   1      44.265  32.877  29.940  1.00  0.00     0.037 A 
ATOM     52  C   UNL A   1      42.186  26.393  28.169  1.00  0.00     0.037 A 
ATOM     53  C   UNL A   1      45.297  32.025  29.416  1.00  0.00     0.049 A 
ATOM     54  C   UNL A   1      43.603  26.861  27.956  1.00  0.00     0.074 A 
ATOM     55  C   UNL A   1      46.639  32.306  29.244  1.00  0.00     0.029 A 
ATOM     56  N   UNL A   1      45.098  30.724  28.971  1.00  0.00    -0.354 N 
ATOM     57  N   UNL A   1      44.140  28.023  28.249  1.00  0.00    -0.248 NA
ATOM     58  C   UNL A   1      44.535  25.909  27.339  1.00  0.00     0.031 C 
ATOM     59  C   UNL A   1      47.243  31.194  28.648  1.00  0.00     0.029 A 
ATOM     60  C   UNL A   1      46.289  30.197  28.505  1.00  0.00     0.049 A 
ATOM     61  H   UNL A   1      44.237  30.248  28.985  1.00  0.00     0.167 HD
ATOM     62  C   UNL A   1      45.478  27.931  27.880  1.00  0.00     0.074 A 
ATOM     63  C   UNL A   1      45.669  26.598  27.346  1.00  0.00     0.031 C 
ATOM     64  C   UNL A   1      46.460  28.864  27.977  1.00  0.00     0.037 A 
BRANCH  51  65
ATOM     65  C   UNL A   1      44.622  34.263  30.397  1.00  0.00     0.058 A 
ATOM     66  C   UNL A   1      45.001  34.503  31.728  1.00  0.00     0.135 A 
ATOM     67  C   UNL A   1      44.588  35.360  29.520  1.00  0.00     0.135 A 
ATOM     68  F   UNL A   1      45.064  33.492  32.607  1.00  0.00    -0.206 F 
ATOM     69  C   UNL A   1      45.324  35.781  32.172  1.00  0.00     0.059 A 
ATOM     70  C   UNL A   1      44.938  36.641  29.935  1.00  0.00     0.059 A 
ATOM     71  F   UNL A   1      44.262  35.182  28.229  1.00  0.00    -0.206 F 
ATOM     72  C   UNL A   1      45.295  36.843  31.267  1.00  0.00     0.060 A 
BRANCH  72  73
ATOM     73  S   UNL A   1      45.780  38.482  31.849  1.00  0.00     0.124 S 
ATOM     74  O   UNL A   1      45.716  38.318  33.296  1.00  0.00    -0.237 OA
ATOM     75  O   UNL A   1      47.116  38.625  31.280  1.00  0.00    -0.237 OA
ATOM     76  O   UNL A   1      44.765  39.359  31.269  1.00  0.00    -0.744 OA
ENDBRANCH  72  73
ENDBRANCH  51  65
BRANCH  52  77
ATOM     77  C   UNL A   1      41.776  25.000  27.846  1.00  0.00     0.058 A 
ATOM     78  C   UNL A   1      42.169  23.915  28.644  1.00  0.00     0.135 A 
ATOM     79  C   UNL A   1      41.024  24.723  26.694  1.00  0.00     0.135 A 
ATOM     80  F   UNL A   1      42.888  24.124  29.759  1.00  0.00    -0.206 F 
ATOM     81  C   UNL A   1      41.868  22.603  28.293  1.00  0.00     0.059 A 
ATOM     82  C   UNL A   1      40.690  23.421  26.333  1.00  0.00     0.059 A 
ATOM     83  F   UNL A   1      40.608  25.729  25.908  1.00  0.00    -0.206 F 
ATOM     84  C   UNL A   1      41.136  22.366  27.128  1.00  0.00     0.060 A 
BRANCH  84  85
ATOM     85  S   UNL A   1      40.802  20.654  26.661  1.00  0.00     0.124 S 
ATOM     86  O   UNL A   1      39.484  20.771  26.044  1.00  0.00    -0.237 OA
ATOM     87  O   UNL A   1      41.906  20.365  25.751  1.00  0.00    -0.237 OA
ATOM     88  O   UNL A   1      40.836  19.943  27.934  1.00  0.00    -0.744 OA
ENDBRANCH  84  85
ENDBRANCH  52  77
BRANCH  64  89
ATOM     89  C   UNL A   1      47.842  28.481  27.519  1.00  0.00     0.058 A 
ATOM     90  C   UNL A   1      48.142  28.411  26.149  1.00  0.00     0.135 A 
ATOM     91  C   UNL A   1      48.837  28.087  28.427  1.00  0.00     0.135 A 
ATOM     92  F   UNL A   1      47.224  28.767  25.235  1.00  0.00    -0.206 F 
ATOM     93  C   UNL A   1      49.368  27.941  25.694  1.00  0.00     0.059 A 
ATOM     94  C   UNL A   1      50.084  27.643  27.996  1.00  0.00     0.059 A 
ATOM     95  F   UNL A   1      48.605  28.144  29.748  1.00  0.00    -0.206 F 
ATOM     96  C   UNL A   1      50.332  27.555  26.626  1.00  0.00     0.060 A 
BRANCH  96  97
ATOM     97  S   UNL A   1      51.919  26.946  26.017  1.00  0.00     0.124 S 
ATOM     98  O   UNL A   1      51.557  26.427  24.702  1.00  0.00    -0.237 OA
ATOM     99  O   UNL A   1      52.734  28.157  26.019  1.00  0.00    -0.237 OA
ATOM    100  O   UNL A   1      52.299  25.941  27.006  1.00  0.00    -0.744 OA
ENDBRANCH  96  97
ENDBRANCH  64  89
ENDBRANCH  38  39
ENDBRANCH  31  33
ENDBRANCH  30  31
ENDBRANCH  29  30
ENDBRANCH  28  29
ENDBRANCH  27  28
ENDBRANCH  26  27
ENDBRANCH   1  26
TORSDOF 24
ENDMDL
MODEL 3
REMARK VINA RESULT:      -9.7      5.762     11.569
REMARK SMILES Cc1ccc(-c2cccc(F)c2C(=O)OCCOCCOCCOCCOC(=O)c2ccc(-c3c4nc(c(-c5c(F)cc(S(=O)(=O)[O-])cc5F)c5ccc([nH]5)c(-c5c(F)cc(S(=O)(=O)[O-])cc5F)c5nc(c(-c6c(F)cc(S(=O)(=O)[O-])cc6F)c6ccc3[nH]6)C=C5)C=C4)cc2)c(C)c1
REMARK SMILES IDX 22 1 21 2 20 3 19 4 18 5 17 6 16 7 15 8 13 9 14 10 12 11
REMARK SMILES IDX 6 12 7 13 8 14 10 15 9 16 11 17 5 18 1 19 2 20 3 21 98 22
REMARK SMILES IDX 4 23 96 24 97 25 23 26 24 27 25 28 26 29 27 30 28 31 29 32
REMARK SMILES IDX 30 33 31 34 95 35 32 36 94 37 33 38 34 39 35 40 88 41 36 42
REMARK SMILES IDX 93 43 87 44 89 45 37 46 92 47 86 48 85 49 38 51 72 52 51 53
REMARK SMILES IDX 71 54 52 55 55 56 70 57 90 58 53 59 54 60 69 62 91 63 56 64
REMARK SMILES IDX 39 65 40 66 49 67 41 68 42 69 48 70 50 71 43 72 44 73 45 74
REMARK SMILES IDX 46 75 47 76 73 77 74 78 83 79 75 80 76 81 82 82 84 83 77 84
REMARK SMILES IDX 78 85 79 86 80 87 81 88 57 89 58 90 67 91 59 92 60 93 66 94
REMARK SMILES IDX 68 95 61 96 62 97 63 98 64 99 65 100
REMARK H PARENT 89 50 55 61
REMARK Flexibility Score: inf
ROOT
ATOM      1  C   UNL A   1      33.482  35.129  29.278  1.00  0.00     0.188 C 
ENDROOT
BRANCH   1   2
ATOM      2  O   UNL A   1      33.208  33.806  28.854  1.00  0.00    -0.377 OA
BRANCH   2   3
ATOM      3  C   UNL A   1      34.169  33.167  28.020  1.00  0.00     0.188 C 
BRANCH   3   4
ATOM      4  C   UNL A   1      34.710  31.738  28.293  1.00  0.00     0.188 C 
BRANCH   4   5
ATOM      5  O   UNL A   1      34.521  30.835  27.211  1.00  0.00    -0.376 OA
BRANCH   5   6
ATOM      6  C   UNL A   1      34.654  29.451  27.486  1.00  0.00     0.202 C 
BRANCH   6   7
ATOM      7  C   UNL A   1      33.405  28.603  27.234  1.00  0.00     0.261 C 
BRANCH   7   8
ATOM      8  O   UNL A   1      33.619  27.483  26.363  1.00  0.00    -0.460 OA
BRANCH   8   9
ATOM      9  C   UNL A   1      33.435  27.632  25.030  1.00  0.00     0.341 C 
ATOM     10  O   UNL A   1      34.176  28.224  24.267  1.00  0.00    -0.246 OA
BRANCH   9  11
ATOM     11  C   UNL A   1      32.219  26.862  24.648  1.00  0.00     0.103 A 
ATOM     12  C   UNL A   1      32.225  25.466  24.391  1.00  0.00    -0.001 A 
ATOM     13  C   UNL A   1      31.009  24.865  23.998  1.00  0.00     0.010 A 
ATOM     14  C   UNL A   1      29.817  25.590  23.935  1.00  0.00     0.004 A 
ATOM     15  C   UNL A   1      31.010  27.571  24.584  1.00  0.00     0.138 A 
ATOM     16  C   UNL A   1      29.815  26.942  24.250  1.00  0.00     0.040 A 
ATOM     17  F   UNL A   1      30.964  28.884  24.850  1.00  0.00    -0.206 F 
BRANCH  12  18
ATOM     18  C   UNL A   1      33.407  24.590  24.564  1.00  0.00    -0.014 A 
ATOM     19  C   UNL A   1      37.076  22.322  25.030  1.00  0.00     0.044 C 
ATOM     20  C   UNL A   1      35.777  23.044  24.834  1.00  0.00    -0.051 A 
ATOM     21  C   UNL A   1      35.489  23.700  23.637  1.00  0.00     0.004 A 
ATOM     22  C   UNL A   1      34.854  23.123  25.880  1.00  0.00     0.007 A 
ATOM     23  C   UNL A   1      34.323  24.462  23.508  1.00  0.00     0.009 A 
ATOM     24  C   UNL A   1      33.654  23.850  25.747  1.00  0.00    -0.043 A 
ATOM     25  C   UNL A   1      32.684  23.737  26.894  1.00  0.00     0.045 C 
ENDBRANCH  12  18
ENDBRANCH   9  11
ENDBRANCH   8   9
ENDBRANCH   7   8
ENDBRANCH   6   7
ENDBRANCH   5   6
ENDBRANCH   4   5
ENDBRANCH   3   4
ENDBRANCH   2   3
ENDBRANCH   1   2
BRANCH   1  26
ATOM     26  C   UNL A   1      33.328  35.323  30.800  1.00  0.00     0.188 C 
BRANCH  26  27
ATOM     27  O   UNL A   1      33.710  34.178  31.553  1.00  0.00    -0.376 OA
BRANCH  27  28
ATOM     28  C   UNL A   1      35.058  33.746  31.517  1.00  0.00     0.202 C 
BRANCH  28  29
ATOM     29  C   UNL A   1      35.424  32.296  31.870  1.00  0.00     0.261 C 
BRANCH  29  30
ATOM     30  O   UNL A   1      36.672  31.799  31.379  1.00  0.00    -0.460 OA
BRANCH  30  31
ATOM     31  C   UNL A   1      36.770  30.485  31.095  1.00  0.00     0.338 C 
ATOM     32  O   UNL A   1      35.868  29.664  31.081  1.00  0.00    -0.246 OA
BRANCH  31  33
ATOM     33  C   UNL A   1      38.139  30.271  30.586  1.00  0.00     0.060 A 
ATOM     34  C   UNL A   1      38.346  30.176  29.202  1.00  0.00     0.016 A 
ATOM     35  C   UNL A   1      39.223  30.254  31.469  1.00  0.00     0.016 A 
ATOM     36  C   UNL A   1      39.640  30.052  28.699  1.00  0.00     0.010 A 
ATOM     37  C   UNL A   1      40.514  30.091  30.968  1.00  0.00     0.010 A 
ATOM     38  C   UNL A   1      40.721  29.962  29.585  1.00  0.00    -0.014 A 
BRANCH  38  39
ATOM     39  C   UNL A   1      42.028  29.481  29.086  1.00  0.00     0.031 A 
ATOM     40  C   UNL A   1      43.162  30.466  29.059  1.00  0.00     0.074 A 
ATOM     41  C   UNL A   1      42.210  28.207  28.701  1.00  0.00     0.049 A 
ATOM     42  N   UNL A   1      44.387  30.312  28.635  1.00  0.00    -0.248 NA
ATOM     43  C   UNL A   1      42.870  31.810  29.588  1.00  0.00     0.031 C 
ATOM     44  C   UNL A   1      41.198  27.155  28.750  1.00  0.00     0.029 A 
ATOM     45  N   UNL A   1      43.323  27.584  28.198  1.00  0.00    -0.354 N 
ATOM     46  C   UNL A   1      45.013  31.532  28.856  1.00  0.00     0.074 A 
ATOM     47  C   UNL A   1      44.024  32.431  29.404  1.00  0.00     0.031 C 
ATOM     48  C   UNL A   1      41.740  26.011  28.295  1.00  0.00     0.029 A 
ATOM     49  C   UNL A   1      43.124  26.260  27.893  1.00  0.00     0.049 A 
ATOM     50  H   UNL A   1      44.185  28.043  28.067  1.00  0.00     0.167 HD
ATOM     51  C   UNL A   1      46.307  31.867  28.638  1.00  0.00     0.037 A 
ATOM     52  C   UNL A   1      43.963  25.361  27.340  1.00  0.00     0.037 A 
ATOM     53  C   UNL A   1      47.275  30.970  28.068  1.00  0.00     0.049 A 
ATOM     54  C   UNL A   1      45.365  25.788  26.988  1.00  0.00     0.074 A 
ATOM     55  C   UNL A   1      48.602  31.213  27.771  1.00  0.00     0.029 A 
ATOM     56  N   UNL A   1      47.014  29.656  27.700  1.00  0.00    -0.354 N 
ATOM     57  N   UNL A   1      45.948  26.949  27.182  1.00  0.00    -0.248 NA
ATOM     58  C   UNL A   1      46.224  24.789  26.337  1.00  0.00     0.031 C 
ATOM     59  C   UNL A   1      49.131  30.064  27.176  1.00  0.00     0.029 A 
ATOM     60  C   UNL A   1      48.151  29.083  27.159  1.00  0.00     0.049 A 
ATOM     61  H   UNL A   1      46.148  29.200  27.808  1.00  0.00     0.167 HD
ATOM     62  C   UNL A   1      47.247  26.811  26.706  1.00  0.00     0.074 A 
ATOM     63  C   UNL A   1      47.367  25.452  26.218  1.00  0.00     0.031 C 
ATOM     64  C   UNL A   1      48.251  27.725  26.678  1.00  0.00     0.037 A 
BRANCH  51  65
ATOM     65  C   UNL A   1      46.728  33.263  29.001  1.00  0.00     0.058 A 
ATOM     66  C   UNL A   1      46.624  34.308  28.070  1.00  0.00     0.135 A 
ATOM     67  C   UNL A   1      47.240  33.570  30.274  1.00  0.00     0.135 A 
ATOM     68  F   UNL A   1      46.130  34.076  26.844  1.00  0.00    -0.206 F 
ATOM     69  C   UNL A   1      47.019  35.604  28.384  1.00  0.00     0.059 A 
ATOM     70  C   UNL A   1      47.612  34.865  30.620  1.00  0.00     0.059 A 
ATOM     71  F   UNL A   1      47.332  32.614  31.213  1.00  0.00    -0.206 F 
ATOM     72  C   UNL A   1      47.506  35.874  29.663  1.00  0.00     0.060 A 
BRANCH  72  73
ATOM     73  S   UNL A   1      47.955  37.575  30.072  1.00  0.00     0.124 S 
ATOM     74  O   UNL A   1      49.338  37.638  29.616  1.00  0.00    -0.237 OA
ATOM     75  O   UNL A   1      46.989  38.341  29.290  1.00  0.00    -0.237 OA
ATOM     76  O   UNL A   1      47.765  37.636  31.519  1.00  0.00    -0.744 OA
ENDBRANCH  72  73
ENDBRANCH  51  65
BRANCH  52  77
ATOM     77  C   UNL A   1      43.501  23.965  27.114  1.00  0.00     0.058 A 
ATOM     78  C   UNL A   1      43.114  23.517  25.842  1.00  0.00     0.135 A 
ATOM     79  C   UNL A   1      43.389  23.065  28.184  1.00  0.00     0.135 A 
ATOM     80  F   UNL A   1      43.204  24.337  24.783  1.00  0.00    -0.206 F 
ATOM     81  C   UNL A   1      42.593  22.242  25.645  1.00  0.00     0.059 A 
ATOM     82  C   UNL A   1      42.893  21.776  28.009  1.00  0.00     0.059 A 
ATOM     83  F   UNL A   1      43.765  23.441  29.417  1.00  0.00    -0.206 F 
ATOM     84  C   UNL A   1      42.477  21.383  26.739  1.00  0.00     0.060 A 
BRANCH  84  85
ATOM     85  S   UNL A   1      41.748  19.752  26.471  1.00  0.00     0.124 S 
ATOM     86  O   UNL A   1      42.207  19.029  27.654  1.00  0.00    -0.237 OA
ATOM     87  O   UNL A   1      40.322  20.058  26.427  1.00  0.00    -0.237 OA
ATOM     88  O   UNL A   1      42.336  19.321  25.207  1.00  0.00    -0.744 OA
ENDBRANCH  84  85
ENDBRANCH  52  77
BRANCH  64  89
ATOM     89  C   UNL A   1      49.581  27.292  26.124  1.00  0.00     0.058 A 
ATOM     90  C   UNL A   1      49.824  27.343  24.741  1.00  0.00     0.135 A 
ATOM     91  C   UNL A   1      50.576  26.734  26.942  1.00  0.00     0.135 A 
ATOM     92  F   UNL A   1      48.904  27.858  23.910  1.00  0.00    -0.206 F 
ATOM     93  C   UNL A   1      50.993  26.834  24.187  1.00  0.00     0.059 A 
ATOM     94  C   UNL A   1      51.768  26.247  26.413  1.00  0.00     0.059 A 
ATOM     95  F   UNL A   1      50.398  26.671  28.271  1.00  0.00    -0.206 F 
ATOM     96  C   UNL A   1      51.959  26.284  25.031  1.00  0.00     0.060 A 
BRANCH  96  97
ATOM     97  S   UNL A   1      53.470  25.628  24.295  1.00  0.00     0.124 S 
ATOM     98  O   UNL A   1      54.494  26.456  24.923  1.00  0.00    -0.237 OA
ATOM     99  O   UNL A   1      53.436  24.231  24.719  1.00  0.00    -0.237 OA
ATOM    100  O   UNL A   1      53.275  25.846  22.865  1.00  0.00    -0.744 OA
ENDBRANCH  96  97
ENDBRANCH  64  89
ENDBRANCH  38  39
ENDBRANCH  31  33
ENDBRANCH  30  31
ENDBRANCH  29  30
ENDBRANCH  28  29
ENDBRANCH  27  28
ENDBRANCH  26  27
ENDBRANCH   1  26
TORSDOF 24
ENDMDL
