MODEL 1
REMARK VINA RESULT:     -10.4      0.000      0.000
REMARK SMILES O=C(OCCOCCOCCOCCOC(=O)c1ccc(-c2c3nc(c(-c4c(F)cc(S(=O)(=O)[O-])cc4F)c4ccc([nH]4)c(-c4c(F)cc(S(=O)(=O)[O-])cc4F)c4nc(c(-c5c(F)cc(S(=O)(=O)[O-])cc5F)c5ccc2[nH]5)C=C4)C=C3)cc1)C1=Cc2cc(S(F)(F)(F)(F)F)ccc2O[C@H]1C(F)(F)F
REMARK SMILES IDX 10 1 9 2 8 3 7 4 6 5 5 6 4 7 3 8 2 9 1 10 84 11 85 12 99 13
REMARK SMILES IDX 86 14 98 15 87 16 97 17 88 18 96 19 95 20 100 21 101 22
REMARK SMILES IDX 102 23 103 24 89 25 90 26 91 27 92 28 93 29 94 30 11 31
REMARK SMILES IDX 12 32 13 33 14 34 15 35 16 36 17 37 18 38 19 39 83 40 20 41
REMARK SMILES IDX 82 42 21 43 22 44 23 45 76 46 24 47 81 48 75 49 77 50 25 51
REMARK SMILES IDX 80 52 74 53 73 54 26 56 60 57 39 58 59 59 40 60 43 61 58 62
REMARK SMILES IDX 78 63 41 64 42 65 57 67 79 68 44 69 27 70 28 71 37 72 29 73
REMARK SMILES IDX 30 74 36 75 38 76 31 77 32 78 33 79 34 80 35 81 61 82 62 83
REMARK SMILES IDX 71 84 63 85 64 86 70 87 72 88 65 89 66 90 67 91 68 92 69 93
REMARK SMILES IDX 45 94 46 95 55 96 47 97 48 98 54 99 56 100 49 101 50 102
REMARK SMILES IDX 51 103 52 104 53 105
REMARK H PARENT 77 55 43 66
REMARK Flexibility Score: inf
ROOT
ATOM      1  C   UNL A   1      40.928  20.172  26.346  1.00  0.00     0.188 C 
ENDROOT
BRANCH   1   2
ATOM      2  O   UNL A   1      40.156  21.040  27.163  1.00  0.00    -0.377 OA
BRANCH   2   3
ATOM      3  C   UNL A   1      39.403  21.919  26.339  1.00  0.00     0.188 C 
BRANCH   3   4
ATOM      4  C   UNL A   1      38.522  21.107  25.404  1.00  0.00     0.188 C 
BRANCH   4   5
ATOM      5  O   UNL A   1      37.546  21.955  24.817  1.00  0.00    -0.376 OA
BRANCH   5   6
ATOM      6  C   UNL A   1      37.119  22.916  25.771  1.00  0.00     0.202 C 
BRANCH   6   7
ATOM      7  C   UNL A   1      36.246  23.955  25.088  1.00  0.00     0.261 C 
BRANCH   7   8
ATOM      8  O   UNL A   1      34.880  23.680  25.362  1.00  0.00    -0.460 OA
BRANCH   8   9
ATOM      9  C   UNL A   1      34.080  23.020  24.393  1.00  0.00     0.338 C 
ATOM     10  O   UNL A   1      34.616  22.545  23.342  1.00  0.00    -0.246 OA
BRANCH   9  11
ATOM     11  C   UNL A   1      32.581  22.881  24.610  1.00  0.00     0.087 C 
ATOM     12  C   UNL A   1      31.767  23.958  24.439  1.00  0.00     0.027 C 
ATOM     13  C   UNL A   1      31.993  21.541  25.019  1.00  0.00     0.316 C 
ATOM     14  C   UNL A   1      32.355  25.299  24.030  1.00  0.00     0.019 A 
ATOM     15  O   UNL A   1      33.778  24.135  22.523  1.00  0.00    -0.475 OA
ATOM     16  C   UNL A   1      31.941  26.450  24.680  1.00  0.00     0.036 A 
ATOM     17  C   UNL A   1      33.259  25.344  23.058  1.00  0.00     0.128 A 
ATOM     18  C   UNL A   1      32.331  27.645  24.033  1.00  0.00     0.107 A 
ATOM     19  C   UNL A   1      33.697  26.549  22.565  1.00  0.00     0.048 A 
ATOM     20  C   UNL A   1      33.284  27.728  23.122  1.00  0.00     0.028 A 
BRANCH  13  21
ATOM     21  C   UNL A   1      33.108  20.515  25.142  1.00  0.00     0.430 C 
ATOM     22  F   UNL A   1      32.684  19.484  25.868  1.00  0.00    -0.167 F 
ATOM     23  F   UNL A   1      33.456  20.091  23.930  1.00  0.00    -0.167 F 
ATOM     24  F   UNL A   1      34.159  21.073  25.736  1.00  0.00    -0.167 F 
ENDBRANCH  13  21
BRANCH  18  25
ATOM     25  S   UNL A   1      31.463  29.169  24.484  1.00  0.00     0.310 S 
ATOM     26  F   UNL A   1      31.274  28.690  25.984  1.00  0.00    -0.094 F 
ATOM     27  F   UNL A   1      30.097  28.456  24.156  1.00  0.00    -0.094 F 
ATOM     28  F   UNL A   1      30.720  30.479  24.872  1.00  0.00    -0.094 F 
ATOM     29  F   UNL A   1      32.829  29.819  24.940  1.00  0.00    -0.094 F 
ATOM     30  F   UNL A   1      32.222  27.811  24.202  1.00  0.00    -0.094 F 
ENDBRANCH  18  25
ENDBRANCH   9  11
ENDBRANCH   8   9
ENDBRANCH   7   8
ENDBRANCH   6   7
ENDBRANCH   5   6
ENDBRANCH   4   5
ENDBRANCH   3   4
ENDBRANCH   2   3
ENDBRANCH   1   2
BRANCH   1  31
ATOM     31  C   UNL A   1      42.406  20.457  26.560  1.00  0.00     0.188 C 
BRANCH  31  32
ATOM     32  O   UNL A   1      42.585  21.834  26.857  1.00  0.00    -0.376 OA
BRANCH  32  33
ATOM     33  C   UNL A   1      43.229  22.473  25.764  1.00  0.00     0.202 C 
BRANCH  33  34
ATOM     34  C   UNL A   1      44.116  23.594  26.284  1.00  0.00     0.261 C 
BRANCH  34  35
ATOM     35  O   UNL A   1      43.771  24.809  25.635  1.00  0.00    -0.460 OA
BRANCH  35  36
ATOM     36  C   UNL A   1      42.490  25.386  25.843  1.00  0.00     0.338 C 
ATOM     37  O   UNL A   1      41.564  25.200  24.992  1.00  0.00    -0.246 OA
BRANCH  36  38
ATOM     38  C   UNL A   1      42.226  26.227  27.081  1.00  0.00     0.060 A 
ATOM     39  C   UNL A   1      41.363  25.752  28.054  1.00  0.00     0.016 A 
ATOM     40  C   UNL A   1      42.835  27.400  27.213  1.00  0.00     0.016 A 
ATOM     41  C   UNL A   1      40.980  26.726  29.006  1.00  0.00     0.010 A 
ATOM     42  C   UNL A   1      42.508  28.245  28.246  1.00  0.00     0.010 A 
ATOM     43  C   UNL A   1      41.619  27.864  29.211  1.00  0.00    -0.014 A 
BRANCH  43  44
ATOM     44  C   UNL A   1      41.376  28.705  30.454  1.00  0.00     0.031 A 
ATOM     45  C   UNL A   1      42.206  28.499  31.557  1.00  0.00     0.074 A 
ATOM     46  C   UNL A   1      40.339  29.621  30.427  1.00  0.00     0.049 A 
ATOM     47  N   UNL A   1      42.181  29.141  32.726  1.00  0.00    -0.248 NA
ATOM     48  C   UNL A   1      43.286  27.501  31.601  1.00  0.00     0.031 C 
ATOM     49  C   UNL A   1      39.502  29.842  29.316  1.00  0.00     0.029 A 
ATOM     50  N   UNL A   1      39.932  30.467  31.436  1.00  0.00    -0.354 N 
ATOM     51  C   UNL A   1      43.145  28.678  33.526  1.00  0.00     0.074 A 
ATOM     52  C   UNL A   1      43.865  27.613  32.816  1.00  0.00     0.031 C 
ATOM     53  C   UNL A   1      38.596  30.797  29.653  1.00  0.00     0.029 A 
ATOM     54  C   UNL A   1      38.852  31.191  30.980  1.00  0.00     0.049 A 
ATOM     55  H   UNL A   1      40.341  30.541  32.327  1.00  0.00     0.167 HD
ATOM     56  C   UNL A   1      43.451  29.104  34.820  1.00  0.00     0.037 A 
ATOM     57  C   UNL A   1      38.117  32.144  31.669  1.00  0.00     0.037 A 
ATOM     58  C   UNL A   1      42.743  30.089  35.492  1.00  0.00     0.049 A 
ATOM     59  C   UNL A   1      38.388  32.529  32.984  1.00  0.00     0.074 A 
ATOM     60  C   UNL A   1      43.044  30.535  36.793  1.00  0.00     0.029 A 
ATOM     61  N   UNL A   1      41.648  30.795  35.046  1.00  0.00    -0.354 N 
ATOM     62  N   UNL A   1      39.375  32.095  33.770  1.00  0.00    -0.248 NA
ATOM     63  C   UNL A   1      37.597  33.513  33.734  1.00  0.00     0.031 C 
ATOM     64  C   UNL A   1      42.138  31.491  37.131  1.00  0.00     0.029 A 
ATOM     65  C   UNL A   1      41.256  31.656  36.047  1.00  0.00     0.049 A 
ATOM     66  H   UNL A   1      41.221  30.700  34.164  1.00  0.00     0.167 HD
ATOM     67  C   UNL A   1      39.323  32.708  34.954  1.00  0.00     0.074 A 
ATOM     68  C   UNL A   1      38.175  33.624  34.951  1.00  0.00     0.031 C 
ATOM     69  C   UNL A   1      40.190  32.544  36.035  1.00  0.00     0.037 A 
BRANCH  56  70
ATOM     70  C   UNL A   1      44.627  28.453  35.530  1.00  0.00     0.058 A 
ATOM     71  C   UNL A   1      45.895  28.989  35.383  1.00  0.00     0.135 A 
ATOM     72  C   UNL A   1      44.416  27.376  36.276  1.00  0.00     0.135 A 
ATOM     73  F   UNL A   1      46.119  30.193  34.864  1.00  0.00    -0.206 F 
ATOM     74  C   UNL A   1      46.932  28.139  35.835  1.00  0.00     0.059 A 
ATOM     75  C   UNL A   1      45.472  26.670  36.799  1.00  0.00     0.059 A 
ATOM     76  F   UNL A   1      43.171  26.975  36.519  1.00  0.00    -0.206 F 
ATOM     77  C   UNL A   1      46.757  27.109  36.644  1.00  0.00     0.060 A 
BRANCH  77  78
ATOM     78  S   UNL A   1      48.145  26.321  37.498  1.00  0.00     0.124 S 
ATOM     79  O   UNL A   1      49.401  26.419  36.629  1.00  0.00    -0.237 OA
ATOM     80  O   UNL A   1      48.391  27.029  38.832  1.00  0.00    -0.237 OA
ATOM     81  O   UNL A   1      47.777  24.675  37.784  1.00  0.00    -0.744 OA
ENDBRANCH  77  78
ENDBRANCH  56  70
BRANCH  57  82
ATOM     82  C   UNL A   1      36.952  32.807  30.953  1.00  0.00     0.058 A 
ATOM     83  C   UNL A   1      37.196  33.822  30.043  1.00  0.00     0.135 A 
ATOM     84  C   UNL A   1      35.716  32.398  31.215  1.00  0.00     0.135 A 
ATOM     85  F   UNL A   1      38.406  34.091  29.562  1.00  0.00    -0.206 F 
ATOM     86  C   UNL A   1      36.039  34.547  29.669  1.00  0.00     0.059 A 
ATOM     87  C   UNL A   1      34.634  33.073  30.705  1.00  0.00     0.059 A 
ATOM     88  F   UNL A   1      35.525  31.325  31.976  1.00  0.00    -0.206 F 
ATOM     89  C   UNL A   1      34.801  34.124  29.846  1.00  0.00     0.060 A 
BRANCH  89  90
ATOM     90  S   UNL A   1      33.399  34.893  28.996  1.00  0.00     0.124 S 
ATOM     91  O   UNL A   1      32.322  35.261  30.020  1.00  0.00    -0.237 OA
ATOM     92  O   UNL A   1      33.872  36.158  28.276  1.00  0.00    -0.237 OA
ATOM     93  O   UNL A   1      32.752  33.796  27.856  1.00  0.00    -0.744 OA
ENDBRANCH  89  90
ENDBRANCH  57  82
BRANCH  69  94
ATOM     94  C   UNL A   1      39.953  33.388  37.276  1.00  0.00     0.058 A 
ATOM     95  C   UNL A   1      40.673  34.558  37.451  1.00  0.00     0.135 A 
ATOM     96  C   UNL A   1      39.053  32.993  38.169  1.00  0.00     0.135 A 
ATOM     97  F   UNL A   1      41.390  35.121  36.482  1.00  0.00    -0.206 F 
ATOM     98  C   UNL A   1      40.578  35.101  38.753  1.00  0.00     0.059 A 
ATOM     99  C   UNL A   1      38.920  33.654  39.367  1.00  0.00     0.059 A 
ATOM    100  F   UNL A   1      38.273  31.950  37.902  1.00  0.00    -0.206 F 
ATOM    101  C   UNL A   1      39.643  34.784  39.631  1.00  0.00     0.060 A 
BRANCH 101 102
ATOM    102  S   UNL A   1      39.336  35.791  41.103  1.00  0.00     0.124 S 
ATOM    103  O   UNL A   1      38.454  36.984  40.730  1.00  0.00    -0.237 OA
ATOM    104  O   UNL A   1      38.627  34.944  42.163  1.00  0.00    -0.237 OA
ATOM    105  O   UNL A   1      40.824  36.356  41.728  1.00  0.00    -0.744 OA
ENDBRANCH 101 102
ENDBRANCH  69  94
ENDBRANCH  43  44
ENDBRANCH  36  38
ENDBRANCH  35  36
ENDBRANCH  34  35
ENDBRANCH  33  34
ENDBRANCH  32  33
ENDBRANCH  31  32
ENDBRANCH   1  31
TORSDOF 25
ENDMDL
MODEL 2
REMARK VINA RESULT:     -10.4      0.934      7.841
REMARK SMILES O=C(OCCOCCOCCOCCOC(=O)c1ccc(-c2c3nc(c(-c4c(F)cc(S(=O)(=O)[O-])cc4F)c4ccc([nH]4)c(-c4c(F)cc(S(=O)(=O)[O-])cc4F)c4nc(c(-c5c(F)cc(S(=O)(=O)[O-])cc5F)c5ccc2[nH]5)C=C4)C=C3)cc1)C1=Cc2cc(S(F)(F)(F)(F)F)ccc2O[C@H]1C(F)(F)F
REMARK SMILES IDX 10 1 9 2 8 3 7 4 6 5 5 6 4 7 3 8 2 9 1 10 84 11 85 12 99 13
REMARK SMILES IDX 86 14 98 15 87 16 97 17 88 18 96 19 95 20 100 21 101 22
REMARK SMILES IDX 102 23 103 24 89 25 90 26 91 27 92 28 93 29 94 30 11 31
REMARK SMILES IDX 12 32 13 33 14 34 15 35 16 36 17 37 18 38 19 39 83 40 20 41
REMARK SMILES IDX 82 42 21 43 22 44 23 45 76 46 24 47 81 48 75 49 77 50 25 51
REMARK SMILES IDX 80 52 74 53 73 54 26 56 60 57 39 58 59 59 40 60 43 61 58 62
REMARK SMILES IDX 78 63 41 64 42 65 57 67 79 68 44 69 27 70 28 71 37 72 29 73
REMARK SMILES IDX 30 74 36 75 38 76 31 77 32 78 33 79 34 80 35 81 61 82 62 83
REMARK SMILES IDX 71 84 63 85 64 86 70 87 72 88 65 89 66 90 67 91 68 92 69 93
REMARK SMILES IDX 45 94 46 95 55 96 47 97 48 98 54 99 56 100 49 101 50 102
REMARK SMILES IDX 51 103 52 104 53 105
REMARK H PARENT 77 55 43 66
REMARK Flexibility Score: inf
ROOT
ATOM      1  C   UNL A   1      40.706  20.835  26.465  1.00  0.00     0.188 C 
ENDROOT
BRANCH   1   2
ATOM      2  O   UNL A   1      40.273  22.016  27.124  1.00  0.00    -0.377 OA
BRANCH   2   3
ATOM      3  C   UNL A   1      39.028  22.430  26.582  1.00  0.00     0.188 C 
BRANCH   3   4
ATOM      4  C   UNL A   1      38.906  23.942  26.689  1.00  0.00     0.188 C 
BRANCH   4   5
ATOM      5  O   UNL A   1      37.677  24.360  26.114  1.00  0.00    -0.376 OA
BRANCH   5   6
ATOM      6  C   UNL A   1      36.944  23.222  25.686  1.00  0.00     0.202 C 
BRANCH   6   7
ATOM      7  C   UNL A   1      35.655  23.673  25.017  1.00  0.00     0.261 C 
BRANCH   7   8
ATOM      8  O   UNL A   1      35.072  22.577  24.327  1.00  0.00    -0.460 OA
BRANCH   8   9
ATOM      9  C   UNL A   1      33.752  22.683  23.815  1.00  0.00     0.338 C 
ATOM     10  O   UNL A   1      33.565  22.836  22.568  1.00  0.00    -0.246 OA
BRANCH   9  11
ATOM     11  C   UNL A   1      32.562  22.612  24.759  1.00  0.00     0.087 C 
ATOM     12  C   UNL A   1      32.061  23.752  25.308  1.00  0.00     0.027 C 
ATOM     13  C   UNL A   1      31.933  21.269  25.091  1.00  0.00     0.316 C 
ATOM     14  C   UNL A   1      32.690  25.096  24.977  1.00  0.00     0.019 A 
ATOM     15  O   UNL A   1      32.874  24.373  22.720  1.00  0.00    -0.475 OA
ATOM     16  C   UNL A   1      32.940  25.999  25.996  1.00  0.00     0.036 A 
ATOM     17  C   UNL A   1      32.993  25.379  23.715  1.00  0.00     0.128 A 
ATOM     18  C   UNL A   1      33.251  27.303  25.543  1.00  0.00     0.107 A 
ATOM     19  C   UNL A   1      33.422  26.636  23.364  1.00  0.00     0.048 A 
ATOM     20  C   UNL A   1      33.634  27.597  24.314  1.00  0.00     0.028 A 
BRANCH  13  21
ATOM     21  C   UNL A   1      32.676  20.166  24.354  1.00  0.00     0.430 C 
ATOM     22  F   UNL A   1      33.972  20.233  24.646  1.00  0.00    -0.167 F 
ATOM     23  F   UNL A   1      32.198  18.983  24.728  1.00  0.00    -0.167 F 
ATOM     24  F   UNL A   1      32.508  20.319  23.044  1.00  0.00    -0.167 F 
ENDBRANCH  13  21
BRANCH  18  25
ATOM     25  S   UNL A   1      33.115  28.662  26.730  1.00  0.00     0.310 S 
ATOM     26  F   UNL A   1      33.664  29.717  25.680  1.00  0.00    -0.094 F 
ATOM     27  F   UNL A   1      34.611  28.408  27.153  1.00  0.00    -0.094 F 
ATOM     28  F   UNL A   1      32.996  29.831  27.750  1.00  0.00    -0.094 F 
ATOM     29  F   UNL A   1      31.666  28.993  26.195  1.00  0.00    -0.094 F 
ATOM     30  F   UNL A   1      33.258  27.554  25.612  1.00  0.00    -0.094 F 
ENDBRANCH  18  25
ENDBRANCH   9  11
ENDBRANCH   8   9
ENDBRANCH   7   8
ENDBRANCH   6   7
ENDBRANCH   5   6
ENDBRANCH   4   5
ENDBRANCH   3   4
ENDBRANCH   2   3
ENDBRANCH   1   2
BRANCH   1  31
ATOM     31  C   UNL A   1      42.218  20.719  26.576  1.00  0.00     0.188 C 
BRANCH  31  32
ATOM     32  O   UNL A   1      42.753  21.941  27.062  1.00  0.00    -0.376 OA
BRANCH  32  33
ATOM     33  C   UNL A   1      43.941  22.254  26.349  1.00  0.00     0.202 C 
BRANCH  33  34
ATOM     34  C   UNL A   1      44.669  23.390  27.051  1.00  0.00     0.261 C 
BRANCH  34  35
ATOM     35  O   UNL A   1      44.513  24.586  26.302  1.00  0.00    -0.460 OA
BRANCH  35  36
ATOM     36  C   UNL A   1      43.271  25.273  26.312  1.00  0.00     0.338 C 
ATOM     37  O   UNL A   1      42.473  25.157  25.330  1.00  0.00    -0.246 OA
BRANCH  36  38
ATOM     38  C   UNL A   1      42.895  26.148  27.497  1.00  0.00     0.060 A 
ATOM     39  C   UNL A   1      41.994  25.672  28.435  1.00  0.00     0.016 A 
ATOM     40  C   UNL A   1      43.443  27.352  27.617  1.00  0.00     0.016 A 
ATOM     41  C   UNL A   1      41.511  26.663  29.321  1.00  0.00     0.010 A 
ATOM     42  C   UNL A   1      43.016  28.220  28.592  1.00  0.00     0.010 A 
ATOM     43  C   UNL A   1      42.086  27.836  29.517  1.00  0.00    -0.014 A 
BRANCH  43  44
ATOM     44  C   UNL A   1      41.731  28.712  30.707  1.00  0.00     0.031 A 
ATOM     45  C   UNL A   1      40.651  29.586  30.578  1.00  0.00     0.074 A 
ATOM     46  C   UNL A   1      42.504  28.602  31.850  1.00  0.00     0.049 A 
ATOM     47  N   UNL A   1      40.160  30.416  31.500  1.00  0.00    -0.248 NA
ATOM     48  C   UNL A   1      39.849  29.731  29.353  1.00  0.00     0.031 C 
ATOM     49  C   UNL A   1      43.589  27.716  31.993  1.00  0.00     0.029 A 
ATOM     50  N   UNL A   1      42.375  29.303  33.030  1.00  0.00    -0.354 N 
ATOM     51  C   UNL A   1      39.109  31.079  31.011  1.00  0.00     0.074 A 
ATOM     52  C   UNL A   1      38.898  30.652  29.621  1.00  0.00     0.031 C 
ATOM     53  C   UNL A   1      44.116  27.889  33.233  1.00  0.00     0.029 A 
ATOM     54  C   UNL A   1      43.366  28.885  33.889  1.00  0.00     0.049 A 
ATOM     55  H   UNL A   1      41.692  29.984  33.224  1.00  0.00     0.167 HD
ATOM     56  C   UNL A   1      38.317  32.020  31.671  1.00  0.00     0.037 A 
ATOM     57  C   UNL A   1      43.621  29.335  35.175  1.00  0.00     0.037 A 
ATOM     58  C   UNL A   1      38.545  32.439  32.973  1.00  0.00     0.049 A 
ATOM     59  C   UNL A   1      42.864  30.320  35.814  1.00  0.00     0.074 A 
ATOM     60  C   UNL A   1      37.752  33.382  33.655  1.00  0.00     0.029 A 
ATOM     61  N   UNL A   1      39.552  32.039  33.824  1.00  0.00    -0.354 N 
ATOM     62  N   UNL A   1      41.790  30.953  35.340  1.00  0.00    -0.248 NA
ATOM     63  C   UNL A   1      43.144  30.828  37.164  1.00  0.00     0.031 C 
ATOM     64  C   UNL A   1      38.278  33.555  34.897  1.00  0.00     0.029 A 
ATOM     65  C   UNL A   1      39.409  32.724  35.010  1.00  0.00     0.049 A 
ATOM     66  H   UNL A   1      40.252  31.378  33.619  1.00  0.00     0.167 HD
ATOM     67  C   UNL A   1      41.325  31.814  36.248  1.00  0.00     0.074 A 
ATOM     68  C   UNL A   1      42.193  31.751  37.431  1.00  0.00     0.031 C 
ATOM     69  C   UNL A   1      40.209  32.645  36.140  1.00  0.00     0.037 A 
BRANCH  56  70
ATOM     70  C   UNL A   1      37.139  32.619  30.920  1.00  0.00     0.058 A 
ATOM     71  C   UNL A   1      35.881  32.056  31.061  1.00  0.00     0.135 A 
ATOM     72  C   UNL A   1      37.339  33.672  30.136  1.00  0.00     0.135 A 
ATOM     73  F   UNL A   1      35.582  31.177  32.013  1.00  0.00    -0.206 F 
ATOM     74  C   UNL A   1      34.943  32.502  30.100  1.00  0.00     0.059 A 
ATOM     75  C   UNL A   1      36.335  34.138  29.322  1.00  0.00     0.059 A 
ATOM     76  F   UNL A   1      38.521  34.280  30.138  1.00  0.00    -0.206 F 
ATOM     77  C   UNL A   1      35.083  33.591  29.366  1.00  0.00     0.060 A 
BRANCH  77  78
ATOM     78  S   UNL A   1      33.691  34.318  28.465  1.00  0.00     0.124 S 
ATOM     79  O   UNL A   1      34.198  35.454  27.575  1.00  0.00    -0.237 OA
ATOM     80  O   UNL A   1      33.029  33.246  27.597  1.00  0.00    -0.237 OA
ATOM     81  O   UNL A   1      32.550  34.933  29.581  1.00  0.00    -0.744 OA
ENDBRANCH  77  78
ENDBRANCH  56  70
BRANCH  57  82
ATOM     82  C   UNL A   1      44.789  28.724  35.931  1.00  0.00     0.058 A 
ATOM     83  C   UNL A   1      46.049  29.286  35.817  1.00  0.00     0.135 A 
ATOM     84  C   UNL A   1      44.576  27.656  36.692  1.00  0.00     0.135 A 
ATOM     85  F   UNL A   1      46.263  30.484  35.282  1.00  0.00    -0.206 F 
ATOM     86  C   UNL A   1      47.089  28.470  36.323  1.00  0.00     0.059 A 
ATOM     87  C   UNL A   1      45.629  26.987  37.267  1.00  0.00     0.059 A 
ATOM     88  F   UNL A   1      43.334  27.232  36.900  1.00  0.00    -0.206 F 
ATOM     89  C   UNL A   1      46.910  27.453  37.145  1.00  0.00     0.060 A 
BRANCH  89  90
ATOM     90  S   UNL A   1      48.284  26.715  38.064  1.00  0.00     0.124 S 
ATOM     91  O   UNL A   1      49.605  27.308  37.569  1.00  0.00    -0.237 OA
ATOM     92  O   UNL A   1      48.118  27.014  39.556  1.00  0.00    -0.237 OA
ATOM     93  O   UNL A   1      48.291  25.023  37.819  1.00  0.00    -0.744 OA
ENDBRANCH  89  90
ENDBRANCH  57  82
BRANCH  69  94
ATOM     94  C   UNL A   1      39.849  33.517  37.331  1.00  0.00     0.058 A 
ATOM     95  C   UNL A   1      40.443  34.760  37.468  1.00  0.00     0.135 A 
ATOM     96  C   UNL A   1      38.966  33.074  38.218  1.00  0.00     0.135 A 
ATOM     97  F   UNL A   1      41.130  35.348  36.492  1.00  0.00    -0.206 F 
ATOM     98  C   UNL A   1      40.253  35.350  38.739  1.00  0.00     0.059 A 
ATOM     99  C   UNL A   1      38.730  33.772  39.378  1.00  0.00     0.059 A 
ATOM    100  F   UNL A   1      38.302  31.946  37.981  1.00  0.00    -0.206 F 
ATOM    101  C   UNL A   1      39.327  34.981  39.606  1.00  0.00     0.060 A 
BRANCH 101 102
ATOM    102  S   UNL A   1      38.874  36.018  41.018  1.00  0.00     0.124 S 
ATOM    103  O   UNL A   1      40.065  36.127  41.973  1.00  0.00    -0.237 OA
ATOM    104  O   UNL A   1      38.487  37.414  40.524  1.00  0.00    -0.237 OA
ATOM    105  O   UNL A   1      37.548  35.316  41.839  1.00  0.00    -0.744 OA
ENDBRANCH 101 102
ENDBRANCH  69  94
ENDBRANCH  43  44
ENDBRANCH  36  38
ENDBRANCH  35  36
ENDBRANCH  34  35
ENDBRANCH  33  34
ENDBRANCH  32  33
ENDBRANCH  31  32
ENDBRANCH   1  31
TORSDOF 25
ENDMDL
MODEL 3
REMARK VINA RESULT:      -9.3      1.791      3.980
REMARK SMILES O=C(OCCOCCOCCOCCOC(=O)c1ccc(-c2c3nc(c(-c4c(F)cc(S(=O)(=O)[O-])cc4F)c4ccc([nH]4)c(-c4c(F)cc(S(=O)(=O)[O-])cc4F)c4nc(c(-c5c(F)cc(S(=O)(=O)[O-])cc5F)c5ccc2[nH]5)C=C4)C=C3)cc1)C1=Cc2cc(S(F)(F)(F)(F)F)ccc2O[C@H]1C(F)(F)F
REMARK SMILES IDX 10 1 9 2 8 3 7 4 6 5 5 6 4 7 3 8 2 9 1 10 84 11 85 12 99 13
REMARK SMILES IDX 86 14 98 15 87 16 97 17 88 18 96 19 95 20 100 21 101 22
REMARK SMILES IDX 102 23 103 24 89 25 90 26 91 27 92 28 93 29 94 30 11 31
REMARK SMILES IDX 12 32 13 33 14 34 15 35 16 36 17 37 18 38 19 39 83 40 20 41
REMARK SMILES IDX 82 42 21 43 22 44 23 45 76 46 24 47 81 48 75 49 77 50 25 51
REMARK SMILES IDX 80 52 74 53 73 54 26 56 60 57 39 58 59 59 40 60 43 61 58 62
REMARK SMILES IDX 78 63 41 64 42 65 57 67 79 68 44 69 27 70 28 71 37 72 29 73
REMARK SMILES IDX 30 74 36 75 38 76 31 77 32 78 33 79 34 80 35 81 61 82 62 83
REMARK SMILES IDX 71 84 63 85 64 86 70 87 72 88 65 89 66 90 67 91 68 92 69 93
REMARK SMILES IDX 45 94 46 95 55 96 47 97 48 98 54 99 56 100 49 101 50 102
REMARK SMILES IDX 51 103 52 104 53 105
REMARK H PARENT 77 55 43 66
REMARK Flexibility Score: inf
ROOT
ATOM      1  C   UNL A   1      40.941  20.956  25.875  1.00  0.00     0.188 C 
ENDROOT
BRANCH   1   2
ATOM      2  O   UNL A   1      39.870  21.314  26.736  1.00  0.00    -0.377 OA
BRANCH   2   3
ATOM      3  C   UNL A   1      38.913  22.071  26.010  1.00  0.00     0.188 C 
BRANCH   3   4
ATOM      4  C   UNL A   1      37.966  21.129  25.283  1.00  0.00     0.188 C 
BRANCH   4   5
ATOM      5  O   UNL A   1      36.807  21.842  24.878  1.00  0.00    -0.376 OA
BRANCH   5   6
ATOM      6  C   UNL A   1      35.978  22.078  26.006  1.00  0.00     0.202 C 
BRANCH   6   7
ATOM      7  C   UNL A   1      35.361  23.463  25.900  1.00  0.00     0.261 C 
BRANCH   7   8
ATOM      8  O   UNL A   1      34.847  23.654  24.591  1.00  0.00    -0.460 OA
BRANCH   8   9
ATOM      9  C   UNL A   1      33.492  24.039  24.409  1.00  0.00     0.338 C 
ATOM     10  O   UNL A   1      32.881  24.666  25.330  1.00  0.00    -0.246 OA
BRANCH   9  11
ATOM     11  C   UNL A   1      32.774  23.701  23.112  1.00  0.00     0.087 C 
ATOM     12  C   UNL A   1      32.377  22.422  22.868  1.00  0.00     0.027 C 
ATOM     13  C   UNL A   1      32.498  24.791  22.089  1.00  0.00     0.316 C 
ATOM     14  C   UNL A   1      32.653  21.332  23.891  1.00  0.00     0.019 A 
ATOM     15  O   UNL A   1      32.053  22.877  25.594  1.00  0.00    -0.475 OA
ATOM     16  C   UNL A   1      33.154  20.113  23.466  1.00  0.00     0.036 A 
ATOM     17  C   UNL A   1      32.412  21.569  25.175  1.00  0.00     0.128 A 
ATOM     18  C   UNL A   1      33.098  19.097  24.449  1.00  0.00     0.107 A 
ATOM     19  C   UNL A   1      32.508  20.560  26.102  1.00  0.00     0.048 A 
ATOM     20  C   UNL A   1      32.941  19.313  25.742  1.00  0.00     0.028 A 
BRANCH  13  21
ATOM     21  C   UNL A   1      33.039  26.116  22.602  1.00  0.00     0.430 C 
ATOM     22  F   UNL A   1      33.040  27.007  21.615  1.00  0.00    -0.167 F 
ATOM     23  F   UNL A   1      32.270  26.555  23.595  1.00  0.00    -0.167 F 
ATOM     24  F   UNL A   1      34.281  25.944  23.046  1.00  0.00    -0.167 F 
ENDBRANCH  13  21
BRANCH  18  25
ATOM     25  S   UNL A   1      33.251  17.380  23.895  1.00  0.00     0.310 S 
ATOM     26  F   UNL A   1      34.815  17.526  23.675  1.00  0.00    -0.094 F 
ATOM     27  F   UNL A   1      33.065  17.870  22.410  1.00  0.00    -0.094 F 
ATOM     28  F   UNL A   1      33.383  15.905  23.422  1.00  0.00    -0.094 F 
ATOM     29  F   UNL A   1      33.576  16.926  25.373  1.00  0.00    -0.094 F 
ATOM     30  F   UNL A   1      33.232  18.885  24.379  1.00  0.00    -0.094 F 
ENDBRANCH  18  25
ENDBRANCH   9  11
ENDBRANCH   8   9
ENDBRANCH   7   8
ENDBRANCH   6   7
ENDBRANCH   5   6
ENDBRANCH   4   5
ENDBRANCH   3   4
ENDBRANCH   2   3
ENDBRANCH   1   2
BRANCH   1  31
ATOM     31  C   UNL A   1      42.224  21.608  26.364  1.00  0.00     0.188 C 
BRANCH  31  32
ATOM     32  O   UNL A   1      41.936  22.905  26.864  1.00  0.00    -0.376 OA
BRANCH  32  33
ATOM     33  C   UNL A   1      42.656  23.872  26.115  1.00  0.00     0.202 C 
BRANCH  33  34
ATOM     34  C   UNL A   1      44.069  23.991  26.665  1.00  0.00     0.261 C 
BRANCH  34  35
ATOM     35  O   UNL A   1      44.657  25.198  26.204  1.00  0.00    -0.460 OA
BRANCH  35  36
ATOM     36  C   UNL A   1      43.861  26.366  26.061  1.00  0.00     0.338 C 
ATOM     37  O   UNL A   1      43.495  26.747  24.906  1.00  0.00    -0.246 OA
BRANCH  36  38
ATOM     38  C   UNL A   1      43.447  27.159  27.290  1.00  0.00     0.060 A 
ATOM     39  C   UNL A   1      44.030  28.392  27.532  1.00  0.00     0.016 A 
ATOM     40  C   UNL A   1      42.525  26.660  28.107  1.00  0.00     0.016 A 
ATOM     41  C   UNL A   1      43.782  28.899  28.829  1.00  0.00     0.010 A 
ATOM     42  C   UNL A   1      42.236  27.283  29.296  1.00  0.00     0.010 A 
ATOM     43  C   UNL A   1      42.819  28.474  29.628  1.00  0.00    -0.014 A 
BRANCH  43  44
ATOM     44  C   UNL A   1      42.384  29.267  30.849  1.00  0.00     0.031 A 
ATOM     45  C   UNL A   1      43.173  29.184  31.998  1.00  0.00     0.074 A 
ATOM     46  C   UNL A   1      41.226  30.020  30.758  1.00  0.00     0.049 A 
ATOM     47  N   UNL A   1      42.987  29.814  33.160  1.00  0.00    -0.248 NA
ATOM     48  C   UNL A   1      44.385  28.358  32.109  1.00  0.00     0.031 C 
ATOM     49  C   UNL A   1      40.430  30.116  29.600  1.00  0.00     0.029 A 
ATOM     50  N   UNL A   1      40.642  30.794  31.736  1.00  0.00    -0.354 N 
ATOM     51  C   UNL A   1      43.961  29.497  34.016  1.00  0.00     0.074 A 
ATOM     52  C   UNL A   1      44.870  28.552  33.354  1.00  0.00     0.031 C 
ATOM     53  C   UNL A   1      39.375  30.925  29.880  1.00  0.00     0.029 A 
ATOM     54  C   UNL A   1      39.495  31.350  31.216  1.00  0.00     0.049 A 
ATOM     55  H   UNL A   1      40.985  30.926  32.649  1.00  0.00     0.167 HD
ATOM     56  C   UNL A   1      44.128  29.962  35.322  1.00  0.00     0.037 A 
ATOM     57  C   UNL A   1      38.589  32.182  31.856  1.00  0.00     0.037 A 
ATOM     58  C   UNL A   1      43.245  30.829  35.947  1.00  0.00     0.049 A 
ATOM     59  C   UNL A   1      38.725  32.601  33.182  1.00  0.00     0.074 A 
ATOM     60  C   UNL A   1      43.403  31.313  37.260  1.00  0.00     0.029 A 
ATOM     61  N   UNL A   1      42.084  31.366  35.435  1.00  0.00    -0.354 N 
ATOM     62  N   UNL A   1      39.719  32.317  34.025  1.00  0.00    -0.248 NA
ATOM     63  C   UNL A   1      37.756  33.456  33.880  1.00  0.00     0.031 C 
ATOM     64  C   UNL A   1      42.347  32.124  37.539  1.00  0.00     0.029 A 
ATOM     65  C   UNL A   1      41.513  32.158  36.406  1.00  0.00     0.049 A 
ATOM     66  H   UNL A   1      41.726  31.211  34.531  1.00  0.00     0.167 HD
ATOM     67  C   UNL A   1      39.511  32.914  35.200  1.00  0.00     0.074 A 
ATOM     68  C   UNL A   1      38.241  33.649  35.126  1.00  0.00     0.031 C 
ATOM     69  C   UNL A   1      40.330  32.878  36.329  1.00  0.00     0.037 A 
BRANCH  56  70
ATOM     70  C   UNL A   1      45.345  29.492  36.101  1.00  0.00     0.058 A 
ATOM     71  C   UNL A   1      46.535  30.193  35.998  1.00  0.00     0.135 A 
ATOM     72  C   UNL A   1      45.246  28.410  36.864  1.00  0.00     0.135 A 
ATOM     73  F   UNL A   1      46.619  31.406  35.459  1.00  0.00    -0.206 F 
ATOM     74  C   UNL A   1      47.654  29.501  36.519  1.00  0.00     0.059 A 
ATOM     75  C   UNL A   1      46.362  27.865  37.453  1.00  0.00     0.059 A 
ATOM     76  F   UNL A   1      44.057  27.848  37.060  1.00  0.00    -0.206 F 
ATOM     77  C   UNL A   1      47.581  28.473  37.344  1.00  0.00     0.060 A 
BRANCH  77  78
ATOM     78  S   UNL A   1      49.020  27.898  38.280  1.00  0.00     0.124 S 
ATOM     79  O   UNL A   1      49.817  29.104  38.783  1.00  0.00    -0.237 OA
ATOM     80  O   UNL A   1      48.552  27.062  39.474  1.00  0.00    -0.237 OA
ATOM     81  O   UNL A   1      50.013  26.941  37.268  1.00  0.00    -0.744 OA
ENDBRANCH  77  78
ENDBRANCH  56  70
BRANCH  57  82
ATOM     82  C   UNL A   1      37.381  32.666  31.071  1.00  0.00     0.058 A 
ATOM     83  C   UNL A   1      36.190  31.964  31.144  1.00  0.00     0.135 A 
ATOM     84  C   UNL A   1      37.491  33.761  30.326  1.00  0.00     0.135 A 
ATOM     85  F   UNL A   1      35.956  31.026  32.057  1.00  0.00    -0.206 F 
ATOM     86  C   UNL A   1      35.243  32.336  30.160  1.00  0.00     0.059 A 
ATOM     87  C   UNL A   1      36.473  34.141  29.487  1.00  0.00     0.059 A 
ATOM     88  F   UNL A   1      38.598  34.495  30.395  1.00  0.00    -0.206 F 
ATOM     89  C   UNL A   1      35.289  33.457  29.464  1.00  0.00     0.060 A 
BRANCH  89  90
ATOM     90  S   UNL A   1      33.859  34.058  28.529  1.00  0.00     0.124 S 
ATOM     91  O   UNL A   1      33.268  32.909  27.708  1.00  0.00    -0.237 OA
ATOM     92  O   UNL A   1      32.802  34.587  29.500  1.00  0.00    -0.237 OA
ATOM     93  O   UNL A   1      34.350  35.315  27.481  1.00  0.00    -0.744 OA
ENDBRANCH  89  90
ENDBRANCH  57  82
BRANCH  69  94
ATOM     94  C   UNL A   1      39.900  33.675  37.549  1.00  0.00     0.058 A 
ATOM     95  C   UNL A   1      40.424  34.941  37.754  1.00  0.00     0.135 A 
ATOM     96  C   UNL A   1      39.024  33.148  38.395  1.00  0.00     0.135 A 
ATOM     97  F   UNL A   1      41.098  35.607  36.820  1.00  0.00    -0.206 F 
ATOM     98  C   UNL A   1      40.178  35.462  39.045  1.00  0.00     0.059 A 
ATOM     99  C   UNL A   1      38.727  33.780  39.580  1.00  0.00     0.059 A 
ATOM    100  F   UNL A   1      38.426  31.998  38.095  1.00  0.00    -0.206 F 
ATOM    101  C   UNL A   1      39.255  35.006  39.874  1.00  0.00     0.060 A 
BRANCH 101 102
ATOM    102  S   UNL A   1      38.719  35.954  41.319  1.00  0.00     0.124 S 
ATOM    103  O   UNL A   1      37.454  35.321  41.904  1.00  0.00    -0.237 OA
ATOM    104  O   UNL A   1      39.828  35.947  42.374  1.00  0.00    -0.237 OA
ATOM    105  O   UNL A   1      38.386  37.565  40.853  1.00  0.00    -0.744 OA
ENDBRANCH 101 102
ENDBRANCH  69  94
ENDBRANCH  43  44
ENDBRANCH  36  38
ENDBRANCH  35  36
ENDBRANCH  34  35
ENDBRANCH  33  34
ENDBRANCH  32  33
ENDBRANCH  31  32
ENDBRANCH   1  31
TORSDOF 25
ENDMDL
