MODEL 1
REMARK VINA RESULT:     -10.0      0.000      0.000
REMARK SMILES CC(C)Cc1cc2c(cc1Cl)C=C(C(=O)OCCOCCOCCOCCOC(=O)c1ccc(-c3c4nc(c(-c5c(F)cc(S(=O)(=O)[O-])cc5F)c5ccc([nH]5)c(-c5c(F)cc(S(=O)(=O)[O-])cc5F)c5nc(c(-c6c(F)cc(S(=O)(=O)[O-])cc6F)c6ccc3[nH]6)C=C5)C=C4)cc1)[C@H](C(F)(F)F)O2
REMARK SMILES IDX 23 1 22 2 21 3 20 4 19 5 18 6 17 7 16 8 14 9 15 10 13 11
REMARK SMILES IDX 5 12 6 13 10 14 7 15 9 16 11 17 8 18 102 19 12 20 97 21 4 22
REMARK SMILES IDX 2 23 1 24 3 25 98 26 99 27 100 28 101 29 24 30 25 31 26 32
REMARK SMILES IDX 27 33 28 34 29 35 30 36 31 37 32 38 96 39 33 40 95 41 34 42
REMARK SMILES IDX 35 43 36 44 89 45 37 46 94 47 88 48 90 49 38 50 93 51 87 52
REMARK SMILES IDX 86 53 39 55 73 56 52 57 72 58 53 59 56 60 71 61 91 62 54 63
REMARK SMILES IDX 55 64 70 66 92 67 57 68 40 69 41 70 50 71 42 72 43 73 49 74
REMARK SMILES IDX 51 75 44 76 45 77 46 78 47 79 48 80 74 81 75 82 84 83 76 84
REMARK SMILES IDX 77 85 83 86 85 87 78 88 79 89 80 90 81 91 82 92 58 93 59 94
REMARK SMILES IDX 68 95 60 96 61 97 67 98 69 99 62 100 63 101 64 102 65 103
REMARK SMILES IDX 66 104
REMARK H PARENT 90 54 56 65
REMARK Flexibility Score: inf
ROOT
ATOM      1  C   UNL A   1      34.120  31.452  28.520  1.00  0.00     0.188 C 
ENDROOT
BRANCH   1   2
ATOM      2  O   UNL A   1      34.022  31.141  27.130  1.00  0.00    -0.377 OA
BRANCH   2   3
ATOM      3  C   UNL A   1      33.145  30.112  26.712  1.00  0.00     0.188 C 
BRANCH   3   4
ATOM      4  C   UNL A   1      31.850  30.534  26.010  1.00  0.00     0.188 C 
BRANCH   4   5
ATOM      5  O   UNL A   1      31.568  29.961  24.749  1.00  0.00    -0.376 OA
BRANCH   5   6
ATOM      6  C   UNL A   1      32.287  28.811  24.309  1.00  0.00     0.202 C 
BRANCH   6   7
ATOM      7  C   UNL A   1      31.757  27.852  23.226  1.00  0.00     0.261 C 
BRANCH   7   8
ATOM      8  O   UNL A   1      32.297  26.520  23.272  1.00  0.00    -0.460 OA
BRANCH   8   9
ATOM      9  C   UNL A   1      31.420  25.556  23.636  1.00  0.00     0.338 C 
ATOM     10  O   UNL A   1      30.200  25.637  23.611  1.00  0.00    -0.246 OA
BRANCH   9  11
ATOM     11  C   UNL A   1      32.099  24.282  23.914  1.00  0.00     0.087 C 
ATOM     12  C   UNL A   1      32.444  19.297  24.368  1.00  0.00    -0.025 A 
ATOM     13  C   UNL A   1      32.580  20.382  25.260  1.00  0.00     0.052 A 
ATOM     14  C   UNL A   1      32.291  19.569  22.999  1.00  0.00     0.045 A 
ATOM     15  C   UNL A   1      32.485  21.698  24.806  1.00  0.00     0.128 A 
ATOM     16  C   UNL A   1      32.153  20.885  22.552  1.00  0.00     0.032 A 
ATOM     17  Cl  UNL A   1      32.215  18.321  21.805  1.00  0.00    -0.084 Cl
ATOM     18  C   UNL A   1      32.215  21.945  23.458  1.00  0.00     0.019 A 
ATOM     19  O   UNL A   1      32.570  22.697  25.744  1.00  0.00    -0.475 OA
ATOM     20  C   UNL A   1      31.846  23.288  23.051  1.00  0.00     0.027 C 
ATOM     21  C   UNL A   1      32.757  24.063  25.243  1.00  0.00     0.316 C 
BRANCH  12  22
ATOM     22  C   UNL A   1      32.366  17.895  24.940  1.00  0.00     0.040 C 
BRANCH  22  23
ATOM     23  C   UNL A   1      33.759  17.256  25.162  1.00  0.00    -0.013 C 
ATOM     24  C   UNL A   1      33.825  15.784  24.744  1.00  0.00     0.008 C 
ATOM     25  C   UNL A   1      34.825  18.040  24.390  1.00  0.00     0.008 C 
ENDBRANCH  22  23
ENDBRANCH  12  22
BRANCH  21  26
ATOM     26  C   UNL A   1      34.248  24.446  25.297  1.00  0.00     0.430 C 
ATOM     27  F   UNL A   1      34.525  25.375  26.235  1.00  0.00    -0.167 F 
ATOM     28  F   UNL A   1      35.005  23.361  25.598  1.00  0.00    -0.167 F 
ATOM     29  F   UNL A   1      34.699  24.926  24.113  1.00  0.00    -0.167 F 
ENDBRANCH  21  26
ENDBRANCH   9  11
ENDBRANCH   8   9
ENDBRANCH   7   8
ENDBRANCH   6   7
ENDBRANCH   5   6
ENDBRANCH   4   5
ENDBRANCH   3   4
ENDBRANCH   2   3
ENDBRANCH   1   2
BRANCH   1  30
ATOM     30  C   UNL A   1      34.250  32.921  28.950  1.00  0.00     0.188 C 
BRANCH  30  31
ATOM     31  O   UNL A   1      34.277  33.214  30.350  1.00  0.00    -0.376 OA
BRANCH  31  32
ATOM     32  C   UNL A   1      35.495  33.680  30.925  1.00  0.00     0.202 C 
BRANCH  32  33
ATOM     33  C   UNL A   1      36.713  32.825  30.591  1.00  0.00     0.261 C 
BRANCH  33  34
ATOM     34  O   UNL A   1      36.917  31.816  31.589  1.00  0.00    -0.460 OA
BRANCH  34  35
ATOM     35  C   UNL A   1      36.982  30.540  31.135  1.00  0.00     0.338 C 
ATOM     36  O   UNL A   1      36.074  29.748  31.017  1.00  0.00    -0.246 OA
BRANCH  35  37
ATOM     37  C   UNL A   1      38.354  30.310  30.637  1.00  0.00     0.060 A 
ATOM     38  C   UNL A   1      39.380  29.947  31.514  1.00  0.00     0.016 A 
ATOM     39  C   UNL A   1      38.603  30.452  29.268  1.00  0.00     0.016 A 
ATOM     40  C   UNL A   1      40.657  29.704  31.013  1.00  0.00     0.010 A 
ATOM     41  C   UNL A   1      39.881  30.207  28.767  1.00  0.00     0.010 A 
ATOM     42  C   UNL A   1      40.909  29.813  29.634  1.00  0.00    -0.014 A 
BRANCH  42  43
ATOM     43  C   UNL A   1      42.214  29.372  29.091  1.00  0.00     0.031 A 
ATOM     44  C   UNL A   1      42.435  27.962  28.640  1.00  0.00     0.074 A 
ATOM     45  C   UNL A   1      43.203  30.283  29.016  1.00  0.00     0.049 A 
ATOM     46  N   UNL A   1      43.510  27.427  28.124  1.00  0.00    -0.248 NA
ATOM     47  C   UNL A   1      41.308  27.031  28.791  1.00  0.00     0.031 C 
ATOM     48  C   UNL A   1      43.088  31.681  29.437  1.00  0.00     0.029 A 
ATOM     49  N   UNL A   1      44.489  30.177  28.556  1.00  0.00    -0.354 N 
ATOM     50  C   UNL A   1      43.190  26.102  27.864  1.00  0.00     0.074 A 
ATOM     51  C   UNL A   1      41.830  25.902  28.326  1.00  0.00     0.031 C 
ATOM     52  C   UNL A   1      44.249  32.309  29.194  1.00  0.00     0.029 A 
ATOM     53  C   UNL A   1      45.198  31.352  28.637  1.00  0.00     0.049 A 
ATOM     54  H   UNL A   1      44.869  29.341  28.203  1.00  0.00     0.167 HD
ATOM     55  C   UNL A   1      43.957  25.150  27.279  1.00  0.00     0.037 A 
ATOM     56  C   UNL A   1      46.473  31.625  28.304  1.00  0.00     0.037 A 
ATOM     57  C   UNL A   1      45.316  25.363  26.845  1.00  0.00     0.049 A 
ATOM     58  C   UNL A   1      47.320  30.532  27.716  1.00  0.00     0.074 A 
ATOM     59  C   UNL A   1      46.174  24.464  26.232  1.00  0.00     0.029 A 
ATOM     60  N   UNL A   1      46.022  26.551  26.982  1.00  0.00    -0.354 N 
ATOM     61  N   UNL A   1      46.992  29.290  27.445  1.00  0.00    -0.248 NA
ATOM     62  C   UNL A   1      48.708  30.877  27.384  1.00  0.00     0.031 C 
ATOM     63  C   UNL A   1      47.412  25.092  26.049  1.00  0.00     0.029 A 
ATOM     64  C   UNL A   1      47.311  26.401  26.492  1.00  0.00     0.049 A 
ATOM     65  H   UNL A   1      45.660  27.380  27.371  1.00  0.00     0.167 HD
ATOM     66  C   UNL A   1      48.129  28.710  26.893  1.00  0.00     0.074 A 
ATOM     67  C   UNL A   1      49.143  29.745  26.847  1.00  0.00     0.031 C 
ATOM     68  C   UNL A   1      48.316  27.435  26.466  1.00  0.00     0.037 A 
BRANCH  55  69
ATOM     69  C   UNL A   1      43.351  23.788  27.073  1.00  0.00     0.058 A 
ATOM     70  C   UNL A   1      42.805  23.408  25.836  1.00  0.00     0.135 A 
ATOM     71  C   UNL A   1      43.372  22.830  28.100  1.00  0.00     0.135 A 
ATOM     72  F   UNL A   1      42.746  24.287  24.824  1.00  0.00    -0.206 F 
ATOM     73  C   UNL A   1      42.287  22.133  25.631  1.00  0.00     0.059 A 
ATOM     74  C   UNL A   1      42.885  21.540  27.907  1.00  0.00     0.059 A 
ATOM     75  F   UNL A   1      43.881  23.138  29.303  1.00  0.00    -0.206 F 
ATOM     76  C   UNL A   1      42.334  21.205  26.672  1.00  0.00     0.060 A 
BRANCH  76  77
ATOM     77  S   UNL A   1      41.662  19.554  26.380  1.00  0.00     0.124 S 
ATOM     78  O   UNL A   1      42.468  19.110  25.246  1.00  0.00    -0.237 OA
ATOM     79  O   UNL A   1      41.929  18.883  27.648  1.00  0.00    -0.237 OA
ATOM     80  O   UNL A   1      40.255  19.804  26.087  1.00  0.00    -0.744 OA
ENDBRANCH  76  77
ENDBRANCH  55  69
BRANCH  56  81
ATOM     81  C   UNL A   1      47.009  32.997  28.501  1.00  0.00     0.058 A 
ATOM     82  C   UNL A   1      46.785  34.002  27.549  1.00  0.00     0.135 A 
ATOM     83  C   UNL A   1      47.728  33.340  29.658  1.00  0.00     0.135 A 
ATOM     84  F   UNL A   1      46.108  33.722  26.425  1.00  0.00    -0.206 F 
ATOM     85  C   UNL A   1      47.263  35.295  27.729  1.00  0.00     0.059 A 
ATOM     86  C   UNL A   1      48.190  34.633  29.874  1.00  0.00     0.059 A 
ATOM     87  F   UNL A   1      47.955  32.417  30.606  1.00  0.00    -0.206 F 
ATOM     88  C   UNL A   1      47.959  35.602  28.901  1.00  0.00     0.060 A 
BRANCH  88  89
ATOM     89  S   UNL A   1      48.526  37.299  29.146  1.00  0.00     0.124 S 
ATOM     90  O   UNL A   1      47.264  38.013  29.296  1.00  0.00    -0.237 OA
ATOM     91  O   UNL A   1      49.338  37.175  30.353  1.00  0.00    -0.237 OA
ATOM     92  O   UNL A   1      49.272  37.584  27.923  1.00  0.00    -0.744 OA
ENDBRANCH  88  89
ENDBRANCH  56  81
BRANCH  68  93
ATOM     93  C   UNL A   1      49.670  27.096  25.900  1.00  0.00     0.058 A 
ATOM     94  C   UNL A   1      49.929  27.159  24.521  1.00  0.00     0.135 A 
ATOM     95  C   UNL A   1      50.727  26.724  26.747  1.00  0.00     0.135 A 
ATOM     96  F   UNL A   1      48.954  27.504  23.665  1.00  0.00    -0.206 F 
ATOM     97  C   UNL A   1      51.174  26.825  23.999  1.00  0.00     0.059 A 
ATOM     98  C   UNL A   1      51.991  26.419  26.249  1.00  0.00     0.059 A 
ATOM     99  F   UNL A   1      50.541  26.661  28.074  1.00  0.00    -0.206 F 
ATOM    100  C   UNL A   1      52.199  26.453  24.871  1.00  0.00     0.060 A 
BRANCH 100 101
ATOM    101  S   UNL A   1      53.808  26.023  24.176  1.00  0.00     0.124 S 
ATOM    102  O   UNL A   1      53.552  26.146  22.744  1.00  0.00    -0.237 OA
ATOM    103  O   UNL A   1      54.679  27.041  24.755  1.00  0.00    -0.237 OA
ATOM    104  O   UNL A   1      54.034  24.663  24.657  1.00  0.00    -0.744 OA
ENDBRANCH 100 101
ENDBRANCH  68  93
ENDBRANCH  42  43
ENDBRANCH  35  37
ENDBRANCH  34  35
ENDBRANCH  33  34
ENDBRANCH  32  33
ENDBRANCH  31  32
ENDBRANCH  30  31
ENDBRANCH   1  30
TORSDOF 26
ENDMDL
MODEL 2
REMARK VINA RESULT:      -9.3      3.161      8.692
REMARK SMILES CC(C)Cc1cc2c(cc1Cl)C=C(C(=O)OCCOCCOCCOCCOC(=O)c1ccc(-c3c4nc(c(-c5c(F)cc(S(=O)(=O)[O-])cc5F)c5ccc([nH]5)c(-c5c(F)cc(S(=O)(=O)[O-])cc5F)c5nc(c(-c6c(F)cc(S(=O)(=O)[O-])cc6F)c6ccc3[nH]6)C=C5)C=C4)cc1)[C@H](C(F)(F)F)O2
REMARK SMILES IDX 23 1 22 2 21 3 20 4 19 5 18 6 17 7 16 8 14 9 15 10 13 11
REMARK SMILES IDX 5 12 6 13 10 14 7 15 9 16 11 17 8 18 102 19 12 20 97 21 4 22
REMARK SMILES IDX 2 23 1 24 3 25 98 26 99 27 100 28 101 29 24 30 25 31 26 32
REMARK SMILES IDX 27 33 28 34 29 35 30 36 31 37 32 38 96 39 33 40 95 41 34 42
REMARK SMILES IDX 35 43 36 44 89 45 37 46 94 47 88 48 90 49 38 50 93 51 87 52
REMARK SMILES IDX 86 53 39 55 73 56 52 57 72 58 53 59 56 60 71 61 91 62 54 63
REMARK SMILES IDX 55 64 70 66 92 67 57 68 40 69 41 70 50 71 42 72 43 73 49 74
REMARK SMILES IDX 51 75 44 76 45 77 46 78 47 79 48 80 74 81 75 82 84 83 76 84
REMARK SMILES IDX 77 85 83 86 85 87 78 88 79 89 80 90 81 91 82 92 58 93 59 94
REMARK SMILES IDX 68 95 60 96 61 97 67 98 69 99 62 100 63 101 64 102 65 103
REMARK SMILES IDX 66 104
REMARK H PARENT 90 54 56 65
REMARK Flexibility Score: inf
ROOT
ATOM      1  C   UNL A   1      33.855  26.448  25.449  1.00  0.00     0.188 C 
ENDROOT
BRANCH   1   2
ATOM      2  O   UNL A   1      33.475  27.288  26.538  1.00  0.00    -0.377 OA
BRANCH   2   3
ATOM      3  C   UNL A   1      32.571  28.353  26.308  1.00  0.00     0.188 C 
BRANCH   3   4
ATOM      4  C   UNL A   1      32.936  29.361  25.214  1.00  0.00     0.188 C 
BRANCH   4   5
ATOM      5  O   UNL A   1      32.392  29.158  23.925  1.00  0.00    -0.376 OA
BRANCH   5   6
ATOM      6  C   UNL A   1      33.255  28.951  22.808  1.00  0.00     0.202 C 
BRANCH   6   7
ATOM      7  C   UNL A   1      33.534  27.561  22.208  1.00  0.00     0.261 C 
BRANCH   7   8
ATOM      8  O   UNL A   1      32.365  26.807  21.842  1.00  0.00    -0.460 OA
BRANCH   8   9
ATOM      9  C   UNL A   1      32.608  25.572  21.346  1.00  0.00     0.338 C 
ATOM     10  O   UNL A   1      33.035  25.308  20.231  1.00  0.00    -0.246 OA
BRANCH   9  11
ATOM     11  C   UNL A   1      32.471  24.537  22.381  1.00  0.00     0.087 C 
ATOM     12  C   UNL A   1      33.100  19.984  24.393  1.00  0.00    -0.025 A 
ATOM     13  C   UNL A   1      31.979  20.742  23.995  1.00  0.00     0.052 A 
ATOM     14  C   UNL A   1      34.365  20.595  24.369  1.00  0.00     0.045 A 
ATOM     15  C   UNL A   1      32.128  22.042  23.513  1.00  0.00     0.128 A 
ATOM     16  C   UNL A   1      34.519  21.880  23.846  1.00  0.00     0.032 A 
ATOM     17  Cl  UNL A   1      35.794  19.797  24.928  1.00  0.00    -0.084 Cl
ATOM     18  C   UNL A   1      33.407  22.588  23.386  1.00  0.00     0.019 A 
ATOM     19  O   UNL A   1      30.995  22.693  23.091  1.00  0.00    -0.475 OA
ATOM     20  C   UNL A   1      33.574  23.818  22.634  1.00  0.00     0.027 C 
ATOM     21  C   UNL A   1      31.107  24.137  22.858  1.00  0.00     0.316 C 
BRANCH  12  22
ATOM     22  C   UNL A   1      32.903  18.519  24.730  1.00  0.00     0.040 C 
BRANCH  22  23
ATOM     23  C   UNL A   1      32.837  17.615  23.475  1.00  0.00    -0.013 C 
ATOM     24  C   UNL A   1      32.408  18.364  22.209  1.00  0.00     0.008 C 
ATOM     25  C   UNL A   1      34.200  16.961  23.228  1.00  0.00     0.008 C 
ENDBRANCH  22  23
ENDBRANCH  12  22
BRANCH  21  26
ATOM     26  C   UNL A   1      30.601  24.912  24.088  1.00  0.00     0.430 C 
ATOM     27  F   UNL A   1      29.519  25.676  23.827  1.00  0.00    -0.167 F 
ATOM     28  F   UNL A   1      30.233  24.052  25.071  1.00  0.00    -0.167 F 
ATOM     29  F   UNL A   1      31.549  25.726  24.610  1.00  0.00    -0.167 F 
ENDBRANCH  21  26
ENDBRANCH   9  11
ENDBRANCH   8   9
ENDBRANCH   7   8
ENDBRANCH   6   7
ENDBRANCH   5   6
ENDBRANCH   4   5
ENDBRANCH   3   4
ENDBRANCH   2   3
ENDBRANCH   1   2
BRANCH   1  30
ATOM     30  C   UNL A   1      34.847  25.302  25.698  1.00  0.00     0.188 C 
BRANCH  30  31
ATOM     31  O   UNL A   1      34.392  24.164  26.435  1.00  0.00    -0.376 OA
BRANCH  31  32
ATOM     32  C   UNL A   1      35.320  23.120  26.720  1.00  0.00     0.202 C 
BRANCH  32  33
ATOM     33  C   UNL A   1      36.694  23.314  26.087  1.00  0.00     0.261 C 
BRANCH  33  34
ATOM     34  O   UNL A   1      37.704  22.636  26.844  1.00  0.00    -0.460 OA
BRANCH  34  35
ATOM     35  C   UNL A   1      38.977  22.791  26.404  1.00  0.00     0.338 C 
ATOM     36  O   UNL A   1      39.596  22.067  25.656  1.00  0.00    -0.246 OA
BRANCH  35  37
ATOM     37  C   UNL A   1      39.455  24.112  26.864  1.00  0.00     0.060 A 
ATOM     38  C   UNL A   1      39.365  24.473  28.211  1.00  0.00     0.016 A 
ATOM     39  C   UNL A   1      40.008  24.989  25.925  1.00  0.00     0.016 A 
ATOM     40  C   UNL A   1      39.852  25.712  28.622  1.00  0.00     0.010 A 
ATOM     41  C   UNL A   1      40.497  26.227  26.338  1.00  0.00     0.010 A 
ATOM     42  C   UNL A   1      40.440  26.586  27.692  1.00  0.00    -0.014 A 
BRANCH  42  43
ATOM     43  C   UNL A   1      41.121  27.812  28.167  1.00  0.00     0.031 A 
ATOM     44  C   UNL A   1      40.351  28.951  28.760  1.00  0.00     0.074 A 
ATOM     45  C   UNL A   1      42.461  27.873  28.047  1.00  0.00     0.049 A 
ATOM     46  N   UNL A   1      40.802  30.081  29.240  1.00  0.00    -0.248 NA
ATOM     47  C   UNL A   1      38.889  28.808  28.819  1.00  0.00     0.031 C 
ATOM     48  C   UNL A   1      43.299  26.817  27.477  1.00  0.00     0.029 A 
ATOM     49  N   UNL A   1      43.350  28.852  28.403  1.00  0.00    -0.354 N 
ATOM     50  C   UNL A   1      39.686  30.779  29.680  1.00  0.00     0.074 A 
ATOM     51  C   UNL A   1      38.530  29.963  29.366  1.00  0.00     0.031 C 
ATOM     52  C   UNL A   1      44.585  27.196  27.541  1.00  0.00     0.029 A 
ATOM     53  C   UNL A   1      44.657  28.532  28.123  1.00  0.00     0.049 A 
ATOM     54  H   UNL A   1      43.080  29.703  28.817  1.00  0.00     0.167 HD
ATOM     55  C   UNL A   1      39.639  31.982  30.304  1.00  0.00     0.037 A 
ATOM     56  C   UNL A   1      45.787  29.240  28.308  1.00  0.00     0.037 A 
ATOM     57  C   UNL A   1      40.800  32.790  30.589  1.00  0.00     0.049 A 
ATOM     58  C   UNL A   1      45.697  30.598  28.944  1.00  0.00     0.074 A 
ATOM     59  C   UNL A   1      40.857  34.019  31.226  1.00  0.00     0.029 A 
ATOM     60  N   UNL A   1      42.106  32.459  30.252  1.00  0.00    -0.354 N 
ATOM     61  N   UNL A   1      44.637  31.232  29.386  1.00  0.00    -0.248 NA
ATOM     62  C   UNL A   1      46.956  31.335  29.111  1.00  0.00     0.031 C 
ATOM     63  C   UNL A   1      42.188  34.453  31.225  1.00  0.00     0.029 A 
ATOM     64  C   UNL A   1      42.971  33.470  30.642  1.00  0.00     0.049 A 
ATOM     65  H   UNL A   1      42.378  31.626  29.801  1.00  0.00     0.167 HD
ATOM     66  C   UNL A   1      45.103  32.436  29.901  1.00  0.00     0.074 A 
ATOM     67  C   UNL A   1      46.543  32.428  29.737  1.00  0.00     0.031 C 
ATOM     68  C   UNL A   1      44.402  33.457  30.457  1.00  0.00     0.037 A 
BRANCH  55  69
ATOM     69  C   UNL A   1      38.291  32.504  30.721  1.00  0.00     0.058 A 
ATOM     70  C   UNL A   1      37.785  32.279  32.011  1.00  0.00     0.135 A 
ATOM     71  C   UNL A   1      37.524  33.292  29.847  1.00  0.00     0.135 A 
ATOM     72  F   UNL A   1      38.468  31.522  32.883  1.00  0.00    -0.206 F 
ATOM     73  C   UNL A   1      36.559  32.801  32.413  1.00  0.00     0.059 A 
ATOM     74  C   UNL A   1      36.309  33.847  30.237  1.00  0.00     0.059 A 
ATOM     75  F   UNL A   1      37.959  33.539  28.601  1.00  0.00    -0.206 F 
ATOM     76  C   UNL A   1      35.829  33.587  31.520  1.00  0.00     0.060 A 
BRANCH  76  77
ATOM     77  S   UNL A   1      34.245  34.260  32.065  1.00  0.00     0.124 S 
ATOM     78  O   UNL A   1      33.735  33.167  32.889  1.00  0.00    -0.237 OA
ATOM     79  O   UNL A   1      34.651  35.461  32.787  1.00  0.00    -0.237 OA
ATOM     80  O   UNL A   1      33.524  34.492  30.819  1.00  0.00    -0.744 OA
ENDBRANCH  76  77
ENDBRANCH  55  69
BRANCH  56  81
ATOM     81  C   UNL A   1      47.095  28.660  27.905  1.00  0.00     0.058 A 
ATOM     82  C   UNL A   1      47.882  27.949  28.822  1.00  0.00     0.135 A 
ATOM     83  C   UNL A   1      47.569  28.777  26.588  1.00  0.00     0.135 A 
ATOM     84  F   UNL A   1      47.474  27.814  30.093  1.00  0.00    -0.206 F 
ATOM     85  C   UNL A   1      49.098  27.384  28.454  1.00  0.00     0.059 A 
ATOM     86  C   UNL A   1      48.768  28.196  26.189  1.00  0.00     0.059 A 
ATOM     87  F   UNL A   1      46.845  29.434  25.668  1.00  0.00    -0.206 F 
ATOM     88  C   UNL A   1      49.528  27.507  27.131  1.00  0.00     0.060 A 
BRANCH  88  89
ATOM     89  S   UNL A   1      51.083  26.721  26.654  1.00  0.00     0.124 S 
ATOM     90  O   UNL A   1      51.878  27.870  26.235  1.00  0.00    -0.237 OA
ATOM     91  O   UNL A   1      51.493  26.082  27.901  1.00  0.00    -0.237 OA
ATOM     92  O   UNL A   1      50.685  25.806  25.589  1.00  0.00    -0.744 OA
ENDBRANCH  88  89
ENDBRANCH  56  81
BRANCH  68  93
ATOM     93  C   UNL A   1      45.191  34.646  30.939  1.00  0.00     0.058 A 
ATOM     94  C   UNL A   1      45.437  35.753  30.109  1.00  0.00     0.135 A 
ATOM     95  C   UNL A   1      45.690  34.690  32.251  1.00  0.00     0.135 A 
ATOM     96  F   UNL A   1      44.987  35.762  28.844  1.00  0.00    -0.206 F 
ATOM     97  C   UNL A   1      46.183  36.840  30.549  1.00  0.00     0.059 A 
ATOM     98  C   UNL A   1      46.410  35.784  32.724  1.00  0.00     0.059 A 
ATOM     99  F   UNL A   1      45.473  33.667  33.093  1.00  0.00    -0.206 F 
ATOM    100  C   UNL A   1      46.668  36.846  31.859  1.00  0.00     0.060 A 
BRANCH 100 101
ATOM    101  S   UNL A   1      47.635  38.265  32.413  1.00  0.00     0.124 S 
ATOM    102  O   UNL A   1      48.712  38.290  31.429  1.00  0.00    -0.237 OA
ATOM    103  O   UNL A   1      46.668  39.355  32.324  1.00  0.00    -0.237 OA
ATOM    104  O   UNL A   1      48.034  37.897  33.769  1.00  0.00    -0.744 OA
ENDBRANCH 100 101
ENDBRANCH  68  93
ENDBRANCH  42  43
ENDBRANCH  35  37
ENDBRANCH  34  35
ENDBRANCH  33  34
ENDBRANCH  32  33
ENDBRANCH  31  32
ENDBRANCH  30  31
ENDBRANCH   1  30
TORSDOF 26
ENDMDL
MODEL 3
REMARK VINA RESULT:      -8.5      4.583      8.402
REMARK SMILES CC(C)Cc1cc2c(cc1Cl)C=C(C(=O)OCCOCCOCCOCCOC(=O)c1ccc(-c3c4nc(c(-c5c(F)cc(S(=O)(=O)[O-])cc5F)c5ccc([nH]5)c(-c5c(F)cc(S(=O)(=O)[O-])cc5F)c5nc(c(-c6c(F)cc(S(=O)(=O)[O-])cc6F)c6ccc3[nH]6)C=C5)C=C4)cc1)[C@H](C(F)(F)F)O2
REMARK SMILES IDX 23 1 22 2 21 3 20 4 19 5 18 6 17 7 16 8 14 9 15 10 13 11
REMARK SMILES IDX 5 12 6 13 10 14 7 15 9 16 11 17 8 18 102 19 12 20 97 21 4 22
REMARK SMILES IDX 2 23 1 24 3 25 98 26 99 27 100 28 101 29 24 30 25 31 26 32
REMARK SMILES IDX 27 33 28 34 29 35 30 36 31 37 32 38 96 39 33 40 95 41 34 42
REMARK SMILES IDX 35 43 36 44 89 45 37 46 94 47 88 48 90 49 38 50 93 51 87 52
REMARK SMILES IDX 86 53 39 55 73 56 52 57 72 58 53 59 56 60 71 61 91 62 54 63
REMARK SMILES IDX 55 64 70 66 92 67 57 68 40 69 41 70 50 71 42 72 43 73 49 74
REMARK SMILES IDX 51 75 44 76 45 77 46 78 47 79 48 80 74 81 75 82 84 83 76 84
REMARK SMILES IDX 77 85 83 86 85 87 78 88 79 89 80 90 81 91 82 92 58 93 59 94
REMARK SMILES IDX 68 95 60 96 61 97 67 98 69 99 62 100 63 101 64 102 65 103
REMARK SMILES IDX 66 104
REMARK H PARENT 90 54 56 65
REMARK Flexibility Score: inf
ROOT
ATOM      1  C   UNL A   1      33.821  30.494  27.490  1.00  0.00     0.188 C 
ENDROOT
BRANCH   1   2
ATOM      2  O   UNL A   1      33.572  30.125  26.134  1.00  0.00    -0.377 OA
BRANCH   2   3
ATOM      3  C   UNL A   1      32.622  29.112  25.856  1.00  0.00     0.188 C 
BRANCH   3   4
ATOM      4  C   UNL A   1      31.260  29.556  25.315  1.00  0.00     0.188 C 
BRANCH   4   5
ATOM      5  O   UNL A   1      31.080  29.565  23.912  1.00  0.00    -0.376 OA
BRANCH   5   6
ATOM      6  C   UNL A   1      32.094  29.040  23.058  1.00  0.00     0.202 C 
BRANCH   6   7
ATOM      7  C   UNL A   1      32.030  27.628  22.446  1.00  0.00     0.261 C 
BRANCH   7   8
ATOM      8  O   UNL A   1      33.157  26.783  22.740  1.00  0.00    -0.460 OA
BRANCH   8   9
ATOM      9  C   UNL A   1      33.159  25.588  22.108  1.00  0.00     0.338 C 
ATOM     10  O   UNL A   1      33.259  25.403  20.903  1.00  0.00    -0.246 OA
BRANCH   9  11
ATOM     11  C   UNL A   1      33.206  24.470  23.061  1.00  0.00     0.087 C 
ATOM     12  C   UNL A   1      34.555  19.925  24.704  1.00  0.00    -0.025 A 
ATOM     13  C   UNL A   1      33.324  20.536  24.388  1.00  0.00     0.052 A 
ATOM     14  C   UNL A   1      35.716  20.717  24.703  1.00  0.00     0.045 A 
ATOM     15  C   UNL A   1      33.266  21.876  24.004  1.00  0.00     0.128 A 
ATOM     16  C   UNL A   1      35.664  22.045  24.277  1.00  0.00     0.032 A 
ATOM     17  Cl  UNL A   1      37.262  20.100  25.171  1.00  0.00    -0.084 Cl
ATOM     18  C   UNL A   1      34.447  22.613  23.896  1.00  0.00     0.019 A 
ATOM     19  O   UNL A   1      32.038  22.381  23.656  1.00  0.00    -0.475 OA
ATOM     20  C   UNL A   1      34.409  23.906  23.237  1.00  0.00     0.027 C 
ATOM     21  C   UNL A   1      31.930  23.838  23.532  1.00  0.00     0.316 C 
BRANCH  12  22
ATOM     22  C   UNL A   1      34.584  18.426  24.931  1.00  0.00     0.040 C 
BRANCH  22  23
ATOM     23  C   UNL A   1      33.531  17.668  24.087  1.00  0.00    -0.013 C 
ATOM     24  C   UNL A   1      34.149  16.699  23.074  1.00  0.00     0.008 C 
ATOM     25  C   UNL A   1      32.584  16.890  25.005  1.00  0.00     0.008 C 
ENDBRANCH  22  23
ENDBRANCH  12  22
BRANCH  21  26
ATOM     26  C   UNL A   1      31.354  24.438  24.829  1.00  0.00     0.430 C 
ATOM     27  F   UNL A   1      32.305  24.830  25.702  1.00  0.00    -0.167 F 
ATOM     28  F   UNL A   1      30.611  25.539  24.552  1.00  0.00    -0.167 F 
ATOM     29  F   UNL A   1      30.545  23.569  25.481  1.00  0.00    -0.167 F 
ENDBRANCH  21  26
ENDBRANCH   9  11
ENDBRANCH   8   9
ENDBRANCH   7   8
ENDBRANCH   6   7
ENDBRANCH   5   6
ENDBRANCH   4   5
ENDBRANCH   3   4
ENDBRANCH   2   3
ENDBRANCH   1   2
BRANCH   1  30
ATOM     30  C   UNL A   1      33.859  31.983  27.864  1.00  0.00     0.188 C 
BRANCH  30  31
ATOM     31  O   UNL A   1      33.890  32.330  29.252  1.00  0.00    -0.376 OA
BRANCH  31  32
ATOM     32  C   UNL A   1      35.014  33.052  29.749  1.00  0.00     0.202 C 
BRANCH  32  33
ATOM     33  C   UNL A   1      36.337  32.301  29.646  1.00  0.00     0.261 C 
BRANCH  33  34
ATOM     34  O   UNL A   1      36.282  31.069  30.377  1.00  0.00    -0.460 OA
BRANCH  34  35
ATOM     35  C   UNL A   1      36.786  29.982  29.742  1.00  0.00     0.338 C 
ATOM     36  O   UNL A   1      36.260  29.319  28.875  1.00  0.00    -0.246 OA
BRANCH  35  37
ATOM     37  C   UNL A   1      38.191  29.821  30.172  1.00  0.00     0.060 A 
ATOM     38  C   UNL A   1      38.517  28.991  31.247  1.00  0.00     0.016 A 
ATOM     39  C   UNL A   1      39.188  30.509  29.473  1.00  0.00     0.016 A 
ATOM     40  C   UNL A   1      39.853  28.832  31.610  1.00  0.00     0.010 A 
ATOM     41  C   UNL A   1      40.525  30.348  29.836  1.00  0.00     0.010 A 
ATOM     42  C   UNL A   1      40.865  29.493  30.893  1.00  0.00    -0.014 A 
BRANCH  42  43
ATOM     43  C   UNL A   1      42.284  29.173  31.165  1.00  0.00     0.031 A 
ATOM     44  C   UNL A   1      43.040  29.852  32.265  1.00  0.00     0.074 A 
ATOM     45  C   UNL A   1      42.881  28.250  30.387  1.00  0.00     0.049 A 
ATOM     46  N   UNL A   1      44.278  29.667  32.642  1.00  0.00    -0.248 NA
ATOM     47  C   UNL A   1      42.316  30.869  33.040  1.00  0.00     0.031 C 
ATOM     48  C   UNL A   1      42.230  27.537  29.284  1.00  0.00     0.029 A 
ATOM     49  N   UNL A   1      44.154  27.746  30.406  1.00  0.00    -0.354 N 
ATOM     50  C   UNL A   1      44.483  30.526  33.712  1.00  0.00     0.074 A 
ATOM     51  C   UNL A   1      43.252  31.269  33.894  1.00  0.00     0.031 C 
ATOM     52  C   UNL A   1      43.103  26.672  28.747  1.00  0.00     0.029 A 
ATOM     53  C   UNL A   1      44.380  26.794  29.441  1.00  0.00     0.049 A 
ATOM     54  H   UNL A   1      44.841  28.038  31.047  1.00  0.00     0.167 HD
ATOM     55  C   UNL A   1      45.593  30.666  34.478  1.00  0.00     0.037 A 
ATOM     56  C   UNL A   1      45.496  26.101  29.144  1.00  0.00     0.037 A 
ATOM     57  C   UNL A   1      46.817  29.932  34.268  1.00  0.00     0.049 A 
ATOM     58  C   UNL A   1      46.730  26.323  29.971  1.00  0.00     0.074 A 
ATOM     59  C   UNL A   1      47.994  29.996  34.996  1.00  0.00     0.029 A 
ATOM     60  N   UNL A   1      47.030  29.008  33.253  1.00  0.00    -0.354 N 
ATOM     61  N   UNL A   1      46.899  27.117  31.003  1.00  0.00    -0.248 NA
ATOM     62  C   UNL A   1      47.924  25.554  29.598  1.00  0.00     0.031 C 
ATOM     63  C   UNL A   1      48.932  29.153  34.390  1.00  0.00     0.029 A 
ATOM     64  C   UNL A   1      48.325  28.516  33.320  1.00  0.00     0.049 A 
ATOM     65  H   UNL A   1      46.359  28.742  32.584  1.00  0.00     0.167 HD
ATOM     66  C   UNL A   1      48.214  26.929  31.414  1.00  0.00     0.074 A 
ATOM     67  C   UNL A   1      48.785  25.928  30.534  1.00  0.00     0.031 C 
ATOM     68  C   UNL A   1      48.887  27.532  32.427  1.00  0.00     0.037 A 
BRANCH  55  69
ATOM     69  C   UNL A   1      45.541  31.649  35.616  1.00  0.00     0.058 A 
ATOM     70  C   UNL A   1      45.896  32.996  35.439  1.00  0.00     0.135 A 
ATOM     71  C   UNL A   1      45.070  31.259  36.881  1.00  0.00     0.135 A 
ATOM     72  F   UNL A   1      46.365  33.421  34.256  1.00  0.00    -0.206 F 
ATOM     73  C   UNL A   1      45.802  33.916  36.478  1.00  0.00     0.059 A 
ATOM     74  C   UNL A   1      44.942  32.169  37.927  1.00  0.00     0.059 A 
ATOM     75  F   UNL A   1      44.716  29.984  37.108  1.00  0.00    -0.206 F 
ATOM     76  C   UNL A   1      45.321  33.494  37.718  1.00  0.00     0.060 A 
BRANCH  76  77
ATOM     77  S   UNL A   1      45.202  34.707  39.051  1.00  0.00     0.124 S 
ATOM     78  O   UNL A   1      45.849  35.867  38.445  1.00  0.00    -0.237 OA
ATOM     79  O   UNL A   1      43.760  34.814  39.243  1.00  0.00    -0.237 OA
ATOM     80  O   UNL A   1      45.936  34.084  40.147  1.00  0.00    -0.744 OA
ENDBRANCH  76  77
ENDBRANCH  55  69
BRANCH  56  81
ATOM     81  C   UNL A   1      45.480  25.120  28.028  1.00  0.00     0.058 A 
ATOM     82  C   UNL A   1      45.008  23.813  28.223  1.00  0.00     0.135 A 
ATOM     83  C   UNL A   1      45.905  25.475  26.738  1.00  0.00     0.135 A 
ATOM     84  F   UNL A   1      44.595  23.424  29.439  1.00  0.00    -0.206 F 
ATOM     85  C   UNL A   1      44.968  22.891  27.183  1.00  0.00     0.059 A 
ATOM     86  C   UNL A   1      45.847  24.580  25.676  1.00  0.00     0.059 A 
ATOM     87  F   UNL A   1      46.350  26.719  26.496  1.00  0.00    -0.206 F 
ATOM     88  C   UNL A   1      45.384  23.287  25.911  1.00  0.00     0.060 A 
BRANCH  88  89
ATOM     89  S   UNL A   1      45.275  22.095  24.559  1.00  0.00     0.124 S 
ATOM     90  O   UNL A   1      45.197  22.972  23.397  1.00  0.00    -0.237 OA
ATOM     91  O   UNL A   1      46.520  21.348  24.713  1.00  0.00    -0.237 OA
ATOM     92  O   UNL A   1      44.060  21.346  24.868  1.00  0.00    -0.744 OA
ENDBRANCH  88  89
ENDBRANCH  56  81
BRANCH  68  93
ATOM     93  C   UNL A   1      50.318  27.113  32.641  1.00  0.00     0.058 A 
ATOM     94  C   UNL A   1      51.388  27.832  32.085  1.00  0.00     0.135 A 
ATOM     95  C   UNL A   1      50.624  25.992  33.430  1.00  0.00     0.135 A 
ATOM     96  F   UNL A   1      51.152  28.909  31.319  1.00  0.00    -0.206 F 
ATOM     97  C   UNL A   1      52.707  27.431  32.267  1.00  0.00     0.059 A 
ATOM     98  C   UNL A   1      51.939  25.592  33.654  1.00  0.00     0.059 A 
ATOM     99  F   UNL A   1      49.643  25.274  33.999  1.00  0.00    -0.206 F 
ATOM    100  C   UNL A   1      52.973  26.308  33.052  1.00  0.00     0.060 A 
BRANCH 100 101
ATOM    101  S   UNL A   1      54.691  25.801  33.278  1.00  0.00     0.124 S 
ATOM    102  O   UNL A   1      55.152  25.704  31.898  1.00  0.00    -0.237 OA
ATOM    103  O   UNL A   1      55.241  26.908  34.056  1.00  0.00    -0.237 OA
ATOM    104  O   UNL A   1      54.580  24.533  33.994  1.00  0.00    -0.744 OA
ENDBRANCH 100 101
ENDBRANCH  68  93
ENDBRANCH  42  43
ENDBRANCH  35  37
ENDBRANCH  34  35
ENDBRANCH  33  34
ENDBRANCH  32  33
ENDBRANCH  31  32
ENDBRANCH  30  31
ENDBRANCH   1  30
TORSDOF 26
ENDMDL
