MODEL 1
REMARK VINA RESULT:      -6.6      0.000      0.000
REMARK SMILES CCc1ccc(N2C(=O)/C(=C/c3cc(Cl)c(OCC(=O)OCCOCCOCCOCCOC(=O)c4ccc(-c5c6nc(c(-c7c(F)cc(S(=O)(=O)[O-])cc7F)c7ccc([nH]7)c(-c7c(F)cc(S(=O)(=O)[O-])cc7F)c7nc(c(-c8c(F)cc(S(=O)(=O)[O-])cc8F)c8ccc5[nH]8)C=C7)C=C6)cc4)c(Cl)c3)C(=O)NC2=S)cc1
REMARK SMILES IDX 26 1 25 2 24 3 23 4 22 5 21 6 19 7 20 8 18 9 17 10 16 11
REMARK SMILES IDX 12 12 13 13 104 14 14 15 102 16 15 17 103 18 11 19 7 20 8 21
REMARK SMILES IDX 108 22 9 23 10 24 107 25 109 26 105 27 106 29 6 30 3 31 4 32
REMARK SMILES IDX 111 33 5 34 110 35 2 36 1 37 27 38 28 39 29 40 30 41 31 42
REMARK SMILES IDX 32 43 33 44 34 45 35 46 36 47 37 48 101 49 38 50 100 51
REMARK SMILES IDX 39 52 40 53 41 54 94 55 42 56 99 57 93 58 95 59 43 60 98 61
REMARK SMILES IDX 92 62 91 63 44 65 78 66 57 67 77 68 58 69 61 70 76 71 96 72
REMARK SMILES IDX 59 73 60 74 75 76 97 77 62 78 45 79 46 80 55 81 47 82 48 83
REMARK SMILES IDX 54 84 56 85 49 86 50 87 51 88 52 89 53 90 79 91 80 92 89 93
REMARK SMILES IDX 81 94 82 95 88 96 90 97 83 98 84 99 85 100 86 101 87 102
REMARK SMILES IDX 63 103 64 104 73 105 65 106 66 107 72 108 74 109 67 110
REMARK SMILES IDX 68 111 69 112 70 113 71 114
REMARK H PARENT 107 28 95 64 61 75
REMARK Flexibility Score: inf
ROOT
ATOM      1  C   UNL A   1      52.055  34.042  29.607  1.00  0.00     0.188 C 
ENDROOT
BRANCH   1   2
ATOM      2  C   UNL A   1      51.981  32.646  30.277  1.00  0.00     0.188 C 
BRANCH   2   3
ATOM      3  O   UNL A   1      50.766  32.182  30.816  1.00  0.00    -0.376 OA
BRANCH   3   4
ATOM      4  C   UNL A   1      49.963  33.025  31.612  1.00  0.00     0.202 C 
BRANCH   4   5
ATOM      5  C   UNL A   1      50.051  33.076  33.154  1.00  0.00     0.261 C 
BRANCH   5   6
ATOM      6  O   UNL A   1      48.818  33.105  33.909  1.00  0.00    -0.461 OA
BRANCH   6   7
ATOM      7  C   UNL A   1      48.869  33.285  35.257  1.00  0.00     0.344 C 
ATOM      8  O   UNL A   1      48.902  32.363  36.061  1.00  0.00    -0.248 OA
BRANCH   7   9
ATOM      9  C   UNL A   1      48.848  34.798  35.674  1.00  0.00     0.352 C 
BRANCH   9  10
ATOM     10  O   UNL A   1      47.756  35.702  35.631  1.00  0.00    -0.479 OA
BRANCH  10  11
ATOM     11  C   UNL A   1      46.673  35.771  34.787  1.00  0.00     0.157 A 
ATOM     12  C   UNL A   1      44.192  35.209  33.354  1.00  0.00    -0.021 A 
ATOM     13  C   UNL A   1      44.223  35.406  34.745  1.00  0.00     0.032 A 
ATOM     14  C   UNL A   1      45.393  35.458  32.683  1.00  0.00     0.032 A 
ATOM     15  C   UNL A   1      45.427  35.660  35.441  1.00  0.00     0.085 A 
ATOM     16  C   UNL A   1      46.613  35.761  33.385  1.00  0.00     0.085 A 
ATOM     17  Cl  UNL A   1      45.312  35.728  37.173  1.00  0.00    -0.080 Cl
ATOM     18  Cl  UNL A   1      47.994  36.083  32.402  1.00  0.00    -0.080 Cl
BRANCH  12  19
ATOM     19  C   UNL A   1      42.876  34.766  32.792  1.00  0.00     0.028 C 
ATOM     20  N   UNL A   1      40.077  32.670  33.145  1.00  0.00    -0.253 N 
ATOM     21  C   UNL A   1      40.778  33.654  32.425  1.00  0.00     0.270 C 
ATOM     22  C   UNL A   1      40.626  31.421  33.446  1.00  0.00     0.187 C 
ATOM     23  O   UNL A   1      40.268  34.554  31.759  1.00  0.00    -0.268 OA
ATOM     24  C   UNL A   1      42.268  33.574  32.549  1.00  0.00     0.106 C 
ATOM     25  N   UNL A   1      41.959  31.267  33.115  1.00  0.00    -0.298 N 
ATOM     26  S   UNL A   1      39.824  30.068  34.042  1.00  0.00    -0.040 S 
ATOM     27  C   UNL A   1      42.827  32.211  32.601  1.00  0.00     0.263 C 
ATOM     28  H   UNL A   1      42.339  30.372  33.264  1.00  0.00     0.172 HD
ATOM     29  O   UNL A   1      43.973  31.947  32.265  1.00  0.00    -0.269 OA
BRANCH  20  30
ATOM     30  C   UNL A   1      38.702  32.951  33.411  1.00  0.00     0.052 A 
ATOM     31  C   UNL A   1      36.052  33.875  33.697  1.00  0.00    -0.048 A 
ATOM     32  C   UNL A   1      36.424  33.085  32.602  1.00  0.00     0.006 A 
ATOM     33  C   UNL A   1      37.016  34.139  34.686  1.00  0.00     0.006 A 
ATOM     34  C   UNL A   1      37.737  32.634  32.457  1.00  0.00     0.027 A 
ATOM     35  C   UNL A   1      38.332  33.674  34.553  1.00  0.00     0.027 A 
BRANCH  31  36
ATOM     36  C   UNL A   1      34.684  34.514  33.821  1.00  0.00     0.032 C 
ATOM     37  C   UNL A   1      34.462  35.798  33.028  1.00  0.00     0.009 C 
ENDBRANCH  31  36
ENDBRANCH  20  30
ENDBRANCH  12  19
ENDBRANCH  10  11
ENDBRANCH   9  10
ENDBRANCH   7   9
ENDBRANCH   6   7
ENDBRANCH   5   6
ENDBRANCH   4   5
ENDBRANCH   3   4
ENDBRANCH   2   3
ENDBRANCH   1   2
BRANCH   1  38
ATOM     38  O   UNL A   1      52.731  35.138  30.175  1.00  0.00    -0.377 OA
BRANCH  38  39
ATOM     39  C   UNL A   1      52.227  36.410  29.893  1.00  0.00     0.188 C 
BRANCH  39  40
ATOM     40  C   UNL A   1      52.778  36.973  28.592  1.00  0.00     0.188 C 
BRANCH  40  41
ATOM     41  O   UNL A   1      51.911  37.496  27.613  1.00  0.00    -0.376 OA
BRANCH  41  42
ATOM     42  C   UNL A   1      50.512  37.336  27.603  1.00  0.00     0.202 C 
BRANCH  42  43
ATOM     43  C   UNL A   1      49.650  36.145  27.195  1.00  0.00     0.261 C 
BRANCH  43  44
ATOM     44  O   UNL A   1      48.271  36.355  27.147  1.00  0.00    -0.460 OA
BRANCH  44  45
ATOM     45  C   UNL A   1      47.641  36.324  28.328  1.00  0.00     0.338 C 
ATOM     46  O   UNL A   1      47.512  37.209  29.145  1.00  0.00    -0.246 OA
BRANCH  45  47
ATOM     47  C   UNL A   1      47.055  34.998  28.306  1.00  0.00     0.060 A 
ATOM     48  C   UNL A   1      46.705  34.458  27.067  1.00  0.00     0.016 A 
ATOM     49  C   UNL A   1      47.137  34.233  29.476  1.00  0.00     0.016 A 
ATOM     50  C   UNL A   1      46.490  33.100  26.981  1.00  0.00     0.010 A 
ATOM     51  C   UNL A   1      46.882  32.883  29.396  1.00  0.00     0.010 A 
ATOM     52  C   UNL A   1      46.563  32.332  28.148  1.00  0.00    -0.014 A 
BRANCH  52  53
ATOM     53  C   UNL A   1      46.095  30.952  28.104  1.00  0.00     0.031 A 
ATOM     54  C   UNL A   1      47.103  29.928  27.711  1.00  0.00     0.074 A 
ATOM     55  C   UNL A   1      44.811  30.691  28.382  1.00  0.00     0.049 A 
ATOM     56  N   UNL A   1      46.937  28.658  27.491  1.00  0.00    -0.248 NA
ATOM     57  C   UNL A   1      48.490  30.402  27.523  1.00  0.00     0.031 C 
ATOM     58  C   UNL A   1      43.813  31.686  28.785  1.00  0.00     0.029 A 
ATOM     59  N   UNL A   1      44.121  29.516  28.339  1.00  0.00    -0.354 N 
ATOM     60  C   UNL A   1      48.189  28.183  27.130  1.00  0.00     0.074 A 
ATOM     61  C   UNL A   1      49.105  29.297  27.137  1.00  0.00     0.031 C 
ATOM     62  C   UNL A   1      42.623  31.076  28.925  1.00  0.00     0.029 A 
ATOM     63  C   UNL A   1      42.779  29.666  28.581  1.00  0.00     0.049 A 
ATOM     64  H   UNL A   1      44.544  28.647  28.154  1.00  0.00     0.167 HD
ATOM     65  C   UNL A   1      48.522  26.914  26.820  1.00  0.00     0.037 A 
ATOM     66  C   UNL A   1      41.796  28.754  28.483  1.00  0.00     0.037 A 
ATOM     67  C   UNL A   1      47.558  25.850  26.813  1.00  0.00     0.049 A 
ATOM     68  C   UNL A   1      42.189  27.355  28.085  1.00  0.00     0.074 A 
ATOM     69  C   UNL A   1      47.754  24.511  26.546  1.00  0.00     0.029 A 
ATOM     70  N   UNL A   1      46.202  26.022  27.073  1.00  0.00    -0.354 N 
ATOM     71  N   UNL A   1      43.385  26.889  27.799  1.00  0.00    -0.248 NA
ATOM     72  C   UNL A   1      41.116  26.363  27.993  1.00  0.00     0.031 C 
ATOM     73  C   UNL A   1      46.505  23.884  26.586  1.00  0.00     0.029 A 
ATOM     74  C   UNL A   1      45.540  24.819  26.937  1.00  0.00     0.049 A 
ATOM     75  H   UNL A   1      45.778  26.877  27.317  1.00  0.00     0.167 HD
ATOM     76  C   UNL A   1      43.211  25.544  27.503  1.00  0.00     0.074 A 
ATOM     77  C   UNL A   1      41.795  25.270  27.673  1.00  0.00     0.031 C 
ATOM     78  C   UNL A   1      44.122  24.615  27.120  1.00  0.00     0.037 A 
BRANCH  65  79
ATOM     79  C   UNL A   1      49.945  26.638  26.436  1.00  0.00     0.058 A 
ATOM     80  C   UNL A   1      50.382  26.709  25.104  1.00  0.00     0.135 A 
ATOM     81  C   UNL A   1      50.891  26.313  27.419  1.00  0.00     0.135 A 
ATOM     82  F   UNL A   1      49.510  26.975  24.117  1.00  0.00    -0.206 F 
ATOM     83  C   UNL A   1      51.708  26.467  24.760  1.00  0.00     0.059 A 
ATOM     84  C   UNL A   1      52.227  26.092  27.103  1.00  0.00     0.059 A 
ATOM     85  F   UNL A   1      50.520  26.202  28.704  1.00  0.00    -0.206 F 
ATOM     86  C   UNL A   1      52.626  26.171  25.769  1.00  0.00     0.060 A 
BRANCH  86  87
ATOM     87  S   UNL A   1      54.352  25.912  25.312  1.00  0.00     0.124 S 
ATOM     88  O   UNL A   1      54.522  26.888  24.241  1.00  0.00    -0.237 OA
ATOM     89  O   UNL A   1      55.048  26.213  26.559  1.00  0.00    -0.237 OA
ATOM     90  O   UNL A   1      54.391  24.513  24.898  1.00  0.00    -0.744 OA
ENDBRANCH  86  87
ENDBRANCH  65  79
BRANCH  66  91
ATOM     91  C   UNL A   1      40.383  29.141  28.730  1.00  0.00     0.058 A 
ATOM     92  C   UNL A   1      39.879  29.265  30.032  1.00  0.00     0.135 A 
ATOM     93  C   UNL A   1      39.507  29.413  27.665  1.00  0.00     0.135 A 
ATOM     94  F   UNL A   1      40.675  29.018  31.084  1.00  0.00    -0.206 F 
ATOM     95  C   UNL A   1      38.556  29.622  30.272  1.00  0.00     0.059 A 
ATOM     96  C   UNL A   1      38.188  29.800  27.879  1.00  0.00     0.059 A 
ATOM     97  F   UNL A   1      39.941  29.331  26.397  1.00  0.00    -0.206 F 
ATOM     98  C   UNL A   1      37.717  29.889  29.188  1.00  0.00     0.060 A 
BRANCH  98  99
ATOM     99  S   UNL A   1      36.011  30.381  29.514  1.00  0.00     0.124 S 
ATOM    100  O   UNL A   1      35.279  29.547  28.568  1.00  0.00    -0.237 OA
ATOM    101  O   UNL A   1      35.859  30.036  30.924  1.00  0.00    -0.237 OA
ATOM    102  O   UNL A   1      36.014  31.812  29.225  1.00  0.00    -0.744 OA
ENDBRANCH  98  99
ENDBRANCH  66  91
BRANCH  78 103
ATOM    103  C   UNL A   1      43.609  23.228  26.871  1.00  0.00     0.058 A 
ATOM    104  C   UNL A   1      43.520  22.707  25.572  1.00  0.00     0.135 A 
ATOM    105  C   UNL A   1      43.279  22.391  27.948  1.00  0.00     0.135 A 
ATOM    106  F   UNL A   1      43.818  23.476  24.512  1.00  0.00    -0.206 F 
ATOM    107  C   UNL A   1      43.106  21.402  25.348  1.00  0.00     0.059 A 
ATOM    108  C   UNL A   1      42.896  21.072  27.748  1.00  0.00     0.059 A 
ATOM    109  F   UNL A   1      43.363  22.845  29.209  1.00  0.00    -0.206 F 
ATOM    110  C   UNL A   1      42.804  20.590  26.443  1.00  0.00     0.060 A 
BRANCH 110 111
ATOM    111  S   UNL A   1      42.318  18.881  26.137  1.00  0.00     0.124 S 
ATOM    112  O   UNL A   1      43.227  18.507  25.059  1.00  0.00    -0.237 OA
ATOM    113  O   UNL A   1      42.571  18.251  27.429  1.00  0.00    -0.237 OA
ATOM    114  O   UNL A   1      40.911  18.989  25.763  1.00  0.00    -0.744 OA
ENDBRANCH 110 111
ENDBRANCH  78 103
ENDBRANCH  52  53
ENDBRANCH  45  47
ENDBRANCH  44  45
ENDBRANCH  43  44
ENDBRANCH  42  43
ENDBRANCH  41  42
ENDBRANCH  40  41
ENDBRANCH  39  40
ENDBRANCH  38  39
ENDBRANCH   1  38
TORSDOF 28
ENDMDL
MODEL 2
REMARK VINA RESULT:      -6.5      6.392     14.929
REMARK SMILES CCc1ccc(N2C(=O)/C(=C/c3cc(Cl)c(OCC(=O)OCCOCCOCCOCCOC(=O)c4ccc(-c5c6nc(c(-c7c(F)cc(S(=O)(=O)[O-])cc7F)c7ccc([nH]7)c(-c7c(F)cc(S(=O)(=O)[O-])cc7F)c7nc(c(-c8c(F)cc(S(=O)(=O)[O-])cc8F)c8ccc5[nH]8)C=C7)C=C6)cc4)c(Cl)c3)C(=O)NC2=S)cc1
REMARK SMILES IDX 26 1 25 2 24 3 23 4 22 5 21 6 19 7 20 8 18 9 17 10 16 11
REMARK SMILES IDX 12 12 13 13 104 14 14 15 102 16 15 17 103 18 11 19 7 20 8 21
REMARK SMILES IDX 108 22 9 23 10 24 107 25 109 26 105 27 106 29 6 30 3 31 4 32
REMARK SMILES IDX 111 33 5 34 110 35 2 36 1 37 27 38 28 39 29 40 30 41 31 42
REMARK SMILES IDX 32 43 33 44 34 45 35 46 36 47 37 48 101 49 38 50 100 51
REMARK SMILES IDX 39 52 40 53 41 54 94 55 42 56 99 57 93 58 95 59 43 60 98 61
REMARK SMILES IDX 92 62 91 63 44 65 78 66 57 67 77 68 58 69 61 70 76 71 96 72
REMARK SMILES IDX 59 73 60 74 75 76 97 77 62 78 45 79 46 80 55 81 47 82 48 83
REMARK SMILES IDX 54 84 56 85 49 86 50 87 51 88 52 89 53 90 79 91 80 92 89 93
REMARK SMILES IDX 81 94 82 95 88 96 90 97 83 98 84 99 85 100 86 101 87 102
REMARK SMILES IDX 63 103 64 104 73 105 65 106 66 107 72 108 74 109 67 110
REMARK SMILES IDX 68 111 69 112 70 113 71 114
REMARK H PARENT 107 28 95 64 61 75
REMARK Flexibility Score: inf
ROOT
ATOM      1  C   UNL A   1      40.280  23.760  27.531  1.00  0.00     0.188 C 
ENDROOT
BRANCH   1   2
ATOM      2  C   UNL A   1      39.553  25.040  28.018  1.00  0.00     0.188 C 
BRANCH   2   3
ATOM      3  O   UNL A   1      39.950  26.306  27.544  1.00  0.00    -0.376 OA
BRANCH   3   4
ATOM      4  C   UNL A   1      39.346  27.480  28.038  1.00  0.00     0.202 C 
BRANCH   4   5
ATOM      5  C   UNL A   1      39.790  28.903  27.628  1.00  0.00     0.261 C 
BRANCH   5   6
ATOM      6  O   UNL A   1      38.932  30.014  27.972  1.00  0.00    -0.461 OA
BRANCH   6   7
ATOM      7  C   UNL A   1      37.955  29.836  28.903  1.00  0.00     0.344 C 
ATOM      8  O   UNL A   1      36.797  29.557  28.622  1.00  0.00    -0.248 OA
BRANCH   7   9
ATOM      9  C   UNL A   1      38.462  30.055  30.371  1.00  0.00     0.352 C 
BRANCH   9  10
ATOM     10  O   UNL A   1      39.301  31.089  30.862  1.00  0.00    -0.479 OA
BRANCH  10  11
ATOM     11  C   UNL A   1      39.809  32.209  30.246  1.00  0.00     0.157 A 
ATOM     12  C   UNL A   1      41.266  34.669  29.659  1.00  0.00    -0.021 A 
ATOM     13  C   UNL A   1      41.924  33.462  29.946  1.00  0.00     0.032 A 
ATOM     14  C   UNL A   1      39.878  34.580  29.515  1.00  0.00     0.032 A 
ATOM     15  C   UNL A   1      41.219  32.275  30.248  1.00  0.00     0.085 A 
ATOM     16  C   UNL A   1      39.159  33.360  29.779  1.00  0.00     0.085 A 
ATOM     17  Cl  UNL A   1      42.182  30.911  30.728  1.00  0.00    -0.080 Cl
ATOM     18  Cl  UNL A   1      37.455  33.412  29.511  1.00  0.00    -0.080 Cl
BRANCH  12  19
ATOM     19  C   UNL A   1      42.146  35.876  29.543  1.00  0.00     0.028 C 
ATOM     20  N   UNL A   1      42.472  39.187  28.411  1.00  0.00    -0.253 N 
ATOM     21  C   UNL A   1      43.020  38.059  29.045  1.00  0.00     0.270 C 
ATOM     22  C   UNL A   1      41.967  39.151  27.108  1.00  0.00     0.187 C 
ATOM     23  O   UNL A   1      43.846  38.080  29.956  1.00  0.00    -0.268 OA
ATOM     24  C   UNL A   1      42.485  36.748  28.556  1.00  0.00     0.106 C 
ATOM     25  N   UNL A   1      41.909  37.895  26.534  1.00  0.00    -0.298 N 
ATOM     26  S   UNL A   1      41.547  40.458  26.137  1.00  0.00    -0.040 S 
ATOM     27  C   UNL A   1      42.211  36.676  27.109  1.00  0.00     0.263 C 
ATOM     28  H   UNL A   1      41.615  37.864  25.595  1.00  0.00     0.172 HD
ATOM     29  O   UNL A   1      42.204  35.625  26.483  1.00  0.00    -0.269 OA
BRANCH  20  30
ATOM     30  C   UNL A   1      42.610  40.425  29.110  1.00  0.00     0.052 A 
ATOM     31  C   UNL A   1      43.093  42.631  30.801  1.00  0.00    -0.048 A 
ATOM     32  C   UNL A   1      44.039  42.236  29.846  1.00  0.00     0.006 A 
ATOM     33  C   UNL A   1      41.868  41.943  30.849  1.00  0.00     0.006 A 
ATOM     34  C   UNL A   1      43.803  41.141  29.014  1.00  0.00     0.027 A 
ATOM     35  C   UNL A   1      41.620  40.852  30.004  1.00  0.00     0.027 A 
BRANCH  31  36
ATOM     36  C   UNL A   1      43.364  43.712  31.826  1.00  0.00     0.032 C 
ATOM     37  C   UNL A   1      44.424  43.400  32.878  1.00  0.00     0.009 C 
ENDBRANCH  31  36
ENDBRANCH  20  30
ENDBRANCH  12  19
ENDBRANCH  10  11
ENDBRANCH   9  10
ENDBRANCH   7   9
ENDBRANCH   6   7
ENDBRANCH   5   6
ENDBRANCH   4   5
ENDBRANCH   3   4
ENDBRANCH   2   3
ENDBRANCH   1   2
BRANCH   1  38
ATOM     38  O   UNL A   1      41.454  23.263  28.127  1.00  0.00    -0.377 OA
BRANCH  38  39
ATOM     39  C   UNL A   1      42.359  24.202  28.626  1.00  0.00     0.188 C 
BRANCH  39  40
ATOM     40  C   UNL A   1      43.770  23.976  28.107  1.00  0.00     0.188 C 
BRANCH  40  41
ATOM     41  O   UNL A   1      44.760  24.965  28.268  1.00  0.00    -0.376 OA
BRANCH  41  42
ATOM     42  C   UNL A   1      44.547  26.351  28.136  1.00  0.00     0.202 C 
BRANCH  42  43
ATOM     43  C   UNL A   1      44.203  27.408  29.181  1.00  0.00     0.261 C 
BRANCH  43  44
ATOM     44  O   UNL A   1      44.907  27.356  30.385  1.00  0.00    -0.460 OA
BRANCH  44  45
ATOM     45  C   UNL A   1      44.299  26.700  31.381  1.00  0.00     0.338 C 
ATOM     46  O   UNL A   1      44.175  25.506  31.543  1.00  0.00    -0.246 OA
BRANCH  45  47
ATOM     47  C   UNL A   1      43.944  27.792  32.268  1.00  0.00     0.060 A 
ATOM     48  C   UNL A   1      43.153  27.500  33.379  1.00  0.00     0.016 A 
ATOM     49  C   UNL A   1      44.640  28.999  32.120  1.00  0.00     0.016 A 
ATOM     50  C   UNL A   1      43.102  28.417  34.406  1.00  0.00     0.010 A 
ATOM     51  C   UNL A   1      44.555  29.931  33.129  1.00  0.00     0.010 A 
ATOM     52  C   UNL A   1      43.787  29.628  34.262  1.00  0.00    -0.014 A 
BRANCH  52  53
ATOM     53  C   UNL A   1      43.535  30.692  35.226  1.00  0.00     0.031 A 
ATOM     54  C   UNL A   1      42.242  31.418  35.081  1.00  0.00     0.074 A 
ATOM     55  C   UNL A   1      44.468  30.972  36.145  1.00  0.00     0.049 A 
ATOM     56  N   UNL A   1      41.812  32.461  35.725  1.00  0.00    -0.248 NA
ATOM     57  C   UNL A   1      41.308  30.907  34.055  1.00  0.00     0.031 C 
ATOM     58  C   UNL A   1      45.736  30.257  36.310  1.00  0.00     0.029 A 
ATOM     59  N   UNL A   1      44.504  31.950  37.095  1.00  0.00    -0.354 N 
ATOM     60  C   UNL A   1      40.567  32.739  35.180  1.00  0.00     0.074 A 
ATOM     61  C   UNL A   1      40.313  31.774  34.139  1.00  0.00     0.031 C 
ATOM     62  C   UNL A   1      46.443  30.845  37.290  1.00  0.00     0.029 A 
ATOM     63  C   UNL A   1      45.690  31.994  37.783  1.00  0.00     0.049 A 
ATOM     64  H   UNL A   1      43.753  32.562  37.269  1.00  0.00     0.167 HD
ATOM     65  C   UNL A   1      39.723  33.729  35.536  1.00  0.00     0.037 A 
ATOM     66  C   UNL A   1      46.115  32.904  38.677  1.00  0.00     0.037 A 
ATOM     67  C   UNL A   1      40.043  34.671  36.571  1.00  0.00     0.049 A 
ATOM     68  C   UNL A   1      45.171  34.028  39.019  1.00  0.00     0.074 A 
ATOM     69  C   UNL A   1      39.276  35.709  37.058  1.00  0.00     0.029 A 
ATOM     70  N   UNL A   1      41.249  34.691  37.265  1.00  0.00    -0.354 N 
ATOM     71  N   UNL A   1      43.966  34.261  38.546  1.00  0.00    -0.248 NA
ATOM     72  C   UNL A   1      45.633  35.009  40.004  1.00  0.00     0.031 C 
ATOM     73  C   UNL A   1      40.043  36.393  38.006  1.00  0.00     0.029 A 
ATOM     74  C   UNL A   1      41.263  35.747  38.153  1.00  0.00     0.049 A 
ATOM     75  H   UNL A   1      41.983  34.047  37.140  1.00  0.00     0.167 HD
ATOM     76  C   UNL A   1      43.521  35.410  39.184  1.00  0.00     0.074 A 
ATOM     77  C   UNL A   1      44.579  35.806  40.097  1.00  0.00     0.031 C 
ATOM     78  C   UNL A   1      42.355  36.088  39.036  1.00  0.00     0.037 A 
BRANCH  65  79
ATOM     79  C   UNL A   1      38.431  33.850  34.786  1.00  0.00     0.058 A 
ATOM     80  C   UNL A   1      37.209  33.432  35.336  1.00  0.00     0.135 A 
ATOM     81  C   UNL A   1      38.412  34.411  33.500  1.00  0.00     0.135 A 
ATOM     82  F   UNL A   1      37.175  32.850  36.547  1.00  0.00    -0.206 F 
ATOM     83  C   UNL A   1      36.014  33.564  34.638  1.00  0.00     0.059 A 
ATOM     84  C   UNL A   1      37.226  34.577  32.793  1.00  0.00     0.059 A 
ATOM     85  F   UNL A   1      39.555  34.799  32.915  1.00  0.00    -0.206 F 
ATOM     86  C   UNL A   1      36.031  34.149  33.371  1.00  0.00     0.060 A 
BRANCH  86  87
ATOM     87  S   UNL A   1      34.465  34.362  32.499  1.00  0.00     0.124 S 
ATOM     88  O   UNL A   1      34.897  34.327  31.106  1.00  0.00    -0.237 OA
ATOM     89  O   UNL A   1      33.700  33.206  32.954  1.00  0.00    -0.237 OA
ATOM     90  O   UNL A   1      33.983  35.655  32.974  1.00  0.00    -0.744 OA
ENDBRANCH  86  87
ENDBRANCH  65  79
BRANCH  66  91
ATOM     91  C   UNL A   1      47.475  32.803  39.266  1.00  0.00     0.058 A 
ATOM     92  C   UNL A   1      47.716  32.031  40.411  1.00  0.00     0.135 A 
ATOM     93  C   UNL A   1      48.570  33.464  38.684  1.00  0.00     0.135 A 
ATOM     94  F   UNL A   1      46.705  31.378  41.003  1.00  0.00    -0.206 F 
ATOM     95  C   UNL A   1      48.986  31.935  40.971  1.00  0.00     0.059 A 
ATOM     96  C   UNL A   1      49.854  33.361  39.208  1.00  0.00     0.059 A 
ATOM     97  F   UNL A   1      48.401  34.200  37.574  1.00  0.00    -0.206 F 
ATOM     98  C   UNL A   1      50.050  32.603  40.362  1.00  0.00     0.060 A 
BRANCH  98  99
ATOM     99  S   UNL A   1      51.698  32.445  41.082  1.00  0.00     0.124 S 
ATOM    100  O   UNL A   1      51.382  32.179  42.481  1.00  0.00    -0.237 OA
ATOM    101  O   UNL A   1      52.254  31.326  40.328  1.00  0.00    -0.237 OA
ATOM    102  O   UNL A   1      52.311  33.741  40.808  1.00  0.00    -0.744 OA
ENDBRANCH  98  99
ENDBRANCH  66  91
BRANCH  78 103
ATOM    103  C   UNL A   1      42.172  37.311  39.883  1.00  0.00     0.058 A 
ATOM    104  C   UNL A   1      41.537  37.244  41.132  1.00  0.00     0.135 A 
ATOM    105  C   UNL A   1      42.709  38.541  39.475  1.00  0.00     0.135 A 
ATOM    106  F   UNL A   1      41.002  36.088  41.558  1.00  0.00    -0.206 F 
ATOM    107  C   UNL A   1      41.426  38.364  41.943  1.00  0.00     0.059 A 
ATOM    108  C   UNL A   1      42.640  39.666  40.286  1.00  0.00     0.059 A 
ATOM    109  F   UNL A   1      43.338  38.648  38.293  1.00  0.00    -0.206 F 
ATOM    110  C   UNL A   1      41.988  39.568  41.514  1.00  0.00     0.060 A 
BRANCH 110 111
ATOM    111  S   UNL A   1      41.881  41.001  42.604  1.00  0.00     0.124 S 
ATOM    112  O   UNL A   1      40.440  41.220  42.659  1.00  0.00    -0.237 OA
ATOM    113  O   UNL A   1      42.496  40.503  43.831  1.00  0.00    -0.237 OA
ATOM    114  O   UNL A   1      42.646  42.024  41.897  1.00  0.00    -0.744 OA
ENDBRANCH 110 111
ENDBRANCH  78 103
ENDBRANCH  52  53
ENDBRANCH  45  47
ENDBRANCH  44  45
ENDBRANCH  43  44
ENDBRANCH  42  43
ENDBRANCH  41  42
ENDBRANCH  40  41
ENDBRANCH  39  40
ENDBRANCH  38  39
ENDBRANCH   1  38
TORSDOF 28
ENDMDL
MODEL 3
REMARK VINA RESULT:      -6.2      3.631      8.940
REMARK SMILES CCc1ccc(N2C(=O)/C(=C/c3cc(Cl)c(OCC(=O)OCCOCCOCCOCCOC(=O)c4ccc(-c5c6nc(c(-c7c(F)cc(S(=O)(=O)[O-])cc7F)c7ccc([nH]7)c(-c7c(F)cc(S(=O)(=O)[O-])cc7F)c7nc(c(-c8c(F)cc(S(=O)(=O)[O-])cc8F)c8ccc5[nH]8)C=C7)C=C6)cc4)c(Cl)c3)C(=O)NC2=S)cc1
REMARK SMILES IDX 26 1 25 2 24 3 23 4 22 5 21 6 19 7 20 8 18 9 17 10 16 11
REMARK SMILES IDX 12 12 13 13 104 14 14 15 102 16 15 17 103 18 11 19 7 20 8 21
REMARK SMILES IDX 108 22 9 23 10 24 107 25 109 26 105 27 106 29 6 30 3 31 4 32
REMARK SMILES IDX 111 33 5 34 110 35 2 36 1 37 27 38 28 39 29 40 30 41 31 42
REMARK SMILES IDX 32 43 33 44 34 45 35 46 36 47 37 48 101 49 38 50 100 51
REMARK SMILES IDX 39 52 40 53 41 54 94 55 42 56 99 57 93 58 95 59 43 60 98 61
REMARK SMILES IDX 92 62 91 63 44 65 78 66 57 67 77 68 58 69 61 70 76 71 96 72
REMARK SMILES IDX 59 73 60 74 75 76 97 77 62 78 45 79 46 80 55 81 47 82 48 83
REMARK SMILES IDX 54 84 56 85 49 86 50 87 51 88 52 89 53 90 79 91 80 92 89 93
REMARK SMILES IDX 81 94 82 95 88 96 90 97 83 98 84 99 85 100 86 101 87 102
REMARK SMILES IDX 63 103 64 104 73 105 65 106 66 107 72 108 74 109 67 110
REMARK SMILES IDX 68 111 69 112 70 113 71 114
REMARK H PARENT 107 28 95 64 61 75
REMARK Flexibility Score: inf
ROOT
ATOM      1  C   UNL A   1      51.063  31.653  30.071  1.00  0.00     0.188 C 
ENDROOT
BRANCH   1   2
ATOM      2  C   UNL A   1      50.745  32.065  31.532  1.00  0.00     0.188 C 
BRANCH   2   3
ATOM      3  O   UNL A   1      50.094  31.164  32.397  1.00  0.00    -0.376 OA
BRANCH   3   4
ATOM      4  C   UNL A   1      49.182  30.214  31.892  1.00  0.00     0.202 C 
BRANCH   4   5
ATOM      5  C   UNL A   1      47.661  30.268  32.160  1.00  0.00     0.261 C 
BRANCH   5   6
ATOM      6  O   UNL A   1      46.958  29.023  32.368  1.00  0.00    -0.461 OA
BRANCH   6   7
ATOM      7  C   UNL A   1      46.818  28.541  33.633  1.00  0.00     0.344 C 
ATOM      8  O   UNL A   1      47.262  29.107  34.624  1.00  0.00    -0.248 OA
BRANCH   7   9
ATOM      9  C   UNL A   1      46.058  27.170  33.685  1.00  0.00     0.352 C 
BRANCH   9  10
ATOM     10  O   UNL A   1      44.689  26.940  33.977  1.00  0.00    -0.479 OA
BRANCH  10  11
ATOM     11  C   UNL A   1      43.724  27.770  34.498  1.00  0.00     0.157 A 
ATOM     12  C   UNL A   1      42.177  30.107  35.314  1.00  0.00    -0.021 A 
ATOM     13  C   UNL A   1      42.438  29.818  33.965  1.00  0.00     0.032 A 
ATOM     14  C   UNL A   1      42.567  29.123  36.228  1.00  0.00     0.032 A 
ATOM     15  C   UNL A   1      43.202  28.697  33.570  1.00  0.00     0.085 A 
ATOM     16  C   UNL A   1      43.307  27.955  35.825  1.00  0.00     0.085 A 
ATOM     17  Cl  UNL A   1      43.559  28.568  31.875  1.00  0.00    -0.080 Cl
ATOM     18  Cl  UNL A   1      43.670  26.820  37.072  1.00  0.00    -0.080 Cl
BRANCH  12  19
ATOM     19  C   UNL A   1      41.516  31.426  35.579  1.00  0.00     0.028 C 
ATOM     20  N   UNL A   1      39.472  33.318  37.721  1.00  0.00    -0.253 N 
ATOM     21  C   UNL A   1      40.233  33.213  36.544  1.00  0.00     0.270 C 
ATOM     22  C   UNL A   1      38.401  32.467  38.006  1.00  0.00     0.187 C 
ATOM     23  O   UNL A   1      40.864  34.127  36.015  1.00  0.00    -0.268 OA
ATOM     24  C   UNL A   1      40.274  31.840  35.949  1.00  0.00     0.106 C 
ATOM     25  N   UNL A   1      38.228  31.420  37.120  1.00  0.00    -0.298 N 
ATOM     26  S   UNL A   1      37.245  32.646  39.215  1.00  0.00    -0.040 S 
ATOM     27  C   UNL A   1      39.022  31.069  36.045  1.00  0.00     0.263 C 
ATOM     28  H   UNL A   1      37.440  30.852  37.274  1.00  0.00     0.172 HD
ATOM     29  O   UNL A   1      38.732  30.167  35.271  1.00  0.00    -0.269 OA
BRANCH  20  30
ATOM     30  C   UNL A   1      39.745  34.454  38.542  1.00  0.00     0.052 A 
ATOM     31  C   UNL A   1      40.567  36.818  39.844  1.00  0.00    -0.048 A 
ATOM     32  C   UNL A   1      39.512  36.835  38.923  1.00  0.00     0.006 A 
ATOM     33  C   UNL A   1      41.162  35.582  40.153  1.00  0.00     0.006 A 
ATOM     34  C   UNL A   1      39.109  35.667  38.275  1.00  0.00     0.027 A 
ATOM     35  C   UNL A   1      40.750  34.404  39.516  1.00  0.00     0.027 A 
BRANCH  31  36
ATOM     36  C   UNL A   1      41.141  38.079  40.457  1.00  0.00     0.032 C 
ATOM     37  C   UNL A   1      40.800  38.337  41.921  1.00  0.00     0.009 C 
ENDBRANCH  31  36
ENDBRANCH  20  30
ENDBRANCH  12  19
ENDBRANCH  10  11
ENDBRANCH   9  10
ENDBRANCH   7   9
ENDBRANCH   6   7
ENDBRANCH   5   6
ENDBRANCH   4   5
ENDBRANCH   3   4
ENDBRANCH   2   3
ENDBRANCH   1   2
BRANCH   1  38
ATOM     38  O   UNL A   1      52.336  31.793  29.488  1.00  0.00    -0.377 OA
BRANCH  38  39
ATOM     39  C   UNL A   1      52.526  31.213  28.233  1.00  0.00     0.188 C 
BRANCH  39  40
ATOM     40  C   UNL A   1      53.935  30.667  28.057  1.00  0.00     0.188 C 
BRANCH  40  41
ATOM     41  O   UNL A   1      54.239  29.339  28.414  1.00  0.00    -0.376 OA
BRANCH  41  42
ATOM     42  C   UNL A   1      54.544  28.306  27.506  1.00  0.00     0.202 C 
BRANCH  42  43
ATOM     43  C   UNL A   1      53.634  27.324  26.776  1.00  0.00     0.261 C 
BRANCH  43  44
ATOM     44  O   UNL A   1      52.265  27.428  27.027  1.00  0.00    -0.460 OA
BRANCH  44  45
ATOM     45  C   UNL A   1      51.469  27.260  25.964  1.00  0.00     0.338 C 
ATOM     46  O   UNL A   1      51.757  26.882  24.850  1.00  0.00    -0.246 OA
BRANCH  45  47
ATOM     47  C   UNL A   1      50.164  27.529  26.537  1.00  0.00     0.060 A 
ATOM     48  C   UNL A   1      50.079  27.691  27.921  1.00  0.00     0.016 A 
ATOM     49  C   UNL A   1      49.133  27.890  25.661  1.00  0.00     0.016 A 
ATOM     50  C   UNL A   1      48.953  28.289  28.442  1.00  0.00     0.010 A 
ATOM     51  C   UNL A   1      47.992  28.451  26.187  1.00  0.00     0.010 A 
ATOM     52  C   UNL A   1      47.916  28.645  27.573  1.00  0.00    -0.014 A 
BRANCH  52  53
ATOM     53  C   UNL A   1      46.635  29.044  28.142  1.00  0.00     0.031 A 
ATOM     54  C   UNL A   1      45.545  28.030  28.083  1.00  0.00     0.074 A 
ATOM     55  C   UNL A   1      46.502  30.278  28.645  1.00  0.00     0.049 A 
ATOM     56  N   UNL A   1      44.294  28.152  28.414  1.00  0.00    -0.248 NA
ATOM     57  C   UNL A   1      45.910  26.695  27.564  1.00  0.00     0.031 C 
ATOM     58  C   UNL A   1      47.569  31.280  28.723  1.00  0.00     0.029 A 
ATOM     59  N   UNL A   1      45.407  30.908  29.158  1.00  0.00    -0.354 N 
ATOM     60  C   UNL A   1      43.720  26.921  28.136  1.00  0.00     0.074 A 
ATOM     61  C   UNL A   1      44.746  26.067  27.589  1.00  0.00     0.031 C 
ATOM     62  C   UNL A   1      47.061  32.416  29.231  1.00  0.00     0.029 A 
ATOM     63  C   UNL A   1      45.634  32.225  29.469  1.00  0.00     0.049 A 
ATOM     64  H   UNL A   1      44.540  30.461  29.292  1.00  0.00     0.167 HD
ATOM     65  C   UNL A   1      42.437  26.556  28.328  1.00  0.00     0.037 A 
ATOM     66  C   UNL A   1      44.756  33.164  29.859  1.00  0.00     0.037 A 
ATOM     67  C   UNL A   1      41.456  27.460  28.860  1.00  0.00     0.049 A 
ATOM     68  C   UNL A   1      43.318  32.742  30.017  1.00  0.00     0.074 A 
ATOM     69  C   UNL A   1      40.126  27.224  29.135  1.00  0.00     0.029 A 
ATOM     70  N   UNL A   1      41.712  28.789  29.180  1.00  0.00    -0.354 N 
ATOM     71  N   UNL A   1      42.783  31.559  29.809  1.00  0.00    -0.248 NA
ATOM     72  C   UNL A   1      42.368  33.767  30.455  1.00  0.00     0.031 C 
ATOM     73  C   UNL A   1      39.562  28.428  29.566  1.00  0.00     0.029 A 
ATOM     74  C   UNL A   1      40.554  29.399  29.617  1.00  0.00     0.049 A 
ATOM     75  H   UNL A   1      42.589  29.230  29.106  1.00  0.00     0.167 HD
ATOM     76  C   UNL A   1      41.432  31.694  30.103  1.00  0.00     0.074 A 
ATOM     77  C   UNL A   1      41.243  33.069  30.528  1.00  0.00     0.031 C 
ATOM     78  C   UNL A   1      40.433  30.779  30.026  1.00  0.00     0.037 A 
BRANCH  65  79
ATOM     79  C   UNL A   1      42.036  25.167  27.929  1.00  0.00     0.058 A 
ATOM     80  C   UNL A   1      42.334  24.050  28.726  1.00  0.00     0.135 A 
ATOM     81  C   UNL A   1      41.327  24.952  26.738  1.00  0.00     0.135 A 
ATOM     82  F   UNL A   1      43.046  24.194  29.856  1.00  0.00    -0.206 F 
ATOM     83  C   UNL A   1      41.943  22.768  28.355  1.00  0.00     0.059 A 
ATOM     84  C   UNL A   1      40.904  23.682  26.359  1.00  0.00     0.059 A 
ATOM     85  F   UNL A   1      41.044  25.981  25.925  1.00  0.00    -0.206 F 
ATOM     86  C   UNL A   1      41.219  22.595  27.175  1.00  0.00     0.060 A 
BRANCH  86  87
ATOM     87  S   UNL A   1      40.674  20.932  26.734  1.00  0.00     0.124 S 
ATOM     88  O   UNL A   1      41.644  20.568  25.706  1.00  0.00    -0.237 OA
ATOM     89  O   UNL A   1      40.798  20.222  28.003  1.00  0.00    -0.237 OA
ATOM     90  O   UNL A   1      39.307  21.134  26.263  1.00  0.00    -0.744 OA
ENDBRANCH  86  87
ENDBRANCH  65  79
BRANCH  66  91
ATOM     91  C   UNL A   1      45.202  34.563  30.088  1.00  0.00     0.058 A 
ATOM     92  C   UNL A   1      45.207  35.504  29.049  1.00  0.00     0.135 A 
ATOM     93  C   UNL A   1      45.618  34.994  31.359  1.00  0.00     0.135 A 
ATOM     94  F   UNL A   1      44.815  35.143  27.818  1.00  0.00    -0.206 F 
ATOM     95  C   UNL A   1      45.627  36.815  29.254  1.00  0.00     0.059 A 
ATOM     96  C   UNL A   1      46.017  36.306  31.596  1.00  0.00     0.059 A 
ATOM     97  F   UNL A   1      45.614  34.141  32.396  1.00  0.00    -0.206 F 
ATOM     98  C   UNL A   1      46.031  37.207  30.532  1.00  0.00     0.060 A 
BRANCH  98  99
ATOM     99  S   UNL A   1      46.545  38.918  30.791  1.00  0.00     0.124 S 
ATOM    100  O   UNL A   1      45.477  39.649  30.119  1.00  0.00    -0.237 OA
ATOM    101  O   UNL A   1      46.568  39.012  32.247  1.00  0.00    -0.237 OA
ATOM    102  O   UNL A   1      47.854  38.976  30.146  1.00  0.00    -0.744 OA
ENDBRANCH  98  99
ENDBRANCH  66  91
BRANCH  78 103
ATOM    103  C   UNL A   1      39.062  31.244  30.417  1.00  0.00     0.058 A 
ATOM    104  C   UNL A   1      38.732  31.490  31.758  1.00  0.00     0.135 A 
ATOM    105  C   UNL A   1      38.100  31.519  29.433  1.00  0.00     0.135 A 
ATOM    106  F   UNL A   1      39.620  31.234  32.732  1.00  0.00    -0.206 F 
ATOM    107  C   UNL A   1      37.484  31.981  32.112  1.00  0.00     0.059 A 
ATOM    108  C   UNL A   1      36.858  32.043  29.763  1.00  0.00     0.059 A 
ATOM    109  F   UNL A   1      38.379  31.310  28.136  1.00  0.00    -0.206 F 
ATOM    110  C   UNL A   1      36.556  32.262  31.106  1.00  0.00     0.060 A 
BRANCH 110 111
ATOM    111  S   UNL A   1      34.958  32.949  31.579  1.00  0.00     0.124 S 
ATOM    112  O   UNL A   1      34.126  32.563  30.445  1.00  0.00    -0.237 OA
ATOM    113  O   UNL A   1      34.682  32.255  32.834  1.00  0.00    -0.237 OA
ATOM    114  O   UNL A   1      35.226  34.378  31.705  1.00  0.00    -0.744 OA
ENDBRANCH 110 111
ENDBRANCH  78 103
ENDBRANCH  52  53
ENDBRANCH  45  47
ENDBRANCH  44  45
ENDBRANCH  43  44
ENDBRANCH  42  43
ENDBRANCH  41  42
ENDBRANCH  40  41
ENDBRANCH  39  40
ENDBRANCH  38  39
ENDBRANCH   1  38
TORSDOF 28
ENDMDL
