MODEL 1
REMARK VINA RESULT:     -12.0      0.000      0.000
REMARK SMILES Cc1nc(NC(=O)[C@H]2[C@@H]3CC[C@@H](C3)[C@@H]2C(=O)OCCOCCOCCOCCOC(=O)c2ccc(-c3c4nc(c(-c5c(F)cc(S(=O)(=O)[O-])cc5F)c5ccc([nH]5)c(-c5c(F)cc(S(=O)(=O)[O-])cc5F)c5nc(c(-c6c(F)cc(S(=O)(=O)[O-])cc6F)c6ccc3[nH]6)C=C5)C=C4)cc2)sc1-c1ccccc1
REMARK SMILES IDX 23 1 22 2 21 3 20 4 19 5 18 6 17 7 15 8 16 9 14 10 8 11 9 12
REMARK SMILES IDX 10 13 13 14 12 15 11 16 6 17 5 18 7 20 4 21 1 22 2 23 3 24
REMARK SMILES IDX 99 25 98 26 100 27 101 28 105 29 102 30 104 31 103 32 24 33
REMARK SMILES IDX 25 34 26 35 27 36 28 37 29 38 30 39 31 40 32 41 33 42 97 43
REMARK SMILES IDX 34 44 96 45 35 46 36 47 37 48 90 49 38 50 95 51 89 52 91 53
REMARK SMILES IDX 39 54 94 55 88 56 87 57 40 59 74 60 53 61 73 62 54 63 57 64
REMARK SMILES IDX 72 65 92 66 55 67 56 68 71 70 93 71 58 72 41 73 42 74 51 75
REMARK SMILES IDX 43 76 44 77 50 78 52 79 45 80 46 81 47 82 48 83 49 84 75 85
REMARK SMILES IDX 76 86 85 87 77 88 78 89 84 90 86 91 79 92 80 93 81 94 82 95
REMARK SMILES IDX 83 96 59 97 60 98 69 99 61 100 62 101 68 102 70 103 63 104
REMARK SMILES IDX 64 105 65 106 66 107 67 108
REMARK H PARENT 5 19 91 58 57 69
REMARK Flexibility Score: inf
ROOT
ATOM      1  O   UNL A   1      33.715  36.229  29.731  1.00  0.00    -0.377 OA
ENDROOT
BRANCH   1   2
ATOM      2  C   UNL A   1      32.686  35.682  28.915  1.00  0.00     0.188 C 
BRANCH   2   3
ATOM      3  C   UNL A   1      33.094  34.350  28.287  1.00  0.00     0.188 C 
BRANCH   3   4
ATOM      4  O   UNL A   1      32.128  33.769  27.408  1.00  0.00    -0.376 OA
BRANCH   4   5
ATOM      5  C   UNL A   1      32.305  32.406  27.020  1.00  0.00     0.202 C 
BRANCH   5   6
ATOM      6  C   UNL A   1      31.059  31.687  26.490  1.00  0.00     0.261 C 
BRANCH   6   7
ATOM      7  O   UNL A   1      31.393  30.831  25.394  1.00  0.00    -0.463 OA
BRANCH   7   8
ATOM      8  C   UNL A   1      31.656  29.524  25.683  1.00  0.00     0.310 C 
ATOM      9  O   UNL A   1      32.130  29.106  26.730  1.00  0.00    -0.252 OA
BRANCH   8  10
ATOM     10  C   UNL A   1      31.133  28.674  24.546  1.00  0.00     0.115 C 
ATOM     11  C   UNL A   1      31.279  27.166  24.736  1.00  0.00     0.096 C 
ATOM     12  C   UNL A   1      32.232  26.781  23.578  1.00  0.00     0.003 C 
ATOM     13  C   UNL A   1      33.602  27.474  23.773  1.00  0.00     0.005 C 
ATOM     14  C   UNL A   1      31.634  27.594  22.435  1.00  0.00     0.009 C 
ATOM     15  C   UNL A   1      31.804  28.929  23.177  1.00  0.00     0.004 C 
ATOM     16  C   UNL A   1      33.328  28.926  23.345  1.00  0.00     0.005 C 
BRANCH  11  17
ATOM     17  C   UNL A   1      30.032  26.259  24.711  1.00  0.00     0.230 C 
ATOM     18  N   UNL A   1      29.905  24.949  25.028  1.00  0.00    -0.302 N 
ATOM     19  H   UNL A   1      28.974  24.632  24.988  1.00  0.00     0.172 HD
ATOM     20  O   UNL A   1      28.962  26.802  24.373  1.00  0.00    -0.274 OA
BRANCH  18  21
ATOM     21  C   UNL A   1      30.787  23.968  25.392  1.00  0.00     0.190 A 
ATOM     22  C   UNL A   1      33.020  22.354  27.678  1.00  0.00     0.068 C 
ATOM     23  C   UNL A   1      32.387  22.823  26.425  1.00  0.00     0.058 A 
ATOM     24  N   UNL A   1      31.182  23.521  26.549  1.00  0.00    -0.225 NA
ATOM     25  C   UNL A   1      32.827  22.652  25.124  1.00  0.00     0.059 A 
ATOM     26  S   UNL A   1      31.507  23.164  24.085  1.00  0.00    -0.096 S 
BRANCH  25  27
ATOM     27  C   UNL A   1      33.957  21.924  24.498  1.00  0.00    -0.006 A 
ATOM     28  C   UNL A   1      34.441  20.200  24.920  1.00  0.00     0.009 A 
ATOM     29  C   UNL A   1      35.257  23.074  23.991  1.00  0.00     0.009 A 
ATOM     30  C   UNL A   1      36.208  19.710  25.000  1.00  0.00     0.001 A 
ATOM     31  C   UNL A   1      36.987  22.601  24.064  1.00  0.00     0.001 A 
ATOM     32  C   UNL A   1      37.486  20.960  24.630  1.00  0.00     0.000 A 
ENDBRANCH  25  27
ENDBRANCH  18  21
ENDBRANCH  11  17
ENDBRANCH   8  10
ENDBRANCH   7   8
ENDBRANCH   6   7
ENDBRANCH   5   6
ENDBRANCH   4   5
ENDBRANCH   3   4
ENDBRANCH   2   3
ENDBRANCH   1   2
BRANCH   1  33
ATOM     33  C   UNL A   1      33.249  36.708  30.991  1.00  0.00     0.188 C 
BRANCH  33  34
ATOM     34  C   UNL A   1      32.773  35.614  31.996  1.00  0.00     0.188 C 
BRANCH  34  35
ATOM     35  O   UNL A   1      33.712  34.784  32.706  1.00  0.00    -0.376 OA
BRANCH  35  36
ATOM     36  C   UNL A   1      34.186  33.592  32.064  1.00  0.00     0.202 C 
BRANCH  36  37
ATOM     37  C   UNL A   1      35.561  33.764  31.266  1.00  0.00     0.261 C 
BRANCH  37  38
ATOM     38  O   UNL A   1      35.725  32.921  29.764  1.00  0.00    -0.460 OA
BRANCH  38  39
ATOM     39  C   UNL A   1      35.735  31.375  28.703  1.00  0.00     0.338 C 
ATOM     40  O   UNL A   1      35.033  31.158  27.665  1.00  0.00    -0.246 OA
BRANCH  39  41
ATOM     41  C   UNL A   1      36.664  30.116  28.727  1.00  0.00     0.060 A 
ATOM     42  C   UNL A   1      37.090  29.555  29.963  1.00  0.00     0.016 A 
ATOM     43  C   UNL A   1      37.519  30.010  27.627  1.00  0.00     0.016 A 
ATOM     44  C   UNL A   1      38.355  29.004  30.124  1.00  0.00     0.010 A 
ATOM     45  C   UNL A   1      38.793  29.474  27.791  1.00  0.00     0.010 A 
ATOM     46  C   UNL A   1      39.231  29.034  29.051  1.00  0.00    -0.014 A 
BRANCH  46  47
ATOM     47  C   UNL A   1      40.659  28.717  29.207  1.00  0.00     0.031 A 
ATOM     48  C   UNL A   1      41.632  29.851  29.280  1.00  0.00     0.074 A 
ATOM     49  C   UNL A   1      41.042  27.440  29.068  1.00  0.00     0.049 A 
ATOM     50  N   UNL A   1      42.880  29.889  28.906  1.00  0.00    -0.248 NA
ATOM     51  C   UNL A   1      41.115  31.125  29.809  1.00  0.00     0.031 C 
ATOM     52  C   UNL A   1      40.146  26.284  29.066  1.00  0.00     0.029 A 
ATOM     53  N   UNL A   1      42.277  26.922  28.790  1.00  0.00    -0.354 N 
ATOM     54  C   UNL A   1      43.284  31.208  29.085  1.00  0.00     0.074 A 
ATOM     55  C   UNL A   1      42.155  31.930  29.631  1.00  0.00     0.031 C 
ATOM     56  C   UNL A   1      40.844  25.199  28.699  1.00  0.00     0.029 A 
ATOM     57  C   UNL A   1      42.206  25.611  28.383  1.00  0.00     0.049 A 
ATOM     58  H   UNL A   1      43.119  27.428  28.871  1.00  0.00     0.167 HD
ATOM     59  C   UNL A   1      44.488  31.750  28.782  1.00  0.00     0.037 A 
ATOM     60  C   UNL A   1      43.114  24.860  27.736  1.00  0.00     0.037 A 
ATOM     61  C   UNL A   1      45.577  30.971  28.246  1.00  0.00     0.049 A 
ATOM     62  C   UNL A   1      44.438  25.475  27.391  1.00  0.00     0.074 A 
ATOM     63  C   UNL A   1      46.859  31.377  27.927  1.00  0.00     0.029 A 
ATOM     64  N   UNL A   1      45.499  29.615  27.950  1.00  0.00    -0.354 N 
ATOM     65  N   UNL A   1      44.827  26.721  27.539  1.00  0.00    -0.248 NA
ATOM     66  C   UNL A   1      45.448  24.591  26.804  1.00  0.00     0.031 C 
ATOM     67  C   UNL A   1      47.547  30.273  27.409  1.00  0.00     0.029 A 
ATOM     68  C   UNL A   1      46.708  29.168  27.450  1.00  0.00     0.049 A 
ATOM     69  H   UNL A   1      44.700  29.055  28.077  1.00  0.00     0.167 HD
ATOM     70  C   UNL A   1      46.143  26.763  27.099  1.00  0.00     0.074 A 
ATOM     71  C   UNL A   1      46.478  25.418  26.671  1.00  0.00     0.031 C 
ATOM     72  C   UNL A   1      47.003  27.810  27.061  1.00  0.00     0.037 A 
BRANCH  59  73
ATOM     73  C   UNL A   1      44.679  33.231  28.979  1.00  0.00     0.058 A 
ATOM     74  C   UNL A   1      45.246  33.763  30.147  1.00  0.00     0.135 A 
ATOM     75  C   UNL A   1      44.328  34.135  27.960  1.00  0.00     0.135 A 
ATOM     76  F   UNL A   1      45.593  32.952  31.159  1.00  0.00    -0.206 F 
ATOM     77  C   UNL A   1      45.435  35.134  30.311  1.00  0.00     0.059 A 
ATOM     78  C   UNL A   1      44.533  35.508  28.091  1.00  0.00     0.059 A 
ATOM     79  F   UNL A   1      43.781  33.688  26.818  1.00  0.00    -0.206 F 
ATOM     80  C   UNL A   1      45.074  35.999  29.277  1.00  0.00     0.060 A 
BRANCH  80  81
ATOM     81  S   UNL A   1      45.336  37.773  29.499  1.00  0.00     0.124 S 
ATOM     82  O   UNL A   1      44.650  38.014  30.764  1.00  0.00    -0.237 OA
ATOM     83  O   UNL A   1      46.791  37.873  29.539  1.00  0.00    -0.237 OA
ATOM     84  O   UNL A   1      44.704  38.361  28.322  1.00  0.00    -0.744 OA
ENDBRANCH  80  81
ENDBRANCH  59  73
BRANCH  60  85
ATOM     85  C   UNL A   1      42.773  23.462  27.379  1.00  0.00     0.058 A 
ATOM     86  C   UNL A   1      42.414  23.140  26.065  1.00  0.00     0.135 A 
ATOM     87  C   UNL A   1      42.894  22.413  28.305  1.00  0.00     0.135 A 
ATOM     88  F   UNL A   1      42.293  24.111  25.146  1.00  0.00    -0.206 F 
ATOM     89  C   UNL A   1      42.189  21.825  25.675  1.00  0.00     0.059 A 
ATOM     90  C   UNL A   1      42.694  21.087  27.935  1.00  0.00     0.059 A 
ATOM     91  F   UNL A   1      43.264  22.670  29.570  1.00  0.00    -0.206 F 
ATOM     92  C   UNL A   1      42.340  20.804  26.615  1.00  0.00     0.060 A 
BRANCH  92  93
ATOM     93  S   UNL A   1      42.133  19.096  26.069  1.00  0.00     0.124 S 
ATOM     94  O   UNL A   1      42.552  18.356  27.254  1.00  0.00    -0.237 OA
ATOM     95  O   UNL A   1      40.707  19.048  25.757  1.00  0.00    -0.237 OA
ATOM     96  O   UNL A   1      43.022  19.001  24.916  1.00  0.00    -0.744 OA
ENDBRANCH  92  93
ENDBRANCH  60  85
BRANCH  72  97
ATOM     97  C   UNL A   1      48.405  27.527  26.608  1.00  0.00     0.058 A 
ATOM     98  C   UNL A   1      49.409  27.142  27.508  1.00  0.00     0.135 A 
ATOM     99  C   UNL A   1      48.718  27.562  25.240  1.00  0.00     0.135 A 
ATOM    100  F   UNL A   1      49.157  27.106  28.826  1.00  0.00    -0.206 F 
ATOM    101  C   UNL A   1      50.681  26.801  27.066  1.00  0.00     0.059 A 
ATOM    102  C   UNL A   1      49.977  27.205  24.773  1.00  0.00     0.059 A 
ATOM    103  F   UNL A   1      47.787  27.920  24.342  1.00  0.00    -0.206 F 
ATOM    104  C   UNL A   1      50.953  26.829  25.695  1.00  0.00     0.060 A 
BRANCH 104 105
ATOM    105  S   UNL A   1      52.588  26.318  25.127  1.00  0.00     0.124 S 
ATOM    106  O   UNL A   1      52.545  26.703  23.721  1.00  0.00    -0.237 OA
ATOM    107  O   UNL A   1      53.475  27.109  25.975  1.00  0.00    -0.237 OA
ATOM    108  O   UNL A   1      52.603  24.881  25.385  1.00  0.00    -0.744 OA
ENDBRANCH 104 105
ENDBRANCH  72  97
ENDBRANCH  46  47
ENDBRANCH  39  41
ENDBRANCH  38  39
ENDBRANCH  37  38
ENDBRANCH  36  37
ENDBRANCH  35  36
ENDBRANCH  34  35
ENDBRANCH  33  34
ENDBRANCH   1  33
TORSDOF 26
ENDMDL
MODEL 2
REMARK VINA RESULT:     -10.9      1.575      7.945
REMARK SMILES Cc1nc(NC(=O)[C@H]2[C@@H]3CC[C@@H](C3)[C@@H]2C(=O)OCCOCCOCCOCCOC(=O)c2ccc(-c3c4nc(c(-c5c(F)cc(S(=O)(=O)[O-])cc5F)c5ccc([nH]5)c(-c5c(F)cc(S(=O)(=O)[O-])cc5F)c5nc(c(-c6c(F)cc(S(=O)(=O)[O-])cc6F)c6ccc3[nH]6)C=C5)C=C4)cc2)sc1-c1ccccc1
REMARK SMILES IDX 23 1 22 2 21 3 20 4 19 5 18 6 17 7 15 8 16 9 14 10 8 11 9 12
REMARK SMILES IDX 10 13 13 14 12 15 11 16 6 17 5 18 7 20 4 21 1 22 2 23 3 24
REMARK SMILES IDX 99 25 98 26 100 27 101 28 105 29 102 30 104 31 103 32 24 33
REMARK SMILES IDX 25 34 26 35 27 36 28 37 29 38 30 39 31 40 32 41 33 42 97 43
REMARK SMILES IDX 34 44 96 45 35 46 36 47 37 48 90 49 38 50 95 51 89 52 91 53
REMARK SMILES IDX 39 54 94 55 88 56 87 57 40 59 74 60 53 61 73 62 54 63 57 64
REMARK SMILES IDX 72 65 92 66 55 67 56 68 71 70 93 71 58 72 41 73 42 74 51 75
REMARK SMILES IDX 43 76 44 77 50 78 52 79 45 80 46 81 47 82 48 83 49 84 75 85
REMARK SMILES IDX 76 86 85 87 77 88 78 89 84 90 86 91 79 92 80 93 81 94 82 95
REMARK SMILES IDX 83 96 59 97 60 98 69 99 61 100 62 101 68 102 70 103 63 104
REMARK SMILES IDX 64 105 65 106 66 107 67 108
REMARK H PARENT 5 19 91 58 57 69
REMARK Flexibility Score: inf
ROOT
ATOM      1  O   UNL A   1      34.050  35.283  29.498  1.00  0.00    -0.377 OA
ENDROOT
BRANCH   1   2
ATOM      2  C   UNL A   1      34.162  33.869  29.377  1.00  0.00     0.188 C 
BRANCH   2   3
ATOM      3  C   UNL A   1      34.951  33.456  28.135  1.00  0.00     0.188 C 
BRANCH   3   4
ATOM      4  O   UNL A   1      34.899  32.064  27.815  1.00  0.00    -0.376 OA
BRANCH   4   5
ATOM      5  C   UNL A   1      33.628  31.494  27.501  1.00  0.00     0.202 C 
BRANCH   5   6
ATOM      6  C   UNL A   1      33.614  29.985  27.229  1.00  0.00     0.261 C 
BRANCH   6   7
ATOM      7  O   UNL A   1      32.607  29.650  26.269  1.00  0.00    -0.463 OA
BRANCH   7   8
ATOM      8  C   UNL A   1      32.710  28.435  25.659  1.00  0.00     0.310 C 
ATOM      9  O   UNL A   1      33.643  27.652  25.777  1.00  0.00    -0.252 OA
BRANCH   8  10
ATOM     10  C   UNL A   1      31.415  28.163  24.926  1.00  0.00     0.115 C 
ATOM     11  C   UNL A   1      31.221  26.724  24.452  1.00  0.00     0.096 C 
ATOM     12  C   UNL A   1      31.172  26.891  22.913  1.00  0.00     0.003 C 
ATOM     13  C   UNL A   1      32.526  27.439  22.401  1.00  0.00     0.005 C 
ATOM     14  C   UNL A   1      30.274  28.117  22.788  1.00  0.00     0.009 C 
ATOM     15  C   UNL A   1      31.204  28.995  23.641  1.00  0.00     0.004 C 
ATOM     16  C   UNL A   1      32.468  28.930  22.775  1.00  0.00     0.005 C 
BRANCH  11  17
ATOM     17  C   UNL A   1      30.002  25.910  24.929  1.00  0.00     0.230 C 
ATOM     18  N   UNL A   1      29.947  24.687  25.508  1.00  0.00    -0.302 N 
ATOM     19  H   UNL A   1      29.035  24.429  25.775  1.00  0.00     0.172 HD
ATOM     20  O   UNL A   1      28.888  26.453  24.790  1.00  0.00    -0.274 OA
BRANCH  18  21
ATOM     21  C   UNL A   1      30.880  23.731  25.803  1.00  0.00     0.190 A 
ATOM     22  C   UNL A   1      33.341  22.195  27.900  1.00  0.00     0.068 C 
ATOM     23  C   UNL A   1      32.590  22.635  26.702  1.00  0.00     0.058 A 
ATOM     24  N   UNL A   1      31.385  23.307  26.925  1.00  0.00    -0.225 NA
ATOM     25  C   UNL A   1      32.920  22.460  25.370  1.00  0.00     0.059 A 
ATOM     26  S   UNL A   1      31.503  22.929  24.445  1.00  0.00    -0.096 S 
BRANCH  25  27
ATOM     27  C   UNL A   1      34.008  21.750  24.655  1.00  0.00    -0.006 A 
ATOM     28  C   UNL A   1      34.446  19.983  24.922  1.00  0.00     0.009 A 
ATOM     29  C   UNL A   1      35.332  22.897  24.204  1.00  0.00     0.009 A 
ATOM     30  C   UNL A   1      36.197  19.434  24.911  1.00  0.00     0.001 A 
ATOM     31  C   UNL A   1      37.046  22.367  24.189  1.00  0.00     0.001 A 
ATOM     32  C   UNL A   1      37.505  20.671  24.606  1.00  0.00     0.000 A 
ENDBRANCH  25  27
ENDBRANCH  18  21
ENDBRANCH  11  17
ENDBRANCH   8  10
ENDBRANCH   7   8
ENDBRANCH   6   7
ENDBRANCH   5   6
ENDBRANCH   4   5
ENDBRANCH   3   4
ENDBRANCH   2   3
ENDBRANCH   1   2
BRANCH   1  33
ATOM     33  C   UNL A   1      33.015  35.699  30.386  1.00  0.00     0.188 C 
BRANCH  33  34
ATOM     34  C   UNL A   1      33.241  35.361  31.893  1.00  0.00     0.188 C 
BRANCH  34  35
ATOM     35  O   UNL A   1      34.434  35.775  32.587  1.00  0.00    -0.376 OA
BRANCH  35  36
ATOM     36  C   UNL A   1      35.309  34.761  33.098  1.00  0.00     0.202 C 
BRANCH  36  37
ATOM     37  C   UNL A   1      36.526  34.378  32.132  1.00  0.00     0.261 C 
BRANCH  37  38
ATOM     38  O   UNL A   1      37.152  32.769  32.235  1.00  0.00    -0.460 OA
BRANCH  38  39
ATOM     39  C   UNL A   1      38.522  31.519  32.514  1.00  0.00     0.338 C 
ATOM     40  O   UNL A   1      39.140  31.295  33.602  1.00  0.00    -0.246 OA
BRANCH  39  41
ATOM     41  C   UNL A   1      39.097  30.399  31.585  1.00  0.00     0.060 A 
ATOM     42  C   UNL A   1      40.198  29.602  32.007  1.00  0.00     0.016 A 
ATOM     43  C   UNL A   1      38.959  30.657  30.218  1.00  0.00     0.016 A 
ATOM     44  C   UNL A   1      41.176  29.168  31.121  1.00  0.00     0.010 A 
ATOM     45  C   UNL A   1      39.946  30.237  29.331  1.00  0.00     0.010 A 
ATOM     46  C   UNL A   1      41.082  29.552  29.793  1.00  0.00    -0.014 A 
BRANCH  46  47
ATOM     47  C   UNL A   1      42.196  29.361  28.851  1.00  0.00     0.031 A 
ATOM     48  C   UNL A   1      42.423  27.993  28.290  1.00  0.00     0.074 A 
ATOM     49  C   UNL A   1      43.076  30.361  28.701  1.00  0.00     0.049 A 
ATOM     50  N   UNL A   1      43.536  27.437  27.903  1.00  0.00    -0.248 NA
ATOM     51  C   UNL A   1      41.240  27.121  28.193  1.00  0.00     0.031 C 
ATOM     52  C   UNL A   1      42.878  31.737  29.159  1.00  0.00     0.029 A 
ATOM     53  N   UNL A   1      44.355  30.337  28.219  1.00  0.00    -0.354 N 
ATOM     54  C   UNL A   1      43.207  26.125  27.580  1.00  0.00     0.074 A 
ATOM     55  C   UNL A   1      41.783  25.978  27.790  1.00  0.00     0.031 C 
ATOM     56  C   UNL A   1      44.034  32.404  29.029  1.00  0.00     0.029 A 
ATOM     57  C   UNL A   1      45.050  31.478  28.544  1.00  0.00     0.049 A 
ATOM     58  H   UNL A   1      44.735  29.591  27.701  1.00  0.00     0.167 HD
ATOM     59  C   UNL A   1      44.045  25.139  27.178  1.00  0.00     0.037 A 
ATOM     60  C   UNL A   1      46.374  31.710  28.541  1.00  0.00     0.037 A 
ATOM     61  C   UNL A   1      45.457  25.354  26.981  1.00  0.00     0.049 A 
ATOM     62  C   UNL A   1      47.294  30.606  28.109  1.00  0.00     0.074 A 
ATOM     63  C   UNL A   1      46.417  24.462  26.543  1.00  0.00     0.029 A 
ATOM     64  N   UNL A   1      46.107  26.560  27.216  1.00  0.00    -0.354 N 
ATOM     65  N   UNL A   1      46.999  29.359  27.818  1.00  0.00    -0.248 NA
ATOM     66  C   UNL A   1      48.717  30.935  27.995  1.00  0.00     0.031 C 
ATOM     67  C   UNL A   1      47.653  25.120  26.542  1.00  0.00     0.029 A 
ATOM     68  C   UNL A   1      47.455  26.437  26.934  1.00  0.00     0.049 A 
ATOM     69  H   UNL A   1      45.671  27.383  27.537  1.00  0.00     0.167 HD
ATOM     70  C   UNL A   1      48.196  28.763  27.446  1.00  0.00     0.074 A 
ATOM     71  C   UNL A   1      49.219  29.786  27.560  1.00  0.00     0.031 C 
ATOM     72  C   UNL A   1      48.433  27.492  27.038  1.00  0.00     0.037 A 
BRANCH  59  73
ATOM     73  C   UNL A   1      43.481  23.759  26.967  1.00  0.00     0.058 A 
ATOM     74  C   UNL A   1      43.279  23.221  25.686  1.00  0.00     0.135 A 
ATOM     75  C   UNL A   1      43.175  22.938  28.068  1.00  0.00     0.135 A 
ATOM     76  F   UNL A   1      43.542  23.959  24.595  1.00  0.00    -0.206 F 
ATOM     77  C   UNL A   1      42.774  21.936  25.503  1.00  0.00     0.059 A 
ATOM     78  C   UNL A   1      42.695  21.640  27.909  1.00  0.00     0.059 A 
ATOM     79  F   UNL A   1      43.346  23.395  29.319  1.00  0.00    -0.206 F 
ATOM     80  C   UNL A   1      42.483  21.153  26.621  1.00  0.00     0.060 A 
BRANCH  80  81
ATOM     81  S   UNL A   1      41.840  19.483  26.367  1.00  0.00     0.124 S 
ATOM     82  O   UNL A   1      42.243  18.823  27.604  1.00  0.00    -0.237 OA
ATOM     83  O   UNL A   1      40.408  19.719  26.213  1.00  0.00    -0.237 OA
ATOM     84  O   UNL A   1      42.529  19.031  25.162  1.00  0.00    -0.744 OA
ENDBRANCH  80  81
ENDBRANCH  59  73
BRANCH  60  85
ATOM     85  C   UNL A   1      46.876  33.037  28.972  1.00  0.00     0.058 A 
ATOM     86  C   UNL A   1      47.346  33.220  30.278  1.00  0.00     0.135 A 
ATOM     87  C   UNL A   1      46.991  34.110  28.074  1.00  0.00     0.135 A 
ATOM     88  F   UNL A   1      47.260  32.218  31.167  1.00  0.00    -0.206 F 
ATOM     89  C   UNL A   1      47.917  34.420  30.682  1.00  0.00     0.059 A 
ATOM     90  C   UNL A   1      47.578  35.315  28.448  1.00  0.00     0.059 A 
ATOM     91  F   UNL A   1      46.582  33.972  26.803  1.00  0.00    -0.206 F 
ATOM     92  C   UNL A   1      48.038  35.459  29.758  1.00  0.00     0.060 A 
BRANCH  92  93
ATOM     93  S   UNL A   1      48.864  36.978  30.276  1.00  0.00     0.124 S 
ATOM     94  O   UNL A   1      49.597  37.339  29.068  1.00  0.00    -0.237 OA
ATOM     95  O   UNL A   1      47.734  37.838  30.618  1.00  0.00    -0.237 OA
ATOM     96  O   UNL A   1      49.679  36.549  31.408  1.00  0.00    -0.744 OA
ENDBRANCH  92  93
ENDBRANCH  60  85
BRANCH  72  97
ATOM     97  C   UNL A   1      49.833  27.159  26.616  1.00  0.00     0.058 A 
ATOM     98  C   UNL A   1      50.769  26.628  27.515  1.00  0.00     0.135 A 
ATOM     99  C   UNL A   1      50.209  27.297  25.271  1.00  0.00     0.135 A 
ATOM    100  F   UNL A   1      50.456  26.489  28.813  1.00  0.00    -0.206 F 
ATOM    101  C   UNL A   1      52.036  26.245  27.092  1.00  0.00     0.059 A 
ATOM    102  C   UNL A   1      51.463  26.901  24.822  1.00  0.00     0.059 A 
ATOM    103  F   UNL A   1      49.343  27.797  24.374  1.00  0.00    -0.206 F 
ATOM    104  C   UNL A   1      52.371  26.379  25.742  1.00  0.00     0.060 A 
BRANCH 104 105
ATOM    105  S   UNL A   1      53.995  25.813  25.194  1.00  0.00     0.124 S 
ATOM    106  O   UNL A   1      54.866  26.845  25.745  1.00  0.00    -0.237 OA
ATOM    107  O   UNL A   1      54.094  24.498  25.818  1.00  0.00    -0.237 OA
ATOM    108  O   UNL A   1      53.877  25.802  23.739  1.00  0.00    -0.744 OA
ENDBRANCH 104 105
ENDBRANCH  72  97
ENDBRANCH  46  47
ENDBRANCH  39  41
ENDBRANCH  38  39
ENDBRANCH  37  38
ENDBRANCH  36  37
ENDBRANCH  35  36
ENDBRANCH  34  35
ENDBRANCH  33  34
ENDBRANCH   1  33
TORSDOF 26
ENDMDL
MODEL 3
REMARK VINA RESULT:     -10.0      5.058     10.803
REMARK SMILES Cc1nc(NC(=O)[C@H]2[C@@H]3CC[C@@H](C3)[C@@H]2C(=O)OCCOCCOCCOCCOC(=O)c2ccc(-c3c4nc(c(-c5c(F)cc(S(=O)(=O)[O-])cc5F)c5ccc([nH]5)c(-c5c(F)cc(S(=O)(=O)[O-])cc5F)c5nc(c(-c6c(F)cc(S(=O)(=O)[O-])cc6F)c6ccc3[nH]6)C=C5)C=C4)cc2)sc1-c1ccccc1
REMARK SMILES IDX 23 1 22 2 21 3 20 4 19 5 18 6 17 7 15 8 16 9 14 10 8 11 9 12
REMARK SMILES IDX 10 13 13 14 12 15 11 16 6 17 5 18 7 20 4 21 1 22 2 23 3 24
REMARK SMILES IDX 99 25 98 26 100 27 101 28 105 29 102 30 104 31 103 32 24 33
REMARK SMILES IDX 25 34 26 35 27 36 28 37 29 38 30 39 31 40 32 41 33 42 97 43
REMARK SMILES IDX 34 44 96 45 35 46 36 47 37 48 90 49 38 50 95 51 89 52 91 53
REMARK SMILES IDX 39 54 94 55 88 56 87 57 40 59 74 60 53 61 73 62 54 63 57 64
REMARK SMILES IDX 72 65 92 66 55 67 56 68 71 70 93 71 58 72 41 73 42 74 51 75
REMARK SMILES IDX 43 76 44 77 50 78 52 79 45 80 46 81 47 82 48 83 49 84 75 85
REMARK SMILES IDX 76 86 85 87 77 88 78 89 84 90 86 91 79 92 80 93 81 94 82 95
REMARK SMILES IDX 83 96 59 97 60 98 69 99 61 100 62 101 68 102 70 103 63 104
REMARK SMILES IDX 64 105 65 106 66 107 67 108
REMARK H PARENT 5 19 91 58 57 69
REMARK Flexibility Score: inf
ROOT
ATOM      1  O   UNL A   1      37.303  22.801  25.102  1.00  0.00    -0.377 OA
ENDROOT
BRANCH   1   2
ATOM      2  C   UNL A   1      37.095  23.081  23.722  1.00  0.00     0.188 C 
BRANCH   2   3
ATOM      3  C   UNL A   1      35.649  22.837  23.294  1.00  0.00     0.188 C 
BRANCH   3   4
ATOM      4  O   UNL A   1      34.757  23.933  23.509  1.00  0.00    -0.376 OA
BRANCH   4   5
ATOM      5  C   UNL A   1      33.654  24.088  22.614  1.00  0.00     0.202 C 
BRANCH   5   6
ATOM      6  C   UNL A   1      32.750  22.863  22.438  1.00  0.00     0.261 C 
BRANCH   6   7
ATOM      7  O   UNL A   1      31.982  22.623  23.621  1.00  0.00    -0.463 OA
BRANCH   7   8
ATOM      8  C   UNL A   1      32.361  21.574  24.406  1.00  0.00     0.310 C 
ATOM      9  O   UNL A   1      33.005  20.601  24.037  1.00  0.00    -0.252 OA
BRANCH   8  10
ATOM     10  C   UNL A   1      31.972  21.887  25.833  1.00  0.00     0.115 C 
ATOM     11  C   UNL A   1      31.871  23.372  26.174  1.00  0.00     0.096 C 
ATOM     12  C   UNL A   1      32.979  23.537  27.244  1.00  0.00     0.003 C 
ATOM     13  C   UNL A   1      34.362  23.230  26.618  1.00  0.00     0.005 C 
ATOM     14  C   UNL A   1      32.741  22.295  28.095  1.00  0.00     0.009 C 
ATOM     15  C   UNL A   1      32.934  21.336  26.910  1.00  0.00     0.004 C 
ATOM     16  C   UNL A   1      34.379  21.693  26.536  1.00  0.00     0.005 C 
BRANCH  11  17
ATOM     17  C   UNL A   1      30.546  23.958  26.700  1.00  0.00     0.230 C 
ATOM     18  N   UNL A   1      30.022  25.197  26.545  1.00  0.00    -0.302 N 
ATOM     19  H   UNL A   1      29.121  25.284  26.932  1.00  0.00     0.172 HD
ATOM     20  O   UNL A   1      29.819  23.180  27.350  1.00  0.00    -0.274 OA
BRANCH  18  21
ATOM     21  C   UNL A   1      30.470  26.354  25.970  1.00  0.00     0.190 A 
ATOM     22  C   UNL A   1      31.382  28.400  23.177  1.00  0.00     0.068 C 
ATOM     23  C   UNL A   1      31.320  27.828  24.541  1.00  0.00     0.058 A 
ATOM     24  N   UNL A   1      30.350  26.848  24.771  1.00  0.00    -0.225 NA
ATOM     25  C   UNL A   1      32.098  28.145  25.641  1.00  0.00     0.059 A 
ATOM     26  S   UNL A   1      31.350  27.354  27.019  1.00  0.00    -0.096 S 
BRANCH  25  27
ATOM     27  C   UNL A   1      33.152  29.152  25.911  1.00  0.00    -0.006 A 
ATOM     28  C   UNL A   1      34.865  28.744  26.445  1.00  0.00     0.009 A 
ATOM     29  C   UNL A   1      32.423  30.700  26.498  1.00  0.00     0.009 A 
ATOM     30  C   UNL A   1      35.740  29.783  27.679  1.00  0.00     0.001 A 
ATOM     31  C   UNL A   1      33.274  31.723  27.703  1.00  0.00     0.001 A 
ATOM     32  C   UNL A   1      34.890  31.250  28.356  1.00  0.00     0.000 A 
ENDBRANCH  25  27
ENDBRANCH  18  21
ENDBRANCH  11  17
ENDBRANCH   8  10
ENDBRANCH   7   8
ENDBRANCH   6   7
ENDBRANCH   5   6
ENDBRANCH   4   5
ENDBRANCH   3   4
ENDBRANCH   2   3
ENDBRANCH   1   2
BRANCH   1  33
ATOM     33  C   UNL A   1      37.343  21.407  25.400  1.00  0.00     0.188 C 
BRANCH  33  34
ATOM     34  C   UNL A   1      38.720  20.708  25.179  1.00  0.00     0.188 C 
BRANCH  34  35
ATOM     35  O   UNL A   1      39.651  20.518  26.262  1.00  0.00    -0.376 OA
BRANCH  35  36
ATOM     36  C   UNL A   1      40.676  21.502  26.457  1.00  0.00     0.202 C 
BRANCH  36  37
ATOM     37  C   UNL A   1      40.216  22.795  27.278  1.00  0.00     0.261 C 
BRANCH  37  38
ATOM     38  O   UNL A   1      40.729  24.339  26.692  1.00  0.00    -0.460 OA
BRANCH  38  39
ATOM     39  C   UNL A   1      40.659  26.211  26.618  1.00  0.00     0.338 C 
ATOM     40  O   UNL A   1      41.102  26.955  25.687  1.00  0.00    -0.246 OA
BRANCH  39  41
ATOM     41  C   UNL A   1      39.940  27.251  27.540  1.00  0.00     0.060 A 
ATOM     42  C   UNL A   1      40.385  28.601  27.594  1.00  0.00     0.016 A 
ATOM     43  C   UNL A   1      39.367  26.701  28.691  1.00  0.00     0.016 A 
ATOM     44  C   UNL A   1      40.358  29.340  28.771  1.00  0.00     0.010 A 
ATOM     45  C   UNL A   1      39.354  27.434  29.874  1.00  0.00     0.010 A 
ATOM     46  C   UNL A   1      39.908  28.723  29.927  1.00  0.00    -0.014 A 
BRANCH  46  47
ATOM     47  C   UNL A   1      40.089  29.337  31.252  1.00  0.00     0.031 A 
ATOM     48  C   UNL A   1      39.125  30.398  31.679  1.00  0.00     0.074 A 
ATOM     49  C   UNL A   1      41.219  29.071  31.923  1.00  0.00     0.049 A 
ATOM     50  N   UNL A   1      39.317  31.412  32.474  1.00  0.00    -0.248 NA
ATOM     51  C   UNL A   1      37.774  30.329  31.096  1.00  0.00     0.031 C 
ATOM     52  C   UNL A   1      42.160  27.999  31.601  1.00  0.00     0.029 A 
ATOM     53  N   UNL A   1      41.812  29.758  32.946  1.00  0.00    -0.354 N 
ATOM     54  C   UNL A   1      38.137  32.146  32.438  1.00  0.00     0.074 A 
ATOM     55  C   UNL A   1      37.224  31.443  31.563  1.00  0.00     0.031 C 
ATOM     56  C   UNL A   1      43.265  28.159  32.344  1.00  0.00     0.029 A 
ATOM     57  C   UNL A   1      43.119  29.376  33.134  1.00  0.00     0.049 A 
ATOM     58  H   UNL A   1      41.357  30.445  33.485  1.00  0.00     0.167 HD
ATOM     59  C   UNL A   1      37.875  33.320  33.062  1.00  0.00     0.037 A 
ATOM     60  C   UNL A   1      44.112  29.999  33.791  1.00  0.00     0.037 A 
ATOM     61  C   UNL A   1      38.829  33.967  33.929  1.00  0.00     0.049 A 
ATOM     62  C   UNL A   1      43.815  31.306  34.466  1.00  0.00     0.074 A 
ATOM     63  C   UNL A   1      38.688  35.134  34.655  1.00  0.00     0.029 A 
ATOM     64  N   UNL A   1      40.110  33.488  34.181  1.00  0.00    -0.354 N 
ATOM     65  N   UNL A   1      42.712  32.018  34.426  1.00  0.00    -0.248 NA
ATOM     66  C   UNL A   1      44.884  31.890  35.280  1.00  0.00     0.031 C 
ATOM     67  C   UNL A   1      39.895  35.378  35.321  1.00  0.00     0.029 A 
ATOM     68  C   UNL A   1      40.771  34.336  35.049  1.00  0.00     0.049 A 
ATOM     69  H   UNL A   1      40.490  32.665  33.797  1.00  0.00     0.167 HD
ATOM     70  C   UNL A   1      42.940  33.117  35.242  1.00  0.00     0.074 A 
ATOM     71  C   UNL A   1      44.290  32.978  35.754  1.00  0.00     0.031 C 
ATOM     72  C   UNL A   1      42.110  34.143  35.553  1.00  0.00     0.037 A 
BRANCH  59  73
ATOM     73  C   UNL A   1      36.550  33.989  32.809  1.00  0.00     0.058 A 
ATOM     74  C   UNL A   1      36.204  34.511  31.553  1.00  0.00     0.135 A 
ATOM     75  C   UNL A   1      35.587  34.072  33.831  1.00  0.00     0.135 A 
ATOM     76  F   UNL A   1      37.084  34.471  30.540  1.00  0.00    -0.206 F 
ATOM     77  C   UNL A   1      34.967  35.111  31.325  1.00  0.00     0.059 A 
ATOM     78  C   UNL A   1      34.334  34.643  33.619  1.00  0.00     0.059 A 
ATOM     79  F   UNL A   1      35.858  33.590  35.055  1.00  0.00    -0.206 F 
ATOM     80  C   UNL A   1      34.039  35.174  32.365  1.00  0.00     0.060 A 
BRANCH  80  81
ATOM     81  S   UNL A   1      32.435  35.945  32.051  1.00  0.00     0.124 S 
ATOM     82  O   UNL A   1      32.558  37.191  32.800  1.00  0.00    -0.237 OA
ATOM     83  O   UNL A   1      32.430  36.078  30.597  1.00  0.00    -0.237 OA
ATOM     84  O   UNL A   1      31.481  34.981  32.591  1.00  0.00    -0.744 OA
ENDBRANCH  80  81
ENDBRANCH  59  73
BRANCH  60  85
ATOM     85  C   UNL A   1      45.460  29.382  33.817  1.00  0.00     0.058 A 
ATOM     86  C   UNL A   1      46.419  29.749  32.866  1.00  0.00     0.135 A 
ATOM     87  C   UNL A   1      45.848  28.500  34.838  1.00  0.00     0.135 A 
ATOM     88  F   UNL A   1      46.092  30.595  31.877  1.00  0.00    -0.206 F 
ATOM     89  C   UNL A   1      47.721  29.267  32.925  1.00  0.00     0.059 A 
ATOM     90  C   UNL A   1      47.151  28.019  34.931  1.00  0.00     0.059 A 
ATOM     91  F   UNL A   1      44.971  28.142  35.790  1.00  0.00    -0.206 F 
ATOM     92  C   UNL A   1      48.081  28.410  33.967  1.00  0.00     0.060 A 
BRANCH  92  93
ATOM     93  S   UNL A   1      49.798  27.867  34.078  1.00  0.00     0.124 S 
ATOM     94  O   UNL A   1      50.380  28.490  32.895  1.00  0.00    -0.237 OA
ATOM     95  O   UNL A   1      50.212  28.427  35.363  1.00  0.00    -0.237 OA
ATOM     96  O   UNL A   1      49.695  26.412  34.042  1.00  0.00    -0.744 OA
ENDBRANCH  92  93
ENDBRANCH  60  85
BRANCH  72  97
ATOM     97  C   UNL A   1      42.611  35.153  36.542  1.00  0.00     0.058 A 
ATOM     98  C   UNL A   1      42.470  34.967  37.924  1.00  0.00     0.135 A 
ATOM     99  C   UNL A   1      43.318  36.279  36.093  1.00  0.00     0.135 A 
ATOM    100  F   UNL A   1      41.792  33.909  38.398  1.00  0.00    -0.206 F 
ATOM    101  C   UNL A   1      43.013  35.868  38.832  1.00  0.00     0.059 A 
ATOM    102  C   UNL A   1      43.888  37.182  36.982  1.00  0.00     0.059 A 
ATOM    103  F   UNL A   1      43.482  36.495  34.778  1.00  0.00    -0.206 F 
ATOM    104  C   UNL A   1      43.727  36.970  38.351  1.00  0.00     0.060 A 
BRANCH 104 105
ATOM    105  S   UNL A   1      44.486  38.094  39.540  1.00  0.00     0.124 S 
ATOM    106  O   UNL A   1      43.520  38.063  40.632  1.00  0.00    -0.237 OA
ATOM    107  O   UNL A   1      45.767  37.447  39.807  1.00  0.00    -0.237 OA
ATOM    108  O   UNL A   1      44.569  39.355  38.809  1.00  0.00    -0.744 OA
ENDBRANCH 104 105
ENDBRANCH  72  97
ENDBRANCH  46  47
ENDBRANCH  39  41
ENDBRANCH  38  39
ENDBRANCH  37  38
ENDBRANCH  36  37
ENDBRANCH  35  36
ENDBRANCH  34  35
ENDBRANCH  33  34
ENDBRANCH   1  33
TORSDOF 26
ENDMDL
