MODEL 1
REMARK VINA RESULT:      -9.7      0.000      0.000
REMARK SMILES Cc1cc(C(=O)N2CCO[C@H](CC(=O)OCCOCCOCCOCCOC(=O)c3ccc(-c4c5nc(c(-c6c(F)cc(S(=O)(=O)[O-])cc6F)c6ccc([nH]6)c(-c6c(F)cc(S(=O)(=O)[O-])cc6F)c6nc(c(-c7c(F)cc(S(=O)(=O)[O-])cc7F)c7ccc4[nH]7)C=C6)C=C5)cc3)C2)n(C)n1
REMARK SMILES IDX 21 1 20 2 19 3 18 4 17 5 16 6 15 7 13 8 14 9 12 10 11 11
REMARK SMILES IDX 7 12 8 13 96 14 9 15 10 16 5 17 6 18 4 19 1 20 2 21 3 22
REMARK SMILES IDX 99 23 97 24 98 25 22 26 23 27 24 28 25 29 26 30 27 31 28 32
REMARK SMILES IDX 29 33 30 34 31 35 95 36 32 37 94 38 33 39 34 40 35 41 88 42
REMARK SMILES IDX 36 43 93 44 87 45 89 46 37 47 92 48 86 49 85 50 38 52 72 53
REMARK SMILES IDX 51 54 71 55 52 56 55 57 70 58 90 59 53 60 54 61 69 63 91 64
REMARK SMILES IDX 56 65 39 66 40 67 49 68 41 69 42 70 48 71 50 72 43 73 44 74
REMARK SMILES IDX 45 75 46 76 47 77 73 78 74 79 83 80 75 81 76 82 82 83 84 84
REMARK SMILES IDX 77 85 78 86 79 87 80 88 81 89 57 90 58 91 67 92 59 93 60 94
REMARK SMILES IDX 66 95 68 96 61 97 62 98 63 99 64 100 65 101
REMARK H PARENT 89 51 55 62
REMARK Flexibility Score: inf
ROOT
ATOM      1  O   UNL A   1      34.722  22.206  25.916  1.00  0.00    -0.377 OA
ENDROOT
BRANCH   1   2
ATOM      2  C   UNL A   1      33.814  21.323  26.537  1.00  0.00     0.188 C 
BRANCH   2   3
ATOM      3  C   UNL A   1      33.074  20.344  25.615  1.00  0.00     0.188 C 
BRANCH   3   4
ATOM      4  O   UNL A   1      31.859  20.729  24.999  1.00  0.00    -0.376 OA
BRANCH   4   5
ATOM      5  C   UNL A   1      31.632  22.070  24.580  1.00  0.00     0.202 C 
BRANCH   5   6
ATOM      6  C   UNL A   1      32.160  22.654  23.259  1.00  0.00     0.261 C 
BRANCH   6   7
ATOM      7  O   UNL A   1      32.007  24.073  23.118  1.00  0.00    -0.463 OA
BRANCH   7   8
ATOM      8  C   UNL A   1      33.144  24.797  23.128  1.00  0.00     0.308 C 
ATOM      9  O   UNL A   1      34.220  24.409  22.676  1.00  0.00    -0.252 OA
BRANCH   8  10
ATOM     10  C   UNL A   1      32.972  26.228  23.558  1.00  0.00     0.156 C 
BRANCH  10  11
ATOM     11  C   UNL A   1      32.395  26.564  24.941  1.00  0.00     0.148 C 
ATOM     12  N   UNL A   1      30.859  28.234  24.043  1.00  0.00    -0.332 N 
ATOM     13  C   UNL A   1      31.621  29.314  24.673  1.00  0.00     0.148 C 
ATOM     14  C   UNL A   1      30.910  26.978  24.790  1.00  0.00     0.152 C 
ATOM     15  C   UNL A   1      33.054  28.881  25.023  1.00  0.00     0.182 C 
ATOM     16  O   UNL A   1      33.115  27.591  25.640  1.00  0.00    -0.374 OA
BRANCH  12  17
ATOM     17  C   UNL A   1      30.149  28.282  22.850  1.00  0.00     0.272 C 
ATOM     18  O   UNL A   1      30.374  27.451  21.972  1.00  0.00    -0.267 OA
BRANCH  17  19
ATOM     19  C   UNL A   1      29.271  29.416  22.618  1.00  0.00     0.126 A 
ATOM     20  C   UNL A   1      28.030  32.560  21.149  1.00  0.00     0.069 C 
ATOM     21  C   UNL A   1      28.297  31.277  21.841  1.00  0.00     0.060 A 
ATOM     22  C   UNL A   1      29.530  30.621  21.985  1.00  0.00     0.059 A 
ATOM     23  N   UNL A   1      27.309  30.569  22.388  1.00  0.00    -0.178 NA
ATOM     24  N   UNL A   1      27.909  29.440  22.828  1.00  0.00    -0.263 N 
ATOM     25  C   UNL A   1      27.051  28.428  23.400  1.00  0.00     0.174 C 
ENDBRANCH  17  19
ENDBRANCH  12  17
ENDBRANCH  10  11
ENDBRANCH   8  10
ENDBRANCH   7   8
ENDBRANCH   6   7
ENDBRANCH   5   6
ENDBRANCH   4   5
ENDBRANCH   3   4
ENDBRANCH   2   3
ENDBRANCH   1   2
BRANCH   1  26
ATOM     26  C   UNL A   1      35.458  21.801  24.772  1.00  0.00     0.188 C 
BRANCH  26  27
ATOM     27  C   UNL A   1      36.940  22.189  24.616  1.00  0.00     0.188 C 
BRANCH  27  28
ATOM     28  O   UNL A   1      37.700  22.126  25.810  1.00  0.00    -0.376 OA
BRANCH  28  29
ATOM     29  C   UNL A   1      39.071  21.766  25.732  1.00  0.00     0.202 C 
BRANCH  29  30
ATOM     30  C   UNL A   1      39.467  20.322  26.082  1.00  0.00     0.261 C 
BRANCH  30  31
ATOM     31  O   UNL A   1      40.684  20.141  26.823  1.00  0.00    -0.460 OA
BRANCH  31  32
ATOM     32  C   UNL A   1      41.844  20.021  26.147  1.00  0.00     0.338 C 
ATOM     33  O   UNL A   1      42.104  19.217  25.266  1.00  0.00    -0.246 OA
BRANCH  32  34
ATOM     34  C   UNL A   1      42.701  21.162  26.521  1.00  0.00     0.060 A 
ATOM     35  C   UNL A   1      42.675  21.641  27.839  1.00  0.00     0.016 A 
ATOM     36  C   UNL A   1      43.517  21.768  25.564  1.00  0.00     0.016 A 
ATOM     37  C   UNL A   1      43.429  22.761  28.192  1.00  0.00     0.010 A 
ATOM     38  C   UNL A   1      44.255  22.901  25.913  1.00  0.00     0.010 A 
ATOM     39  C   UNL A   1      44.181  23.426  27.216  1.00  0.00    -0.014 A 
BRANCH  39  40
ATOM     40  C   UNL A   1      44.697  24.793  27.470  1.00  0.00     0.031 A 
ATOM     41  C   UNL A   1      43.701  25.860  27.839  1.00  0.00     0.074 A 
ATOM     42  C   UNL A   1      46.003  25.091  27.363  1.00  0.00     0.049 A 
ATOM     43  N   UNL A   1      43.870  27.148  27.969  1.00  0.00    -0.248 NA
ATOM     44  C   UNL A   1      42.321  25.405  28.081  1.00  0.00     0.031 C 
ATOM     45  C   UNL A   1      47.070  24.135  27.074  1.00  0.00     0.029 A 
ATOM     46  N   UNL A   1      46.651  26.297  27.468  1.00  0.00    -0.354 N 
ATOM     47  C   UNL A   1      42.618  27.661  28.292  1.00  0.00     0.074 A 
ATOM     48  C   UNL A   1      41.694  26.549  28.306  1.00  0.00     0.031 C 
ATOM     49  C   UNL A   1      48.240  24.796  27.005  1.00  0.00     0.029 A 
ATOM     50  C   UNL A   1      47.997  26.226  27.197  1.00  0.00     0.049 A 
ATOM     51  H   UNL A   1      46.194  27.134  27.712  1.00  0.00     0.167 HD
ATOM     52  C   UNL A   1      42.273  28.942  28.558  1.00  0.00     0.037 A 
ATOM     53  C   UNL A   1      48.916  27.207  27.084  1.00  0.00     0.037 A 
ATOM     54  C   UNL A   1      43.200  30.041  28.534  1.00  0.00     0.049 A 
ATOM     55  C   UNL A   1      48.492  28.642  27.291  1.00  0.00     0.074 A 
ATOM     56  C   UNL A   1      42.955  31.379  28.785  1.00  0.00     0.029 A 
ATOM     57  N   UNL A   1      44.550  29.930  28.233  1.00  0.00    -0.354 N 
ATOM     58  N   UNL A   1      47.307  29.118  27.593  1.00  0.00    -0.248 NA
ATOM     59  C   UNL A   1      49.529  29.674  27.137  1.00  0.00     0.031 C 
ATOM     60  C   UNL A   1      44.145  32.085  28.579  1.00  0.00     0.029 A 
ATOM     61  C   UNL A   1      45.147  31.179  28.271  1.00  0.00     0.049 A 
ATOM     62  H   UNL A   1      45.015  29.088  28.024  1.00  0.00     0.167 HD
ATOM     63  C   UNL A   1      47.467  30.496  27.713  1.00  0.00     0.074 A 
ATOM     64  C   UNL A   1      48.861  30.779  27.443  1.00  0.00     0.031 C 
ATOM     65  C   UNL A   1      46.545  31.439  28.029  1.00  0.00     0.037 A 
BRANCH  52  66
ATOM     66  C   UNL A   1      40.826  29.225  28.860  1.00  0.00     0.058 A 
ATOM     67  C   UNL A   1      40.345  29.312  30.176  1.00  0.00     0.135 A 
ATOM     68  C   UNL A   1      39.909  29.428  27.815  1.00  0.00     0.135 A 
ATOM     69  F   UNL A   1      41.172  29.107  31.214  1.00  0.00    -0.206 F 
ATOM     70  C   UNL A   1      39.003  29.554  30.446  1.00  0.00     0.059 A 
ATOM     71  C   UNL A   1      38.568  29.706  28.062  1.00  0.00     0.059 A 
ATOM     72  F   UNL A   1      40.312  29.353  26.537  1.00  0.00    -0.206 F 
ATOM     73  C   UNL A   1      38.121  29.748  29.382  1.00  0.00     0.060 A 
BRANCH  73  74
ATOM     74  S   UNL A   1      36.380  30.055  29.750  1.00  0.00     0.124 S 
ATOM     75  O   UNL A   1      36.232  29.380  31.035  1.00  0.00    -0.237 OA
ATOM     76  O   UNL A   1      36.324  31.513  29.789  1.00  0.00    -0.237 OA
ATOM     77  O   UNL A   1      35.680  29.434  28.630  1.00  0.00    -0.744 OA
ENDBRANCH  73  74
ENDBRANCH  52  66
BRANCH  53  78
ATOM     78  C   UNL A   1      50.328  26.874  26.751  1.00  0.00     0.058 A 
ATOM     79  C   UNL A   1      50.747  26.753  25.417  1.00  0.00     0.135 A 
ATOM     80  C   UNL A   1      51.287  26.664  27.755  1.00  0.00     0.135 A 
ATOM     81  F   UNL A   1      49.867  26.930  24.420  1.00  0.00    -0.206 F 
ATOM     82  C   UNL A   1      52.059  26.425  25.090  1.00  0.00     0.059 A 
ATOM     83  C   UNL A   1      52.612  26.362  27.453  1.00  0.00     0.059 A 
ATOM     84  F   UNL A   1      50.942  26.771  29.048  1.00  0.00    -0.206 F 
ATOM     85  C   UNL A   1      52.987  26.237  26.116  1.00  0.00     0.060 A 
BRANCH  85  86
ATOM     86  S   UNL A   1      54.698  25.860  25.677  1.00  0.00     0.124 S 
ATOM     87  O   UNL A   1      54.865  24.532  26.257  1.00  0.00    -0.237 OA
ATOM     88  O   UNL A   1      54.656  25.921  24.219  1.00  0.00    -0.237 OA
ATOM     89  O   UNL A   1      55.453  26.931  26.321  1.00  0.00    -0.744 OA
ENDBRANCH  85  86
ENDBRANCH  53  78
BRANCH  65  90
ATOM     90  C   UNL A   1      47.009  32.864  28.178  1.00  0.00     0.058 A 
ATOM     91  C   UNL A   1      46.871  33.807  27.149  1.00  0.00     0.135 A 
ATOM     92  C   UNL A   1      47.503  33.312  29.416  1.00  0.00     0.135 A 
ATOM     93  F   UNL A   1      46.412  33.432  25.944  1.00  0.00    -0.206 F 
ATOM     94  C   UNL A   1      47.212  35.144  27.339  1.00  0.00     0.059 A 
ATOM     95  C   UNL A   1      47.820  34.648  29.637  1.00  0.00     0.059 A 
ATOM     96  F   UNL A   1      47.646  32.453  30.437  1.00  0.00    -0.206 F 
ATOM     97  C   UNL A   1      47.674  35.557  28.591  1.00  0.00     0.060 A 
BRANCH  97  98
ATOM     98  S   UNL A   1      48.038  37.307  28.846  1.00  0.00     0.124 S 
ATOM     99  O   UNL A   1      49.488  37.334  28.681  1.00  0.00    -0.237 OA
ATOM    100  O   UNL A   1      47.266  37.942  27.781  1.00  0.00    -0.237 OA
ATOM    101  O   UNL A   1      47.556  37.563  30.200  1.00  0.00    -0.744 OA
ENDBRANCH  97  98
ENDBRANCH  65  90
ENDBRANCH  39  40
ENDBRANCH  32  34
ENDBRANCH  31  32
ENDBRANCH  30  31
ENDBRANCH  29  30
ENDBRANCH  28  29
ENDBRANCH  27  28
ENDBRANCH  26  27
ENDBRANCH   1  26
TORSDOF 26
ENDMDL
MODEL 2
REMARK VINA RESULT:      -8.9      1.300      2.182
REMARK SMILES Cc1cc(C(=O)N2CCO[C@H](CC(=O)OCCOCCOCCOCCOC(=O)c3ccc(-c4c5nc(c(-c6c(F)cc(S(=O)(=O)[O-])cc6F)c6ccc([nH]6)c(-c6c(F)cc(S(=O)(=O)[O-])cc6F)c6nc(c(-c7c(F)cc(S(=O)(=O)[O-])cc7F)c7ccc4[nH]7)C=C6)C=C5)cc3)C2)n(C)n1
REMARK SMILES IDX 21 1 20 2 19 3 18 4 17 5 16 6 15 7 13 8 14 9 12 10 11 11
REMARK SMILES IDX 7 12 8 13 96 14 9 15 10 16 5 17 6 18 4 19 1 20 2 21 3 22
REMARK SMILES IDX 99 23 97 24 98 25 22 26 23 27 24 28 25 29 26 30 27 31 28 32
REMARK SMILES IDX 29 33 30 34 31 35 95 36 32 37 94 38 33 39 34 40 35 41 88 42
REMARK SMILES IDX 36 43 93 44 87 45 89 46 37 47 92 48 86 49 85 50 38 52 72 53
REMARK SMILES IDX 51 54 71 55 52 56 55 57 70 58 90 59 53 60 54 61 69 63 91 64
REMARK SMILES IDX 56 65 39 66 40 67 49 68 41 69 42 70 48 71 50 72 43 73 44 74
REMARK SMILES IDX 45 75 46 76 47 77 73 78 74 79 83 80 75 81 76 82 82 83 84 84
REMARK SMILES IDX 77 85 78 86 79 87 80 88 81 89 57 90 58 91 67 92 59 93 60 94
REMARK SMILES IDX 66 95 68 96 61 97 62 98 63 99 64 100 65 101
REMARK H PARENT 89 51 55 62
REMARK Flexibility Score: inf
ROOT
ATOM      1  O   UNL A   1      34.904  21.946  26.062  1.00  0.00    -0.377 OA
ENDROOT
BRANCH   1   2
ATOM      2  C   UNL A   1      33.947  21.038  26.562  1.00  0.00     0.188 C 
BRANCH   2   3
ATOM      3  C   UNL A   1      33.122  20.271  25.519  1.00  0.00     0.188 C 
BRANCH   3   4
ATOM      4  O   UNL A   1      31.823  20.715  25.175  1.00  0.00    -0.376 OA
BRANCH   4   5
ATOM      5  C   UNL A   1      31.424  22.067  25.374  1.00  0.00     0.202 C 
BRANCH   5   6
ATOM      6  C   UNL A   1      31.573  23.169  24.312  1.00  0.00     0.261 C 
BRANCH   6   7
ATOM      7  O   UNL A   1      31.737  24.495  24.831  1.00  0.00    -0.463 OA
BRANCH   7   8
ATOM      8  C   UNL A   1      32.978  25.016  24.747  1.00  0.00     0.308 C 
ATOM      9  O   UNL A   1      33.891  24.533  24.081  1.00  0.00    -0.252 OA
BRANCH   8  10
ATOM     10  C   UNL A   1      33.130  26.374  25.376  1.00  0.00     0.156 C 
BRANCH  10  11
ATOM     11  C   UNL A   1      32.070  26.907  26.351  1.00  0.00     0.148 C 
ATOM     12  N   UNL A   1      31.324  28.638  24.801  1.00  0.00    -0.332 N 
ATOM     13  C   UNL A   1      31.886  29.686  25.655  1.00  0.00     0.148 C 
ATOM     14  C   UNL A   1      30.870  27.465  25.545  1.00  0.00     0.152 C 
ATOM     15  C   UNL A   1      32.952  29.134  26.617  1.00  0.00     0.182 C 
ATOM     16  O   UNL A   1      32.558  27.913  27.251  1.00  0.00    -0.374 OA
BRANCH  12  17
ATOM     17  C   UNL A   1      31.210  28.645  23.416  1.00  0.00     0.272 C 
ATOM     18  O   UNL A   1      30.374  29.371  22.877  1.00  0.00    -0.267 OA
BRANCH  17  19
ATOM     19  C   UNL A   1      31.976  27.673  22.658  1.00  0.00     0.126 A 
ATOM     20  C   UNL A   1      32.692  25.004  20.218  1.00  0.00     0.069 C 
ATOM     21  C   UNL A   1      32.657  26.101  21.214  1.00  0.00     0.060 A 
ATOM     22  C   UNL A   1      31.541  26.586  21.916  1.00  0.00     0.059 A 
ATOM     23  N   UNL A   1      33.755  26.794  21.517  1.00  0.00    -0.178 NA
ATOM     24  N   UNL A   1      33.321  27.753  22.368  1.00  0.00    -0.263 N 
ATOM     25  C   UNL A   1      34.298  28.725  22.803  1.00  0.00     0.174 C 
ENDBRANCH  17  19
ENDBRANCH  12  17
ENDBRANCH  10  11
ENDBRANCH   8  10
ENDBRANCH   7   8
ENDBRANCH   6   7
ENDBRANCH   5   6
ENDBRANCH   4   5
ENDBRANCH   3   4
ENDBRANCH   2   3
ENDBRANCH   1   2
BRANCH   1  26
ATOM     26  C   UNL A   1      35.682  21.621  24.920  1.00  0.00     0.188 C 
BRANCH  26  27
ATOM     27  C   UNL A   1      37.180  21.976  24.866  1.00  0.00     0.188 C 
BRANCH  27  28
ATOM     28  O   UNL A   1      37.958  21.435  25.920  1.00  0.00    -0.376 OA
BRANCH  28  29
ATOM     29  C   UNL A   1      39.337  21.186  25.695  1.00  0.00     0.202 C 
BRANCH  29  30
ATOM     30  C   UNL A   1      39.971  19.946  26.346  1.00  0.00     0.261 C 
BRANCH  30  31
ATOM     31  O   UNL A   1      41.288  20.099  26.897  1.00  0.00    -0.460 OA
BRANCH  31  32
ATOM     32  C   UNL A   1      42.336  20.203  26.055  1.00  0.00     0.338 C 
ATOM     33  O   UNL A   1      42.524  19.566  25.031  1.00  0.00    -0.246 OA
BRANCH  32  34
ATOM     34  C   UNL A   1      43.139  21.365  26.480  1.00  0.00     0.060 A 
ATOM     35  C   UNL A   1      42.922  21.928  27.746  1.00  0.00     0.016 A 
ATOM     36  C   UNL A   1      44.096  21.908  25.620  1.00  0.00     0.016 A 
ATOM     37  C   UNL A   1      43.628  23.067  28.137  1.00  0.00     0.010 A 
ATOM     38  C   UNL A   1      44.785  23.060  26.003  1.00  0.00     0.010 A 
ATOM     39  C   UNL A   1      44.523  23.667  27.245  1.00  0.00    -0.014 A 
BRANCH  39  40
ATOM     40  C   UNL A   1      45.011  25.047  27.486  1.00  0.00     0.031 A 
ATOM     41  C   UNL A   1      43.994  26.094  27.857  1.00  0.00     0.074 A 
ATOM     42  C   UNL A   1      46.309  25.374  27.366  1.00  0.00     0.049 A 
ATOM     43  N   UNL A   1      44.134  27.386  27.978  1.00  0.00    -0.248 NA
ATOM     44  C   UNL A   1      42.626  25.609  28.113  1.00  0.00     0.031 C 
ATOM     45  C   UNL A   1      47.395  24.441  27.074  1.00  0.00     0.029 A 
ATOM     46  N   UNL A   1      46.930  26.595  27.458  1.00  0.00    -0.354 N 
ATOM     47  C   UNL A   1      42.874  27.872  28.308  1.00  0.00     0.074 A 
ATOM     48  C   UNL A   1      41.975  26.740  28.337  1.00  0.00     0.031 C 
ATOM     49  C   UNL A   1      48.548  25.127  26.991  1.00  0.00     0.029 A 
ATOM     50  C   UNL A   1      48.275  26.552  27.176  1.00  0.00     0.049 A 
ATOM     51  H   UNL A   1      46.456  27.423  27.702  1.00  0.00     0.167 HD
ATOM     52  C   UNL A   1      42.502  29.147  28.570  1.00  0.00     0.037 A 
ATOM     53  C   UNL A   1      49.171  27.554  27.051  1.00  0.00     0.037 A 
ATOM     54  C   UNL A   1      43.404  30.266  28.531  1.00  0.00     0.049 A 
ATOM     55  C   UNL A   1      48.716  28.979  27.252  1.00  0.00     0.074 A 
ATOM     56  C   UNL A   1      43.131  31.600  28.776  1.00  0.00     0.029 A 
ATOM     57  N   UNL A   1      44.754  30.184  28.220  1.00  0.00    -0.354 N 
ATOM     58  N   UNL A   1      47.523  29.431  27.561  1.00  0.00    -0.248 NA
ATOM     59  C   UNL A   1      49.728  30.034  27.083  1.00  0.00     0.031 C 
ATOM     60  C   UNL A   1      44.302  32.331  28.556  1.00  0.00     0.029 A 
ATOM     61  C   UNL A   1      45.322  31.446  28.245  1.00  0.00     0.049 A 
ATOM     62  H   UNL A   1      45.236  29.352  28.012  1.00  0.00     0.167 HD
ATOM     63  C   UNL A   1      47.652  30.812  27.672  1.00  0.00     0.074 A 
ATOM     64  C   UNL A   1      49.037  31.125  27.388  1.00  0.00     0.031 C 
ATOM     65  C   UNL A   1      46.712  31.737  27.990  1.00  0.00     0.037 A 
BRANCH  52  66
ATOM     66  C   UNL A   1      41.052  29.399  28.882  1.00  0.00     0.058 A 
ATOM     67  C   UNL A   1      40.611  29.686  30.184  1.00  0.00     0.135 A 
ATOM     68  C   UNL A   1      40.089  29.368  27.859  1.00  0.00     0.135 A 
ATOM     69  F   UNL A   1      41.484  29.709  31.204  1.00  0.00    -0.206 F 
ATOM     70  C   UNL A   1      39.266  29.898  30.467  1.00  0.00     0.059 A 
ATOM     71  C   UNL A   1      38.742  29.611  28.113  1.00  0.00     0.059 A 
ATOM     72  F   UNL A   1      40.452  29.095  26.596  1.00  0.00    -0.206 F 
ATOM     73  C   UNL A   1      38.339  29.857  29.424  1.00  0.00     0.060 A 
BRANCH  73  74
ATOM     74  S   UNL A   1      36.596  30.128  29.811  1.00  0.00     0.124 S 
ATOM     75  O   UNL A   1      36.612  31.515  30.265  1.00  0.00    -0.237 OA
ATOM     76  O   UNL A   1      35.952  29.890  28.523  1.00  0.00    -0.237 OA
ATOM     77  O   UNL A   1      36.317  29.133  30.841  1.00  0.00    -0.744 OA
ENDBRANCH  73  74
ENDBRANCH  52  66
BRANCH  53  78
ATOM     78  C   UNL A   1      50.587  27.250  26.708  1.00  0.00     0.058 A 
ATOM     79  C   UNL A   1      51.548  27.053  27.712  1.00  0.00     0.135 A 
ATOM     80  C   UNL A   1      51.013  27.154  25.373  1.00  0.00     0.135 A 
ATOM     81  F   UNL A   1      51.196  27.147  29.004  1.00  0.00    -0.206 F 
ATOM     82  C   UNL A   1      52.879  26.786  27.408  1.00  0.00     0.059 A 
ATOM     83  C   UNL A   1      52.332  26.859  25.043  1.00  0.00     0.059 A 
ATOM     84  F   UNL A   1      50.135  27.329  24.373  1.00  0.00    -0.206 F 
ATOM     85  C   UNL A   1      53.261  26.685  26.069  1.00  0.00     0.060 A 
BRANCH  85  86
ATOM     86  S   UNL A   1      54.981  26.288  25.687  1.00  0.00     0.124 S 
ATOM     87  O   UNL A   1      55.570  27.617  25.564  1.00  0.00    -0.237 OA
ATOM     88  O   UNL A   1      55.381  25.518  26.861  1.00  0.00    -0.237 OA
ATOM     89  O   UNL A   1      54.882  25.523  24.448  1.00  0.00    -0.744 OA
ENDBRANCH  85  86
ENDBRANCH  53  78
BRANCH  65  90
ATOM     90  C   UNL A   1      47.145  33.172  28.127  1.00  0.00     0.058 A 
ATOM     91  C   UNL A   1      47.006  34.098  27.082  1.00  0.00     0.135 A 
ATOM     92  C   UNL A   1      47.609  33.648  29.366  1.00  0.00     0.135 A 
ATOM     93  F   UNL A   1      46.575  33.697  25.875  1.00  0.00    -0.206 F 
ATOM     94  C   UNL A   1      47.317  35.444  27.259  1.00  0.00     0.059 A 
ATOM     95  C   UNL A   1      47.895  34.992  29.574  1.00  0.00     0.059 A 
ATOM     96  F   UNL A   1      47.751  32.806  30.402  1.00  0.00    -0.206 F 
ATOM     97  C   UNL A   1      47.749  35.884  28.513  1.00  0.00     0.060 A 
BRANCH  97  98
ATOM     98  S   UNL A   1      48.073  37.644  28.748  1.00  0.00     0.124 S 
ATOM     99  O   UNL A   1      46.873  38.245  28.174  1.00  0.00    -0.237 OA
ATOM    100  O   UNL A   1      48.201  37.744  30.199  1.00  0.00    -0.237 OA
ATOM    101  O   UNL A   1      49.306  37.868  27.999  1.00  0.00    -0.744 OA
ENDBRANCH  97  98
ENDBRANCH  65  90
ENDBRANCH  39  40
ENDBRANCH  32  34
ENDBRANCH  31  32
ENDBRANCH  30  31
ENDBRANCH  29  30
ENDBRANCH  28  29
ENDBRANCH  27  28
ENDBRANCH  26  27
ENDBRANCH   1  26
TORSDOF 26
ENDMDL
MODEL 3
REMARK VINA RESULT:      -8.5      5.405     13.416
REMARK SMILES Cc1cc(C(=O)N2CCO[C@H](CC(=O)OCCOCCOCCOCCOC(=O)c3ccc(-c4c5nc(c(-c6c(F)cc(S(=O)(=O)[O-])cc6F)c6ccc([nH]6)c(-c6c(F)cc(S(=O)(=O)[O-])cc6F)c6nc(c(-c7c(F)cc(S(=O)(=O)[O-])cc7F)c7ccc4[nH]7)C=C6)C=C5)cc3)C2)n(C)n1
REMARK SMILES IDX 21 1 20 2 19 3 18 4 17 5 16 6 15 7 13 8 14 9 12 10 11 11
REMARK SMILES IDX 7 12 8 13 96 14 9 15 10 16 5 17 6 18 4 19 1 20 2 21 3 22
REMARK SMILES IDX 99 23 97 24 98 25 22 26 23 27 24 28 25 29 26 30 27 31 28 32
REMARK SMILES IDX 29 33 30 34 31 35 95 36 32 37 94 38 33 39 34 40 35 41 88 42
REMARK SMILES IDX 36 43 93 44 87 45 89 46 37 47 92 48 86 49 85 50 38 52 72 53
REMARK SMILES IDX 51 54 71 55 52 56 55 57 70 58 90 59 53 60 54 61 69 63 91 64
REMARK SMILES IDX 56 65 39 66 40 67 49 68 41 69 42 70 48 71 50 72 43 73 44 74
REMARK SMILES IDX 45 75 46 76 47 77 73 78 74 79 83 80 75 81 76 82 82 83 84 84
REMARK SMILES IDX 77 85 78 86 79 87 80 88 81 89 57 90 58 91 67 92 59 93 60 94
REMARK SMILES IDX 66 95 68 96 61 97 62 98 63 99 64 100 65 101
REMARK H PARENT 89 51 55 62
REMARK Flexibility Score: inf
ROOT
ATOM      1  O   UNL A   1      40.119  35.103  28.917  1.00  0.00    -0.377 OA
ENDROOT
BRANCH   1   2
ATOM      2  C   UNL A   1      41.486  35.444  28.858  1.00  0.00     0.188 C 
BRANCH   2   3
ATOM      3  C   UNL A   1      41.934  36.269  27.643  1.00  0.00     0.188 C 
BRANCH   3   4
ATOM      4  O   UNL A   1      42.689  37.451  27.826  1.00  0.00    -0.376 OA
BRANCH   4   5
ATOM      5  C   UNL A   1      42.115  38.614  28.414  1.00  0.00     0.202 C 
BRANCH   5   6
ATOM      6  C   UNL A   1      42.760  40.009  28.358  1.00  0.00     0.261 C 
BRANCH   6   7
ATOM      7  O   UNL A   1      44.178  40.014  28.147  1.00  0.00    -0.463 OA
BRANCH   7   8
ATOM      8  C   UNL A   1      44.900  40.790  28.980  1.00  0.00     0.308 C 
ATOM      9  O   UNL A   1      46.086  41.071  28.817  1.00  0.00    -0.252 OA
BRANCH   8  10
ATOM     10  C   UNL A   1      44.096  41.476  30.050  1.00  0.00     0.156 C 
BRANCH  10  11
ATOM     11  C   UNL A   1      44.651  42.713  30.773  1.00  0.00     0.148 C 
ATOM     12  N   UNL A   1      43.797  41.992  32.943  1.00  0.00    -0.332 N 
ATOM     13  C   UNL A   1      42.812  43.075  32.947  1.00  0.00     0.148 C 
ATOM     14  C   UNL A   1      45.026  42.330  32.227  1.00  0.00     0.152 C 
ATOM     15  C   UNL A   1      42.553  43.623  31.533  1.00  0.00     0.182 C 
ATOM     16  O   UNL A   1      43.754  43.834  30.784  1.00  0.00    -0.374 OA
BRANCH  12  17
ATOM     17  C   UNL A   1      43.670  40.729  33.508  1.00  0.00     0.272 C 
ATOM     18  O   UNL A   1      42.739  39.999  33.166  1.00  0.00    -0.267 OA
BRANCH  17  19
ATOM     19  C   UNL A   1      44.552  40.374  34.605  1.00  0.00     0.126 A 
ATOM     20  C   UNL A   1      47.482  38.970  36.346  1.00  0.00     0.069 C 
ATOM     21  C   UNL A   1      46.253  39.647  35.868  1.00  0.00     0.060 A 
ATOM     22  C   UNL A   1      45.589  39.456  34.646  1.00  0.00     0.059 A 
ATOM     23  N   UNL A   1      45.658  40.592  36.596  1.00  0.00    -0.178 NA
ATOM     24  N   UNL A   1      44.651  41.037  35.809  1.00  0.00    -0.263 N 
ATOM     25  C   UNL A   1      43.874  42.146  36.313  1.00  0.00     0.174 C 
ENDBRANCH  17  19
ENDBRANCH  12  17
ENDBRANCH  10  11
ENDBRANCH   8  10
ENDBRANCH   7   8
ENDBRANCH   6   7
ENDBRANCH   5   6
ENDBRANCH   4   5
ENDBRANCH   3   4
ENDBRANCH   2   3
ENDBRANCH   1   2
BRANCH   1  26
ATOM     26  C   UNL A   1      39.575  34.491  30.077  1.00  0.00     0.188 C 
BRANCH  26  27
ATOM     27  C   UNL A   1      38.263  33.690  29.998  1.00  0.00     0.188 C 
BRANCH  27  28
ATOM     28  O   UNL A   1      37.355  33.927  31.060  1.00  0.00    -0.376 OA
BRANCH  28  29
ATOM     29  C   UNL A   1      35.977  34.092  30.760  1.00  0.00     0.202 C 
BRANCH  29  30
ATOM     30  C   UNL A   1      35.010  32.956  31.129  1.00  0.00     0.261 C 
BRANCH  30  31
ATOM     31  O   UNL A   1      35.449  31.614  30.866  1.00  0.00    -0.460 OA
BRANCH  31  32
ATOM     32  C   UNL A   1      35.491  31.183  29.589  1.00  0.00     0.338 C 
ATOM     33  O   UNL A   1      34.730  31.484  28.684  1.00  0.00    -0.246 OA
BRANCH  32  34
ATOM     34  C   UNL A   1      36.742  30.421  29.414  1.00  0.00     0.060 A 
ATOM     35  C   UNL A   1      37.375  29.867  30.537  1.00  0.00     0.016 A 
ATOM     36  C   UNL A   1      37.297  30.268  28.142  1.00  0.00     0.016 A 
ATOM     37  C   UNL A   1      38.593  29.200  30.396  1.00  0.00     0.010 A 
ATOM     38  C   UNL A   1      38.526  29.620  28.006  1.00  0.00     0.010 A 
ATOM     39  C   UNL A   1      39.198  29.120  29.137  1.00  0.00    -0.014 A 
BRANCH  39  40
ATOM     40  C   UNL A   1      40.627  28.742  29.014  1.00  0.00     0.031 A 
ATOM     41  C   UNL A   1      41.657  29.818  29.230  1.00  0.00     0.074 A 
ATOM     42  C   UNL A   1      41.007  27.490  28.705  1.00  0.00     0.049 A 
ATOM     43  N   UNL A   1      42.949  29.785  29.042  1.00  0.00    -0.248 NA
ATOM     44  C   UNL A   1      41.151  31.115  29.713  1.00  0.00     0.031 C 
ATOM     45  C   UNL A   1      40.110  26.350  28.534  1.00  0.00     0.029 A 
ATOM     46  N   UNL A   1      42.256  26.975  28.461  1.00  0.00    -0.354 N 
ATOM     47  C   UNL A   1      43.409  31.056  29.368  1.00  0.00     0.074 A 
ATOM     48  C   UNL A   1      42.255  31.846  29.734  1.00  0.00     0.031 C 
ATOM     49  C   UNL A   1      40.837  25.271  28.192  1.00  0.00     0.029 A 
ATOM     50  C   UNL A   1      42.243  25.656  28.075  1.00  0.00     0.049 A 
ATOM     51  H   UNL A   1      43.083  27.502  28.554  1.00  0.00     0.167 HD
ATOM     52  C   UNL A   1      44.681  31.520  29.367  1.00  0.00     0.037 A 
ATOM     53  C   UNL A   1      43.248  24.865  27.645  1.00  0.00     0.037 A 
ATOM     54  C   UNL A   1      45.821  30.727  28.994  1.00  0.00     0.049 A 
ATOM     55  C   UNL A   1      44.646  25.429  27.559  1.00  0.00     0.074 A 
ATOM     56  C   UNL A   1      47.152  31.099  28.955  1.00  0.00     0.029 A 
ATOM     57  N   UNL A   1      45.762  29.401  28.587  1.00  0.00    -0.354 N 
ATOM     58  N   UNL A   1      45.072  26.632  27.866  1.00  0.00    -0.248 NA
ATOM     59  C   UNL A   1      45.700  24.530  27.064  1.00  0.00     0.031 C 
ATOM     60  C   UNL A   1      47.892  30.017  28.469  1.00  0.00     0.029 A 
ATOM     61  C   UNL A   1      47.033  28.948  28.274  1.00  0.00     0.049 A 
ATOM     62  H   UNL A   1      44.941  28.863  28.530  1.00  0.00     0.167 HD
ATOM     63  C   UNL A   1      46.447  26.618  27.649  1.00  0.00     0.074 A 
ATOM     64  C   UNL A   1      46.782  25.291  27.176  1.00  0.00     0.031 C 
ATOM     65  C   UNL A   1      47.352  27.612  27.834  1.00  0.00     0.037 A 
BRANCH  52  66
ATOM     66  C   UNL A   1      44.896  32.961  29.745  1.00  0.00     0.058 A 
ATOM     67  C   UNL A   1      44.993  33.976  28.780  1.00  0.00     0.135 A 
ATOM     68  C   UNL A   1      44.992  33.333  31.097  1.00  0.00     0.135 A 
ATOM     69  F   UNL A   1      44.929  33.675  27.473  1.00  0.00    -0.206 F 
ATOM     70  C   UNL A   1      45.212  35.302  29.138  1.00  0.00     0.059 A 
ATOM     71  C   UNL A   1      45.176  34.659  31.479  1.00  0.00     0.059 A 
ATOM     72  F   UNL A   1      44.910  32.405  32.062  1.00  0.00    -0.206 F 
ATOM     73  C   UNL A   1      45.303  35.634  30.491  1.00  0.00     0.060 A 
BRANCH  73  74
ATOM     74  S   UNL A   1      45.594  37.358  30.937  1.00  0.00     0.124 S 
ATOM     75  O   UNL A   1      46.192  37.879  29.712  1.00  0.00    -0.237 OA
ATOM     76  O   UNL A   1      44.246  37.833  31.236  1.00  0.00    -0.237 OA
ATOM     77  O   UNL A   1      46.492  37.267  32.084  1.00  0.00    -0.744 OA
ENDBRANCH  73  74
ENDBRANCH  52  66
BRANCH  53  78
ATOM     78  C   UNL A   1      42.973  23.455  27.251  1.00  0.00     0.058 A 
ATOM     79  C   UNL A   1      42.978  23.067  25.902  1.00  0.00     0.135 A 
ATOM     80  C   UNL A   1      42.694  22.469  28.211  1.00  0.00     0.135 A 
ATOM     81  F   UNL A   1      43.225  23.975  24.945  1.00  0.00    -0.206 F 
ATOM     82  C   UNL A   1      42.706  21.758  25.517  1.00  0.00     0.059 A 
ATOM     83  C   UNL A   1      42.446  21.147  27.853  1.00  0.00     0.059 A 
ATOM     84  F   UNL A   1      42.680  22.784  29.515  1.00  0.00    -0.206 F 
ATOM     85  C   UNL A   1      42.446  20.803  26.502  1.00  0.00     0.060 A 
BRANCH  85  86
ATOM     86  S   UNL A   1      42.144  19.097  25.993  1.00  0.00     0.124 S 
ATOM     87  O   UNL A   1      42.916  19.016  24.758  1.00  0.00    -0.237 OA
ATOM     88  O   UNL A   1      42.671  18.344  27.127  1.00  0.00    -0.237 OA
ATOM     89  O   UNL A   1      40.693  19.045  25.835  1.00  0.00    -0.744 OA
ENDBRANCH  85  86
ENDBRANCH  53  78
BRANCH  65  90
ATOM     90  C   UNL A   1      48.807  27.299  27.602  1.00  0.00     0.058 A 
ATOM     91  C   UNL A   1      49.619  26.737  28.598  1.00  0.00     0.135 A 
ATOM     92  C   UNL A   1      49.364  27.469  26.323  1.00  0.00     0.135 A 
ATOM     93  F   UNL A   1      49.141  26.560  29.841  1.00  0.00    -0.206 F 
ATOM     94  C   UNL A   1      50.933  26.361  28.337  1.00  0.00     0.059 A 
ATOM     95  C   UNL A   1      50.664  27.072  26.031  1.00  0.00     0.059 A 
ATOM     96  F   UNL A   1      48.627  27.994  25.330  1.00  0.00    -0.206 F 
ATOM     97  C   UNL A   1      51.443  26.520  27.046  1.00  0.00     0.060 A 
BRANCH  97  98
ATOM     98  S   UNL A   1      53.123  25.955  26.702  1.00  0.00     0.124 S 
ATOM     99  O   UNL A   1      53.727  26.001  28.030  1.00  0.00    -0.237 OA
ATOM    100  O   UNL A   1      52.895  24.622  26.153  1.00  0.00    -0.237 OA
ATOM    101  O   UNL A   1      53.627  26.941  25.751  1.00  0.00    -0.744 OA
ENDBRANCH  97  98
ENDBRANCH  65  90
ENDBRANCH  39  40
ENDBRANCH  32  34
ENDBRANCH  31  32
ENDBRANCH  30  31
ENDBRANCH  29  30
ENDBRANCH  28  29
ENDBRANCH  27  28
ENDBRANCH  26  27
ENDBRANCH   1  26
TORSDOF 26
ENDMDL
