MODEL 1
REMARK VINA RESULT:      -8.8      0.000      0.000
REMARK SMILES CCC[N@H+](CC(=O)OCCOCCOCCOCCOC(=O)c1ccc(-c2c3nc(c(-c4c(F)cc(S(=O)(=O)[O-])cc4F)c4ccc([nH]4)c(-c4c(F)cc(S(=O)(=O)[O-])cc4F)c4nc(c(-c5c(F)cc(S(=O)(=O)[O-])cc5F)c5ccc2[nH]5)C=C4)C=C3)cc1)[C@H]1CCOC2(CCCCC2)C1
REMARK SMILES IDX 14 1 13 2 12 3 11 4 10 5 9 6 8 7 6 8 7 9 5 10 4 11 3 13 2 14
REMARK SMILES IDX 1 15 89 16 90 17 99 18 91 19 93 20 92 21 94 22 98 23 95 24
REMARK SMILES IDX 97 25 96 26 15 27 16 28 17 29 18 30 19 31 20 32 21 33 22 34
REMARK SMILES IDX 23 35 24 36 88 37 25 38 87 39 26 40 27 41 28 42 81 43 29 44
REMARK SMILES IDX 86 45 80 46 82 47 30 48 85 49 79 50 78 51 31 53 65 54 44 55
REMARK SMILES IDX 64 56 45 57 48 58 63 59 83 60 46 61 47 62 62 64 84 65 49 66
REMARK SMILES IDX 32 67 33 68 42 69 34 70 35 71 41 72 43 73 36 74 37 75 38 76
REMARK SMILES IDX 39 77 40 78 66 79 67 80 76 81 68 82 69 83 75 84 77 85 70 86
REMARK SMILES IDX 71 87 72 88 73 89 74 90 50 91 51 92 60 93 52 94 53 95 59 96
REMARK SMILES IDX 61 97 54 98 55 99 56 100 57 101 58 102
REMARK H PARENT 4 12 82 52 48 63
REMARK Flexibility Score: inf
ROOT
ATOM      1  O   UNL A   1      34.414  36.903  33.066  1.00  0.00    -0.377 OA
ENDROOT
BRANCH   1   2
ATOM      2  C   UNL A   1      33.250  37.217  32.331  1.00  0.00     0.188 C 
BRANCH   2   3
ATOM      3  C   UNL A   1      33.377  37.003  30.815  1.00  0.00     0.188 C 
BRANCH   3   4
ATOM      4  O   UNL A   1      32.397  36.287  30.074  1.00  0.00    -0.376 OA
BRANCH   4   5
ATOM      5  C   UNL A   1      32.707  35.653  28.840  1.00  0.00     0.202 C 
BRANCH   5   6
ATOM      6  C   UNL A   1      33.893  34.687  28.692  1.00  0.00     0.261 C 
BRANCH   6   7
ATOM      7  O   UNL A   1      33.826  33.775  27.585  1.00  0.00    -0.459 OA
BRANCH   7   8
ATOM      8  C   UNL A   1      34.597  32.681  27.688  1.00  0.00     0.361 C 
ATOM      9  O   UNL A   1      35.829  32.721  27.734  1.00  0.00    -0.245 OA
BRANCH   8  10
ATOM     10  C   UNL A   1      33.898  31.333  27.674  1.00  0.00     0.386 C 
BRANCH  10  11
ATOM     11  N   UNL A   1      34.425  30.081  27.014  1.00  0.00    -0.323 N 
ATOM     12  H   UNL A   1      35.128  30.311  26.312  1.00  0.00     0.348 HD
BRANCH  11  13
ATOM     13  C   UNL A   1      35.193  29.240  27.956  1.00  0.00     0.262 C 
BRANCH  13  14
ATOM     14  C   UNL A   1      36.650  29.616  28.338  1.00  0.00     0.058 C 
ATOM     15  C   UNL A   1      37.676  29.714  27.218  1.00  0.00     0.010 C 
ENDBRANCH  13  14
ENDBRANCH  11  13
BRANCH  11  16
ATOM     16  C   UNL A   1      33.306  29.406  26.241  1.00  0.00     0.189 C 
ATOM     17  C   UNL A   1      32.166  30.296  25.713  1.00  0.00     0.093 C 
ATOM     18  C   UNL A   1      33.805  28.529  25.071  1.00  0.00     0.100 C 
ATOM     19  C   UNL A   1      31.148  29.561  24.858  1.00  0.00     0.167 C 
ATOM     20  C   UNL A   1      32.718  27.876  24.217  1.00  0.00     0.074 C 
ATOM     21  O   UNL A   1      31.781  28.867  23.790  1.00  0.00    -0.375 OA
ATOM     22  C   UNL A   1      32.000  26.706  24.924  1.00  0.00     0.036 C 
ATOM     23  C   UNL A   1      33.427  27.322  22.961  1.00  0.00     0.036 C 
ATOM     24  C   UNL A   1      30.990  26.045  23.984  1.00  0.00     0.003 C 
ATOM     25  C   UNL A   1      32.467  26.622  22.008  1.00  0.00     0.003 C 
ATOM     26  C   UNL A   1      31.665  25.535  22.713  1.00  0.00     0.000 C 
ENDBRANCH  11  16
ENDBRANCH  10  11
ENDBRANCH   8  10
ENDBRANCH   7   8
ENDBRANCH   6   7
ENDBRANCH   5   6
ENDBRANCH   4   5
ENDBRANCH   3   4
ENDBRANCH   2   3
ENDBRANCH   1   2
BRANCH   1  27
ATOM     27  C   UNL A   1      34.335  35.854  34.018  1.00  0.00     0.188 C 
BRANCH  27  28
ATOM     28  C   UNL A   1      35.134  34.567  33.754  1.00  0.00     0.188 C 
BRANCH  28  29
ATOM     29  O   UNL A   1      34.650  33.798  32.662  1.00  0.00    -0.376 OA
BRANCH  29  30
ATOM     30  C   UNL A   1      35.545  33.492  31.603  1.00  0.00     0.202 C 
BRANCH  30  31
ATOM     31  C   UNL A   1      36.737  32.563  31.902  1.00  0.00     0.261 C 
BRANCH  31  32
ATOM     32  O   UNL A   1      36.828  31.347  31.145  1.00  0.00    -0.460 OA
BRANCH  32  33
ATOM     33  C   UNL A   1      37.379  30.272  31.743  1.00  0.00     0.338 C 
ATOM     34  O   UNL A   1      36.781  29.351  32.279  1.00  0.00    -0.246 OA
BRANCH  33  35
ATOM     35  C   UNL A   1      38.832  30.279  31.471  1.00  0.00     0.060 A 
ATOM     36  C   UNL A   1      39.294  30.902  30.305  1.00  0.00     0.016 A 
ATOM     37  C   UNL A   1      39.732  29.655  32.340  1.00  0.00     0.016 A 
ATOM     38  C   UNL A   1      40.643  30.836  29.962  1.00  0.00     0.010 A 
ATOM     39  C   UNL A   1      41.084  29.573  31.986  1.00  0.00     0.010 A 
ATOM     40  C   UNL A   1      41.533  30.110  30.766  1.00  0.00    -0.014 A 
BRANCH  40  41
ATOM     41  C   UNL A   1      42.837  29.688  30.193  1.00  0.00     0.031 A 
ATOM     42  C   UNL A   1      42.902  28.349  29.502  1.00  0.00     0.074 A 
ATOM     43  C   UNL A   1      43.921  30.484  30.223  1.00  0.00     0.049 A 
ATOM     44  N   UNL A   1      43.910  27.762  28.912  1.00  0.00    -0.248 NA
ATOM     45  C   UNL A   1      41.655  27.566  29.478  1.00  0.00     0.031 C 
ATOM     46  C   UNL A   1      43.976  31.819  30.813  1.00  0.00     0.029 A 
ATOM     47  N   UNL A   1      45.188  30.278  29.736  1.00  0.00    -0.354 N 
ATOM     48  C   UNL A   1      43.424  26.539  28.461  1.00  0.00     0.074 A 
ATOM     49  C   UNL A   1      42.042  26.453  28.878  1.00  0.00     0.031 C 
ATOM     50  C   UNL A   1      45.215  32.317  30.651  1.00  0.00     0.029 A 
ATOM     51  C   UNL A   1      46.049  31.323  29.972  1.00  0.00     0.049 A 
ATOM     52  H   UNL A   1      45.455  29.458  29.262  1.00  0.00     0.167 HD
ATOM     53  C   UNL A   1      44.064  25.577  27.754  1.00  0.00     0.037 A 
ATOM     54  C   UNL A   1      47.359  31.456  29.682  1.00  0.00     0.037 A 
ATOM     55  C   UNL A   1      45.439  25.669  27.340  1.00  0.00     0.049 A 
ATOM     56  C   UNL A   1      48.073  30.345  28.952  1.00  0.00     0.074 A 
ATOM     57  C   UNL A   1      46.177  24.759  26.603  1.00  0.00     0.029 A 
ATOM     58  N   UNL A   1      46.288  26.726  27.636  1.00  0.00    -0.354 N 
ATOM     59  N   UNL A   1      47.597  29.203  28.512  1.00  0.00    -0.248 NA
ATOM     60  C   UNL A   1      49.501  30.547  28.669  1.00  0.00     0.031 C 
ATOM     61  C   UNL A   1      47.489  25.235  26.511  1.00  0.00     0.029 A 
ATOM     62  C   UNL A   1      47.550  26.478  27.122  1.00  0.00     0.049 A 
ATOM     63  H   UNL A   1      46.031  27.533  28.138  1.00  0.00     0.167 HD
ATOM     64  C   UNL A   1      48.654  28.573  27.860  1.00  0.00     0.074 A 
ATOM     65  C   UNL A   1      49.794  29.461  27.965  1.00  0.00     0.031 C 
ATOM     66  C   UNL A   1      48.677  27.375  27.223  1.00  0.00     0.037 A 
BRANCH  53  67
ATOM     67  C   UNL A   1      43.294  24.324  27.433  1.00  0.00     0.058 A 
ATOM     68  C   UNL A   1      42.479  24.217  26.294  1.00  0.00     0.135 A 
ATOM     69  C   UNL A   1      43.373  23.210  28.284  1.00  0.00     0.135 A 
ATOM     70  F   UNL A   1      42.348  25.256  25.454  1.00  0.00    -0.206 F 
ATOM     71  C   UNL A   1      41.736  23.069  26.035  1.00  0.00     0.059 A 
ATOM     72  C   UNL A   1      42.668  22.038  28.026  1.00  0.00     0.059 A 
ATOM     73  F   UNL A   1      44.134  23.255  29.388  1.00  0.00    -0.206 F 
ATOM     74  C   UNL A   1      41.835  21.985  26.909  1.00  0.00     0.060 A 
BRANCH  74  75
ATOM     75  S   UNL A   1      40.851  20.510  26.573  1.00  0.00     0.124 S 
ATOM     76  O   UNL A   1      39.586  21.097  26.139  1.00  0.00    -0.237 OA
ATOM     77  O   UNL A   1      41.630  19.847  25.533  1.00  0.00    -0.237 OA
ATOM     78  O   UNL A   1      40.815  19.824  27.860  1.00  0.00    -0.744 OA
ENDBRANCH  74  75
ENDBRANCH  53  67
BRANCH  54  79
ATOM     79  C   UNL A   1      48.084  32.701  30.063  1.00  0.00     0.058 A 
ATOM     80  C   UNL A   1      48.761  32.797  31.288  1.00  0.00     0.135 A 
ATOM     81  C   UNL A   1      48.116  33.815  29.211  1.00  0.00     0.135 A 
ATOM     82  F   UNL A   1      48.748  31.765  32.146  1.00  0.00    -0.206 F 
ATOM     83  C   UNL A   1      49.438  33.955  31.659  1.00  0.00     0.059 A 
ATOM     84  C   UNL A   1      48.809  34.974  29.547  1.00  0.00     0.059 A 
ATOM     85  F   UNL A   1      47.489  33.774  28.025  1.00  0.00    -0.206 F 
ATOM     86  C   UNL A   1      49.463  35.036  30.776  1.00  0.00     0.060 A 
BRANCH  86  87
ATOM     87  S   UNL A   1      50.401  36.508  31.240  1.00  0.00     0.124 S 
ATOM     88  O   UNL A   1      51.765  36.100  30.928  1.00  0.00    -0.237 OA
ATOM     89  O   UNL A   1      49.822  37.525  30.367  1.00  0.00    -0.237 OA
ATOM     90  O   UNL A   1      50.098  36.667  32.660  1.00  0.00    -0.744 OA
ENDBRANCH  86  87
ENDBRANCH  54  79
BRANCH  66  91
ATOM     91  C   UNL A   1      49.951  26.977  26.525  1.00  0.00     0.058 A 
ATOM     92  C   UNL A   1      51.019  26.365  27.199  1.00  0.00     0.135 A 
ATOM     93  C   UNL A   1      50.086  27.176  25.139  1.00  0.00     0.135 A 
ATOM     94  F   UNL A   1      50.948  26.148  28.523  1.00  0.00    -0.206 F 
ATOM     95  C   UNL A   1      52.188  26.002  26.536  1.00  0.00     0.059 A 
ATOM     96  C   UNL A   1      51.230  26.790  24.449  1.00  0.00     0.059 A 
ATOM     97  F   UNL A   1      49.091  27.742  24.437  1.00  0.00    -0.206 F 
ATOM     98  C   UNL A   1      52.284  26.219  25.160  1.00  0.00     0.060 A 
BRANCH  98  99
ATOM     99  S   UNL A   1      53.802  25.737  24.309  1.00  0.00     0.124 S 
ATOM    100  O   UNL A   1      54.039  24.407  24.861  1.00  0.00    -0.237 OA
ATOM    101  O   UNL A   1      53.400  25.779  22.906  1.00  0.00    -0.237 OA
ATOM    102  O   UNL A   1      54.759  26.763  24.712  1.00  0.00    -0.744 OA
ENDBRANCH  98  99
ENDBRANCH  66  91
ENDBRANCH  40  41
ENDBRANCH  33  35
ENDBRANCH  32  33
ENDBRANCH  31  32
ENDBRANCH  30  31
ENDBRANCH  29  30
ENDBRANCH  28  29
ENDBRANCH  27  28
ENDBRANCH   1  27
TORSDOF 27
ENDMDL
MODEL 2
REMARK VINA RESULT:      -8.1      3.088      5.431
REMARK SMILES CCC[N@H+](CC(=O)OCCOCCOCCOCCOC(=O)c1ccc(-c2c3nc(c(-c4c(F)cc(S(=O)(=O)[O-])cc4F)c4ccc([nH]4)c(-c4c(F)cc(S(=O)(=O)[O-])cc4F)c4nc(c(-c5c(F)cc(S(=O)(=O)[O-])cc5F)c5ccc2[nH]5)C=C4)C=C3)cc1)[C@H]1CCOC2(CCCCC2)C1
REMARK SMILES IDX 14 1 13 2 12 3 11 4 10 5 9 6 8 7 6 8 7 9 5 10 4 11 3 13 2 14
REMARK SMILES IDX 1 15 89 16 90 17 99 18 91 19 93 20 92 21 94 22 98 23 95 24
REMARK SMILES IDX 97 25 96 26 15 27 16 28 17 29 18 30 19 31 20 32 21 33 22 34
REMARK SMILES IDX 23 35 24 36 88 37 25 38 87 39 26 40 27 41 28 42 81 43 29 44
REMARK SMILES IDX 86 45 80 46 82 47 30 48 85 49 79 50 78 51 31 53 65 54 44 55
REMARK SMILES IDX 64 56 45 57 48 58 63 59 83 60 46 61 47 62 62 64 84 65 49 66
REMARK SMILES IDX 32 67 33 68 42 69 34 70 35 71 41 72 43 73 36 74 37 75 38 76
REMARK SMILES IDX 39 77 40 78 66 79 67 80 76 81 68 82 69 83 75 84 77 85 70 86
REMARK SMILES IDX 71 87 72 88 73 89 74 90 50 91 51 92 60 93 52 94 53 95 59 96
REMARK SMILES IDX 61 97 54 98 55 99 56 100 57 101 58 102
REMARK H PARENT 4 12 82 52 48 63
REMARK Flexibility Score: inf
ROOT
ATOM      1  O   UNL A   1      31.026  27.142  26.522  1.00  0.00    -0.377 OA
ENDROOT
BRANCH   1   2
ATOM      2  C   UNL A   1      30.460  26.468  25.418  1.00  0.00     0.188 C 
BRANCH   2   3
ATOM      3  C   UNL A   1      30.599  27.209  24.079  1.00  0.00     0.188 C 
BRANCH   3   4
ATOM      4  O   UNL A   1      30.327  26.571  22.838  1.00  0.00    -0.376 OA
BRANCH   4   5
ATOM      5  C   UNL A   1      31.368  26.058  22.016  1.00  0.00     0.202 C 
BRANCH   5   6
ATOM      6  C   UNL A   1      32.840  26.444  22.227  1.00  0.00     0.261 C 
BRANCH   6   7
ATOM      7  O   UNL A   1      33.411  26.079  23.493  1.00  0.00    -0.459 OA
BRANCH   7   8
ATOM      8  C   UNL A   1      34.107  24.930  23.506  1.00  0.00     0.361 C 
ATOM      9  O   UNL A   1      34.501  24.365  22.482  1.00  0.00    -0.245 OA
BRANCH   8  10
ATOM     10  C   UNL A   1      34.349  24.277  24.855  1.00  0.00     0.386 C 
BRANCH  10  11
ATOM     11  N   UNL A   1      35.084  22.977  25.078  1.00  0.00    -0.323 N 
ATOM     12  H   UNL A   1      35.611  22.712  24.246  1.00  0.00     0.348 HD
BRANCH  11  13
ATOM     13  C   UNL A   1      36.154  23.113  26.090  1.00  0.00     0.262 C 
BRANCH  13  14
ATOM     14  C   UNL A   1      37.391  22.177  26.056  1.00  0.00     0.058 C 
ATOM     15  C   UNL A   1      37.808  21.597  24.712  1.00  0.00     0.010 C 
ENDBRANCH  13  14
ENDBRANCH  11  13
BRANCH  11  16
ATOM     16  C   UNL A   1      34.082  21.855  25.281  1.00  0.00     0.189 C 
ATOM     17  C   UNL A   1      32.602  22.159  24.985  1.00  0.00     0.093 C 
ATOM     18  C   UNL A   1      34.455  20.552  24.542  1.00  0.00     0.100 C 
ATOM     19  C   UNL A   1      31.683  20.956  25.107  1.00  0.00     0.167 C 
ATOM     20  C   UNL A   1      33.448  19.407  24.659  1.00  0.00     0.074 C 
ATOM     21  O   UNL A   1      32.145  19.876  24.305  1.00  0.00    -0.375 OA
ATOM     22  C   UNL A   1      33.436  18.737  26.050  1.00  0.00     0.036 C 
ATOM     23  C   UNL A   1      33.871  18.349  23.614  1.00  0.00     0.036 C 
ATOM     24  C   UNL A   1      32.472  17.549  26.069  1.00  0.00     0.003 C 
ATOM     25  C   UNL A   1      32.961  17.128  23.618  1.00  0.00     0.003 C 
ATOM     26  C   UNL A   1      32.845  16.515  25.009  1.00  0.00     0.000 C 
ENDBRANCH  11  16
ENDBRANCH  10  11
ENDBRANCH   8  10
ENDBRANCH   7   8
ENDBRANCH   6   7
ENDBRANCH   5   6
ENDBRANCH   4   5
ENDBRANCH   3   4
ENDBRANCH   2   3
ENDBRANCH   1   2
BRANCH   1  27
ATOM     27  C   UNL A   1      32.044  28.096  26.266  1.00  0.00     0.188 C 
BRANCH  27  28
ATOM     28  C   UNL A   1      31.818  29.546  26.727  1.00  0.00     0.188 C 
BRANCH  28  29
ATOM     29  O   UNL A   1      32.762  30.001  27.688  1.00  0.00    -0.376 OA
BRANCH  29  30
ATOM     30  C   UNL A   1      33.932  30.659  27.224  1.00  0.00     0.202 C 
BRANCH  30  31
ATOM     31  C   UNL A   1      35.052  30.955  28.240  1.00  0.00     0.261 C 
BRANCH  31  32
ATOM     32  O   UNL A   1      36.317  30.312  28.027  1.00  0.00    -0.460 OA
BRANCH  32  33
ATOM     33  C   UNL A   1      36.974  29.842  29.106  1.00  0.00     0.338 C 
ATOM     34  O   UNL A   1      36.480  29.268  30.065  1.00  0.00    -0.246 OA
BRANCH  33  35
ATOM     35  C   UNL A   1      38.427  29.951  28.854  1.00  0.00     0.060 A 
ATOM     36  C   UNL A   1      38.909  29.667  27.570  1.00  0.00     0.016 A 
ATOM     37  C   UNL A   1      39.313  30.302  29.877  1.00  0.00     0.016 A 
ATOM     38  C   UNL A   1      40.281  29.655  27.323  1.00  0.00     0.010 A 
ATOM     39  C   UNL A   1      40.691  30.272  29.633  1.00  0.00     0.010 A 
ATOM     40  C   UNL A   1      41.181  29.889  28.371  1.00  0.00    -0.014 A 
BRANCH  40  41
ATOM     41  C   UNL A   1      42.595  29.462  28.212  1.00  0.00     0.031 A 
ATOM     42  C   UNL A   1      42.862  28.008  27.914  1.00  0.00     0.074 A 
ATOM     43  C   UNL A   1      43.615  30.338  28.265  1.00  0.00     0.049 A 
ATOM     44  N   UNL A   1      43.997  27.391  27.718  1.00  0.00    -0.248 NA
ATOM     45  C   UNL A   1      41.681  27.132  27.829  1.00  0.00     0.031 C 
ATOM     46  C   UNL A   1      43.488  31.774  28.493  1.00  0.00     0.029 A 
ATOM     47  N   UNL A   1      44.966  30.137  28.124  1.00  0.00    -0.354 N 
ATOM     48  C   UNL A   1      43.670  26.056  27.502  1.00  0.00     0.074 A 
ATOM     49  C   UNL A   1      42.233  25.947  27.627  1.00  0.00     0.031 C 
ATOM     50  C   UNL A   1      44.713  32.329  28.474  1.00  0.00     0.029 A 
ATOM     51  C   UNL A   1      45.713  31.282  28.261  1.00  0.00     0.049 A 
ATOM     52  H   UNL A   1      45.362  29.254  27.941  1.00  0.00     0.167 HD
ATOM     53  C   UNL A   1      44.487  25.015  27.214  1.00  0.00     0.037 A 
ATOM     54  C   UNL A   1      47.050  31.460  28.228  1.00  0.00     0.037 A 
ATOM     55  C   UNL A   1      45.916  25.129  27.088  1.00  0.00     0.049 A 
ATOM     56  C   UNL A   1      47.949  30.276  27.972  1.00  0.00     0.074 A 
ATOM     57  C   UNL A   1      46.833  24.140  26.780  1.00  0.00     0.029 A 
ATOM     58  N   UNL A   1      46.638  26.299  27.277  1.00  0.00    -0.354 N 
ATOM     59  N   UNL A   1      47.626  29.023  27.748  1.00  0.00    -0.248 NA
ATOM     60  C   UNL A   1      49.396  30.533  27.953  1.00  0.00     0.031 C 
ATOM     61  C   UNL A   1      48.114  24.698  26.847  1.00  0.00     0.029 A 
ATOM     62  C   UNL A   1      47.991  26.051  27.120  1.00  0.00     0.049 A 
ATOM     63  H   UNL A   1      46.245  27.177  27.491  1.00  0.00     0.167 HD
ATOM     64  C   UNL A   1      48.825  28.354  27.515  1.00  0.00     0.074 A 
ATOM     65  C   UNL A   1      49.879  29.341  27.627  1.00  0.00     0.031 C 
ATOM     66  C   UNL A   1      49.033  27.045  27.223  1.00  0.00     0.037 A 
BRANCH  53  67
ATOM     67  C   UNL A   1      43.854  23.657  27.068  1.00  0.00     0.058 A 
ATOM     68  C   UNL A   1      43.650  23.056  25.815  1.00  0.00     0.135 A 
ATOM     69  C   UNL A   1      43.442  22.944  28.206  1.00  0.00     0.135 A 
ATOM     70  F   UNL A   1      44.005  23.697  24.690  1.00  0.00    -0.206 F 
ATOM     71  C   UNL A   1      43.022  21.820  25.693  1.00  0.00     0.059 A 
ATOM     72  C   UNL A   1      42.845  21.691  28.111  1.00  0.00     0.059 A 
ATOM     73  F   UNL A   1      43.610  23.469  29.430  1.00  0.00    -0.206 F 
ATOM     74  C   UNL A   1      42.619  21.146  26.848  1.00  0.00     0.060 A 
BRANCH  74  75
ATOM     75  S   UNL A   1      41.787  19.555  26.674  1.00  0.00     0.124 S 
ATOM     76  O   UNL A   1      40.483  19.843  27.264  1.00  0.00    -0.237 OA
ATOM     77  O   UNL A   1      41.798  19.353  25.230  1.00  0.00    -0.237 OA
ATOM     78  O   UNL A   1      42.633  18.643  27.438  1.00  0.00    -0.744 OA
ENDBRANCH  74  75
ENDBRANCH  53  67
BRANCH  54  79
ATOM     79  C   UNL A   1      47.625  32.820  28.424  1.00  0.00     0.058 A 
ATOM     80  C   UNL A   1      47.782  33.702  27.344  1.00  0.00     0.135 A 
ATOM     81  C   UNL A   1      48.025  33.267  29.692  1.00  0.00     0.135 A 
ATOM     82  F   UNL A   1      47.429  33.317  26.107  1.00  0.00    -0.206 F 
ATOM     83  C   UNL A   1      48.322  34.973  27.510  1.00  0.00     0.059 A 
ATOM     84  C   UNL A   1      48.542  34.543  29.890  1.00  0.00     0.059 A 
ATOM     85  F   UNL A   1      47.891  32.465  30.761  1.00  0.00    -0.206 F 
ATOM     86  C   UNL A   1      48.692  35.387  28.791  1.00  0.00     0.060 A 
BRANCH  86  87
ATOM     87  S   UNL A   1      49.329  37.064  29.006  1.00  0.00     0.124 S 
ATOM     88  O   UNL A   1      48.406  37.606  29.995  1.00  0.00    -0.237 OA
ATOM     89  O   UNL A   1      50.690  36.814  29.471  1.00  0.00    -0.237 OA
ATOM     90  O   UNL A   1      49.228  37.637  27.667  1.00  0.00    -0.744 OA
ENDBRANCH  86  87
ENDBRANCH  54  79
BRANCH  66  91
ATOM     91  C   UNL A   1      50.446  26.608  26.933  1.00  0.00     0.058 A 
ATOM     92  C   UNL A   1      50.947  26.502  25.626  1.00  0.00     0.135 A 
ATOM     93  C   UNL A   1      51.328  26.332  27.992  1.00  0.00     0.135 A 
ATOM     94  F   UNL A   1      50.151  26.753  24.574  1.00  0.00    -0.206 F 
ATOM     95  C   UNL A   1      52.256  26.099  25.378  1.00  0.00     0.059 A 
ATOM     96  C   UNL A   1      52.651  25.963  27.770  1.00  0.00     0.059 A 
ATOM     97  F   UNL A   1      50.910  26.434  29.265  1.00  0.00    -0.206 F 
ATOM     98  C   UNL A   1      53.101  25.831  26.458  1.00  0.00     0.060 A 
BRANCH  98  99
ATOM     99  S   UNL A   1      54.800  25.318  26.124  1.00  0.00     0.124 S 
ATOM    100  O   UNL A   1      55.218  24.819  27.430  1.00  0.00    -0.237 OA
ATOM    101  O   UNL A   1      54.622  24.308  25.085  1.00  0.00    -0.237 OA
ATOM    102  O   UNL A   1      55.448  26.551  25.687  1.00  0.00    -0.744 OA
ENDBRANCH  98  99
ENDBRANCH  66  91
ENDBRANCH  40  41
ENDBRANCH  33  35
ENDBRANCH  32  33
ENDBRANCH  31  32
ENDBRANCH  30  31
ENDBRANCH  29  30
ENDBRANCH  28  29
ENDBRANCH  27  28
ENDBRANCH   1  27
TORSDOF 27
ENDMDL
MODEL 3
REMARK VINA RESULT:      -7.8      4.601     11.073
REMARK SMILES CCC[N@H+](CC(=O)OCCOCCOCCOCCOC(=O)c1ccc(-c2c3nc(c(-c4c(F)cc(S(=O)(=O)[O-])cc4F)c4ccc([nH]4)c(-c4c(F)cc(S(=O)(=O)[O-])cc4F)c4nc(c(-c5c(F)cc(S(=O)(=O)[O-])cc5F)c5ccc2[nH]5)C=C4)C=C3)cc1)[C@H]1CCOC2(CCCCC2)C1
REMARK SMILES IDX 14 1 13 2 12 3 11 4 10 5 9 6 8 7 6 8 7 9 5 10 4 11 3 13 2 14
REMARK SMILES IDX 1 15 89 16 90 17 99 18 91 19 93 20 92 21 94 22 98 23 95 24
REMARK SMILES IDX 97 25 96 26 15 27 16 28 17 29 18 30 19 31 20 32 21 33 22 34
REMARK SMILES IDX 23 35 24 36 88 37 25 38 87 39 26 40 27 41 28 42 81 43 29 44
REMARK SMILES IDX 86 45 80 46 82 47 30 48 85 49 79 50 78 51 31 53 65 54 44 55
REMARK SMILES IDX 64 56 45 57 48 58 63 59 83 60 46 61 47 62 62 64 84 65 49 66
REMARK SMILES IDX 32 67 33 68 42 69 34 70 35 71 41 72 43 73 36 74 37 75 38 76
REMARK SMILES IDX 39 77 40 78 66 79 67 80 76 81 68 82 69 83 75 84 77 85 70 86
REMARK SMILES IDX 71 87 72 88 73 89 74 90 50 91 51 92 60 93 52 94 53 95 59 96
REMARK SMILES IDX 61 97 54 98 55 99 56 100 57 101 58 102
REMARK H PARENT 4 12 82 52 48 63
REMARK Flexibility Score: inf
ROOT
ATOM      1  O   UNL A   1      31.826  24.819  26.900  1.00  0.00    -0.377 OA
ENDROOT
BRANCH   1   2
ATOM      2  C   UNL A   1      32.524  23.647  26.537  1.00  0.00     0.188 C 
BRANCH   2   3
ATOM      3  C   UNL A   1      33.881  23.897  25.861  1.00  0.00     0.188 C 
BRANCH   3   4
ATOM      4  O   UNL A   1      34.435  22.976  24.930  1.00  0.00    -0.376 OA
BRANCH   4   5
ATOM      5  C   UNL A   1      35.736  22.429  25.102  1.00  0.00     0.202 C 
BRANCH   5   6
ATOM      6  C   UNL A   1      37.008  23.248  24.836  1.00  0.00     0.261 C 
BRANCH   6   7
ATOM      7  O   UNL A   1      37.718  23.703  25.999  1.00  0.00    -0.459 OA
BRANCH   7   8
ATOM      8  C   UNL A   1      38.841  23.028  26.294  1.00  0.00     0.361 C 
ATOM      9  O   UNL A   1      38.946  21.804  26.178  1.00  0.00    -0.245 OA
BRANCH   8  10
ATOM     10  C   UNL A   1      40.003  23.823  26.861  1.00  0.00     0.386 C 
BRANCH  10  11
ATOM     11  N   UNL A   1      40.799  24.864  26.112  1.00  0.00    -0.323 N 
ATOM     12  H   UNL A   1      40.510  24.907  25.134  1.00  0.00     0.348 HD
BRANCH  11  13
ATOM     13  C   UNL A   1      40.500  26.234  26.582  1.00  0.00     0.262 C 
BRANCH  13  14
ATOM     14  C   UNL A   1      40.003  26.477  28.032  1.00  0.00     0.058 C 
ATOM     15  C   UNL A   1      39.019  27.614  28.265  1.00  0.00     0.010 C 
ENDBRANCH  13  14
ENDBRANCH  11  13
BRANCH  11  16
ATOM     16  C   UNL A   1      42.260  24.453  26.070  1.00  0.00     0.189 C 
ATOM     17  C   UNL A   1      43.107  24.696  27.332  1.00  0.00     0.093 C 
ATOM     18  C   UNL A   1      42.477  22.989  25.627  1.00  0.00     0.100 C 
ATOM     19  C   UNL A   1      44.524  24.157  27.244  1.00  0.00     0.167 C 
ATOM     20  C   UNL A   1      43.926  22.501  25.628  1.00  0.00     0.074 C 
ATOM     21  O   UNL A   1      44.527  22.779  26.895  1.00  0.00    -0.375 OA
ATOM     22  C   UNL A   1      44.772  23.083  24.475  1.00  0.00     0.036 C 
ATOM     23  C   UNL A   1      43.867  20.966  25.459  1.00  0.00     0.036 C 
ATOM     24  C   UNL A   1      46.182  22.487  24.485  1.00  0.00     0.003 C 
ATOM     25  C   UNL A   1      45.249  20.327  25.426  1.00  0.00     0.003 C 
ATOM     26  C   UNL A   1      46.141  20.965  24.368  1.00  0.00     0.000 C 
ENDBRANCH  11  16
ENDBRANCH  10  11
ENDBRANCH   8  10
ENDBRANCH   7   8
ENDBRANCH   6   7
ENDBRANCH   5   6
ENDBRANCH   4   5
ENDBRANCH   3   4
ENDBRANCH   2   3
ENDBRANCH   1   2
BRANCH   1  27
ATOM     27  C   UNL A   1      32.211  26.039  26.285  1.00  0.00     0.188 C 
BRANCH  27  28
ATOM     28  C   UNL A   1      31.688  27.355  26.882  1.00  0.00     0.188 C 
BRANCH  28  29
ATOM     29  O   UNL A   1      32.708  28.289  27.209  1.00  0.00    -0.376 OA
BRANCH  29  30
ATOM     30  C   UNL A   1      33.928  28.237  26.483  1.00  0.00     0.202 C 
BRANCH  30  31
ATOM     31  C   UNL A   1      35.041  29.235  26.856  1.00  0.00     0.261 C 
BRANCH  31  32
ATOM     32  O   UNL A   1      35.164  29.593  28.240  1.00  0.00    -0.460 OA
BRANCH  32  33
ATOM     33  C   UNL A   1      35.136  30.902  28.557  1.00  0.00     0.338 C 
ATOM     34  O   UNL A   1      34.237  31.691  28.310  1.00  0.00    -0.246 OA
BRANCH  33  35
ATOM     35  C   UNL A   1      36.287  31.196  29.438  1.00  0.00     0.060 A 
ATOM     36  C   UNL A   1      36.968  32.409  29.270  1.00  0.00     0.016 A 
ATOM     37  C   UNL A   1      36.711  30.277  30.401  1.00  0.00     0.016 A 
ATOM     38  C   UNL A   1      38.120  32.673  30.008  1.00  0.00     0.010 A 
ATOM     39  C   UNL A   1      37.879  30.535  31.129  1.00  0.00     0.010 A 
ATOM     40  C   UNL A   1      38.621  31.706  30.891  1.00  0.00    -0.014 A 
BRANCH  40  41
ATOM     41  C   UNL A   1      40.035  31.804  31.336  1.00  0.00     0.031 A 
ATOM     42  C   UNL A   1      40.311  32.464  32.664  1.00  0.00     0.074 A 
ATOM     43  C   UNL A   1      41.046  31.274  30.624  1.00  0.00     0.049 A 
ATOM     44  N   UNL A   1      41.448  32.661  33.278  1.00  0.00    -0.248 NA
ATOM     45  C   UNL A   1      39.139  32.975  33.394  1.00  0.00     0.031 C 
ATOM     46  C   UNL A   1      40.908  30.567  29.354  1.00  0.00     0.029 A 
ATOM     47  N   UNL A   1      42.394  31.249  30.879  1.00  0.00    -0.354 N 
ATOM     48  C   UNL A   1      41.131  33.328  34.457  1.00  0.00     0.074 A 
ATOM     49  C   UNL A   1      39.699  33.535  34.454  1.00  0.00     0.031 C 
ATOM     50  C   UNL A   1      42.126  30.172  28.940  1.00  0.00     0.029 A 
ATOM     51  C   UNL A   1      43.132  30.625  29.901  1.00  0.00     0.049 A 
ATOM     52  H   UNL A   1      42.796  31.641  31.688  1.00  0.00     0.167 HD
ATOM     53  C   UNL A   1      41.952  33.724  35.459  1.00  0.00     0.037 A 
ATOM     54  C   UNL A   1      44.464  30.451  29.792  1.00  0.00     0.037 A 
ATOM     55  C   UNL A   1      43.375  33.513  35.458  1.00  0.00     0.049 A 
ATOM     56  C   UNL A   1      45.370  30.958  30.887  1.00  0.00     0.074 A 
ATOM     57  C   UNL A   1      44.295  33.857  36.432  1.00  0.00     0.029 A 
ATOM     58  N   UNL A   1      44.088  32.915  34.428  1.00  0.00    -0.354 N 
ATOM     59  N   UNL A   1      45.056  31.567  32.007  1.00  0.00    -0.248 NA
ATOM     60  C   UNL A   1      46.813  30.742  30.708  1.00  0.00     0.031 C 
ATOM     61  C   UNL A   1      45.571  33.528  35.963  1.00  0.00     0.029 A 
ATOM     62  C   UNL A   1      45.439  32.906  34.731  1.00  0.00     0.049 A 
ATOM     63  H   UNL A   1      43.691  32.550  33.604  1.00  0.00     0.167 HD
ATOM     64  C   UNL A   1      46.256  31.765  32.686  1.00  0.00     0.074 A 
ATOM     65  C   UNL A   1      47.301  31.211  31.849  1.00  0.00     0.031 C 
ATOM     66  C   UNL A   1      46.472  32.341  33.895  1.00  0.00     0.037 A 
BRANCH  53  67
ATOM     67  C   UNL A   1      41.331  34.469  36.610  1.00  0.00     0.058 A 
ATOM     68  C   UNL A   1      40.856  33.814  37.758  1.00  0.00     0.135 A 
ATOM     69  C   UNL A   1      41.209  35.868  36.561  1.00  0.00     0.135 A 
ATOM     70  F   UNL A   1      40.928  32.477  37.854  1.00  0.00    -0.206 F 
ATOM     71  C   UNL A   1      40.243  34.512  38.794  1.00  0.00     0.059 A 
ATOM     72  C   UNL A   1      40.632  36.590  37.601  1.00  0.00     0.059 A 
ATOM     73  F   UNL A   1      41.643  36.547  35.489  1.00  0.00    -0.206 F 
ATOM     74  C   UNL A   1      40.133  35.901  38.705  1.00  0.00     0.060 A 
BRANCH  74  75
ATOM     75  S   UNL A   1      39.317  36.792  40.046  1.00  0.00     0.124 S 
ATOM     76  O   UNL A   1      38.488  35.742  40.630  1.00  0.00    -0.237 OA
ATOM     77  O   UNL A   1      40.446  37.232  40.858  1.00  0.00    -0.237 OA
ATOM     78  O   UNL A   1      38.591  37.853  39.357  1.00  0.00    -0.744 OA
ENDBRANCH  74  75
ENDBRANCH  53  67
BRANCH  54  79
ATOM     79  C   UNL A   1      45.028  29.744  28.608  1.00  0.00     0.058 A 
ATOM     80  C   UNL A   1      45.225  28.355  28.620  1.00  0.00     0.135 A 
ATOM     81  C   UNL A   1      45.379  30.441  27.442  1.00  0.00     0.135 A 
ATOM     82  F   UNL A   1      44.920  27.643  29.716  1.00  0.00    -0.206 F 
ATOM     83  C   UNL A   1      45.755  27.683  27.523  1.00  0.00     0.059 A 
ATOM     84  C   UNL A   1      45.884  29.789  26.323  1.00  0.00     0.059 A 
ATOM     85  F   UNL A   1      45.206  31.772  27.376  1.00  0.00    -0.206 F 
ATOM     86  C   UNL A   1      46.075  28.410  26.375  1.00  0.00     0.060 A 
BRANCH  86  87
ATOM     87  S   UNL A   1      46.699  27.517  24.934  1.00  0.00     0.124 S 
ATOM     88  O   UNL A   1      45.673  26.499  24.749  1.00  0.00    -0.237 OA
ATOM     89  O   UNL A   1      46.746  28.569  23.922  1.00  0.00    -0.237 OA
ATOM     90  O   UNL A   1      48.001  27.028  25.379  1.00  0.00    -0.744 OA
ENDBRANCH  86  87
ENDBRANCH  54  79
BRANCH  66  91
ATOM     91  C   UNL A   1      47.881  32.343  34.428  1.00  0.00     0.058 A 
ATOM     92  C   UNL A   1      48.437  31.237  35.090  1.00  0.00     0.135 A 
ATOM     93  C   UNL A   1      48.706  33.465  34.233  1.00  0.00     0.135 A 
ATOM     94  F   UNL A   1      47.698  30.137  35.306  1.00  0.00    -0.206 F 
ATOM     95  C   UNL A   1      49.742  31.258  35.574  1.00  0.00     0.059 A 
ATOM     96  C   UNL A   1      50.024  33.495  34.675  1.00  0.00     0.059 A 
ATOM     97  F   UNL A   1      48.234  34.547  33.591  1.00  0.00    -0.206 F 
ATOM     98  C   UNL A   1      50.528  32.393  35.362  1.00  0.00     0.060 A 
BRANCH  98  99
ATOM     99  S   UNL A   1      52.223  32.404  35.986  1.00  0.00     0.124 S 
ATOM    100  O   UNL A   1      52.399  31.012  36.384  1.00  0.00    -0.237 OA
ATOM    101  O   UNL A   1      52.983  32.831  34.815  1.00  0.00    -0.237 OA
ATOM    102  O   UNL A   1      52.175  33.369  37.080  1.00  0.00    -0.744 OA
ENDBRANCH  98  99
ENDBRANCH  66  91
ENDBRANCH  40  41
ENDBRANCH  33  35
ENDBRANCH  32  33
ENDBRANCH  31  32
ENDBRANCH  30  31
ENDBRANCH  29  30
ENDBRANCH  28  29
ENDBRANCH  27  28
ENDBRANCH   1  27
TORSDOF 27
ENDMDL
