MODEL 1
REMARK VINA RESULT:      -9.2      0.000      0.000
REMARK SMILES CCn1ncc(NC(=O)[C@@H]2CCCC[C@@H]2C(=O)OCCOCCOCCOCCOC(=O)c2ccc(-c3c4nc(c(-c5c(F)cc(S(=O)(=O)[O-])cc5F)c5ccc([nH]5)c(-c5c(F)cc(S(=O)(=O)[O-])cc5F)c5nc(c(-c6c(F)cc(S(=O)(=O)[O-])cc6F)c6ccc3[nH]6)C=C5)C=C4)cc2)c1C(=O)Nc1cnn(C)c1C
REMARK SMILES IDX 23 1 22 2 21 3 20 4 19 5 18 6 16 7 17 8 15 9 10 10 11 11
REMARK SMILES IDX 12 12 14 13 13 14 8 15 7 16 9 18 6 19 3 20 4 21 99 22 5 23
REMARK SMILES IDX 2 24 1 25 100 26 101 27 102 28 103 30 104 31 108 32 105 33
REMARK SMILES IDX 106 34 109 35 107 36 24 37 25 38 26 39 27 40 28 41 29 42
REMARK SMILES IDX 30 43 31 44 32 45 33 46 34 47 98 48 35 49 97 50 36 51 37 52
REMARK SMILES IDX 38 53 91 54 39 55 96 56 90 57 92 58 40 59 95 60 89 61 88 62
REMARK SMILES IDX 41 64 75 65 54 66 74 67 55 68 58 69 73 70 93 71 56 72 57 73
REMARK SMILES IDX 72 75 94 76 59 77 42 78 43 79 52 80 44 81 45 82 51 83 53 84
REMARK SMILES IDX 46 85 47 86 48 87 49 88 50 89 76 90 77 91 86 92 78 93 79 94
REMARK SMILES IDX 85 95 87 96 80 97 81 98 82 99 83 100 84 101 60 102 61 103
REMARK SMILES IDX 70 104 62 105 63 106 69 107 71 108 64 109 65 110 66 111
REMARK SMILES IDX 67 112 68 113
REMARK H PARENT 7 17 102 29 92 63 58 74
REMARK Flexibility Score: inf
ROOT
ATOM      1  C   UNL A   1      37.590  29.529  29.320  1.00  0.00     0.188 C 
ENDROOT
BRANCH   1   2
ATOM      2  C   UNL A   1      37.052  30.342  28.151  1.00  0.00     0.188 C 
BRANCH   2   3
ATOM      3  O   UNL A   1      36.256  29.610  27.219  1.00  0.00    -0.376 OA
BRANCH   3   4
ATOM      4  C   UNL A   1      34.839  29.778  27.286  1.00  0.00     0.202 C 
BRANCH   4   5
ATOM      5  C   UNL A   1      33.994  28.513  27.076  1.00  0.00     0.261 C 
BRANCH   5   6
ATOM      6  O   UNL A   1      33.562  28.307  25.717  1.00  0.00    -0.463 OA
BRANCH   6   7
ATOM      7  C   UNL A   1      32.226  28.338  25.497  1.00  0.00     0.309 C 
ATOM      8  O   UNL A   1      31.410  28.919  26.206  1.00  0.00    -0.252 OA
BRANCH   7   9
ATOM      9  C   UNL A   1      31.787  27.531  24.278  1.00  0.00     0.111 C 
ATOM     10  C   UNL A   1      32.149  26.057  24.430  1.00  0.00     0.093 C 
ATOM     11  C   UNL A   1      33.603  25.785  24.069  1.00  0.00     0.014 C 
ATOM     12  C   UNL A   1      33.759  26.053  22.575  1.00  0.00     0.001 C 
ATOM     13  C   UNL A   1      32.156  28.086  22.899  1.00  0.00     0.016 C 
ATOM     14  C   UNL A   1      33.382  27.483  22.203  1.00  0.00     0.001 C 
BRANCH  10  15
ATOM     15  C   UNL A   1      31.701  25.541  25.768  1.00  0.00     0.228 C 
ATOM     16  N   UNL A   1      31.682  24.198  26.004  1.00  0.00    -0.322 N 
ATOM     17  H   UNL A   1      31.126  23.972  26.785  1.00  0.00     0.170 HD
ATOM     18  O   UNL A   1      31.225  26.297  26.618  1.00  0.00    -0.274 OA
BRANCH  16  19
ATOM     19  C   UNL A   1      32.245  23.061  25.424  1.00  0.00     0.092 A 
ATOM     20  N   UNL A   1      33.123  21.122  24.859  1.00  0.00    -0.258 N 
ATOM     21  N   UNL A   1      32.181  21.331  23.920  1.00  0.00    -0.178 NA
ATOM     22  C   UNL A   1      33.337  22.220  25.676  1.00  0.00     0.150 A 
ATOM     23  C   UNL A   1      31.612  22.466  24.303  1.00  0.00     0.162 A 
BRANCH  20  24
ATOM     24  C   UNL A   1      33.667  19.772  24.924  1.00  0.00     0.142 C 
ATOM     25  C   UNL A   1      32.680  18.616  24.934  1.00  0.00     0.029 C 
ENDBRANCH  20  24
BRANCH  22  26
ATOM     26  C   UNL A   1      34.352  22.226  26.699  1.00  0.00     0.276 C 
ATOM     27  O   UNL A   1      34.203  21.672  27.787  1.00  0.00    -0.267 OA
ATOM     28  N   UNL A   1      35.472  23.026  26.485  1.00  0.00    -0.318 N 
ATOM     29  H   UNL A   1      35.453  23.990  26.685  1.00  0.00     0.170 HD
BRANCH  28  30
ATOM     30  C   UNL A   1      36.617  22.420  25.979  1.00  0.00     0.082 A 
ATOM     31  C   UNL A   1      36.772  21.202  25.298  1.00  0.00     0.161 A 
ATOM     32  C   UNL A   1      37.894  22.939  26.095  1.00  0.00     0.059 A 
ATOM     33  N   UNL A   1      38.059  20.876  25.152  1.00  0.00    -0.179 NA
ATOM     34  N   UNL A   1      38.722  21.909  25.715  1.00  0.00    -0.271 N 
ATOM     35  C   UNL A   1      38.388  24.218  26.669  1.00  0.00     0.068 C 
ATOM     36  C   UNL A   1      40.105  21.723  26.098  1.00  0.00     0.174 C 
ENDBRANCH  28  30
ENDBRANCH  22  26
ENDBRANCH  16  19
ENDBRANCH  10  15
ENDBRANCH   7   9
ENDBRANCH   6   7
ENDBRANCH   5   6
ENDBRANCH   4   5
ENDBRANCH   3   4
ENDBRANCH   2   3
ENDBRANCH   1   2
BRANCH   1  37
ATOM     37  O   UNL A   1      39.004  29.374  29.226  1.00  0.00    -0.377 OA
BRANCH  37  38
ATOM     38  C   UNL A   1      39.532  28.360  28.375  1.00  0.00     0.188 C 
BRANCH  38  39
ATOM     39  C   UNL A   1      39.668  26.964  28.970  1.00  0.00     0.188 C 
BRANCH  39  40
ATOM     40  O   UNL A   1      40.831  26.208  28.593  1.00  0.00    -0.376 OA
BRANCH  40  41
ATOM     41  C   UNL A   1      42.133  26.614  29.026  1.00  0.00     0.202 C 
BRANCH  41  42
ATOM     42  C   UNL A   1      43.261  26.217  28.094  1.00  0.00     0.261 C 
BRANCH  42  43
ATOM     43  O   UNL A   1      44.276  27.194  28.238  1.00  0.00    -0.460 OA
BRANCH  43  44
ATOM     44  C   UNL A   1      44.722  27.705  27.078  1.00  0.00     0.338 C 
ATOM     45  O   UNL A   1      45.252  27.090  26.150  1.00  0.00    -0.246 OA
BRANCH  44  46
ATOM     46  C   UNL A   1      44.518  29.166  27.101  1.00  0.00     0.060 A 
ATOM     47  C   UNL A   1      45.463  29.793  27.909  1.00  0.00     0.016 A 
ATOM     48  C   UNL A   1      43.185  29.595  27.028  1.00  0.00     0.016 A 
ATOM     49  C   UNL A   1      44.968  30.426  29.014  1.00  0.00     0.010 A 
ATOM     50  C   UNL A   1      42.683  30.197  28.148  1.00  0.00     0.010 A 
ATOM     51  C   UNL A   1      43.578  30.488  29.172  1.00  0.00    -0.014 A 
BRANCH  51  52
ATOM     52  C   UNL A   1      43.094  30.966  30.438  1.00  0.00     0.031 A 
ATOM     53  C   UNL A   1      42.953  29.864  31.400  1.00  0.00     0.074 A 
ATOM     54  C   UNL A   1      42.877  32.263  30.700  1.00  0.00     0.049 A 
ATOM     55  N   UNL A   1      41.864  29.310  31.814  1.00  0.00    -0.248 NA
ATOM     56  C   UNL A   1      44.183  29.135  31.746  1.00  0.00     0.031 C 
ATOM     57  C   UNL A   1      43.275  33.439  29.922  1.00  0.00     0.029 A 
ATOM     58  N   UNL A   1      42.324  32.801  31.812  1.00  0.00    -0.354 N 
ATOM     59  C   UNL A   1      42.289  28.305  32.669  1.00  0.00     0.074 A 
ATOM     60  C   UNL A   1      43.682  28.084  32.389  1.00  0.00     0.031 C 
ATOM     61  C   UNL A   1      43.152  34.539  30.702  1.00  0.00     0.029 A 
ATOM     62  C   UNL A   1      42.566  34.153  31.976  1.00  0.00     0.049 A 
ATOM     63  H   UNL A   1      41.792  32.273  32.452  1.00  0.00     0.167 HD
ATOM     64  C   UNL A   1      41.553  27.949  33.752  1.00  0.00     0.037 A 
ATOM     65  C   UNL A   1      42.401  34.839  33.135  1.00  0.00     0.037 A 
ATOM     66  C   UNL A   1      40.181  28.375  33.627  1.00  0.00     0.049 A 
ATOM     67  C   UNL A   1      41.483  34.032  33.994  1.00  0.00     0.074 A 
ATOM     68  C   UNL A   1      39.180  28.134  32.706  1.00  0.00     0.029 A 
ATOM     69  N   UNL A   1      39.786  29.490  34.329  1.00  0.00    -0.354 N 
ATOM     70  N   UNL A   1      40.227  33.804  33.712  1.00  0.00    -0.248 NA
ATOM     71  C   UNL A   1      42.078  33.093  34.938  1.00  0.00     0.031 C 
ATOM     72  C   UNL A   1      38.467  29.364  32.594  1.00  0.00     0.029 A 
ATOM     73  C   UNL A   1      39.047  30.276  33.479  1.00  0.00     0.049 A 
ATOM     74  H   UNL A   1      39.996  29.689  35.270  1.00  0.00     0.167 HD
ATOM     75  C   UNL A   1      39.992  32.493  34.111  1.00  0.00     0.074 A 
ATOM     76  C   UNL A   1      41.140  32.142  34.941  1.00  0.00     0.031 C 
ATOM     77  C   UNL A   1      39.037  31.724  33.507  1.00  0.00     0.037 A 
BRANCH  64  78
ATOM     78  C   UNL A   1      42.189  27.563  35.062  1.00  0.00     0.058 A 
ATOM     79  C   UNL A   1      43.080  28.453  35.682  1.00  0.00     0.135 A 
ATOM     80  C   UNL A   1      42.154  26.253  35.601  1.00  0.00     0.135 A 
ATOM     81  F   UNL A   1      43.209  29.712  35.235  1.00  0.00    -0.206 F 
ATOM     82  C   UNL A   1      43.919  28.056  36.724  1.00  0.00     0.059 A 
ATOM     83  C   UNL A   1      42.926  25.858  36.681  1.00  0.00     0.059 A 
ATOM     84  F   UNL A   1      41.451  25.259  35.046  1.00  0.00    -0.206 F 
ATOM     85  C   UNL A   1      43.841  26.751  37.205  1.00  0.00     0.060 A 
BRANCH  85  86
ATOM     86  S   UNL A   1      45.001  26.191  38.459  1.00  0.00     0.124 S 
ATOM     87  O   UNL A   1      46.100  27.132  38.271  1.00  0.00    -0.237 OA
ATOM     88  O   UNL A   1      44.222  26.347  39.683  1.00  0.00    -0.237 OA
ATOM     89  O   UNL A   1      45.276  24.811  38.069  1.00  0.00    -0.744 OA
ENDBRANCH  85  86
ENDBRANCH  64  78
BRANCH  65  90
ATOM     90  C   UNL A   1      43.292  35.901  33.675  1.00  0.00     0.058 A 
ATOM     91  C   UNL A   1      42.792  36.918  34.506  1.00  0.00     0.135 A 
ATOM     92  C   UNL A   1      44.698  35.800  33.601  1.00  0.00     0.135 A 
ATOM     93  F   UNL A   1      41.468  37.071  34.663  1.00  0.00    -0.206 F 
ATOM     94  C   UNL A   1      43.632  37.756  35.249  1.00  0.00     0.059 A 
ATOM     95  C   UNL A   1      45.554  36.634  34.316  1.00  0.00     0.059 A 
ATOM     96  F   UNL A   1      45.293  34.823  32.901  1.00  0.00    -0.206 F 
ATOM     97  C   UNL A   1      45.015  37.595  35.159  1.00  0.00     0.060 A 
BRANCH  97  98
ATOM     98  S   UNL A   1      46.104  38.559  36.232  1.00  0.00     0.124 S 
ATOM     99  O   UNL A   1      46.814  39.393  35.269  1.00  0.00    -0.237 OA
ATOM    100  O   UNL A   1      45.152  39.248  37.096  1.00  0.00    -0.237 OA
ATOM    101  O   UNL A   1      46.917  37.539  36.892  1.00  0.00    -0.744 OA
ENDBRANCH  97  98
ENDBRANCH  65  90
BRANCH  77 102
ATOM    102  C   UNL A   1      38.047  32.411  32.597  1.00  0.00     0.058 A 
ATOM    103  C   UNL A   1      38.279  32.663  31.233  1.00  0.00     0.135 A 
ATOM    104  C   UNL A   1      36.757  32.675  33.084  1.00  0.00     0.135 A 
ATOM    105  F   UNL A   1      39.447  32.337  30.662  1.00  0.00    -0.206 F 
ATOM    106  C   UNL A   1      37.290  33.192  30.401  1.00  0.00     0.059 A 
ATOM    107  C   UNL A   1      35.745  33.173  32.265  1.00  0.00     0.059 A 
ATOM    108  F   UNL A   1      36.451  32.394  34.361  1.00  0.00    -0.206 F 
ATOM    109  C   UNL A   1      36.023  33.441  30.926  1.00  0.00     0.060 A 
BRANCH 109 110
ATOM    110  S   UNL A   1      34.718  34.036  29.826  1.00  0.00     0.124 S 
ATOM    111  O   UNL A   1      35.482  34.550  28.695  1.00  0.00    -0.237 OA
ATOM    112  O   UNL A   1      33.941  32.826  29.570  1.00  0.00    -0.237 OA
ATOM    113  O   UNL A   1      34.033  35.046  30.628  1.00  0.00    -0.744 OA
ENDBRANCH 109 110
ENDBRANCH  77 102
ENDBRANCH  51  52
ENDBRANCH  44  46
ENDBRANCH  43  44
ENDBRANCH  42  43
ENDBRANCH  41  42
ENDBRANCH  40  41
ENDBRANCH  39  40
ENDBRANCH  38  39
ENDBRANCH  37  38
ENDBRANCH   1  37
TORSDOF 28
ENDMDL
MODEL 2
REMARK VINA RESULT:      -8.7      4.105      9.523
REMARK SMILES CCn1ncc(NC(=O)[C@@H]2CCCC[C@@H]2C(=O)OCCOCCOCCOCCOC(=O)c2ccc(-c3c4nc(c(-c5c(F)cc(S(=O)(=O)[O-])cc5F)c5ccc([nH]5)c(-c5c(F)cc(S(=O)(=O)[O-])cc5F)c5nc(c(-c6c(F)cc(S(=O)(=O)[O-])cc6F)c6ccc3[nH]6)C=C5)C=C4)cc2)c1C(=O)Nc1cnn(C)c1C
REMARK SMILES IDX 23 1 22 2 21 3 20 4 19 5 18 6 16 7 17 8 15 9 10 10 11 11
REMARK SMILES IDX 12 12 14 13 13 14 8 15 7 16 9 18 6 19 3 20 4 21 99 22 5 23
REMARK SMILES IDX 2 24 1 25 100 26 101 27 102 28 103 30 104 31 108 32 105 33
REMARK SMILES IDX 106 34 109 35 107 36 24 37 25 38 26 39 27 40 28 41 29 42
REMARK SMILES IDX 30 43 31 44 32 45 33 46 34 47 98 48 35 49 97 50 36 51 37 52
REMARK SMILES IDX 38 53 91 54 39 55 96 56 90 57 92 58 40 59 95 60 89 61 88 62
REMARK SMILES IDX 41 64 75 65 54 66 74 67 55 68 58 69 73 70 93 71 56 72 57 73
REMARK SMILES IDX 72 75 94 76 59 77 42 78 43 79 52 80 44 81 45 82 51 83 53 84
REMARK SMILES IDX 46 85 47 86 48 87 49 88 50 89 76 90 77 91 86 92 78 93 79 94
REMARK SMILES IDX 85 95 87 96 80 97 81 98 82 99 83 100 84 101 60 102 61 103
REMARK SMILES IDX 70 104 62 105 63 106 69 107 71 108 64 109 65 110 66 111
REMARK SMILES IDX 67 112 68 113
REMARK H PARENT 7 17 102 29 92 63 58 74
REMARK Flexibility Score: inf
ROOT
ATOM      1  C   UNL A   1      40.463  28.521  28.620  1.00  0.00     0.188 C 
ENDROOT
BRANCH   1   2
ATOM      2  C   UNL A   1      40.290  27.922  27.231  1.00  0.00     0.188 C 
BRANCH   2   3
ATOM      3  O   UNL A   1      41.503  27.707  26.509  1.00  0.00    -0.376 OA
BRANCH   3   4
ATOM      4  C   UNL A   1      42.053  28.818  25.799  1.00  0.00     0.202 C 
BRANCH   4   5
ATOM      5  C   UNL A   1      43.028  29.709  26.582  1.00  0.00     0.261 C 
BRANCH   5   6
ATOM      6  O   UNL A   1      44.420  29.427  26.334  1.00  0.00    -0.463 OA
BRANCH   6   7
ATOM      7  C   UNL A   1      45.266  29.602  27.376  1.00  0.00     0.309 C 
ATOM      8  O   UNL A   1      45.279  30.583  28.114  1.00  0.00    -0.252 OA
BRANCH   7   9
ATOM      9  C   UNL A   1      46.269  28.465  27.549  1.00  0.00     0.111 C 
ATOM     10  C   UNL A   1      45.897  27.573  28.730  1.00  0.00     0.093 C 
ATOM     11  C   UNL A   1      46.357  28.162  30.057  1.00  0.00     0.014 C 
ATOM     12  C   UNL A   1      47.882  28.156  30.054  1.00  0.00     0.001 C 
ATOM     13  C   UNL A   1      47.756  28.831  27.537  1.00  0.00     0.016 C 
ATOM     14  C   UNL A   1      48.461  28.958  28.893  1.00  0.00     0.001 C 
BRANCH  10  15
ATOM     15  C   UNL A   1      44.449  27.180  28.657  1.00  0.00     0.228 C 
ATOM     16  N   UNL A   1      44.010  26.398  27.631  1.00  0.00    -0.322 N 
ATOM     17  H   UNL A   1      43.030  26.436  27.535  1.00  0.00     0.170 HD
ATOM     18  O   UNL A   1      43.619  27.656  29.434  1.00  0.00    -0.274 OA
BRANCH  16  19
ATOM     19  C   UNL A   1      44.590  25.559  26.679  1.00  0.00     0.092 A 
ATOM     20  N   UNL A   1      45.175  24.046  25.189  1.00  0.00    -0.258 N 
ATOM     21  N   UNL A   1      45.556  25.211  24.629  1.00  0.00    -0.178 NA
ATOM     22  C   UNL A   1      44.765  24.179  26.505  1.00  0.00     0.150 A 
ATOM     23  C   UNL A   1      45.142  26.121  25.499  1.00  0.00     0.162 A 
BRANCH  20  24
ATOM     24  C   UNL A   1      45.158  22.891  24.303  1.00  0.00     0.142 C 
ATOM     25  C   UNL A   1      46.411  22.034  24.239  1.00  0.00     0.029 C 
ENDBRANCH  20  24
BRANCH  22  26
ATOM     26  C   UNL A   1      44.383  23.043  27.306  1.00  0.00     0.276 C 
ATOM     27  O   UNL A   1      44.417  23.055  28.535  1.00  0.00    -0.267 OA
ATOM     28  N   UNL A   1      44.117  21.850  26.639  1.00  0.00    -0.318 N 
ATOM     29  H   UNL A   1      44.846  21.246  26.369  1.00  0.00     0.170 HD
BRANCH  28  30
ATOM     30  C   UNL A   1      42.789  21.539  26.364  1.00  0.00     0.082 A 
ATOM     31  C   UNL A   1      41.626  22.307  26.533  1.00  0.00     0.161 A 
ATOM     32  C   UNL A   1      42.356  20.323  25.870  1.00  0.00     0.059 A 
ATOM     33  N   UNL A   1      40.521  21.582  26.339  1.00  0.00    -0.179 NA
ATOM     34  N   UNL A   1      40.989  20.358  26.015  1.00  0.00    -0.271 N 
ATOM     35  C   UNL A   1      43.104  19.111  25.444  1.00  0.00     0.068 C 
ATOM     36  C   UNL A   1      40.101  19.221  26.126  1.00  0.00     0.174 C 
ENDBRANCH  28  30
ENDBRANCH  22  26
ENDBRANCH  16  19
ENDBRANCH  10  15
ENDBRANCH   7   9
ENDBRANCH   6   7
ENDBRANCH   5   6
ENDBRANCH   4   5
ENDBRANCH   3   4
ENDBRANCH   2   3
ENDBRANCH   1   2
BRANCH   1  37
ATOM     37  O   UNL A   1      39.392  29.409  28.931  1.00  0.00    -0.377 OA
BRANCH  37  38
ATOM     38  C   UNL A   1      38.234  29.410  28.101  1.00  0.00     0.188 C 
BRANCH  38  39
ATOM     39  C   UNL A   1      36.885  29.295  28.801  1.00  0.00     0.188 C 
BRANCH  39  40
ATOM     40  O   UNL A   1      35.826  30.136  28.314  1.00  0.00    -0.376 OA
BRANCH  40  41
ATOM     41  C   UNL A   1      36.100  31.473  27.884  1.00  0.00     0.202 C 
BRANCH  41  42
ATOM     42  C   UNL A   1      34.929  32.428  28.004  1.00  0.00     0.261 C 
BRANCH  42  43
ATOM     43  O   UNL A   1      34.354  32.214  29.280  1.00  0.00    -0.460 OA
BRANCH  43  44
ATOM     44  C   UNL A   1      34.517  33.234  30.140  1.00  0.00     0.338 C 
ATOM     45  O   UNL A   1      34.492  34.438  29.877  1.00  0.00    -0.246 OA
BRANCH  44  46
ATOM     46  C   UNL A   1      34.783  32.679  31.480  1.00  0.00     0.060 A 
ATOM     47  C   UNL A   1      34.920  33.691  32.426  1.00  0.00     0.016 A 
ATOM     48  C   UNL A   1      35.556  31.509  31.511  1.00  0.00     0.016 A 
ATOM     49  C   UNL A   1      36.152  33.793  33.008  1.00  0.00     0.010 A 
ATOM     50  C   UNL A   1      36.802  31.624  32.062  1.00  0.00     0.010 A 
ATOM     51  C   UNL A   1      37.111  32.822  32.696  1.00  0.00    -0.014 A 
BRANCH  51  52
ATOM     52  C   UNL A   1      38.452  33.072  33.149  1.00  0.00     0.031 A 
ATOM     53  C   UNL A   1      39.324  33.461  32.032  1.00  0.00     0.074 A 
ATOM     54  C   UNL A   1      38.814  33.020  34.440  1.00  0.00     0.049 A 
ATOM     55  N   UNL A   1      40.236  32.753  31.457  1.00  0.00    -0.248 NA
ATOM     56  C   UNL A   1      38.959  34.693  31.315  1.00  0.00     0.031 C 
ATOM     57  C   UNL A   1      37.966  32.945  35.631  1.00  0.00     0.029 A 
ATOM     58  N   UNL A   1      40.062  33.130  34.954  1.00  0.00    -0.354 N 
ATOM     59  C   UNL A   1      40.723  33.568  30.446  1.00  0.00     0.074 A 
ATOM     60  C   UNL A   1      39.749  34.608  30.248  1.00  0.00     0.031 C 
ATOM     61  C   UNL A   1      38.715  33.246  36.718  1.00  0.00     0.029 A 
ATOM     62  C   UNL A   1      40.100  33.417  36.307  1.00  0.00     0.049 A 
ATOM     63  H   UNL A   1      40.874  33.015  34.409  1.00  0.00     0.167 HD
ATOM     64  C   UNL A   1      42.024  33.511  30.064  1.00  0.00     0.037 A 
ATOM     65  C   UNL A   1      41.186  33.882  36.973  1.00  0.00     0.037 A 
ATOM     66  C   UNL A   1      42.645  32.276  30.473  1.00  0.00     0.049 A 
ATOM     67  C   UNL A   1      42.383  33.554  36.141  1.00  0.00     0.074 A 
ATOM     68  C   UNL A   1      42.381  30.941  30.232  1.00  0.00     0.029 A 
ATOM     69  N   UNL A   1      43.470  32.303  31.573  1.00  0.00    -0.354 N 
ATOM     70  N   UNL A   1      42.797  32.338  35.901  1.00  0.00    -0.248 NA
ATOM     71  C   UNL A   1      42.857  34.560  35.198  1.00  0.00     0.031 C 
ATOM     72  C   UNL A   1      42.683  30.271  31.454  1.00  0.00     0.029 A 
ATOM     73  C   UNL A   1      43.150  31.225  32.361  1.00  0.00     0.049 A 
ATOM     74  H   UNL A   1      44.165  32.975  31.761  1.00  0.00     0.167 HD
ATOM     75  C   UNL A   1      43.235  32.352  34.582  1.00  0.00     0.074 A 
ATOM     76  C   UNL A   1      43.333  33.767  34.234  1.00  0.00     0.031 C 
ATOM     77  C   UNL A   1      43.207  31.225  33.809  1.00  0.00     0.037 A 
BRANCH  64  78
ATOM     78  C   UNL A   1      42.797  34.741  29.669  1.00  0.00     0.058 A 
ATOM     79  C   UNL A   1      43.028  35.745  30.623  1.00  0.00     0.135 A 
ATOM     80  C   UNL A   1      43.099  35.087  28.328  1.00  0.00     0.135 A 
ATOM     81  F   UNL A   1      42.752  35.531  31.919  1.00  0.00    -0.206 F 
ATOM     82  C   UNL A   1      43.471  37.019  30.265  1.00  0.00     0.059 A 
ATOM     83  C   UNL A   1      43.607  36.321  27.960  1.00  0.00     0.059 A 
ATOM     84  F   UNL A   1      42.820  34.286  27.292  1.00  0.00    -0.206 F 
ATOM     85  C   UNL A   1      43.744  37.298  28.928  1.00  0.00     0.060 A 
BRANCH  85  86
ATOM     86  S   UNL A   1      44.193  38.968  28.437  1.00  0.00     0.124 S 
ATOM     87  O   UNL A   1      42.904  39.493  28.002  1.00  0.00    -0.237 OA
ATOM     88  O   UNL A   1      44.724  39.516  29.681  1.00  0.00    -0.237 OA
ATOM     89  O   UNL A   1      45.178  38.754  27.382  1.00  0.00    -0.744 OA
ENDBRANCH  85  86
ENDBRANCH  64  78
BRANCH  65  90
ATOM     90  C   UNL A   1      41.198  34.919  38.040  1.00  0.00     0.058 A 
ATOM     91  C   UNL A   1      41.636  34.620  39.342  1.00  0.00     0.135 A 
ATOM     92  C   UNL A   1      41.028  36.289  37.746  1.00  0.00     0.135 A 
ATOM     93  F   UNL A   1      41.855  33.346  39.703  1.00  0.00    -0.206 F 
ATOM     94  C   UNL A   1      41.925  35.618  40.281  1.00  0.00     0.059 A 
ATOM     95  C   UNL A   1      41.291  37.298  38.669  1.00  0.00     0.059 A 
ATOM     96  F   UNL A   1      40.688  36.704  36.516  1.00  0.00    -0.206 F 
ATOM     97  C   UNL A   1      41.763  36.958  39.928  1.00  0.00     0.060 A 
BRANCH  97  98
ATOM     98  S   UNL A   1      42.285  38.256  41.071  1.00  0.00     0.124 S 
ATOM     99  O   UNL A   1      43.513  37.695  41.624  1.00  0.00    -0.237 OA
ATOM    100  O   UNL A   1      42.450  39.401  40.183  1.00  0.00    -0.237 OA
ATOM    101  O   UNL A   1      41.168  38.352  42.008  1.00  0.00    -0.744 OA
ENDBRANCH  97  98
ENDBRANCH  65  90
BRANCH  77 102
ATOM    102  C   UNL A   1      42.965  29.903  34.494  1.00  0.00     0.058 A 
ATOM    103  C   UNL A   1      43.988  29.086  35.011  1.00  0.00     0.135 A 
ATOM    104  C   UNL A   1      41.644  29.528  34.784  1.00  0.00     0.135 A 
ATOM    105  F   UNL A   1      45.276  29.430  34.875  1.00  0.00    -0.206 F 
ATOM    106  C   UNL A   1      43.712  27.930  35.743  1.00  0.00     0.059 A 
ATOM    107  C   UNL A   1      41.345  28.396  35.539  1.00  0.00     0.059 A 
ATOM    108  F   UNL A   1      40.623  30.300  34.378  1.00  0.00    -0.206 F 
ATOM    109  C   UNL A   1      42.384  27.594  36.006  1.00  0.00     0.060 A 
BRANCH 109 110
ATOM    110  S   UNL A   1      42.032  26.150  37.034  1.00  0.00     0.124 S 
ATOM    111  O   UNL A   1      42.330  25.047  36.126  1.00  0.00    -0.237 OA
ATOM    112  O   UNL A   1      42.958  26.320  38.150  1.00  0.00    -0.237 OA
ATOM    113  O   UNL A   1      40.621  26.313  37.376  1.00  0.00    -0.744 OA
ENDBRANCH 109 110
ENDBRANCH  77 102
ENDBRANCH  51  52
ENDBRANCH  44  46
ENDBRANCH  43  44
ENDBRANCH  42  43
ENDBRANCH  41  42
ENDBRANCH  40  41
ENDBRANCH  39  40
ENDBRANCH  38  39
ENDBRANCH  37  38
ENDBRANCH   1  37
TORSDOF 28
ENDMDL
MODEL 3
REMARK VINA RESULT:      -8.6      3.502      9.219
REMARK SMILES CCn1ncc(NC(=O)[C@@H]2CCCC[C@@H]2C(=O)OCCOCCOCCOCCOC(=O)c2ccc(-c3c4nc(c(-c5c(F)cc(S(=O)(=O)[O-])cc5F)c5ccc([nH]5)c(-c5c(F)cc(S(=O)(=O)[O-])cc5F)c5nc(c(-c6c(F)cc(S(=O)(=O)[O-])cc6F)c6ccc3[nH]6)C=C5)C=C4)cc2)c1C(=O)Nc1cnn(C)c1C
REMARK SMILES IDX 23 1 22 2 21 3 20 4 19 5 18 6 16 7 17 8 15 9 10 10 11 11
REMARK SMILES IDX 12 12 14 13 13 14 8 15 7 16 9 18 6 19 3 20 4 21 99 22 5 23
REMARK SMILES IDX 2 24 1 25 100 26 101 27 102 28 103 30 104 31 108 32 105 33
REMARK SMILES IDX 106 34 109 35 107 36 24 37 25 38 26 39 27 40 28 41 29 42
REMARK SMILES IDX 30 43 31 44 32 45 33 46 34 47 98 48 35 49 97 50 36 51 37 52
REMARK SMILES IDX 38 53 91 54 39 55 96 56 90 57 92 58 40 59 95 60 89 61 88 62
REMARK SMILES IDX 41 64 75 65 54 66 74 67 55 68 58 69 73 70 93 71 56 72 57 73
REMARK SMILES IDX 72 75 94 76 59 77 42 78 43 79 52 80 44 81 45 82 51 83 53 84
REMARK SMILES IDX 46 85 47 86 48 87 49 88 50 89 76 90 77 91 86 92 78 93 79 94
REMARK SMILES IDX 85 95 87 96 80 97 81 98 82 99 83 100 84 101 60 102 61 103
REMARK SMILES IDX 70 104 62 105 63 106 69 107 71 108 64 109 65 110 66 111
REMARK SMILES IDX 67 112 68 113
REMARK H PARENT 7 17 102 29 92 63 58 74
REMARK Flexibility Score: inf
ROOT
ATOM      1  C   UNL A   1      40.490  28.478  28.472  1.00  0.00     0.188 C 
ENDROOT
BRANCH   1   2
ATOM      2  C   UNL A   1      40.072  27.755  27.199  1.00  0.00     0.188 C 
BRANCH   2   3
ATOM      3  O   UNL A   1      41.149  27.256  26.405  1.00  0.00    -0.376 OA
BRANCH   3   4
ATOM      4  C   UNL A   1      41.955  28.211  25.712  1.00  0.00     0.202 C 
BRANCH   4   5
ATOM      5  C   UNL A   1      43.443  28.244  26.088  1.00  0.00     0.261 C 
BRANCH   5   6
ATOM      6  O   UNL A   1      44.309  27.586  25.142  1.00  0.00    -0.463 OA
BRANCH   6   7
ATOM      7  C   UNL A   1      45.622  27.529  25.464  1.00  0.00     0.309 C 
ATOM      8  O   UNL A   1      46.310  28.494  25.785  1.00  0.00    -0.252 OA
BRANCH   7   9
ATOM      9  C   UNL A   1      46.220  26.129  25.355  1.00  0.00     0.111 C 
ATOM     10  C   UNL A   1      46.527  25.550  26.733  1.00  0.00     0.093 C 
ATOM     11  C   UNL A   1      47.852  26.058  27.285  1.00  0.00     0.014 C 
ATOM     12  C   UNL A   1      48.959  25.502  26.394  1.00  0.00     0.001 C 
ATOM     13  C   UNL A   1      47.374  25.933  24.367  1.00  0.00     0.016 C 
ATOM     14  C   UNL A   1      48.797  25.927  24.938  1.00  0.00     0.001 C 
BRANCH  10  15
ATOM     15  C   UNL A   1      45.341  25.700  27.643  1.00  0.00     0.228 C 
ATOM     16  N   UNL A   1      44.329  24.787  27.594  1.00  0.00    -0.322 N 
ATOM     17  H   UNL A   1      43.508  25.129  28.018  1.00  0.00     0.170 HD
ATOM     18  O   UNL A   1      45.198  26.704  28.345  1.00  0.00    -0.274 OA
BRANCH  16  19
ATOM     19  C   UNL A   1      44.156  23.495  27.097  1.00  0.00     0.092 A 
ATOM     20  N   UNL A   1      43.527  21.566  26.240  1.00  0.00    -0.258 N 
ATOM     21  N   UNL A   1      44.707  21.813  25.640  1.00  0.00    -0.178 NA
ATOM     22  C   UNL A   1      43.240  22.449  27.269  1.00  0.00     0.150 A 
ATOM     23  C   UNL A   1      45.048  23.005  26.109  1.00  0.00     0.162 A 
BRANCH  20  24
ATOM     24  C   UNL A   1      42.722  20.506  25.650  1.00  0.00     0.142 C 
ATOM     25  C   UNL A   1      42.797  19.128  26.286  1.00  0.00     0.029 C 
ENDBRANCH  20  24
BRANCH  22  26
ATOM     26  C   UNL A   1      42.059  22.317  28.084  1.00  0.00     0.276 C 
ATOM     27  O   UNL A   1      42.062  22.517  29.297  1.00  0.00    -0.267 OA
ATOM     28  N   UNL A   1      40.919  21.793  27.478  1.00  0.00    -0.318 N 
ATOM     29  H   UNL A   1      40.797  20.821  27.381  1.00  0.00     0.170 HD
BRANCH  28  30
ATOM     30  C   UNL A   1      39.958  22.686  27.015  1.00  0.00     0.082 A 
ATOM     31  C   UNL A   1      39.781  24.051  27.295  1.00  0.00     0.161 A 
ATOM     32  C   UNL A   1      38.922  22.351  26.163  1.00  0.00     0.059 A 
ATOM     33  N   UNL A   1      38.624  24.510  26.811  1.00  0.00    -0.179 NA
ATOM     34  N   UNL A   1      38.081  23.437  26.195  1.00  0.00    -0.271 N 
ATOM     35  C   UNL A   1      38.587  21.075  25.477  1.00  0.00     0.068 C 
ATOM     36  C   UNL A   1      36.664  23.445  25.905  1.00  0.00     0.174 C 
ENDBRANCH  28  30
ENDBRANCH  22  26
ENDBRANCH  16  19
ENDBRANCH  10  15
ENDBRANCH   7   9
ENDBRANCH   6   7
ENDBRANCH   5   6
ENDBRANCH   4   5
ENDBRANCH   3   4
ENDBRANCH   2   3
ENDBRANCH   1   2
BRANCH   1  37
ATOM     37  O   UNL A   1      39.504  29.429  28.866  1.00  0.00    -0.377 OA
BRANCH  37  38
ATOM     38  C   UNL A   1      38.305  29.536  28.104  1.00  0.00     0.188 C 
BRANCH  38  39
ATOM     39  C   UNL A   1      36.992  29.390  28.864  1.00  0.00     0.188 C 
BRANCH  39  40
ATOM     40  O   UNL A   1      35.857  30.103  28.343  1.00  0.00    -0.376 OA
BRANCH  40  41
ATOM     41  C   UNL A   1      36.027  31.379  27.719  1.00  0.00     0.202 C 
BRANCH  41  42
ATOM     42  C   UNL A   1      34.942  32.388  28.041  1.00  0.00     0.261 C 
BRANCH  42  43
ATOM     43  O   UNL A   1      34.454  32.069  29.331  1.00  0.00    -0.460 OA
BRANCH  43  44
ATOM     44  C   UNL A   1      34.527  33.078  30.216  1.00  0.00     0.338 C 
ATOM     45  O   UNL A   1      34.427  34.284  29.978  1.00  0.00    -0.246 OA
BRANCH  44  46
ATOM     46  C   UNL A   1      34.798  32.512  31.551  1.00  0.00     0.060 A 
ATOM     47  C   UNL A   1      34.903  33.514  32.511  1.00  0.00     0.016 A 
ATOM     48  C   UNL A   1      35.599  31.361  31.572  1.00  0.00     0.016 A 
ATOM     49  C   UNL A   1      36.128  33.639  33.103  1.00  0.00     0.010 A 
ATOM     50  C   UNL A   1      36.839  31.500  32.133  1.00  0.00     0.010 A 
ATOM     51  C   UNL A   1      37.113  32.697  32.786  1.00  0.00    -0.014 A 
BRANCH  51  52
ATOM     52  C   UNL A   1      38.444  32.974  33.251  1.00  0.00     0.031 A 
ATOM     53  C   UNL A   1      39.320  33.375  32.142  1.00  0.00     0.074 A 
ATOM     54  C   UNL A   1      38.793  32.934  34.546  1.00  0.00     0.049 A 
ATOM     55  N   UNL A   1      40.252  32.682  31.579  1.00  0.00    -0.248 NA
ATOM     56  C   UNL A   1      38.940  34.597  31.415  1.00  0.00     0.031 C 
ATOM     57  C   UNL A   1      37.934  32.848  35.729  1.00  0.00     0.029 A 
ATOM     58  N   UNL A   1      40.033  33.070  35.072  1.00  0.00    -0.354 N 
ATOM     59  C   UNL A   1      40.733  33.502  30.570  1.00  0.00     0.074 A 
ATOM     60  C   UNL A   1      39.742  34.522  30.357  1.00  0.00     0.031 C 
ATOM     61  C   UNL A   1      38.666  33.167  36.822  1.00  0.00     0.029 A 
ATOM     62  C   UNL A   1      40.052  33.362  36.425  1.00  0.00     0.049 A 
ATOM     63  H   UNL A   1      40.854  32.968  34.537  1.00  0.00     0.167 HD
ATOM     64  C   UNL A   1      42.039  33.468  30.202  1.00  0.00     0.037 A 
ATOM     65  C   UNL A   1      41.122  33.851  37.101  1.00  0.00     0.037 A 
ATOM     66  C   UNL A   1      42.679  32.247  30.623  1.00  0.00     0.049 A 
ATOM     67  C   UNL A   1      42.334  33.542  36.282  1.00  0.00     0.074 A 
ATOM     68  C   UNL A   1      42.444  30.906  30.385  1.00  0.00     0.029 A 
ATOM     69  N   UNL A   1      43.493  32.294  31.731  1.00  0.00    -0.354 N 
ATOM     70  N   UNL A   1      42.773  32.333  36.052  1.00  0.00    -0.248 NA
ATOM     71  C   UNL A   1      42.798  34.553  35.340  1.00  0.00     0.031 C 
ATOM     72  C   UNL A   1      42.745  30.247  31.612  1.00  0.00     0.029 A 
ATOM     73  C   UNL A   1      43.184  31.213  32.520  1.00  0.00     0.049 A 
ATOM     74  H   UNL A   1      44.172  32.980  31.924  1.00  0.00     0.167 HD
ATOM     75  C   UNL A   1      43.225  32.351  34.737  1.00  0.00     0.074 A 
ATOM     76  C   UNL A   1      43.299  33.765  34.384  1.00  0.00     0.031 C 
ATOM     77  C   UNL A   1      43.227  31.220  33.968  1.00  0.00     0.037 A 
BRANCH  64  78
ATOM     78  C   UNL A   1      42.794  34.711  29.809  1.00  0.00     0.058 A 
ATOM     79  C   UNL A   1      43.437  34.759  28.562  1.00  0.00     0.135 A 
ATOM     80  C   UNL A   1      43.123  35.753  30.711  1.00  0.00     0.135 A 
ATOM     81  F   UNL A   1      43.215  33.807  27.642  1.00  0.00    -0.206 F 
ATOM     82  C   UNL A   1      44.381  35.738  28.253  1.00  0.00     0.059 A 
ATOM     83  C   UNL A   1      44.004  36.774  30.399  1.00  0.00     0.059 A 
ATOM     84  F   UNL A   1      42.692  35.779  31.978  1.00  0.00    -0.206 F 
ATOM     85  C   UNL A   1      44.666  36.733  29.186  1.00  0.00     0.060 A 
BRANCH  85  86
ATOM     86  S   UNL A   1      45.970  37.924  28.852  1.00  0.00     0.124 S 
ATOM     87  O   UNL A   1      46.443  37.470  27.549  1.00  0.00    -0.237 OA
ATOM     88  O   UNL A   1      45.238  39.186  28.867  1.00  0.00    -0.237 OA
ATOM     89  O   UNL A   1      46.895  37.729  29.964  1.00  0.00    -0.744 OA
ENDBRANCH  85  86
ENDBRANCH  64  78
BRANCH  65  90
ATOM     90  C   UNL A   1      41.103  34.893  38.163  1.00  0.00     0.058 A 
ATOM     91  C   UNL A   1      41.942  34.801  39.287  1.00  0.00     0.135 A 
ATOM     92  C   UNL A   1      40.453  36.132  37.977  1.00  0.00     0.135 A 
ATOM     93  F   UNL A   1      42.627  33.672  39.527  1.00  0.00    -0.206 F 
ATOM     94  C   UNL A   1      42.155  35.883  40.150  1.00  0.00     0.059 A 
ATOM     95  C   UNL A   1      40.634  37.215  38.832  1.00  0.00     0.059 A 
ATOM     96  F   UNL A   1      39.687  36.365  36.901  1.00  0.00    -0.206 F 
ATOM     97  C   UNL A   1      41.506  37.093  39.904  1.00  0.00     0.060 A 
BRANCH  97  98
ATOM     98  S   UNL A   1      41.895  38.542  40.913  1.00  0.00     0.124 S 
ATOM     99  O   UNL A   1      43.185  38.949  40.369  1.00  0.00    -0.237 OA
ATOM    100  O   UNL A   1      40.772  39.427  40.627  1.00  0.00    -0.237 OA
ATOM    101  O   UNL A   1      41.933  38.007  42.273  1.00  0.00    -0.744 OA
ENDBRANCH  97  98
ENDBRANCH  65  90
BRANCH  77 102
ATOM    102  C   UNL A   1      43.002  29.896  34.657  1.00  0.00     0.058 A 
ATOM    103  C   UNL A   1      44.036  29.092  35.170  1.00  0.00     0.135 A 
ATOM    104  C   UNL A   1      41.686  29.507  34.953  1.00  0.00     0.135 A 
ATOM    105  F   UNL A   1      45.320  29.451  35.029  1.00  0.00    -0.206 F 
ATOM    106  C   UNL A   1      43.776  27.934  35.905  1.00  0.00     0.059 A 
ATOM    107  C   UNL A   1      41.403  28.372  35.711  1.00  0.00     0.059 A 
ATOM    108  F   UNL A   1      40.655  30.267  34.550  1.00  0.00    -0.206 F 
ATOM    109  C   UNL A   1      42.454  27.584  36.175  1.00  0.00     0.060 A 
BRANCH 109 110
ATOM    110  S   UNL A   1      42.122  26.137  37.206  1.00  0.00     0.124 S 
ATOM    111  O   UNL A   1      40.695  26.273  37.475  1.00  0.00    -0.237 OA
ATOM    112  O   UNL A   1      42.500  25.030  36.332  1.00  0.00    -0.237 OA
ATOM    113  O   UNL A   1      42.996  26.334  38.359  1.00  0.00    -0.744 OA
ENDBRANCH 109 110
ENDBRANCH  77 102
ENDBRANCH  51  52
ENDBRANCH  44  46
ENDBRANCH  43  44
ENDBRANCH  42  43
ENDBRANCH  41  42
ENDBRANCH  40  41
ENDBRANCH  39  40
ENDBRANCH  38  39
ENDBRANCH  37  38
ENDBRANCH   1  37
TORSDOF 28
ENDMDL
