MODEL 1
REMARK VINA RESULT:      -9.0      0.000      0.000
REMARK SMILES COc1ccc(/C=C/C(=O)OCCOCCOCCOCCOC(=O)c2ccc(-c3c4nc(c(-c5c(F)cc(S(=O)(=O)[O-])cc5F)c5ccc([nH]5)c(-c5c(F)cc(S(=O)(=O)[O-])cc5F)c5nc(c(-c6c(F)cc(S(=O)(=O)[O-])cc6F)c6ccc3[nH]6)C=C5)C=C4)cc2)cc1F
REMARK SMILES IDX 18 1 17 2 16 3 15 4 14 5 13 6 12 7 11 8 9 9 10 10 8 11 7 12
REMARK SMILES IDX 6 13 3 14 4 15 93 16 5 17 92 18 94 19 2 20 1 21 19 22 20 23
REMARK SMILES IDX 21 24 22 25 23 26 24 27 25 28 26 29 27 30 91 31 28 32 90 33
REMARK SMILES IDX 29 34 30 35 31 36 84 37 32 38 89 39 83 40 85 41 33 42 88 43
REMARK SMILES IDX 82 44 81 45 34 47 68 48 47 49 67 50 48 51 51 52 66 53 86 54
REMARK SMILES IDX 49 55 50 56 65 58 87 59 52 60 35 61 36 62 45 63 37 64 38 65
REMARK SMILES IDX 44 66 46 67 39 68 40 69 41 70 42 71 43 72 69 73 70 74 79 75
REMARK SMILES IDX 71 76 72 77 78 78 80 79 73 80 74 81 75 82 76 83 77 84 53 85
REMARK SMILES IDX 54 86 63 87 55 88 56 89 62 90 64 91 57 92 58 93 59 94 60 95
REMARK SMILES IDX 61 96
REMARK H PARENT 85 46 51 57
REMARK Flexibility Score: inf
ROOT
ATOM      1  C   UNL A   1      35.255  24.501  25.359  1.00  0.00     0.188 C 
ENDROOT
BRANCH   1   2
ATOM      2  O   UNL A   1      35.085  23.212  25.949  1.00  0.00    -0.377 OA
BRANCH   2   3
ATOM      3  C   UNL A   1      35.271  22.042  25.170  1.00  0.00     0.188 C 
BRANCH   3   4
ATOM      4  C   UNL A   1      34.085  21.546  24.319  1.00  0.00     0.188 C 
BRANCH   4   5
ATOM      5  O   UNL A   1      33.060  20.928  25.073  1.00  0.00    -0.376 OA
BRANCH   5   6
ATOM      6  C   UNL A   1      31.910  21.660  25.451  1.00  0.00     0.202 C 
BRANCH   6   7
ATOM      7  C   UNL A   1      31.285  22.716  24.523  1.00  0.00     0.261 C 
BRANCH   7   8
ATOM      8  O   UNL A   1      31.513  24.086  24.866  1.00  0.00    -0.460 OA
BRANCH   8   9
ATOM      9  C   UNL A   1      30.622  24.668  25.693  1.00  0.00     0.330 C 
ATOM     10  O   UNL A   1      30.416  24.374  26.860  1.00  0.00    -0.247 OA
BRANCH   9  11
ATOM     11  C   UNL A   1      30.008  25.854  25.055  1.00  0.00     0.094 C 
ATOM     12  C   UNL A   1      30.368  26.356  23.861  1.00  0.00     0.016 C 
BRANCH  12  13
ATOM     13  C   UNL A   1      29.740  27.547  23.267  1.00  0.00    -0.022 A 
ATOM     14  C   UNL A   1      28.502  29.877  22.273  1.00  0.00     0.154 A 
ATOM     15  C   UNL A   1      29.853  29.639  22.023  1.00  0.00     0.050 A 
ATOM     16  C   UNL A   1      27.759  28.906  22.945  1.00  0.00     0.165 A 
ATOM     17  C   UNL A   1      30.468  28.482  22.516  1.00  0.00     0.012 A 
ATOM     18  C   UNL A   1      28.366  27.748  23.433  1.00  0.00     0.051 A 
ATOM     19  F   UNL A   1      26.442  29.056  23.138  1.00  0.00    -0.203 F 
BRANCH  14  20
ATOM     20  O   UNL A   1      28.014  31.061  21.789  1.00  0.00    -0.494 OA
ATOM     21  C   UNL A   1      28.724  32.211  22.243  1.00  0.00     0.278 C 
ENDBRANCH  14  20
ENDBRANCH  12  13
ENDBRANCH   9  11
ENDBRANCH   8   9
ENDBRANCH   7   8
ENDBRANCH   6   7
ENDBRANCH   5   6
ENDBRANCH   4   5
ENDBRANCH   3   4
ENDBRANCH   2   3
ENDBRANCH   1   2
BRANCH   1  22
ATOM     22  C   UNL A   1      34.208  25.634  25.498  1.00  0.00     0.188 C 
BRANCH  22  23
ATOM     23  O   UNL A   1      33.910  26.324  24.295  1.00  0.00    -0.376 OA
BRANCH  23  24
ATOM     24  C   UNL A   1      33.806  27.735  24.354  1.00  0.00     0.202 C 
BRANCH  24  25
ATOM     25  C   UNL A   1      33.649  28.351  25.751  1.00  0.00     0.261 C 
BRANCH  25  26
ATOM     26  O   UNL A   1      34.846  28.871  26.349  1.00  0.00    -0.460 OA
BRANCH  26  27
ATOM     27  C   UNL A   1      34.700  29.777  27.338  1.00  0.00     0.338 C 
ATOM     28  O   UNL A   1      33.677  30.367  27.650  1.00  0.00    -0.246 OA
BRANCH  27  29
ATOM     29  C   UNL A   1      35.961  29.802  28.107  1.00  0.00     0.060 A 
ATOM     30  C   UNL A   1      37.163  30.086  27.446  1.00  0.00     0.016 A 
ATOM     31  C   UNL A   1      35.945  29.561  29.482  1.00  0.00     0.016 A 
ATOM     32  C   UNL A   1      38.363  30.094  28.159  1.00  0.00     0.010 A 
ATOM     33  C   UNL A   1      37.149  29.553  30.190  1.00  0.00     0.010 A 
ATOM     34  C   UNL A   1      38.367  29.785  29.526  1.00  0.00    -0.014 A 
BRANCH  34  35
ATOM     35  C   UNL A   1      39.646  29.513  30.225  1.00  0.00     0.031 A 
ATOM     36  C   UNL A   1      40.496  28.373  29.737  1.00  0.00     0.074 A 
ATOM     37  C   UNL A   1      40.052  30.265  31.262  1.00  0.00     0.049 A 
ATOM     38  N   UNL A   1      41.620  27.910  30.216  1.00  0.00    -0.248 NA
ATOM     39  C   UNL A   1      40.007  27.659  28.547  1.00  0.00     0.031 C 
ATOM     40  C   UNL A   1      39.343  31.427  31.792  1.00  0.00     0.029 A 
ATOM     41  N   UNL A   1      41.167  30.157  32.055  1.00  0.00    -0.354 N 
ATOM     42  C   UNL A   1      41.975  26.853  29.385  1.00  0.00     0.074 A 
ATOM     43  C   UNL A   1      40.921  26.713  28.405  1.00  0.00     0.031 C 
ATOM     44  C   UNL A   1      40.043  31.927  32.825  1.00  0.00     0.029 A 
ATOM     45  C   UNL A   1      41.228  31.100  33.053  1.00  0.00     0.049 A 
ATOM     46  H   UNL A   1      41.859  29.469  31.922  1.00  0.00     0.167 HD
ATOM     47  C   UNL A   1      43.087  26.081  29.425  1.00  0.00     0.037 A 
ATOM     48  C   UNL A   1      42.128  31.266  34.044  1.00  0.00     0.037 A 
ATOM     49  C   UNL A   1      44.120  26.213  30.420  1.00  0.00     0.049 A 
ATOM     50  C   UNL A   1      43.302  30.329  34.142  1.00  0.00     0.074 A 
ATOM     51  C   UNL A   1      45.279  25.472  30.558  1.00  0.00     0.029 A 
ATOM     52  N   UNL A   1      44.112  27.140  31.454  1.00  0.00    -0.354 N 
ATOM     53  N   UNL A   1      43.629  29.331  33.355  1.00  0.00    -0.248 NA
ATOM     54  C   UNL A   1      44.230  30.537  35.263  1.00  0.00     0.031 C 
ATOM     55  C   UNL A   1      45.943  25.912  31.708  1.00  0.00     0.029 A 
ATOM     56  C   UNL A   1      45.232  26.971  32.250  1.00  0.00     0.049 A 
ATOM     57  H   UNL A   1      43.412  27.818  31.599  1.00  0.00     0.167 HD
ATOM     58  C   UNL A   1      44.812  28.807  33.869  1.00  0.00     0.074 A 
ATOM     59  C   UNL A   1      45.145  29.603  35.033  1.00  0.00     0.031 C 
ATOM     60  C   UNL A   1      45.553  27.766  33.414  1.00  0.00     0.037 A 
BRANCH  47  61
ATOM     61  C   UNL A   1      43.219  25.010  28.375  1.00  0.00     0.058 A 
ATOM     62  C   UNL A   1      43.705  25.319  27.095  1.00  0.00     0.135 A 
ATOM     63  C   UNL A   1      42.872  23.673  28.636  1.00  0.00     0.135 A 
ATOM     64  F   UNL A   1      44.055  26.578  26.789  1.00  0.00    -0.206 F 
ATOM     65  C   UNL A   1      43.851  24.343  26.115  1.00  0.00     0.059 A 
ATOM     66  C   UNL A   1      43.041  22.674  27.681  1.00  0.00     0.059 A 
ATOM     67  F   UNL A   1      42.422  23.316  29.849  1.00  0.00    -0.206 F 
ATOM     68  C   UNL A   1      43.527  23.020  26.422  1.00  0.00     0.060 A 
BRANCH  68  69
ATOM     69  S   UNL A   1      43.813  21.751  25.169  1.00  0.00     0.124 S 
ATOM     70  O   UNL A   1      45.165  21.311  25.488  1.00  0.00    -0.237 OA
ATOM     71  O   UNL A   1      42.746  20.795  25.455  1.00  0.00    -0.237 OA
ATOM     72  O   UNL A   1      43.666  22.479  23.912  1.00  0.00    -0.744 OA
ENDBRANCH  68  69
ENDBRANCH  47  61
BRANCH  48  73
ATOM     73  C   UNL A   1      41.952  32.393  34.998  1.00  0.00     0.058 A 
ATOM     74  C   UNL A   1      41.049  32.310  36.070  1.00  0.00     0.135 A 
ATOM     75  C   UNL A   1      42.623  33.609  34.801  1.00  0.00     0.135 A 
ATOM     76  F   UNL A   1      40.382  31.169  36.302  1.00  0.00    -0.206 F 
ATOM     77  C   UNL A   1      40.774  33.409  36.875  1.00  0.00     0.059 A 
ATOM     78  C   UNL A   1      42.382  34.716  35.610  1.00  0.00     0.059 A 
ATOM     79  F   UNL A   1      43.512  33.729  33.804  1.00  0.00    -0.206 F 
ATOM     80  C   UNL A   1      41.433  34.613  36.626  1.00  0.00     0.060 A 
BRANCH  80  81
ATOM     81  S   UNL A   1      40.992  36.053  37.623  1.00  0.00     0.124 S 
ATOM     82  O   UNL A   1      39.873  36.601  36.863  1.00  0.00    -0.237 OA
ATOM     83  O   UNL A   1      40.652  35.443  38.904  1.00  0.00    -0.237 OA
ATOM     84  O   UNL A   1      42.209  36.858  37.614  1.00  0.00    -0.744 OA
ENDBRANCH  80  81
ENDBRANCH  48  73
BRANCH  60  85
ATOM     85  C   UNL A   1      46.818  27.420  34.156  1.00  0.00     0.058 A 
ATOM     86  C   UNL A   1      48.050  27.962  33.754  1.00  0.00     0.135 A 
ATOM     87  C   UNL A   1      46.830  26.479  35.199  1.00  0.00     0.135 A 
ATOM     88  F   UNL A   1      48.100  28.862  32.758  1.00  0.00    -0.206 F 
ATOM     89  C   UNL A   1      49.248  27.567  34.339  1.00  0.00     0.059 A 
ATOM     90  C   UNL A   1      48.015  26.092  35.820  1.00  0.00     0.059 A 
ATOM     91  F   UNL A   1      45.680  25.936  35.630  1.00  0.00    -0.206 F 
ATOM     92  C   UNL A   1      49.220  26.627  35.370  1.00  0.00     0.060 A 
BRANCH  92  93
ATOM     93  S   UNL A   1      50.787  26.125  36.115  1.00  0.00     0.124 S 
ATOM     94  O   UNL A   1      51.388  27.412  36.445  1.00  0.00    -0.237 OA
ATOM     95  O   UNL A   1      50.344  25.321  37.249  1.00  0.00    -0.237 OA
ATOM     96  O   UNL A   1      51.448  25.379  35.047  1.00  0.00    -0.744 OA
ENDBRANCH  92  93
ENDBRANCH  60  85
ENDBRANCH  34  35
ENDBRANCH  27  29
ENDBRANCH  26  27
ENDBRANCH  25  26
ENDBRANCH  24  25
ENDBRANCH  23  24
ENDBRANCH  22  23
ENDBRANCH   1  22
TORSDOF 25
ENDMDL
MODEL 2
REMARK VINA RESULT:      -8.9      5.459     11.439
REMARK SMILES COc1ccc(/C=C/C(=O)OCCOCCOCCOCCOC(=O)c2ccc(-c3c4nc(c(-c5c(F)cc(S(=O)(=O)[O-])cc5F)c5ccc([nH]5)c(-c5c(F)cc(S(=O)(=O)[O-])cc5F)c5nc(c(-c6c(F)cc(S(=O)(=O)[O-])cc6F)c6ccc3[nH]6)C=C5)C=C4)cc2)cc1F
REMARK SMILES IDX 18 1 17 2 16 3 15 4 14 5 13 6 12 7 11 8 9 9 10 10 8 11 7 12
REMARK SMILES IDX 6 13 3 14 4 15 93 16 5 17 92 18 94 19 2 20 1 21 19 22 20 23
REMARK SMILES IDX 21 24 22 25 23 26 24 27 25 28 26 29 27 30 91 31 28 32 90 33
REMARK SMILES IDX 29 34 30 35 31 36 84 37 32 38 89 39 83 40 85 41 33 42 88 43
REMARK SMILES IDX 82 44 81 45 34 47 68 48 47 49 67 50 48 51 51 52 66 53 86 54
REMARK SMILES IDX 49 55 50 56 65 58 87 59 52 60 35 61 36 62 45 63 37 64 38 65
REMARK SMILES IDX 44 66 46 67 39 68 40 69 41 70 42 71 43 72 69 73 70 74 79 75
REMARK SMILES IDX 71 76 72 77 78 78 80 79 73 80 74 81 75 82 76 83 77 84 53 85
REMARK SMILES IDX 54 86 63 87 55 88 56 89 62 90 64 91 57 92 58 93 59 94 60 95
REMARK SMILES IDX 61 96
REMARK H PARENT 85 46 51 57
REMARK Flexibility Score: inf
ROOT
ATOM      1  C   UNL A   1      42.210  19.098  26.643  1.00  0.00     0.188 C 
ENDROOT
BRANCH   1   2
ATOM      2  O   UNL A   1      42.771  18.762  25.374  1.00  0.00    -0.377 OA
BRANCH   2   3
ATOM      3  C   UNL A   1      44.179  18.692  25.214  1.00  0.00     0.188 C 
BRANCH   3   4
ATOM      4  C   UNL A   1      44.779  19.207  23.891  1.00  0.00     0.188 C 
BRANCH   4   5
ATOM      5  O   UNL A   1      44.753  20.615  23.761  1.00  0.00    -0.376 OA
BRANCH   5   6
ATOM      6  C   UNL A   1      45.729  21.411  24.407  1.00  0.00     0.202 C 
BRANCH   6   7
ATOM      7  C   UNL A   1      45.455  22.076  25.767  1.00  0.00     0.261 C 
BRANCH   7   8
ATOM      8  O   UNL A   1      46.430  23.014  26.230  1.00  0.00    -0.460 OA
BRANCH   8   9
ATOM      9  C   UNL A   1      46.505  24.193  25.580  1.00  0.00     0.330 C 
ATOM     10  O   UNL A   1      46.820  24.358  24.412  1.00  0.00    -0.247 OA
BRANCH   9  11
ATOM     11  C   UNL A   1      45.990  25.293  26.425  1.00  0.00     0.094 C 
ATOM     12  C   UNL A   1      46.259  26.597  26.237  1.00  0.00     0.016 C 
BRANCH  12  13
ATOM     13  C   UNL A   1      45.737  27.661  27.108  1.00  0.00    -0.022 A 
ATOM     14  C   UNL A   1      44.884  29.736  28.816  1.00  0.00     0.154 A 
ATOM     15  C   UNL A   1      44.574  29.773  27.457  1.00  0.00     0.050 A 
ATOM     16  C   UNL A   1      45.544  28.618  29.327  1.00  0.00     0.165 A 
ATOM     17  C   UNL A   1      44.996  28.743  26.609  1.00  0.00     0.012 A 
ATOM     18  C   UNL A   1      45.963  27.585  28.487  1.00  0.00     0.051 A 
ATOM     19  F   UNL A   1      45.794  28.503  30.638  1.00  0.00    -0.203 F 
BRANCH  14  20
ATOM     20  O   UNL A   1      44.467  30.817  29.545  1.00  0.00    -0.494 OA
ATOM     21  C   UNL A   1      43.774  31.801  28.781  1.00  0.00     0.278 C 
ENDBRANCH  14  20
ENDBRANCH  12  13
ENDBRANCH   9  11
ENDBRANCH   8   9
ENDBRANCH   7   8
ENDBRANCH   6   7
ENDBRANCH   5   6
ENDBRANCH   4   5
ENDBRANCH   3   4
ENDBRANCH   2   3
ENDBRANCH   1   2
BRANCH   1  22
ATOM     22  C   UNL A   1      41.501  20.448  26.917  1.00  0.00     0.188 C 
BRANCH  22  23
ATOM     23  O   UNL A   1      41.591  21.396  25.866  1.00  0.00    -0.376 OA
BRANCH  23  24
ATOM     24  C   UNL A   1      41.692  22.763  26.221  1.00  0.00     0.202 C 
BRANCH  24  25
ATOM     25  C   UNL A   1      40.508  23.358  26.995  1.00  0.00     0.261 C 
BRANCH  25  26
ATOM     26  O   UNL A   1      39.959  24.576  26.469  1.00  0.00    -0.460 OA
BRANCH  26  27
ATOM     27  C   UNL A   1      40.795  25.629  26.347  1.00  0.00     0.338 C 
ATOM     28  O   UNL A   1      41.308  26.045  25.320  1.00  0.00    -0.246 OA
BRANCH  27  29
ATOM     29  C   UNL A   1      40.840  26.314  27.655  1.00  0.00     0.060 A 
ATOM     30  C   UNL A   1      39.761  26.179  28.539  1.00  0.00     0.016 A 
ATOM     31  C   UNL A   1      41.957  27.072  28.008  1.00  0.00     0.016 A 
ATOM     32  C   UNL A   1      39.784  26.836  29.770  1.00  0.00     0.010 A 
ATOM     33  C   UNL A   1      41.971  27.742  29.234  1.00  0.00     0.010 A 
ATOM     34  C   UNL A   1      40.871  27.655  30.105  1.00  0.00    -0.014 A 
BRANCH  34  35
ATOM     35  C   UNL A   1      40.781  28.573  31.266  1.00  0.00     0.031 A 
ATOM     36  C   UNL A   1      39.778  29.691  31.216  1.00  0.00     0.074 A 
ATOM     37  C   UNL A   1      41.563  28.412  32.348  1.00  0.00     0.049 A 
ATOM     38  N   UNL A   1      39.553  30.646  32.079  1.00  0.00    -0.248 NA
ATOM     39  C   UNL A   1      38.913  29.736  30.026  1.00  0.00     0.031 C 
ATOM     40  C   UNL A   1      42.534  27.338  32.536  1.00  0.00     0.029 A 
ATOM     41  N   UNL A   1      41.659  29.163  33.493  1.00  0.00    -0.354 N 
ATOM     42  C   UNL A   1      38.520  31.404  31.540  1.00  0.00     0.074 A 
ATOM     43  C   UNL A   1      38.199  30.827  30.254  1.00  0.00     0.031 C 
ATOM     44  C   UNL A   1      43.129  27.496  33.731  1.00  0.00     0.029 A 
ATOM     45  C   UNL A   1      42.610  28.704  34.374  1.00  0.00     0.049 A 
ATOM     46  H   UNL A   1      41.101  29.955  33.668  1.00  0.00     0.167 HD
ATOM     47  C   UNL A   1      37.885  32.473  32.076  1.00  0.00     0.037 A 
ATOM     48  C   UNL A   1      43.021  29.209  35.555  1.00  0.00     0.037 A 
ATOM     49  C   UNL A   1      38.228  33.055  33.348  1.00  0.00     0.049 A 
ATOM     50  C   UNL A   1      42.381  30.464  36.087  1.00  0.00     0.074 A 
ATOM     51  C   UNL A   1      37.657  34.147  33.976  1.00  0.00     0.029 A 
ATOM     52  N   UNL A   1      39.241  32.600  34.182  1.00  0.00    -0.354 N 
ATOM     53  N   UNL A   1      41.408  31.177  35.571  1.00  0.00    -0.248 NA
ATOM     54  C   UNL A   1      42.896  30.987  37.361  1.00  0.00     0.031 C 
ATOM     55  C   UNL A   1      38.362  34.387  35.159  1.00  0.00     0.029 A 
ATOM     56  C   UNL A   1      39.330  33.405  35.304  1.00  0.00     0.049 A 
ATOM     57  H   UNL A   1      39.813  31.818  34.001  1.00  0.00     0.167 HD
ATOM     58  C   UNL A   1      41.175  32.217  36.466  1.00  0.00     0.074 A 
ATOM     59  C   UNL A   1      42.109  32.037  37.560  1.00  0.00     0.031 C 
ATOM     60  C   UNL A   1      40.269  33.223  36.388  1.00  0.00     0.037 A 
BRANCH  47  61
ATOM     61  C   UNL A   1      36.776  33.091  31.268  1.00  0.00     0.058 A 
ATOM     62  C   UNL A   1      37.063  33.859  30.127  1.00  0.00     0.135 A 
ATOM     63  C   UNL A   1      35.425  32.919  31.613  1.00  0.00     0.135 A 
ATOM     64  F   UNL A   1      38.335  34.054  29.745  1.00  0.00    -0.206 F 
ATOM     65  C   UNL A   1      36.055  34.425  29.356  1.00  0.00     0.059 A 
ATOM     66  C   UNL A   1      34.397  33.449  30.838  1.00  0.00     0.059 A 
ATOM     67  F   UNL A   1      35.090  32.178  32.682  1.00  0.00    -0.206 F 
ATOM     68  C   UNL A   1      34.723  34.204  29.713  1.00  0.00     0.060 A 
BRANCH  68  69
ATOM     69  S   UNL A   1      33.425  34.866  28.646  1.00  0.00     0.124 S 
ATOM     70  O   UNL A   1      34.064  36.055  28.095  1.00  0.00    -0.237 OA
ATOM     71  O   UNL A   1      33.208  33.766  27.710  1.00  0.00    -0.237 OA
ATOM     72  O   UNL A   1      32.322  35.114  29.570  1.00  0.00    -0.744 OA
ENDBRANCH  68  69
ENDBRANCH  47  61
BRANCH  48  73
ATOM     73  C   UNL A   1      44.079  28.494  36.317  1.00  0.00     0.058 A 
ATOM     74  C   UNL A   1      45.430  28.862  36.216  1.00  0.00     0.135 A 
ATOM     75  C   UNL A   1      43.765  27.369  37.094  1.00  0.00     0.135 A 
ATOM     76  F   UNL A   1      45.783  29.931  35.486  1.00  0.00    -0.206 F 
ATOM     77  C   UNL A   1      46.435  28.108  36.810  1.00  0.00     0.059 A 
ATOM     78  C   UNL A   1      44.752  26.612  37.718  1.00  0.00     0.059 A 
ATOM     79  F   UNL A   1      42.485  26.991  37.239  1.00  0.00    -0.206 F 
ATOM     80  C   UNL A   1      46.087  26.974  37.545  1.00  0.00     0.060 A 
BRANCH  80  81
ATOM     81  S   UNL A   1      47.414  25.956  38.228  1.00  0.00     0.124 S 
ATOM     82  O   UNL A   1      47.091  25.975  39.651  1.00  0.00    -0.237 OA
ATOM     83  O   UNL A   1      47.203  24.684  37.545  1.00  0.00    -0.237 OA
ATOM     84  O   UNL A   1      48.624  26.678  37.850  1.00  0.00    -0.744 OA
ENDBRANCH  80  81
ENDBRANCH  48  73
BRANCH  60  85
ATOM     85  C   UNL A   1      40.213  34.214  37.521  1.00  0.00     0.058 A 
ATOM     86  C   UNL A   1      39.289  34.049  38.567  1.00  0.00     0.135 A 
ATOM     87  C   UNL A   1      41.001  35.377  37.525  1.00  0.00     0.135 A 
ATOM     88  F   UNL A   1      38.505  32.959  38.611  1.00  0.00    -0.206 F 
ATOM     89  C   UNL A   1      39.130  35.010  39.559  1.00  0.00     0.059 A 
ATOM     90  C   UNL A   1      40.880  36.338  38.526  1.00  0.00     0.059 A 
ATOM     91  F   UNL A   1      41.907  35.581  36.555  1.00  0.00    -0.206 F 
ATOM     92  C   UNL A   1      39.928  36.154  39.528  1.00  0.00     0.060 A 
BRANCH  92  93
ATOM     93  S   UNL A   1      39.704  37.392  40.825  1.00  0.00     0.124 S 
ATOM     94  O   UNL A   1      38.672  38.246  40.250  1.00  0.00    -0.237 OA
ATOM     95  O   UNL A   1      39.292  36.573  41.961  1.00  0.00    -0.237 OA
ATOM     96  O   UNL A   1      41.026  37.999  40.946  1.00  0.00    -0.744 OA
ENDBRANCH  92  93
ENDBRANCH  60  85
ENDBRANCH  34  35
ENDBRANCH  27  29
ENDBRANCH  26  27
ENDBRANCH  25  26
ENDBRANCH  24  25
ENDBRANCH  23  24
ENDBRANCH  22  23
ENDBRANCH   1  22
TORSDOF 25
ENDMDL
MODEL 3
REMARK VINA RESULT:      -8.9      2.923      8.405
REMARK SMILES COc1ccc(/C=C/C(=O)OCCOCCOCCOCCOC(=O)c2ccc(-c3c4nc(c(-c5c(F)cc(S(=O)(=O)[O-])cc5F)c5ccc([nH]5)c(-c5c(F)cc(S(=O)(=O)[O-])cc5F)c5nc(c(-c6c(F)cc(S(=O)(=O)[O-])cc6F)c6ccc3[nH]6)C=C5)C=C4)cc2)cc1F
REMARK SMILES IDX 18 1 17 2 16 3 15 4 14 5 13 6 12 7 11 8 9 9 10 10 8 11 7 12
REMARK SMILES IDX 6 13 3 14 4 15 93 16 5 17 92 18 94 19 2 20 1 21 19 22 20 23
REMARK SMILES IDX 21 24 22 25 23 26 24 27 25 28 26 29 27 30 91 31 28 32 90 33
REMARK SMILES IDX 29 34 30 35 31 36 84 37 32 38 89 39 83 40 85 41 33 42 88 43
REMARK SMILES IDX 82 44 81 45 34 47 68 48 47 49 67 50 48 51 51 52 66 53 86 54
REMARK SMILES IDX 49 55 50 56 65 58 87 59 52 60 35 61 36 62 45 63 37 64 38 65
REMARK SMILES IDX 44 66 46 67 39 68 40 69 41 70 42 71 43 72 69 73 70 74 79 75
REMARK SMILES IDX 71 76 72 77 78 78 80 79 73 80 74 81 75 82 76 83 77 84 53 85
REMARK SMILES IDX 54 86 63 87 55 88 56 89 62 90 64 91 57 92 58 93 59 94 60 95
REMARK SMILES IDX 61 96
REMARK H PARENT 85 46 51 57
REMARK Flexibility Score: inf
ROOT
ATOM      1  C   UNL A   1      37.115  21.619  25.644  1.00  0.00     0.188 C 
ENDROOT
BRANCH   1   2
ATOM      2  O   UNL A   1      36.656  22.952  25.864  1.00  0.00    -0.377 OA
BRANCH   2   3
ATOM      3  C   UNL A   1      35.845  23.596  24.895  1.00  0.00     0.188 C 
BRANCH   3   4
ATOM      4  C   UNL A   1      34.772  22.752  24.180  1.00  0.00     0.188 C 
BRANCH   4   5
ATOM      5  O   UNL A   1      33.459  22.972  24.659  1.00  0.00    -0.376 OA
BRANCH   5   6
ATOM      6  C   UNL A   1      33.161  24.123  25.427  1.00  0.00     0.202 C 
BRANCH   6   7
ATOM      7  C   UNL A   1      33.229  25.535  24.822  1.00  0.00     0.261 C 
BRANCH   7   8
ATOM      8  O   UNL A   1      33.052  26.629  25.726  1.00  0.00    -0.460 OA
BRANCH   8   9
ATOM      9  C   UNL A   1      31.814  26.819  26.225  1.00  0.00     0.330 C 
ATOM     10  O   UNL A   1      31.475  26.694  27.392  1.00  0.00    -0.247 OA
BRANCH   9  11
ATOM     11  C   UNL A   1      30.909  27.372  25.192  1.00  0.00     0.094 C 
ATOM     12  C   UNL A   1      31.138  28.496  24.493  1.00  0.00     0.016 C 
BRANCH  12  13
ATOM     13  C   UNL A   1      30.206  29.020  23.483  1.00  0.00    -0.022 A 
ATOM     14  C   UNL A   1      28.350  30.107  21.660  1.00  0.00     0.154 A 
ATOM     15  C   UNL A   1      29.716  30.326  21.485  1.00  0.00     0.050 A 
ATOM     16  C   UNL A   1      27.927  29.274  22.696  1.00  0.00     0.165 A 
ATOM     17  C   UNL A   1      30.638  29.786  22.390  1.00  0.00     0.012 A 
ATOM     18  C   UNL A   1      28.842  28.728  23.597  1.00  0.00     0.051 A 
ATOM     19  F   UNL A   1      26.631  28.972  22.855  1.00  0.00    -0.203 F 
BRANCH  14  20
ATOM     20  O   UNL A   1      27.534  30.722  20.748  1.00  0.00    -0.494 OA
ATOM     21  C   UNL A   1      28.045  31.956  20.250  1.00  0.00     0.278 C 
ENDBRANCH  14  20
ENDBRANCH  12  13
ENDBRANCH   9  11
ENDBRANCH   8   9
ENDBRANCH   7   8
ENDBRANCH   6   7
ENDBRANCH   5   6
ENDBRANCH   4   5
ENDBRANCH   3   4
ENDBRANCH   2   3
ENDBRANCH   1   2
BRANCH   1  22
ATOM     22  C   UNL A   1      38.579  21.285  25.261  1.00  0.00     0.188 C 
BRANCH  22  23
ATOM     23  O   UNL A   1      39.470  21.157  26.357  1.00  0.00    -0.376 OA
BRANCH  23  24
ATOM     24  C   UNL A   1      40.087  22.335  26.842  1.00  0.00     0.202 C 
BRANCH  24  25
ATOM     25  C   UNL A   1      41.475  22.664  26.277  1.00  0.00     0.261 C 
BRANCH  25  26
ATOM     26  O   UNL A   1      41.792  24.059  26.159  1.00  0.00    -0.460 OA
BRANCH  26  27
ATOM     27  C   UNL A   1      42.857  24.513  26.853  1.00  0.00     0.338 C 
ATOM     28  O   UNL A   1      44.026  24.193  26.699  1.00  0.00    -0.246 OA
BRANCH  27  29
ATOM     29  C   UNL A   1      42.386  25.611  27.721  1.00  0.00     0.060 A 
ATOM     30  C   UNL A   1      43.131  26.795  27.796  1.00  0.00     0.016 A 
ATOM     31  C   UNL A   1      41.200  25.471  28.445  1.00  0.00     0.016 A 
ATOM     32  C   UNL A   1      42.706  27.833  28.626  1.00  0.00     0.010 A 
ATOM     33  C   UNL A   1      40.786  26.504  29.288  1.00  0.00     0.010 A 
ATOM     34  C   UNL A   1      41.554  27.675  29.409  1.00  0.00    -0.014 A 
BRANCH  34  35
ATOM     35  C   UNL A   1      41.253  28.640  30.494  1.00  0.00     0.031 A 
ATOM     36  C   UNL A   1      42.111  28.616  31.728  1.00  0.00     0.074 A 
ATOM     37  C   UNL A   1      40.249  29.527  30.384  1.00  0.00     0.049 A 
ATOM     38  N   UNL A   1      42.010  29.319  32.825  1.00  0.00    -0.248 NA
ATOM     39  C   UNL A   1      43.234  27.665  31.721  1.00  0.00     0.031 C 
ATOM     40  C   UNL A   1      39.384  29.683  29.219  1.00  0.00     0.029 A 
ATOM     41  N   UNL A   1      39.791  30.465  31.276  1.00  0.00    -0.354 N 
ATOM     42  C   UNL A   1      43.057  28.899  33.637  1.00  0.00     0.074 A 
ATOM     43  C   UNL A   1      43.747  27.846  32.927  1.00  0.00     0.031 C 
ATOM     44  C   UNL A   1      38.497  30.663  29.465  1.00  0.00     0.029 A 
ATOM     45  C   UNL A   1      38.707  31.176  30.819  1.00  0.00     0.049 A 
ATOM     46  H   UNL A   1      40.200  30.615  32.159  1.00  0.00     0.167 HD
ATOM     47  C   UNL A   1      43.420  29.362  34.857  1.00  0.00     0.037 A 
ATOM     48  C   UNL A   1      37.963  32.121  31.430  1.00  0.00     0.037 A 
ATOM     49  C   UNL A   1      42.711  30.395  35.567  1.00  0.00     0.049 A 
ATOM     50  C   UNL A   1      38.312  32.547  32.831  1.00  0.00     0.074 A 
ATOM     51  C   UNL A   1      42.987  30.926  36.814  1.00  0.00     0.029 A 
ATOM     52  N   UNL A   1      41.578  31.046  35.098  1.00  0.00    -0.354 N 
ATOM     53  N   UNL A   1      39.300  32.143  33.595  1.00  0.00    -0.248 NA
ATOM     54  C   UNL A   1      37.444  33.554  33.458  1.00  0.00     0.031 C 
ATOM     55  C   UNL A   1      41.989  31.856  37.122  1.00  0.00     0.029 A 
ATOM     56  C   UNL A   1      41.127  31.954  36.041  1.00  0.00     0.049 A 
ATOM     57  H   UNL A   1      41.157  30.886  34.221  1.00  0.00     0.167 HD
ATOM     58  C   UNL A   1      39.190  32.864  34.780  1.00  0.00     0.074 A 
ATOM     59  C   UNL A   1      38.039  33.731  34.631  1.00  0.00     0.031 C 
ATOM     60  C   UNL A   1      39.973  32.812  35.887  1.00  0.00     0.037 A 
BRANCH  47  61
ATOM     61  C   UNL A   1      44.622  28.727  35.504  1.00  0.00     0.058 A 
ATOM     62  C   UNL A   1      45.905  29.261  35.309  1.00  0.00     0.135 A 
ATOM     63  C   UNL A   1      44.506  27.592  36.326  1.00  0.00     0.135 A 
ATOM     64  F   UNL A   1      46.078  30.346  34.538  1.00  0.00    -0.206 F 
ATOM     65  C   UNL A   1      47.027  28.701  35.910  1.00  0.00     0.059 A 
ATOM     66  C   UNL A   1      45.610  27.035  36.965  1.00  0.00     0.059 A 
ATOM     67  F   UNL A   1      43.300  27.052  36.565  1.00  0.00    -0.206 F 
ATOM     68  C   UNL A   1      46.868  27.594  36.747  1.00  0.00     0.060 A 
BRANCH  68  69
ATOM     69  S   UNL A   1      48.321  26.939  37.594  1.00  0.00     0.124 S 
ATOM     70  O   UNL A   1      47.874  25.605  37.973  1.00  0.00    -0.237 OA
ATOM     71  O   UNL A   1      49.338  26.996  36.546  1.00  0.00    -0.237 OA
ATOM     72  O   UNL A   1      48.521  27.875  38.696  1.00  0.00    -0.744 OA
ENDBRANCH  68  69
ENDBRANCH  47  61
BRANCH  48  73
ATOM     73  C   UNL A   1      36.833  32.741  30.689  1.00  0.00     0.058 A 
ATOM     74  C   UNL A   1      37.027  33.855  29.857  1.00  0.00     0.135 A 
ATOM     75  C   UNL A   1      35.520  32.280  30.869  1.00  0.00     0.135 A 
ATOM     76  F   UNL A   1      38.263  34.334  29.650  1.00  0.00    -0.206 F 
ATOM     77  C   UNL A   1      35.955  34.525  29.278  1.00  0.00     0.059 A 
ATOM     78  C   UNL A   1      34.433  32.921  30.281  1.00  0.00     0.059 A 
ATOM     79  F   UNL A   1      35.287  31.205  31.637  1.00  0.00    -0.206 F 
ATOM     80  C   UNL A   1      34.660  34.061  29.511  1.00  0.00     0.060 A 
BRANCH  80  81
ATOM     81  S   UNL A   1      33.278  35.001  28.828  1.00  0.00     0.124 S 
ATOM     82  O   UNL A   1      33.946  36.223  28.390  1.00  0.00    -0.237 OA
ATOM     83  O   UNL A   1      32.804  34.120  27.767  1.00  0.00    -0.237 OA
ATOM     84  O   UNL A   1      32.377  35.154  29.966  1.00  0.00    -0.744 OA
ENDBRANCH  80  81
ENDBRANCH  48  73
BRANCH  60  85
ATOM     85  C   UNL A   1      39.639  33.728  37.034  1.00  0.00     0.058 A 
ATOM     86  C   UNL A   1      40.166  35.029  37.084  1.00  0.00     0.135 A 
ATOM     87  C   UNL A   1      38.881  33.291  38.133  1.00  0.00     0.135 A 
ATOM     88  F   UNL A   1      40.904  35.499  36.064  1.00  0.00    -0.206 F 
ATOM     89  C   UNL A   1      39.977  35.853  38.188  1.00  0.00     0.059 A 
ATOM     90  C   UNL A   1      38.652  34.110  39.236  1.00  0.00     0.059 A 
ATOM     91  F   UNL A   1      38.344  32.059  38.135  1.00  0.00    -0.206 F 
ATOM     92  C   UNL A   1      39.221  35.383  39.262  1.00  0.00     0.060 A 
BRANCH  92  93
ATOM     93  S   UNL A   1      38.988  36.467  40.687  1.00  0.00     0.124 S 
ATOM     94  O   UNL A   1      40.292  36.397  41.334  1.00  0.00    -0.237 OA
ATOM     95  O   UNL A   1      38.660  37.741  40.053  1.00  0.00    -0.237 OA
ATOM     96  O   UNL A   1      37.890  35.838  41.417  1.00  0.00    -0.744 OA
ENDBRANCH  92  93
ENDBRANCH  60  85
ENDBRANCH  34  35
ENDBRANCH  27  29
ENDBRANCH  26  27
ENDBRANCH  25  26
ENDBRANCH  24  25
ENDBRANCH  23  24
ENDBRANCH  22  23
ENDBRANCH   1  22
TORSDOF 25
ENDMDL
