MODEL 1
REMARK VINA RESULT:      -8.8      0.000      0.000
REMARK SMILES CCc1nc(C)c(C(=O)OCCOCCOCCOCCOC(=O)c2ccc(-c3c4nc(c(-c5c(F)cc(S(=O)(=O)[O-])cc5F)c5ccc([nH]5)c(-c5c(F)cc(S(=O)(=O)[O-])cc5F)c5nc(c(-c6c(F)cc(S(=O)(=O)[O-])cc6F)c6ccc3[nH]6)C=C5)C=C4)cc2)c(SCc2cnc(Cl)s2)n1
REMARK SMILES IDX 16 1 15 2 14 3 13 4 12 5 11 6 10 7 8 8 9 9 7 10 3 11 4 12
REMARK SMILES IDX 100 13 5 14 91 15 6 16 2 17 1 18 92 19 93 20 94 21 95 22
REMARK SMILES IDX 99 23 96 24 97 25 98 26 17 27 18 28 19 29 20 30 21 31 22 32
REMARK SMILES IDX 23 33 24 34 25 35 26 36 90 37 27 38 89 39 28 40 29 41 30 42
REMARK SMILES IDX 83 43 31 44 88 45 82 46 84 47 32 48 87 49 81 50 80 51 33 53
REMARK SMILES IDX 67 54 46 55 66 56 47 57 50 58 65 59 85 60 48 61 49 62 64 64
REMARK SMILES IDX 86 65 51 66 34 67 35 68 44 69 36 70 37 71 43 72 45 73 38 74
REMARK SMILES IDX 39 75 40 76 41 77 42 78 68 79 69 80 78 81 70 82 71 83 77 84
REMARK SMILES IDX 79 85 72 86 73 87 74 88 75 89 76 90 52 91 53 92 62 93 54 94
REMARK SMILES IDX 55 95 61 96 63 97 56 98 57 99 58 100 59 101 60 102
REMARK H PARENT 84 52 50 63
REMARK Flexibility Score: inf
ROOT
ATOM      1  O   UNL A   1      37.028  23.853  26.075  1.00  0.00    -0.377 OA
ENDROOT
BRANCH   1   2
ATOM      2  C   UNL A   1      36.527  22.929  25.125  1.00  0.00     0.188 C 
BRANCH   2   3
ATOM      3  C   UNL A   1      35.604  23.437  23.996  1.00  0.00     0.188 C 
BRANCH   3   4
ATOM      4  O   UNL A   1      34.563  22.546  23.592  1.00  0.00    -0.376 OA
BRANCH   4   5
ATOM      5  C   UNL A   1      33.500  23.015  22.771  1.00  0.00     0.202 C 
BRANCH   5   6
ATOM      6  C   UNL A   1      33.580  24.482  22.371  1.00  0.00     0.261 C 
BRANCH   6   7
ATOM      7  O   UNL A   1      32.586  25.204  23.106  1.00  0.00    -0.460 OA
BRANCH   7   8
ATOM      8  C   UNL A   1      32.901  26.344  23.737  1.00  0.00     0.342 C 
ATOM      9  O   UNL A   1      33.881  26.553  24.420  1.00  0.00    -0.246 OA
BRANCH   8  10
ATOM     10  C   UNL A   1      31.829  27.295  23.442  1.00  0.00     0.113 A 
ATOM     11  C   UNL A   1      29.976  29.130  22.676  1.00  0.00     0.129 A 
ATOM     12  N   UNL A   1      31.255  29.407  22.425  1.00  0.00    -0.237 NA
ATOM     13  N   UNL A   1      29.575  28.044  23.347  1.00  0.00    -0.226 NA
ATOM     14  C   UNL A   1      32.176  28.494  22.802  1.00  0.00     0.057 A 
ATOM     15  C   UNL A   1      30.481  27.104  23.730  1.00  0.00     0.115 A 
ATOM     16  C   UNL A   1      33.581  28.862  22.398  1.00  0.00     0.068 C 
BRANCH  11  17
ATOM     17  C   UNL A   1      28.906  30.047  22.150  1.00  0.00     0.074 C 
ATOM     18  C   UNL A   1      27.757  30.277  23.122  1.00  0.00     0.012 C 
ENDBRANCH  11  17
BRANCH  15  19
ATOM     19  S   UNL A   1      29.521  25.801  24.477  1.00  0.00    -0.100 SA
BRANCH  19  20
ATOM     20  C   UNL A   1      30.199  25.231  26.061  1.00  0.00     0.125 C 
BRANCH  20  21
ATOM     21  C   UNL A   1      31.106  24.050  26.014  1.00  0.00     0.036 A 
ATOM     22  C   UNL A   1      30.849  22.807  25.456  1.00  0.00     0.129 A 
ATOM     23  S   UNL A   1      32.706  24.025  26.664  1.00  0.00    -0.107 S 
ATOM     24  N   UNL A   1      31.755  21.811  25.759  1.00  0.00    -0.233 NA
ATOM     25  C   UNL A   1      32.703  22.336  26.496  1.00  0.00     0.183 A 
ATOM     26  Cl  UNL A   1      33.921  21.402  27.255  1.00  0.00    -0.051 Cl
ENDBRANCH  20  21
ENDBRANCH  19  20
ENDBRANCH  15  19
ENDBRANCH   8  10
ENDBRANCH   7   8
ENDBRANCH   6   7
ENDBRANCH   5   6
ENDBRANCH   4   5
ENDBRANCH   3   4
ENDBRANCH   2   3
ENDBRANCH   1   2
BRANCH   1  27
ATOM     27  C   UNL A   1      38.384  23.662  26.453  1.00  0.00     0.188 C 
BRANCH  27  28
ATOM     28  C   UNL A   1      38.876  22.247  26.095  1.00  0.00     0.188 C 
BRANCH  28  29
ATOM     29  O   UNL A   1      40.209  21.999  26.547  1.00  0.00    -0.376 OA
BRANCH  29  30
ATOM     30  C   UNL A   1      40.493  20.678  26.997  1.00  0.00     0.202 C 
BRANCH  30  31
ATOM     31  C   UNL A   1      41.050  19.650  25.993  1.00  0.00     0.261 C 
BRANCH  31  32
ATOM     32  O   UNL A   1      42.421  19.246  26.158  1.00  0.00    -0.460 OA
BRANCH  32  33
ATOM     33  C   UNL A   1      43.359  19.734  25.319  1.00  0.00     0.338 C 
ATOM     34  O   UNL A   1      43.775  19.215  24.300  1.00  0.00    -0.246 OA
BRANCH  33  35
ATOM     35  C   UNL A   1      43.621  21.135  25.731  1.00  0.00     0.060 A 
ATOM     36  C   UNL A   1      43.568  22.151  24.764  1.00  0.00     0.016 A 
ATOM     37  C   UNL A   1      43.826  21.458  27.076  1.00  0.00     0.016 A 
ATOM     38  C   UNL A   1      43.740  23.486  25.139  1.00  0.00     0.010 A 
ATOM     39  C   UNL A   1      44.030  22.790  27.445  1.00  0.00     0.010 A 
ATOM     40  C   UNL A   1      44.016  23.806  26.475  1.00  0.00    -0.014 A 
BRANCH  40  41
ATOM     41  C   UNL A   1      44.542  25.149  26.820  1.00  0.00     0.031 A 
ATOM     42  C   UNL A   1      43.553  26.175  27.305  1.00  0.00     0.074 A 
ATOM     43  C   UNL A   1      45.844  25.464  26.701  1.00  0.00     0.049 A 
ATOM     44  N   UNL A   1      43.738  27.434  27.604  1.00  0.00    -0.248 NA
ATOM     45  C   UNL A   1      42.164  25.713  27.471  1.00  0.00     0.031 C 
ATOM     46  C   UNL A   1      46.904  24.551  26.277  1.00  0.00     0.029 A 
ATOM     47  N   UNL A   1      46.493  26.656  26.915  1.00  0.00    -0.354 N 
ATOM     48  C   UNL A   1      42.493  27.913  27.990  1.00  0.00     0.074 A 
ATOM     49  C   UNL A   1      41.554  26.820  27.862  1.00  0.00     0.031 C 
ATOM     50  C   UNL A   1      48.070  25.223  26.244  1.00  0.00     0.029 A 
ATOM     51  C   UNL A   1      47.834  26.618  26.614  1.00  0.00     0.049 A 
ATOM     52  H   UNL A   1      46.041  27.461  27.254  1.00  0.00     0.167 HD
ATOM     53  C   UNL A   1      42.158  29.152  28.418  1.00  0.00     0.037 A 
ATOM     54  C   UNL A   1      48.755  27.606  26.613  1.00  0.00     0.037 A 
ATOM     55  C   UNL A   1      43.088  30.241  28.528  1.00  0.00     0.049 A 
ATOM     56  C   UNL A   1      48.343  29.002  27.015  1.00  0.00     0.074 A 
ATOM     57  C   UNL A   1      42.852  31.533  28.961  1.00  0.00     0.029 A 
ATOM     58  N   UNL A   1      44.431  30.171  28.186  1.00  0.00    -0.354 N 
ATOM     59  N   UNL A   1      47.169  29.436  27.408  1.00  0.00    -0.248 NA
ATOM     60  C   UNL A   1      49.381  30.044  26.969  1.00  0.00     0.031 C 
ATOM     61  C   UNL A   1      44.042  32.257  28.837  1.00  0.00     0.029 A 
ATOM     62  C   UNL A   1      45.031  31.404  28.374  1.00  0.00     0.049 A 
ATOM     63  H   UNL A   1      44.889  29.363  27.859  1.00  0.00     0.167 HD
ATOM     64  C   UNL A   1      47.333  30.791  27.681  1.00  0.00     0.074 A 
ATOM     65  C   UNL A   1      48.721  31.105  27.416  1.00  0.00     0.031 C 
ATOM     66  C   UNL A   1      46.419  31.695  28.114  1.00  0.00     0.037 A 
BRANCH  53  67
ATOM     67  C   UNL A   1      40.719  29.396  28.769  1.00  0.00     0.058 A 
ATOM     68  C   UNL A   1      40.296  29.513  30.103  1.00  0.00     0.135 A 
ATOM     69  C   UNL A   1      39.753  29.527  27.759  1.00  0.00     0.135 A 
ATOM     70  F   UNL A   1      41.176  29.369  31.107  1.00  0.00    -0.206 F 
ATOM     71  C   UNL A   1      38.961  29.729  30.424  1.00  0.00     0.059 A 
ATOM     72  C   UNL A   1      38.416  29.770  28.056  1.00  0.00     0.059 A 
ATOM     73  F   UNL A   1      40.104  29.412  26.469  1.00  0.00    -0.206 F 
ATOM     74  C   UNL A   1      38.028  29.857  29.393  1.00  0.00     0.060 A 
BRANCH  74  75
ATOM     75  S   UNL A   1      36.299  30.145  29.826  1.00  0.00     0.124 S 
ATOM     76  O   UNL A   1      35.609  29.417  28.766  1.00  0.00    -0.237 OA
ATOM     77  O   UNL A   1      36.211  29.557  31.159  1.00  0.00    -0.237 OA
ATOM     78  O   UNL A   1      36.174  31.598  29.776  1.00  0.00    -0.744 OA
ENDBRANCH  74  75
ENDBRANCH  53  67
BRANCH  54  79
ATOM     79  C   UNL A   1      50.156  27.324  26.196  1.00  0.00     0.058 A 
ATOM     80  C   UNL A   1      51.149  27.028  27.142  1.00  0.00     0.135 A 
ATOM     81  C   UNL A   1      50.533  27.361  24.845  1.00  0.00     0.135 A 
ATOM     82  F   UNL A   1      50.844  26.996  28.447  1.00  0.00    -0.206 F 
ATOM     83  C   UNL A   1      52.468  26.789  26.766  1.00  0.00     0.059 A 
ATOM     84  C   UNL A   1      51.841  27.103  24.441  1.00  0.00     0.059 A 
ATOM     85  F   UNL A   1      49.622  27.635  23.899  1.00  0.00    -0.206 F 
ATOM     86  C   UNL A   1      52.803  26.827  25.410  1.00  0.00     0.060 A 
BRANCH  86  87
ATOM     87  S   UNL A   1      54.506  26.466  24.927  1.00  0.00     0.124 S 
ATOM     88  O   UNL A   1      54.856  25.397  25.855  1.00  0.00    -0.237 OA
ATOM     89  O   UNL A   1      54.351  26.074  23.529  1.00  0.00    -0.237 OA
ATOM     90  O   UNL A   1      55.190  27.738  25.140  1.00  0.00    -0.744 OA
ENDBRANCH  86  87
ENDBRANCH  54  79
BRANCH  66  91
ATOM     91  C   UNL A   1      46.885  33.103  28.361  1.00  0.00     0.058 A 
ATOM     92  C   UNL A   1      46.795  34.095  27.371  1.00  0.00     0.135 A 
ATOM     93  C   UNL A   1      47.348  33.484  29.631  1.00  0.00     0.135 A 
ATOM     94  F   UNL A   1      46.364  33.782  26.140  1.00  0.00    -0.206 F 
ATOM     95  C   UNL A   1      47.161  35.412  27.629  1.00  0.00     0.059 A 
ATOM     96  C   UNL A   1      47.695  34.801  29.918  1.00  0.00     0.059 A 
ATOM     97  F   UNL A   1      47.441  32.577  30.617  1.00  0.00    -0.206 F 
ATOM     98  C   UNL A   1      47.604  35.757  28.907  1.00  0.00     0.060 A 
BRANCH  98  99
ATOM     99  S   UNL A   1      48.025  37.481  29.243  1.00  0.00     0.124 S 
ATOM    100  O   UNL A   1      49.211  37.336  30.080  1.00  0.00    -0.237 OA
ATOM    101  O   UNL A   1      48.255  38.013  27.904  1.00  0.00    -0.237 OA
ATOM    102  O   UNL A   1      46.838  37.994  29.921  1.00  0.00    -0.744 OA
ENDBRANCH  98  99
ENDBRANCH  66  91
ENDBRANCH  40  41
ENDBRANCH  33  35
ENDBRANCH  32  33
ENDBRANCH  31  32
ENDBRANCH  30  31
ENDBRANCH  29  30
ENDBRANCH  28  29
ENDBRANCH  27  28
ENDBRANCH   1  27
TORSDOF 27
ENDMDL
MODEL 2
REMARK VINA RESULT:      -8.6      1.929      8.290
REMARK SMILES CCc1nc(C)c(C(=O)OCCOCCOCCOCCOC(=O)c2ccc(-c3c4nc(c(-c5c(F)cc(S(=O)(=O)[O-])cc5F)c5ccc([nH]5)c(-c5c(F)cc(S(=O)(=O)[O-])cc5F)c5nc(c(-c6c(F)cc(S(=O)(=O)[O-])cc6F)c6ccc3[nH]6)C=C5)C=C4)cc2)c(SCc2cnc(Cl)s2)n1
REMARK SMILES IDX 16 1 15 2 14 3 13 4 12 5 11 6 10 7 8 8 9 9 7 10 3 11 4 12
REMARK SMILES IDX 100 13 5 14 91 15 6 16 2 17 1 18 92 19 93 20 94 21 95 22
REMARK SMILES IDX 99 23 96 24 97 25 98 26 17 27 18 28 19 29 20 30 21 31 22 32
REMARK SMILES IDX 23 33 24 34 25 35 26 36 90 37 27 38 89 39 28 40 29 41 30 42
REMARK SMILES IDX 83 43 31 44 88 45 82 46 84 47 32 48 87 49 81 50 80 51 33 53
REMARK SMILES IDX 67 54 46 55 66 56 47 57 50 58 65 59 85 60 48 61 49 62 64 64
REMARK SMILES IDX 86 65 51 66 34 67 35 68 44 69 36 70 37 71 43 72 45 73 38 74
REMARK SMILES IDX 39 75 40 76 41 77 42 78 68 79 69 80 78 81 70 82 71 83 77 84
REMARK SMILES IDX 79 85 72 86 73 87 74 88 75 89 76 90 52 91 53 92 62 93 54 94
REMARK SMILES IDX 55 95 61 96 63 97 56 98 57 99 58 100 59 101 60 102
REMARK H PARENT 84 52 50 63
REMARK Flexibility Score: inf
ROOT
ATOM      1  O   UNL A   1      37.439  22.758  25.935  1.00  0.00    -0.377 OA
ENDROOT
BRANCH   1   2
ATOM      2  C   UNL A   1      36.995  21.626  25.208  1.00  0.00     0.188 C 
BRANCH   2   3
ATOM      3  C   UNL A   1      35.495  21.495  24.864  1.00  0.00     0.188 C 
BRANCH   3   4
ATOM      4  O   UNL A   1      34.812  22.716  24.577  1.00  0.00    -0.376 OA
BRANCH   4   5
ATOM      5  C   UNL A   1      34.905  23.299  23.283  1.00  0.00     0.202 C 
BRANCH   5   6
ATOM      6  C   UNL A   1      33.633  23.959  22.769  1.00  0.00     0.261 C 
BRANCH   6   7
ATOM      7  O   UNL A   1      33.512  25.245  23.386  1.00  0.00    -0.460 OA
BRANCH   7   8
ATOM      8  C   UNL A   1      32.813  26.223  22.791  1.00  0.00     0.342 C 
ATOM      9  O   UNL A   1      32.451  26.259  21.634  1.00  0.00    -0.246 OA
BRANCH   8  10
ATOM     10  C   UNL A   1      32.569  27.242  23.811  1.00  0.00     0.113 A 
ATOM     11  C   UNL A   1      32.217  29.314  25.534  1.00  0.00     0.129 A 
ATOM     12  N   UNL A   1      33.286  29.350  24.740  1.00  0.00    -0.237 NA
ATOM     13  N   UNL A   1      31.365  28.283  25.576  1.00  0.00    -0.226 NA
ATOM     14  C   UNL A   1      33.461  28.323  23.881  1.00  0.00     0.057 A 
ATOM     15  C   UNL A   1      31.511  27.239  24.715  1.00  0.00     0.115 A 
ATOM     16  C   UNL A   1      34.649  28.500  22.972  1.00  0.00     0.068 C 
BRANCH  11  17
ATOM     17  C   UNL A   1      31.905  30.500  26.405  1.00  0.00     0.074 C 
ATOM     18  C   UNL A   1      30.948  31.500  25.769  1.00  0.00     0.012 C 
ENDBRANCH  11  17
BRANCH  15  19
ATOM     19  S   UNL A   1      30.123  26.168  25.033  1.00  0.00    -0.100 SA
BRANCH  19  20
ATOM     20  C   UNL A   1      28.820  26.294  23.776  1.00  0.00     0.125 C 
BRANCH  20  21
ATOM     21  C   UNL A   1      28.359  27.667  23.427  1.00  0.00     0.036 A 
ATOM     22  C   UNL A   1      27.106  28.220  23.644  1.00  0.00     0.129 A 
ATOM     23  S   UNL A   1      29.347  28.863  22.669  1.00  0.00    -0.107 S 
ATOM     24  N   UNL A   1      26.858  29.420  23.010  1.00  0.00    -0.233 NA
ATOM     25  C   UNL A   1      27.946  29.772  22.370  1.00  0.00     0.183 A 
ATOM     26  Cl  UNL A   1      28.006  31.100  21.290  1.00  0.00    -0.051 Cl
ENDBRANCH  20  21
ENDBRANCH  19  20
ENDBRANCH  15  19
ENDBRANCH   8  10
ENDBRANCH   7   8
ENDBRANCH   6   7
ENDBRANCH   5   6
ENDBRANCH   4   5
ENDBRANCH   3   4
ENDBRANCH   2   3
ENDBRANCH   1   2
BRANCH   1  27
ATOM     27  C   UNL A   1      38.841  22.828  26.157  1.00  0.00     0.188 C 
BRANCH  27  28
ATOM     28  C   UNL A   1      39.501  21.442  26.040  1.00  0.00     0.188 C 
BRANCH  28  29
ATOM     29  O   UNL A   1      40.737  21.361  26.753  1.00  0.00    -0.376 OA
BRANCH  29  30
ATOM     30  C   UNL A   1      41.198  20.054  27.080  1.00  0.00     0.202 C 
BRANCH  30  31
ATOM     31  C   UNL A   1      41.947  19.236  26.011  1.00  0.00     0.261 C 
BRANCH  31  32
ATOM     32  O   UNL A   1      43.382  19.342  25.986  1.00  0.00    -0.460 OA
BRANCH  32  33
ATOM     33  C   UNL A   1      43.991  19.812  24.876  1.00  0.00     0.338 C 
ATOM     34  O   UNL A   1      44.014  19.293  23.776  1.00  0.00    -0.246 OA
BRANCH  33  35
ATOM     35  C   UNL A   1      44.425  21.199  25.176  1.00  0.00     0.060 A 
ATOM     36  C   UNL A   1      44.732  21.545  26.501  1.00  0.00     0.016 A 
ATOM     37  C   UNL A   1      44.618  22.126  24.147  1.00  0.00     0.016 A 
ATOM     38  C   UNL A   1      45.212  22.823  26.799  1.00  0.00     0.010 A 
ATOM     39  C   UNL A   1      45.066  23.413  24.450  1.00  0.00     0.010 A 
ATOM     40  C   UNL A   1      45.339  23.777  25.780  1.00  0.00    -0.014 A 
BRANCH  40  41
ATOM     41  C   UNL A   1      45.501  25.210  26.124  1.00  0.00     0.031 A 
ATOM     42  C   UNL A   1      46.882  25.797  26.000  1.00  0.00     0.074 A 
ATOM     43  C   UNL A   1      44.474  25.971  26.543  1.00  0.00     0.049 A 
ATOM     44  N   UNL A   1      47.306  26.996  26.303  1.00  0.00    -0.248 NA
ATOM     45  C   UNL A   1      47.924  24.905  25.464  1.00  0.00     0.031 C 
ATOM     46  C   UNL A   1      43.087  25.529  26.671  1.00  0.00     0.029 A 
ATOM     47  N   UNL A   1      44.449  27.281  26.955  1.00  0.00    -0.354 N 
ATOM     48  C   UNL A   1      48.662  27.000  25.997  1.00  0.00     0.074 A 
ATOM     49  C   UNL A   1      48.996  25.680  25.511  1.00  0.00     0.031 C 
ATOM     50  C   UNL A   1      42.348  26.548  27.149  1.00  0.00     0.029 A 
ATOM     51  C   UNL A   1      43.215  27.702  27.390  1.00  0.00     0.049 A 
ATOM     52  H   UNL A   1      45.242  27.864  26.940  1.00  0.00     0.167 HD
ATOM     53  C   UNL A   1      49.551  28.014  26.105  1.00  0.00     0.037 A 
ATOM     54  C   UNL A   1      42.839  28.874  27.943  1.00  0.00     0.037 A 
ATOM     55  C   UNL A   1      49.221  29.320  26.605  1.00  0.00     0.049 A 
ATOM     56  C   UNL A   1      43.865  29.967  28.131  1.00  0.00     0.074 A 
ATOM     57  C   UNL A   1      50.047  30.420  26.745  1.00  0.00     0.029 A 
ATOM     58  N   UNL A   1      47.967  29.698  27.061  1.00  0.00    -0.354 N 
ATOM     59  N   UNL A   1      45.137  29.970  27.809  1.00  0.00    -0.248 NA
ATOM     60  C   UNL A   1      43.406  31.213  28.764  1.00  0.00     0.031 C 
ATOM     61  C   UNL A   1      49.303  31.450  27.330  1.00  0.00     0.029 A 
ATOM     62  C   UNL A   1      48.002  31.007  27.508  1.00  0.00     0.049 A 
ATOM     63  H   UNL A   1      47.170  29.120  27.066  1.00  0.00     0.167 HD
ATOM     64  C   UNL A   1      45.622  31.222  28.174  1.00  0.00     0.074 A 
ATOM     65  C   UNL A   1      44.505  31.954  28.735  1.00  0.00     0.031 C 
ATOM     66  C   UNL A   1      46.877  31.724  28.055  1.00  0.00     0.037 A 
BRANCH  53  67
ATOM     67  C   UNL A   1      50.970  27.734  25.702  1.00  0.00     0.058 A 
ATOM     68  C   UNL A   1      51.922  27.281  26.629  1.00  0.00     0.135 A 
ATOM     69  C   UNL A   1      51.378  27.909  24.371  1.00  0.00     0.135 A 
ATOM     70  F   UNL A   1      51.590  27.123  27.920  1.00  0.00    -0.206 F 
ATOM     71  C   UNL A   1      53.238  27.032  26.253  1.00  0.00     0.059 A 
ATOM     72  C   UNL A   1      52.682  27.641  23.968  1.00  0.00     0.059 A 
ATOM     73  F   UNL A   1      50.509  28.350  23.450  1.00  0.00    -0.206 F 
ATOM     74  C   UNL A   1      53.608  27.215  24.919  1.00  0.00     0.060 A 
BRANCH  74  75
ATOM     75  S   UNL A   1      55.318  26.881  24.446  1.00  0.00     0.124 S 
ATOM     76  O   UNL A   1      56.028  27.938  25.159  1.00  0.00    -0.237 OA
ATOM     77  O   UNL A   1      55.522  25.527  24.952  1.00  0.00    -0.237 OA
ATOM     78  O   UNL A   1      55.298  27.007  22.993  1.00  0.00    -0.744 OA
ENDBRANCH  74  75
ENDBRANCH  53  67
BRANCH  54  79
ATOM     79  C   UNL A   1      41.432  29.079  28.383  1.00  0.00     0.058 A 
ATOM     80  C   UNL A   1      40.395  29.242  27.450  1.00  0.00     0.135 A 
ATOM     81  C   UNL A   1      41.097  29.132  29.744  1.00  0.00     0.135 A 
ATOM     82  F   UNL A   1      40.666  29.216  26.137  1.00  0.00    -0.206 F 
ATOM     83  C   UNL A   1      39.080  29.461  27.851  1.00  0.00     0.059 A 
ATOM     84  C   UNL A   1      39.785  29.325  30.170  1.00  0.00     0.059 A 
ATOM     85  F   UNL A   1      42.048  28.977  30.678  1.00  0.00    -0.206 F 
ATOM     86  C   UNL A   1      38.785  29.498  29.215  1.00  0.00     0.060 A 
BRANCH  86  87
ATOM     87  S   UNL A   1      37.068  29.731  29.725  1.00  0.00     0.124 S 
ATOM     88  O   UNL A   1      36.346  29.342  28.520  1.00  0.00    -0.237 OA
ATOM     89  O   UNL A   1      36.959  28.818  30.859  1.00  0.00    -0.237 OA
ATOM     90  O   UNL A   1      37.011  31.150  30.067  1.00  0.00    -0.744 OA
ENDBRANCH  86  87
ENDBRANCH  54  79
BRANCH  66  91
ATOM     91  C   UNL A   1      47.115  33.138  28.506  1.00  0.00     0.058 A 
ATOM     92  C   UNL A   1      46.941  34.228  27.639  1.00  0.00     0.135 A 
ATOM     93  C   UNL A   1      47.438  33.411  29.845  1.00  0.00     0.135 A 
ATOM     94  F   UNL A   1      46.637  34.022  26.348  1.00  0.00    -0.206 F 
ATOM     95  C   UNL A   1      47.092  35.538  28.081  1.00  0.00     0.059 A 
ATOM     96  C   UNL A   1      47.569  34.714  30.315  1.00  0.00     0.059 A 
ATOM     97  F   UNL A   1      47.602  32.404  30.719  1.00  0.00    -0.206 F 
ATOM     98  C   UNL A   1      47.401  35.772  29.423  1.00  0.00     0.060 A 
BRANCH  98  99
ATOM     99  S   UNL A   1      47.542  37.478  29.996  1.00  0.00     0.124 S 
ATOM    100  O   UNL A   1      48.743  37.412  30.822  1.00  0.00    -0.237 OA
ATOM    101  O   UNL A   1      47.672  38.218  28.745  1.00  0.00    -0.237 OA
ATOM    102  O   UNL A   1      46.293  37.698  30.720  1.00  0.00    -0.744 OA
ENDBRANCH  98  99
ENDBRANCH  66  91
ENDBRANCH  40  41
ENDBRANCH  33  35
ENDBRANCH  32  33
ENDBRANCH  31  32
ENDBRANCH  30  31
ENDBRANCH  29  30
ENDBRANCH  28  29
ENDBRANCH  27  28
ENDBRANCH   1  27
TORSDOF 27
ENDMDL
MODEL 3
REMARK VINA RESULT:      -8.4      1.741      8.329
REMARK SMILES CCc1nc(C)c(C(=O)OCCOCCOCCOCCOC(=O)c2ccc(-c3c4nc(c(-c5c(F)cc(S(=O)(=O)[O-])cc5F)c5ccc([nH]5)c(-c5c(F)cc(S(=O)(=O)[O-])cc5F)c5nc(c(-c6c(F)cc(S(=O)(=O)[O-])cc6F)c6ccc3[nH]6)C=C5)C=C4)cc2)c(SCc2cnc(Cl)s2)n1
REMARK SMILES IDX 16 1 15 2 14 3 13 4 12 5 11 6 10 7 8 8 9 9 7 10 3 11 4 12
REMARK SMILES IDX 100 13 5 14 91 15 6 16 2 17 1 18 92 19 93 20 94 21 95 22
REMARK SMILES IDX 99 23 96 24 97 25 98 26 17 27 18 28 19 29 20 30 21 31 22 32
REMARK SMILES IDX 23 33 24 34 25 35 26 36 90 37 27 38 89 39 28 40 29 41 30 42
REMARK SMILES IDX 83 43 31 44 88 45 82 46 84 47 32 48 87 49 81 50 80 51 33 53
REMARK SMILES IDX 67 54 46 55 66 56 47 57 50 58 65 59 85 60 48 61 49 62 64 64
REMARK SMILES IDX 86 65 51 66 34 67 35 68 44 69 36 70 37 71 43 72 45 73 38 74
REMARK SMILES IDX 39 75 40 76 41 77 42 78 68 79 69 80 78 81 70 82 71 83 77 84
REMARK SMILES IDX 79 85 72 86 73 87 74 88 75 89 76 90 52 91 53 92 62 93 54 94
REMARK SMILES IDX 55 95 61 96 63 97 56 98 57 99 58 100 59 101 60 102
REMARK H PARENT 84 52 50 63
REMARK Flexibility Score: inf
ROOT
ATOM      1  O   UNL A   1      36.464  21.960  25.717  1.00  0.00    -0.377 OA
ENDROOT
BRANCH   1   2
ATOM      2  C   UNL A   1      36.328  20.632  25.242  1.00  0.00     0.188 C 
BRANCH   2   3
ATOM      3  C   UNL A   1      34.928  20.113  24.848  1.00  0.00     0.188 C 
BRANCH   3   4
ATOM      4  O   UNL A   1      33.860  21.054  24.960  1.00  0.00    -0.376 OA
BRANCH   4   5
ATOM      5  C   UNL A   1      32.521  20.600  25.115  1.00  0.00     0.202 C 
BRANCH   5   6
ATOM      6  C   UNL A   1      31.469  21.693  25.243  1.00  0.00     0.261 C 
BRANCH   6   7
ATOM      7  O   UNL A   1      32.133  22.924  25.545  1.00  0.00    -0.460 OA
BRANCH   7   8
ATOM      8  C   UNL A   1      31.704  23.701  26.551  1.00  0.00     0.342 C 
ATOM      9  O   UNL A   1      31.414  23.346  27.674  1.00  0.00    -0.246 OA
BRANCH   8  10
ATOM     10  C   UNL A   1      31.650  25.067  26.030  1.00  0.00     0.113 A 
ATOM     11  C   UNL A   1      31.340  27.644  25.223  1.00  0.00     0.129 A 
ATOM     12  N   UNL A   1      30.238  26.956  25.518  1.00  0.00    -0.237 NA
ATOM     13  N   UNL A   1      32.567  27.109  25.231  1.00  0.00    -0.226 NA
ATOM     14  C   UNL A   1      30.391  25.676  25.922  1.00  0.00     0.057 A 
ATOM     15  C   UNL A   1      32.751  25.825  25.642  1.00  0.00     0.115 A 
ATOM     16  C   UNL A   1      29.094  25.015  26.312  1.00  0.00     0.068 C 
BRANCH  11  17
ATOM     17  C   UNL A   1      31.232  29.110  24.906  1.00  0.00     0.074 C 
ATOM     18  C   UNL A   1      32.345  29.957  25.510  1.00  0.00     0.012 C 
ENDBRANCH  11  17
BRANCH  15  19
ATOM     19  S   UNL A   1      34.513  25.565  25.603  1.00  0.00    -0.100 SA
BRANCH  19  20
ATOM     20  C   UNL A   1      35.045  24.478  24.250  1.00  0.00     0.125 C 
BRANCH  20  21
ATOM     21  C   UNL A   1      34.158  24.417  23.054  1.00  0.00     0.036 A 
ATOM     22  C   UNL A   1      33.728  23.286  22.376  1.00  0.00     0.129 A 
ATOM     23  S   UNL A   1      33.475  25.799  22.277  1.00  0.00    -0.107 S 
ATOM     24  N   UNL A   1      33.117  23.509  21.159  1.00  0.00    -0.233 NA
ATOM     25  C   UNL A   1      33.053  24.804  20.968  1.00  0.00     0.183 A 
ATOM     26  Cl  UNL A   1      32.547  25.508  19.491  1.00  0.00    -0.051 Cl
ENDBRANCH  20  21
ENDBRANCH  19  20
ENDBRANCH  15  19
ENDBRANCH   8  10
ENDBRANCH   7   8
ENDBRANCH   6   7
ENDBRANCH   5   6
ENDBRANCH   4   5
ENDBRANCH   3   4
ENDBRANCH   2   3
ENDBRANCH   1   2
BRANCH   1  27
ATOM     27  C   UNL A   1      37.789  22.470  25.731  1.00  0.00     0.188 C 
BRANCH  27  28
ATOM     28  C   UNL A   1      38.831  21.337  25.659  1.00  0.00     0.188 C 
BRANCH  28  29
ATOM     29  O   UNL A   1      40.073  21.694  26.268  1.00  0.00    -0.376 OA
BRANCH  29  30
ATOM     30  C   UNL A   1      40.783  20.651  26.927  1.00  0.00     0.202 C 
BRANCH  30  31
ATOM     31  C   UNL A   1      41.509  19.589  26.079  1.00  0.00     0.261 C 
BRANCH  31  32
ATOM     32  O   UNL A   1      42.941  19.517  26.202  1.00  0.00    -0.460 OA
BRANCH  32  33
ATOM     33  C   UNL A   1      43.714  19.909  25.166  1.00  0.00     0.338 C 
ATOM     34  O   UNL A   1      43.875  19.329  24.109  1.00  0.00    -0.246 OA
BRANCH  33  35
ATOM     35  C   UNL A   1      44.144  21.301  25.451  1.00  0.00     0.060 A 
ATOM     36  C   UNL A   1      44.391  21.679  26.779  1.00  0.00     0.016 A 
ATOM     37  C   UNL A   1      44.391  22.200  24.408  1.00  0.00     0.016 A 
ATOM     38  C   UNL A   1      44.866  22.961  27.067  1.00  0.00     0.010 A 
ATOM     39  C   UNL A   1      44.834  23.492  24.699  1.00  0.00     0.010 A 
ATOM     40  C   UNL A   1      45.047  23.888  26.031  1.00  0.00    -0.014 A 
BRANCH  40  41
ATOM     41  C   UNL A   1      45.204  25.328  26.346  1.00  0.00     0.031 A 
ATOM     42  C   UNL A   1      46.586  25.914  26.230  1.00  0.00     0.074 A 
ATOM     43  C   UNL A   1      44.170  26.097  26.732  1.00  0.00     0.049 A 
ATOM     44  N   UNL A   1      47.005  27.119  26.513  1.00  0.00    -0.248 NA
ATOM     45  C   UNL A   1      47.636  25.010  25.729  1.00  0.00     0.031 C 
ATOM     46  C   UNL A   1      42.781  25.657  26.849  1.00  0.00     0.029 A 
ATOM     47  N   UNL A   1      44.139  27.417  27.116  1.00  0.00    -0.354 N 
ATOM     48  C   UNL A   1      48.365  27.117  26.227  1.00  0.00     0.074 A 
ATOM     49  C   UNL A   1      48.707  25.787  25.775  1.00  0.00     0.031 C 
ATOM     50  C   UNL A   1      42.035  26.686  27.294  1.00  0.00     0.029 A 
ATOM     51  C   UNL A   1      42.897  27.846  27.522  1.00  0.00     0.049 A 
ATOM     52  H   UNL A   1      44.931  28.000  27.099  1.00  0.00     0.167 HD
ATOM     53  C   UNL A   1      49.252  28.134  26.326  1.00  0.00     0.037 A 
ATOM     54  C   UNL A   1      42.513  29.030  28.043  1.00  0.00     0.037 A 
ATOM     55  C   UNL A   1      48.914  29.450  26.792  1.00  0.00     0.049 A 
ATOM     56  C   UNL A   1      43.536  30.127  28.224  1.00  0.00     0.074 A 
ATOM     57  C   UNL A   1      49.738  30.554  26.920  1.00  0.00     0.029 A 
ATOM     58  N   UNL A   1      47.653  29.837  27.221  1.00  0.00    -0.354 N 
ATOM     59  N   UNL A   1      44.812  30.124  27.920  1.00  0.00    -0.248 NA
ATOM     60  C   UNL A   1      43.066  31.386  28.821  1.00  0.00     0.031 C 
ATOM     61  C   UNL A   1      48.985  31.596  27.471  1.00  0.00     0.029 A 
ATOM     62  C   UNL A   1      47.681  31.156  27.640  1.00  0.00     0.049 A 
ATOM     63  H   UNL A   1      46.856  29.259  27.226  1.00  0.00     0.167 HD
ATOM     64  C   UNL A   1      45.291  31.384  28.265  1.00  0.00     0.074 A 
ATOM     65  C   UNL A   1      44.166  32.128  28.793  1.00  0.00     0.031 C 
ATOM     66  C   UNL A   1      46.547  31.884  28.153  1.00  0.00     0.037 A 
BRANCH  53  67
ATOM     67  C   UNL A   1      50.677  27.846  25.950  1.00  0.00     0.058 A 
ATOM     68  C   UNL A   1      51.107  27.880  24.614  1.00  0.00     0.135 A 
ATOM     69  C   UNL A   1      51.626  27.546  26.939  1.00  0.00     0.135 A 
ATOM     70  F   UNL A   1      50.233  28.135  23.628  1.00  0.00    -0.206 F 
ATOM     71  C   UNL A   1      52.426  27.603  24.270  1.00  0.00     0.059 A 
ATOM     72  C   UNL A   1      52.956  27.293  26.621  1.00  0.00     0.059 A 
ATOM     73  F   UNL A   1      51.264  27.491  28.230  1.00  0.00    -0.206 F 
ATOM     74  C   UNL A   1      53.343  27.311  25.281  1.00  0.00     0.060 A 
BRANCH  74  75
ATOM     75  S   UNL A   1      55.052  26.961  24.818  1.00  0.00     0.124 S 
ATOM     76  O   UNL A   1      55.718  28.199  25.209  1.00  0.00    -0.237 OA
ATOM     77  O   UNL A   1      55.362  25.790  25.633  1.00  0.00    -0.237 OA
ATOM     78  O   UNL A   1      54.972  26.717  23.382  1.00  0.00    -0.744 OA
ENDBRANCH  74  75
ENDBRANCH  53  67
BRANCH  54  79
ATOM     79  C   UNL A   1      41.099  29.243  28.458  1.00  0.00     0.058 A 
ATOM     80  C   UNL A   1      40.070  29.337  27.508  1.00  0.00     0.135 A 
ATOM     81  C   UNL A   1      40.751  29.373  29.811  1.00  0.00     0.135 A 
ATOM     82  F   UNL A   1      40.353  29.235  26.201  1.00  0.00    -0.206 F 
ATOM     83  C   UNL A   1      38.748  29.563  27.883  1.00  0.00     0.059 A 
ATOM     84  C   UNL A   1      39.433  29.576  30.213  1.00  0.00     0.059 A 
ATOM     85  F   UNL A   1      41.694  29.287  30.760  1.00  0.00    -0.206 F 
ATOM     86  C   UNL A   1      38.440  29.678  29.240  1.00  0.00     0.060 A 
BRANCH  86  87
ATOM     87  S   UNL A   1      36.715  29.921  29.720  1.00  0.00     0.124 S 
ATOM     88  O   UNL A   1      36.609  29.054  30.888  1.00  0.00    -0.237 OA
ATOM     89  O   UNL A   1      36.670  31.356  29.983  1.00  0.00    -0.237 OA
ATOM     90  O   UNL A   1      35.976  29.485  28.539  1.00  0.00    -0.744 OA
ENDBRANCH  86  87
ENDBRANCH  54  79
BRANCH  66  91
ATOM     91  C   UNL A   1      46.778  33.308  28.577  1.00  0.00     0.058 A 
ATOM     92  C   UNL A   1      47.216  33.631  29.870  1.00  0.00     0.135 A 
ATOM     93  C   UNL A   1      46.639  34.355  27.650  1.00  0.00     0.135 A 
ATOM     94  F   UNL A   1      47.360  32.669  30.795  1.00  0.00    -0.206 F 
ATOM     95  C   UNL A   1      47.497  34.944  30.234  1.00  0.00     0.059 A 
ATOM     96  C   UNL A   1      46.939  35.672  27.986  1.00  0.00     0.059 A 
ATOM     97  F   UNL A   1      46.235  34.098  26.395  1.00  0.00    -0.206 F 
ATOM     98  C   UNL A   1      47.360  35.957  29.283  1.00  0.00     0.060 A 
BRANCH  98  99
ATOM     99  S   UNL A   1      47.779  37.650  29.753  1.00  0.00     0.124 S 
ATOM    100  O   UNL A   1      47.416  37.661  31.167  1.00  0.00    -0.237 OA
ATOM    101  O   UNL A   1      49.209  37.709  29.465  1.00  0.00    -0.237 OA
ATOM    102  O   UNL A   1      46.936  38.463  28.882  1.00  0.00    -0.744 OA
ENDBRANCH  98  99
ENDBRANCH  66  91
ENDBRANCH  40  41
ENDBRANCH  33  35
ENDBRANCH  32  33
ENDBRANCH  31  32
ENDBRANCH  30  31
ENDBRANCH  29  30
ENDBRANCH  28  29
ENDBRANCH  27  28
ENDBRANCH   1  27
TORSDOF 27
ENDMDL
