MODEL 1
REMARK VINA RESULT:      -8.7      0.000      0.000
REMARK SMILES CC1(C)[C@H](O)CC[C@]2(C)[C@@H]1CC[C@@]1(C)Oc3oc(C(=O)OCCOCCOCCOCCOC(=O)c4ccc(-c5c6nc(c(-c7c(F)cc(S(=O)(=O)[O-])cc7F)c7ccc([nH]7)c(-c7c(F)cc(S(=O)(=O)[O-])cc7F)c7nc(c(-c8c(F)cc(S(=O)(=O)[O-])cc8F)c8ccc5[nH]8)C=C7)C=C6)cc4)cc(=O)c3C[C@H]21
REMARK SMILES IDX 28 1 27 2 26 3 25 4 24 5 23 6 22 7 21 8 19 9 20 10 18 11
REMARK SMILES IDX 1 12 2 13 3 14 4 15 10 16 6 17 8 18 11 19 7 20 9 21 107 22
REMARK SMILES IDX 12 23 13 24 106 25 14 26 15 27 105 28 16 29 103 30 17 31
REMARK SMILES IDX 102 32 104 33 5 34 29 36 30 37 31 38 32 39 33 40 34 41 35 42
REMARK SMILES IDX 36 43 37 44 101 45 38 46 100 47 39 48 40 49 41 50 94 51
REMARK SMILES IDX 42 52 99 53 93 54 95 55 43 56 98 57 92 58 91 59 44 61 78 62
REMARK SMILES IDX 57 63 77 64 58 65 61 66 76 67 96 68 59 69 60 70 75 72 97 73
REMARK SMILES IDX 62 74 45 75 46 76 55 77 47 78 48 79 54 80 56 81 49 82 50 83
REMARK SMILES IDX 51 84 52 85 53 86 79 87 80 88 89 89 81 90 82 91 88 92 90 93
REMARK SMILES IDX 83 94 84 95 85 96 86 97 87 98 63 99 64 100 73 101 65 102
REMARK SMILES IDX 66 103 72 104 74 105 67 106 68 107 69 108 70 109 71 110
REMARK H PARENT 5 35 95 60 61 71
REMARK Flexibility Score: inf
ROOT
ATOM      1  C   UNL A   1      36.092  34.310  34.267  1.00  0.00     0.188 C 
ENDROOT
BRANCH   1   2
ATOM      2  O   UNL A   1      36.068  33.656  35.538  1.00  0.00    -0.377 OA
BRANCH   2   3
ATOM      3  C   UNL A   1      37.343  33.371  36.093  1.00  0.00     0.188 C 
BRANCH   3   4
ATOM      4  C   UNL A   1      38.400  34.409  35.665  1.00  0.00     0.188 C 
BRANCH   4   5
ATOM      5  O   UNL A   1      39.474  34.527  36.589  1.00  0.00    -0.376 OA
BRANCH   5   6
ATOM      6  C   UNL A   1      40.073  33.376  37.165  1.00  0.00     0.202 C 
BRANCH   6   7
ATOM      7  C   UNL A   1      41.034  32.472  36.390  1.00  0.00     0.261 C 
BRANCH   7   8
ATOM      8  O   UNL A   1      40.915  31.073  36.632  1.00  0.00    -0.457 OA
BRANCH   8   9
ATOM      9  C   UNL A   1      40.424  30.166  35.739  1.00  0.00     0.374 C 
ATOM     10  O   UNL A   1      39.335  30.151  35.240  1.00  0.00    -0.242 OA
BRANCH   9  11
ATOM     11  C   UNL A   1      41.616  29.312  35.379  1.00  0.00     0.219 A 
ATOM     12  C   UNL A   1      47.617  21.973  34.769  1.00  0.00     0.014 C 
ATOM     13  C   UNL A   1      46.133  22.408  34.956  1.00  0.00    -0.006 C 
ATOM     14  C   UNL A   1      45.313  21.097  34.982  1.00  0.00     0.014 C 
ATOM     15  C   UNL A   1      46.119  22.986  36.524  1.00  0.00     0.120 C 
ATOM     16  C   UNL A   1      45.730  23.613  33.747  1.00  0.00     0.004 C 
ATOM     17  C   UNL A   1      46.643  24.403  36.685  1.00  0.00     0.033 C 
ATOM     18  C   UNL A   1      45.225  24.771  34.591  1.00  0.00    -0.022 C 
ATOM     19  C   UNL A   1      44.871  23.536  32.441  1.00  0.00     0.009 C 
ATOM     20  C   UNL A   1      46.545  25.089  35.375  1.00  0.00     0.010 C 
ATOM     21  C   UNL A   1      43.850  24.145  35.131  1.00  0.00     0.012 C 
ATOM     22  C   UNL A   1      44.671  26.081  34.063  1.00  0.00     0.044 C 
ATOM     23  C   UNL A   1      44.031  24.858  31.983  1.00  0.00     0.049 C 
ATOM     24  C   UNL A   1      44.326  26.283  32.619  1.00  0.00     0.113 C 
ATOM     25  C   UNL A   1      45.167  27.349  34.717  1.00  0.00     0.055 C 
ATOM     26  C   UNL A   1      45.413  26.997  31.800  1.00  0.00     0.057 C 
ATOM     27  O   UNL A   1      43.122  27.217  32.661  1.00  0.00    -0.458 OA
ATOM     28  C   UNL A   1      44.042  28.289  34.649  1.00  0.00     0.081 A 
ATOM     29  C   UNL A   1      43.030  28.155  33.770  1.00  0.00     0.292 A 
ATOM     30  C   UNL A   1      43.919  29.031  35.909  1.00  0.00     0.192 A 
ATOM     31  O   UNL A   1      41.791  28.787  34.074  1.00  0.00    -0.418 OA
ATOM     32  C   UNL A   1      42.575  29.355  36.316  1.00  0.00     0.107 A 
ATOM     33  O   UNL A   1      44.876  29.291  36.626  1.00  0.00    -0.289 OA
BRANCH  15  34
ATOM     34  O   UNL A   1      44.841  22.879  37.167  1.00  0.00    -0.393 OA
ATOM     35  H   UNL A   1      44.209  23.469  36.730  1.00  0.00     0.210 HD
ENDBRANCH  15  34
ENDBRANCH   9  11
ENDBRANCH   8   9
ENDBRANCH   7   8
ENDBRANCH   6   7
ENDBRANCH   5   6
ENDBRANCH   4   5
ENDBRANCH   3   4
ENDBRANCH   2   3
ENDBRANCH   1   2
BRANCH   1  36
ATOM     36  C   UNL A   1      34.855  35.132  33.837  1.00  0.00     0.188 C 
BRANCH  36  37
ATOM     37  O   UNL A   1      34.201  34.602  32.683  1.00  0.00    -0.376 OA
BRANCH  37  38
ATOM     38  C   UNL A   1      34.342  33.214  32.428  1.00  0.00     0.202 C 
BRANCH  38  39
ATOM     39  C   UNL A   1      34.612  32.860  30.962  1.00  0.00     0.261 C 
BRANCH  39  40
ATOM     40  O   UNL A   1      35.422  31.695  30.749  1.00  0.00    -0.460 OA
BRANCH  40  41
ATOM     41  C   UNL A   1      35.471  31.195  29.494  1.00  0.00     0.338 C 
ATOM     42  O   UNL A   1      34.689  31.398  28.585  1.00  0.00    -0.246 OA
BRANCH  41  43
ATOM     43  C   UNL A   1      36.758  30.491  29.364  1.00  0.00     0.060 A 
ATOM     44  C   UNL A   1      37.429  30.066  30.517  1.00  0.00     0.016 A 
ATOM     45  C   UNL A   1      37.290  30.248  28.096  1.00  0.00     0.016 A 
ATOM     46  C   UNL A   1      38.652  29.409  30.402  1.00  0.00     0.010 A 
ATOM     47  C   UNL A   1      38.530  29.621  27.983  1.00  0.00     0.010 A 
ATOM     48  C   UNL A   1      39.228  29.229  29.138  1.00  0.00    -0.014 A 
BRANCH  48  49
ATOM     49  C   UNL A   1      40.656  28.856  29.035  1.00  0.00     0.031 A 
ATOM     50  C   UNL A   1      41.676  29.912  29.359  1.00  0.00     0.074 A 
ATOM     51  C   UNL A   1      41.037  27.618  28.678  1.00  0.00     0.049 A 
ATOM     52  N   UNL A   1      42.979  29.839  29.338  1.00  0.00    -0.248 NA
ATOM     53  C   UNL A   1      41.151  31.228  29.765  1.00  0.00     0.031 C 
ATOM     54  C   UNL A   1      40.136  26.508  28.378  1.00  0.00     0.029 A 
ATOM     55  N   UNL A   1      42.293  27.093  28.505  1.00  0.00    -0.354 N 
ATOM     56  C   UNL A   1      43.430  31.088  29.747  1.00  0.00     0.074 A 
ATOM     57  C   UNL A   1      42.265  31.914  29.968  1.00  0.00     0.031 C 
ATOM     58  C   UNL A   1      40.872  25.429  28.051  1.00  0.00     0.029 A 
ATOM     59  C   UNL A   1      42.290  25.781  28.095  1.00  0.00     0.049 A 
ATOM     60  H   UNL A   1      43.118  27.607  28.660  1.00  0.00     0.167 HD
ATOM     61  C   UNL A   1      44.703  31.505  29.936  1.00  0.00     0.037 A 
ATOM     62  C   UNL A   1      43.320  24.968  27.782  1.00  0.00     0.037 A 
ATOM     63  C   UNL A   1      45.857  30.688  29.685  1.00  0.00     0.049 A 
ATOM     64  C   UNL A   1      44.731  25.489  27.894  1.00  0.00     0.074 A 
ATOM     65  C   UNL A   1      47.192  31.018  29.837  1.00  0.00     0.029 A 
ATOM     66  N   UNL A   1      45.816  29.383  29.215  1.00  0.00    -0.354 N 
ATOM     67  N   UNL A   1      45.147  26.663  28.310  1.00  0.00    -0.248 NA
ATOM     68  C   UNL A   1      45.815  24.579  27.492  1.00  0.00     0.031 C 
ATOM     69  C   UNL A   1      47.959  29.930  29.412  1.00  0.00     0.029 A 
ATOM     70  C   UNL A   1      47.103  28.903  29.043  1.00  0.00     0.049 A 
ATOM     71  H   UNL A   1      44.994  28.876  29.030  1.00  0.00     0.167 HD
ATOM     72  C   UNL A   1      46.537  26.623  28.244  1.00  0.00     0.074 A 
ATOM     73  C   UNL A   1      46.892  25.306  27.754  1.00  0.00     0.031 C 
ATOM     74  C   UNL A   1      47.437  27.586  28.560  1.00  0.00     0.037 A 
BRANCH  61  75
ATOM     75  C   UNL A   1      44.906  32.909  30.425  1.00  0.00     0.058 A 
ATOM     76  C   UNL A   1      45.024  33.195  31.794  1.00  0.00     0.135 A 
ATOM     77  C   UNL A   1      45.015  33.975  29.519  1.00  0.00     0.135 A 
ATOM     78  F   UNL A   1      44.901  32.215  32.704  1.00  0.00    -0.206 F 
ATOM     79  C   UNL A   1      45.228  34.493  32.249  1.00  0.00     0.059 A 
ATOM     80  C   UNL A   1      45.244  35.278  29.951  1.00  0.00     0.059 A 
ATOM     81  F   UNL A   1      44.898  33.755  28.200  1.00  0.00    -0.206 F 
ATOM     82  C   UNL A   1      45.340  35.527  31.319  1.00  0.00     0.060 A 
BRANCH  82  83
ATOM     83  S   UNL A   1      45.619  37.203  31.929  1.00  0.00     0.124 S 
ATOM     84  O   UNL A   1      46.340  37.805  30.811  1.00  0.00    -0.237 OA
ATOM     85  O   UNL A   1      44.257  37.686  32.140  1.00  0.00    -0.237 OA
ATOM     86  O   UNL A   1      46.403  36.998  33.143  1.00  0.00    -0.744 OA
ENDBRANCH  82  83
ENDBRANCH  61  75
BRANCH  62  87
ATOM     87  C   UNL A   1      43.058  23.572  27.339  1.00  0.00     0.058 A 
ATOM     88  C   UNL A   1      42.844  22.548  28.273  1.00  0.00     0.135 A 
ATOM     89  C   UNL A   1      43.005  23.235  25.978  1.00  0.00     0.135 A 
ATOM     90  F   UNL A   1      42.900  22.816  29.587  1.00  0.00    -0.206 F 
ATOM     91  C   UNL A   1      42.592  21.238  27.875  1.00  0.00     0.059 A 
ATOM     92  C   UNL A   1      42.732  21.937  25.554  1.00  0.00     0.059 A 
ATOM     93  F   UNL A   1      43.200  24.177  25.043  1.00  0.00    -0.206 F 
ATOM     94  C   UNL A   1      42.531  20.944  26.512  1.00  0.00     0.060 A 
BRANCH  94  95
ATOM     95  S   UNL A   1      42.144  19.252  26.012  1.00  0.00     0.124 S 
ATOM     96  O   UNL A   1      42.948  19.110  24.804  1.00  0.00    -0.237 OA
ATOM     97  O   UNL A   1      42.590  18.484  27.170  1.00  0.00    -0.237 OA
ATOM     98  O   UNL A   1      40.699  19.283  25.809  1.00  0.00    -0.744 OA
ENDBRANCH  94  95
ENDBRANCH  62  87
BRANCH  74  99
ATOM     99  C   UNL A   1      48.899  27.266  28.410  1.00  0.00     0.058 A 
ATOM    100  C   UNL A   1      49.627  27.677  27.283  1.00  0.00     0.135 A 
ATOM    101  C   UNL A   1      49.602  26.643  29.454  1.00  0.00     0.135 A 
ATOM    102  F   UNL A   1      49.001  28.273  26.255  1.00  0.00    -0.206 F 
ATOM    103  C   UNL A   1      51.001  27.479  27.196  1.00  0.00     0.059 A 
ATOM    104  C   UNL A   1      50.980  26.459  29.399  1.00  0.00     0.059 A 
ATOM    105  F   UNL A   1      48.954  26.241  30.559  1.00  0.00    -0.206 F 
ATOM    106  C   UNL A   1      51.670  26.880  28.264  1.00  0.00     0.060 A 
BRANCH 106 107
ATOM    107  S   UNL A   1      53.464  26.697  28.164  1.00  0.00     0.124 S 
ATOM    108  O   UNL A   1      53.812  26.426  29.554  1.00  0.00    -0.237 OA
ATOM    109  O   UNL A   1      53.610  25.573  27.244  1.00  0.00    -0.237 OA
ATOM    110  O   UNL A   1      53.911  27.986  27.644  1.00  0.00    -0.744 OA
ENDBRANCH 106 107
ENDBRANCH  74  99
ENDBRANCH  48  49
ENDBRANCH  41  43
ENDBRANCH  40  41
ENDBRANCH  39  40
ENDBRANCH  38  39
ENDBRANCH  37  38
ENDBRANCH  36  37
ENDBRANCH   1  36
TORSDOF 24
ENDMDL
MODEL 2
REMARK VINA RESULT:      -8.4      1.063      2.077
REMARK SMILES CC1(C)[C@H](O)CC[C@]2(C)[C@@H]1CC[C@@]1(C)Oc3oc(C(=O)OCCOCCOCCOCCOC(=O)c4ccc(-c5c6nc(c(-c7c(F)cc(S(=O)(=O)[O-])cc7F)c7ccc([nH]7)c(-c7c(F)cc(S(=O)(=O)[O-])cc7F)c7nc(c(-c8c(F)cc(S(=O)(=O)[O-])cc8F)c8ccc5[nH]8)C=C7)C=C6)cc4)cc(=O)c3C[C@H]21
REMARK SMILES IDX 28 1 27 2 26 3 25 4 24 5 23 6 22 7 21 8 19 9 20 10 18 11
REMARK SMILES IDX 1 12 2 13 3 14 4 15 10 16 6 17 8 18 11 19 7 20 9 21 107 22
REMARK SMILES IDX 12 23 13 24 106 25 14 26 15 27 105 28 16 29 103 30 17 31
REMARK SMILES IDX 102 32 104 33 5 34 29 36 30 37 31 38 32 39 33 40 34 41 35 42
REMARK SMILES IDX 36 43 37 44 101 45 38 46 100 47 39 48 40 49 41 50 94 51
REMARK SMILES IDX 42 52 99 53 93 54 95 55 43 56 98 57 92 58 91 59 44 61 78 62
REMARK SMILES IDX 57 63 77 64 58 65 61 66 76 67 96 68 59 69 60 70 75 72 97 73
REMARK SMILES IDX 62 74 45 75 46 76 55 77 47 78 48 79 54 80 56 81 49 82 50 83
REMARK SMILES IDX 51 84 52 85 53 86 79 87 80 88 89 89 81 90 82 91 88 92 90 93
REMARK SMILES IDX 83 94 84 95 85 96 86 97 87 98 63 99 64 100 73 101 65 102
REMARK SMILES IDX 66 103 72 104 74 105 67 106 68 107 69 108 70 109 71 110
REMARK H PARENT 5 35 95 60 61 71
REMARK Flexibility Score: inf
ROOT
ATOM      1  C   UNL A   1      36.250  33.776  35.019  1.00  0.00     0.188 C 
ENDROOT
BRANCH   1   2
ATOM      2  O   UNL A   1      36.211  33.454  36.411  1.00  0.00    -0.377 OA
BRANCH   2   3
ATOM      3  C   UNL A   1      37.479  33.252  37.018  1.00  0.00     0.188 C 
BRANCH   3   4
ATOM      4  C   UNL A   1      38.513  34.295  36.548  1.00  0.00     0.188 C 
BRANCH   4   5
ATOM      5  O   UNL A   1      39.739  34.230  37.264  1.00  0.00    -0.376 OA
BRANCH   5   6
ATOM      6  C   UNL A   1      40.427  32.997  37.425  1.00  0.00     0.202 C 
BRANCH   6   7
ATOM      7  C   UNL A   1      40.933  32.176  36.237  1.00  0.00     0.261 C 
BRANCH   7   8
ATOM      8  O   UNL A   1      40.873  30.760  36.381  1.00  0.00    -0.457 OA
BRANCH   8   9
ATOM      9  C   UNL A   1      40.161  29.924  35.571  1.00  0.00     0.374 C 
ATOM     10  O   UNL A   1      39.053  30.089  35.147  1.00  0.00    -0.242 OA
BRANCH   9  11
ATOM     11  C   UNL A   1      41.150  28.852  35.178  1.00  0.00     0.219 A 
ATOM     12  C   UNL A   1      49.225  23.973  34.077  1.00  0.00     0.014 C 
ATOM     13  C   UNL A   1      48.450  24.992  34.964  1.00  0.00    -0.006 C 
ATOM     14  C   UNL A   1      49.352  25.247  36.193  1.00  0.00     0.014 C 
ATOM     15  C   UNL A   1      48.517  26.391  34.051  1.00  0.00     0.120 C 
ATOM     16  C   UNL A   1      46.824  24.395  35.238  1.00  0.00     0.004 C 
ATOM     17  C   UNL A   1      47.499  26.467  32.927  1.00  0.00     0.033 C 
ATOM     18  C   UNL A   1      45.963  25.548  34.751  1.00  0.00    -0.022 C 
ATOM     19  C   UNL A   1      46.142  23.761  36.495  1.00  0.00     0.009 C 
ATOM     20  C   UNL A   1      46.385  25.540  33.241  1.00  0.00     0.010 C 
ATOM     21  C   UNL A   1      46.281  26.634  35.888  1.00  0.00     0.012 C 
ATOM     22  C   UNL A   1      44.448  25.614  34.809  1.00  0.00     0.044 C 
ATOM     23  C   UNL A   1      44.554  24.039  36.744  1.00  0.00     0.049 C 
ATOM     24  C   UNL A   1      43.632  24.633  35.595  1.00  0.00     0.113 C 
ATOM     25  C   UNL A   1      43.733  26.090  33.566  1.00  0.00     0.055 C 
ATOM     26  C   UNL A   1      43.044  23.484  34.761  1.00  0.00     0.057 C 
ATOM     27  O   UNL A   1      42.454  25.460  36.095  1.00  0.00    -0.458 OA
ATOM     28  C   UNL A   1      42.534  26.784  34.048  1.00  0.00     0.081 A 
ATOM     29  C   UNL A   1      42.012  26.577  35.273  1.00  0.00     0.292 A 
ATOM     30  C   UNL A   1      42.310  28.013  33.277  1.00  0.00     0.192 A 
ATOM     31  O   UNL A   1      41.183  27.593  35.829  1.00  0.00    -0.418 OA
ATOM     32  C   UNL A   1      41.756  29.121  34.012  1.00  0.00     0.107 A 
ATOM     33  O   UNL A   1      42.644  28.134  32.106  1.00  0.00    -0.289 OA
BRANCH  15  34
ATOM     34  O   UNL A   1      48.449  27.593  34.832  1.00  0.00    -0.393 OA
ATOM     35  H   UNL A   1      47.557  27.689  35.199  1.00  0.00     0.210 HD
ENDBRANCH  15  34
ENDBRANCH   9  11
ENDBRANCH   8   9
ENDBRANCH   7   8
ENDBRANCH   6   7
ENDBRANCH   5   6
ENDBRANCH   4   5
ENDBRANCH   3   4
ENDBRANCH   2   3
ENDBRANCH   1   2
BRANCH   1  36
ATOM     36  C   UNL A   1      35.290  34.865  34.486  1.00  0.00     0.188 C 
BRANCH  36  37
ATOM     37  O   UNL A   1      34.570  34.460  33.322  1.00  0.00    -0.376 OA
BRANCH  37  38
ATOM     38  C   UNL A   1      34.533  33.074  33.022  1.00  0.00     0.202 C 
BRANCH  38  39
ATOM     39  C   UNL A   1      34.533  32.747  31.525  1.00  0.00     0.261 C 
BRANCH  39  40
ATOM     40  O   UNL A   1      35.422  31.694  31.125  1.00  0.00    -0.460 OA
BRANCH  40  41
ATOM     41  C   UNL A   1      35.570  31.478  29.798  1.00  0.00     0.338 C 
ATOM     42  O   UNL A   1      34.883  31.916  28.896  1.00  0.00    -0.246 OA
BRANCH  41  43
ATOM     43  C   UNL A   1      36.838  30.749  29.622  1.00  0.00     0.060 A 
ATOM     44  C   UNL A   1      37.584  30.384  30.750  1.00  0.00     0.016 A 
ATOM     45  C   UNL A   1      37.277  30.424  28.337  1.00  0.00     0.016 A 
ATOM     46  C   UNL A   1      38.790  29.704  30.589  1.00  0.00     0.010 A 
ATOM     47  C   UNL A   1      38.500  29.774  28.177  1.00  0.00     0.010 A 
ATOM     48  C   UNL A   1      39.273  29.442  29.302  1.00  0.00    -0.014 A 
BRANCH  48  49
ATOM     49  C   UNL A   1      40.687  29.043  29.123  1.00  0.00     0.031 A 
ATOM     50  C   UNL A   1      41.740  30.087  29.368  1.00  0.00     0.074 A 
ATOM     51  C   UNL A   1      41.027  27.794  28.765  1.00  0.00     0.049 A 
ATOM     52  N   UNL A   1      43.039  29.992  29.273  1.00  0.00    -0.248 NA
ATOM     53  C   UNL A   1      41.261  31.419  29.782  1.00  0.00     0.031 C 
ATOM     54  C   UNL A   1      40.093  26.694  28.537  1.00  0.00     0.029 A 
ATOM     55  N   UNL A   1      42.262  27.245  28.529  1.00  0.00    -0.354 N 
ATOM     56  C   UNL A   1      43.532  31.240  29.634  1.00  0.00     0.074 A 
ATOM     57  C   UNL A   1      42.395  32.089  29.908  1.00  0.00     0.031 C 
ATOM     58  C   UNL A   1      40.791  25.598  28.187  1.00  0.00     0.029 A 
ATOM     59  C   UNL A   1      42.215  25.926  28.142  1.00  0.00     0.049 A 
ATOM     60  H   UNL A   1      43.103  27.748  28.627  1.00  0.00     0.167 HD
ATOM     61  C   UNL A   1      44.820  31.638  29.742  1.00  0.00     0.037 A 
ATOM     62  C   UNL A   1      43.212  25.092  27.783  1.00  0.00     0.037 A 
ATOM     63  C   UNL A   1      45.945  30.798  29.439  1.00  0.00     0.049 A 
ATOM     64  C   UNL A   1      44.635  25.591  27.804  1.00  0.00     0.074 A 
ATOM     65  C   UNL A   1      47.292  31.109  29.508  1.00  0.00     0.029 A 
ATOM     66  N   UNL A   1      45.856  29.487  28.993  1.00  0.00    -0.354 N 
ATOM     67  N   UNL A   1      45.093  26.764  28.175  1.00  0.00    -0.248 NA
ATOM     68  C   UNL A   1      45.679  24.656  27.356  1.00  0.00     0.031 C 
ATOM     69  C   UNL A   1      48.015  30.001  29.057  1.00  0.00     0.029 A 
ATOM     70  C   UNL A   1      47.123  28.983  28.756  1.00  0.00     0.049 A 
ATOM     71  H   UNL A   1      45.017  28.991  28.865  1.00  0.00     0.167 HD
ATOM     72  C   UNL A   1      46.476  26.700  28.030  1.00  0.00     0.074 A 
ATOM     73  C   UNL A   1      46.781  25.369  27.543  1.00  0.00     0.031 C 
ATOM     74  C   UNL A   1      47.408  27.653  28.277  1.00  0.00     0.037 A 
BRANCH  61  75
ATOM     75  C   UNL A   1      45.074  33.047  30.194  1.00  0.00     0.058 A 
ATOM     76  C   UNL A   1      45.148  34.107  29.276  1.00  0.00     0.135 A 
ATOM     77  C   UNL A   1      45.215  33.347  31.557  1.00  0.00     0.135 A 
ATOM     78  F   UNL A   1      45.045  33.869  27.958  1.00  0.00    -0.206 F 
ATOM     79  C   UNL A   1      45.367  35.414  29.694  1.00  0.00     0.059 A 
ATOM     80  C   UNL A   1      45.410  34.652  32.000  1.00  0.00     0.059 A 
ATOM     81  F   UNL A   1      45.164  32.368  32.474  1.00  0.00    -0.206 F 
ATOM     82  C   UNL A   1      45.494  35.677  31.059  1.00  0.00     0.060 A 
BRANCH  82  83
ATOM     83  S   UNL A   1      45.764  37.383  31.582  1.00  0.00     0.124 S 
ATOM     84  O   UNL A   1      46.503  37.194  32.827  1.00  0.00    -0.237 OA
ATOM     85  O   UNL A   1      46.530  37.931  30.467  1.00  0.00    -0.237 OA
ATOM     86  O   UNL A   1      44.412  37.913  31.730  1.00  0.00    -0.744 OA
ENDBRANCH  82  83
ENDBRANCH  61  75
BRANCH  62  87
ATOM     87  C   UNL A   1      42.902  23.694  27.381  1.00  0.00     0.058 A 
ATOM     88  C   UNL A   1      42.828  22.668  28.335  1.00  0.00     0.135 A 
ATOM     89  C   UNL A   1      42.665  23.355  26.039  1.00  0.00     0.135 A 
ATOM     90  F   UNL A   1      43.062  22.938  29.628  1.00  0.00    -0.206 F 
ATOM     91  C   UNL A   1      42.534  21.356  27.975  1.00  0.00     0.059 A 
ATOM     92  C   UNL A   1      42.347  22.055  25.657  1.00  0.00     0.059 A 
ATOM     93  F   UNL A   1      42.722  24.298  25.087  1.00  0.00    -0.206 F 
ATOM     94  C   UNL A   1      42.288  21.061  26.633  1.00  0.00     0.060 A 
BRANCH  94  95
ATOM     95  S   UNL A   1      41.849  19.365  26.190  1.00  0.00     0.124 S 
ATOM     96  O   UNL A   1      42.239  18.636  27.392  1.00  0.00    -0.237 OA
ATOM     97  O   UNL A   1      40.414  19.476  25.949  1.00  0.00    -0.237 OA
ATOM     98  O   UNL A   1      42.659  19.107  25.004  1.00  0.00    -0.744 OA
ENDBRANCH  94  95
ENDBRANCH  62  87
BRANCH  74  99
ATOM     99  C   UNL A   1      48.853  27.306  28.048  1.00  0.00     0.058 A 
ATOM    100  C   UNL A   1      49.505  27.639  26.851  1.00  0.00     0.135 A 
ATOM    101  C   UNL A   1      49.621  26.739  29.078  1.00  0.00     0.135 A 
ATOM    102  F   UNL A   1      48.816  28.178  25.833  1.00  0.00    -0.206 F 
ATOM    103  C   UNL A   1      50.869  27.419  26.682  1.00  0.00     0.059 A 
ATOM    104  C   UNL A   1      50.991  26.535  28.941  1.00  0.00     0.059 A 
ATOM    105  F   UNL A   1      49.047  26.413  30.248  1.00  0.00    -0.206 F 
ATOM    106  C   UNL A   1      51.605  26.877  27.738  1.00  0.00     0.060 A 
BRANCH 106 107
ATOM    107  S   UNL A   1      53.386  26.667  27.527  1.00  0.00     0.124 S 
ATOM    108  O   UNL A   1      53.443  25.570  26.567  1.00  0.00    -0.237 OA
ATOM    109  O   UNL A   1      53.794  27.974  27.021  1.00  0.00    -0.237 OA
ATOM    110  O   UNL A   1      53.854  26.348  28.872  1.00  0.00    -0.744 OA
ENDBRANCH 106 107
ENDBRANCH  74  99
ENDBRANCH  48  49
ENDBRANCH  41  43
ENDBRANCH  40  41
ENDBRANCH  39  40
ENDBRANCH  38  39
ENDBRANCH  37  38
ENDBRANCH  36  37
ENDBRANCH   1  36
TORSDOF 24
ENDMDL
MODEL 3
REMARK VINA RESULT:      -8.1      8.093     15.317
REMARK SMILES CC1(C)[C@H](O)CC[C@]2(C)[C@@H]1CC[C@@]1(C)Oc3oc(C(=O)OCCOCCOCCOCCOC(=O)c4ccc(-c5c6nc(c(-c7c(F)cc(S(=O)(=O)[O-])cc7F)c7ccc([nH]7)c(-c7c(F)cc(S(=O)(=O)[O-])cc7F)c7nc(c(-c8c(F)cc(S(=O)(=O)[O-])cc8F)c8ccc5[nH]8)C=C7)C=C6)cc4)cc(=O)c3C[C@H]21
REMARK SMILES IDX 28 1 27 2 26 3 25 4 24 5 23 6 22 7 21 8 19 9 20 10 18 11
REMARK SMILES IDX 1 12 2 13 3 14 4 15 10 16 6 17 8 18 11 19 7 20 9 21 107 22
REMARK SMILES IDX 12 23 13 24 106 25 14 26 15 27 105 28 16 29 103 30 17 31
REMARK SMILES IDX 102 32 104 33 5 34 29 36 30 37 31 38 32 39 33 40 34 41 35 42
REMARK SMILES IDX 36 43 37 44 101 45 38 46 100 47 39 48 40 49 41 50 94 51
REMARK SMILES IDX 42 52 99 53 93 54 95 55 43 56 98 57 92 58 91 59 44 61 78 62
REMARK SMILES IDX 57 63 77 64 58 65 61 66 76 67 96 68 59 69 60 70 75 72 97 73
REMARK SMILES IDX 62 74 45 75 46 76 55 77 47 78 48 79 54 80 56 81 49 82 50 83
REMARK SMILES IDX 51 84 52 85 53 86 79 87 80 88 89 89 81 90 82 91 88 92 90 93
REMARK SMILES IDX 83 94 84 95 85 96 86 97 87 98 63 99 64 100 73 101 65 102
REMARK SMILES IDX 66 103 72 104 74 105 67 106 68 107 69 108 70 109 71 110
REMARK H PARENT 5 35 95 60 61 71
REMARK Flexibility Score: inf
ROOT
ATOM      1  C   UNL A   1      46.643  42.566  28.657  1.00  0.00     0.188 C 
ENDROOT
BRANCH   1   2
ATOM      2  O   UNL A   1      46.943  41.778  27.503  1.00  0.00    -0.377 OA
BRANCH   2   3
ATOM      3  C   UNL A   1      46.802  42.452  26.261  1.00  0.00     0.188 C 
BRANCH   3   4
ATOM      4  C   UNL A   1      45.793  43.614  26.350  1.00  0.00     0.188 C 
BRANCH   4   5
ATOM      5  O   UNL A   1      44.445  43.201  26.172  1.00  0.00    -0.376 OA
BRANCH   5   6
ATOM      6  C   UNL A   1      44.132  42.028  25.433  1.00  0.00     0.202 C 
BRANCH   6   7
ATOM      7  C   UNL A   1      42.709  41.697  24.978  1.00  0.00     0.261 C 
BRANCH   7   8
ATOM      8  O   UNL A   1      42.493  41.655  23.571  1.00  0.00    -0.457 OA
BRANCH   8   9
ATOM      9  C   UNL A   1      41.685  42.510  22.881  1.00  0.00     0.374 C 
ATOM     10  O   UNL A   1      40.551  42.803  23.132  1.00  0.00    -0.242 OA
BRANCH   9  11
ATOM     11  C   UNL A   1      42.596  43.143  21.855  1.00  0.00     0.219 A 
ATOM     12  C   UNL A   1      46.825  49.543  16.253  1.00  0.00     0.014 C 
ATOM     13  C   UNL A   1      46.085  49.306  17.604  1.00  0.00    -0.006 C 
ATOM     14  C   UNL A   1      46.130  50.660  18.348  1.00  0.00     0.014 C 
ATOM     15  C   UNL A   1      44.499  49.104  17.118  1.00  0.00     0.120 C 
ATOM     16  C   UNL A   1      46.774  47.901  18.397  1.00  0.00     0.004 C 
ATOM     17  C   UNL A   1      44.165  47.717  16.595  1.00  0.00     0.033 C 
ATOM     18  C   UNL A   1      45.557  47.020  18.620  1.00  0.00    -0.022 C 
ATOM     19  C   UNL A   1      47.725  47.760  19.631  1.00  0.00     0.009 C 
ATOM     20  C   UNL A   1      45.169  46.764  17.123  1.00  0.00     0.010 C 
ATOM     21  C   UNL A   1      44.789  47.880  19.735  1.00  0.00     0.012 C 
ATOM     22  C   UNL A   1      45.547  45.682  19.337  1.00  0.00     0.044 C 
ATOM     23  C   UNL A   1      47.560  46.455  20.597  1.00  0.00     0.049 C 
ATOM     24  C   UNL A   1      46.717  45.191  20.135  1.00  0.00     0.113 C 
ATOM     25  C   UNL A   1      44.789  44.555  18.678  1.00  0.00     0.055 C 
ATOM     26  C   UNL A   1      47.630  44.209  19.385  1.00  0.00     0.057 C 
ATOM     27  O   UNL A   1      46.075  44.410  21.277  1.00  0.00    -0.458 OA
ATOM     28  C   UNL A   1      44.271  43.736  19.780  1.00  0.00     0.081 A 
ATOM     29  C   UNL A   1      44.797  43.763  21.020  1.00  0.00     0.292 A 
ATOM     30  C   UNL A   1      42.892  43.316  19.501  1.00  0.00     0.192 A 
ATOM     31  O   UNL A   1      43.977  43.337  22.104  1.00  0.00    -0.418 OA
ATOM     32  C   UNL A   1      42.022  43.222  20.646  1.00  0.00     0.107 A 
ATOM     33  O   UNL A   1      42.467  43.135  18.367  1.00  0.00    -0.289 OA
BRANCH  15  34
ATOM     34  O   UNL A   1      43.538  49.476  18.116  1.00  0.00    -0.393 OA
ATOM     35  H   UNL A   1      43.934  50.123  18.720  1.00  0.00     0.210 HD
ENDBRANCH  15  34
ENDBRANCH   9  11
ENDBRANCH   8   9
ENDBRANCH   7   8
ENDBRANCH   6   7
ENDBRANCH   5   6
ENDBRANCH   4   5
ENDBRANCH   3   4
ENDBRANCH   2   3
ENDBRANCH   1   2
BRANCH   1  36
ATOM     36  C   UNL A   1      45.716  41.966  29.739  1.00  0.00     0.188 C 
BRANCH  36  37
ATOM     37  O   UNL A   1      44.729  41.081  29.207  1.00  0.00    -0.376 OA
BRANCH  37  38
ATOM     38  C   UNL A   1      43.894  40.399  30.129  1.00  0.00     0.202 C 
BRANCH  38  39
ATOM     39  C   UNL A   1      44.310  38.951  30.413  1.00  0.00     0.261 C 
BRANCH  39  40
ATOM     40  O   UNL A   1      45.683  38.640  30.141  1.00  0.00    -0.460 OA
BRANCH  40  41
ATOM     41  C   UNL A   1      46.329  37.855  31.032  1.00  0.00     0.338 C 
ATOM     42  O   UNL A   1      46.830  38.191  32.088  1.00  0.00    -0.246 OA
BRANCH  41  43
ATOM     43  C   UNL A   1      46.161  36.464  30.577  1.00  0.00     0.060 A 
ATOM     44  C   UNL A   1      45.732  36.215  29.268  1.00  0.00     0.016 A 
ATOM     45  C   UNL A   1      46.439  35.411  31.452  1.00  0.00     0.016 A 
ATOM     46  C   UNL A   1      45.560  34.902  28.835  1.00  0.00     0.010 A 
ATOM     47  C   UNL A   1      46.235  34.099  31.028  1.00  0.00     0.010 A 
ATOM     48  C   UNL A   1      45.765  33.844  29.729  1.00  0.00    -0.014 A 
BRANCH  48  49
ATOM     49  C   UNL A   1      45.257  32.496  29.388  1.00  0.00     0.031 A 
ATOM     50  C   UNL A   1      43.809  32.206  29.671  1.00  0.00     0.074 A 
ATOM     51  C   UNL A   1      46.051  31.563  28.836  1.00  0.00     0.049 A 
ATOM     52  N   UNL A   1      43.130  31.109  29.472  1.00  0.00    -0.248 NA
ATOM     53  C   UNL A   1      43.021  33.307  30.253  1.00  0.00     0.031 C 
ATOM     54  C   UNL A   1      47.457  31.747  28.485  1.00  0.00     0.029 A 
ATOM     55  N   UNL A   1      45.777  30.267  28.476  1.00  0.00    -0.354 N 
ATOM     56  C   UNL A   1      41.834  31.392  29.884  1.00  0.00     0.074 A 
ATOM     57  C   UNL A   1      41.828  32.748  30.384  1.00  0.00     0.031 C 
ATOM     58  C   UNL A   1      47.927  30.598  27.964  1.00  0.00     0.029 A 
ATOM     59  C   UNL A   1      46.863  29.595  27.968  1.00  0.00     0.049 A 
ATOM     60  H   UNL A   1      44.887  29.858  28.573  1.00  0.00     0.167 HD
ATOM     61  C   UNL A   1      40.741  30.597  29.835  1.00  0.00     0.037 A 
ATOM     62  C   UNL A   1      46.978  28.313  27.564  1.00  0.00     0.037 A 
ATOM     63  C   UNL A   1      40.760  29.240  29.365  1.00  0.00     0.049 A 
ATOM     64  C   UNL A   1      45.772  27.410  27.623  1.00  0.00     0.074 A 
ATOM     65  C   UNL A   1      39.708  28.345  29.283  1.00  0.00     0.029 A 
ATOM     66  N   UNL A   1      41.890  28.575  28.913  1.00  0.00    -0.354 N 
ATOM     67  N   UNL A   1      44.543  27.697  27.986  1.00  0.00    -0.248 NA
ATOM     68  C   UNL A   1      45.964  26.009  27.219  1.00  0.00     0.031 C 
ATOM     69  C   UNL A   1      40.212  27.124  28.827  1.00  0.00     0.029 A 
ATOM     70  C   UNL A   1      41.568  27.272  28.576  1.00  0.00     0.049 A 
ATOM     71  H   UNL A   1      42.788  28.971  28.843  1.00  0.00     0.167 HD
ATOM     72  C   UNL A   1      43.814  26.522  27.832  1.00  0.00     0.074 A 
ATOM     73  C   UNL A   1      44.737  25.521  27.334  1.00  0.00     0.031 C 
ATOM     74  C   UNL A   1      42.500  26.291  28.077  1.00  0.00     0.037 A 
BRANCH  61  75
ATOM     75  C   UNL A   1      39.441  31.175  30.315  1.00  0.00     0.058 A 
ATOM     76  C   UNL A   1      38.382  31.425  29.428  1.00  0.00     0.135 A 
ATOM     77  C   UNL A   1      39.241  31.455  31.675  1.00  0.00     0.135 A 
ATOM     78  F   UNL A   1      38.532  31.199  28.113  1.00  0.00    -0.206 F 
ATOM     79  C   UNL A   1      37.172  31.946  29.873  1.00  0.00     0.059 A 
ATOM     80  C   UNL A   1      38.029  31.954  32.145  1.00  0.00     0.059 A 
ATOM     81  F   UNL A   1      40.226  31.245  32.561  1.00  0.00    -0.206 F 
ATOM     82  C   UNL A   1      37.004  32.204  31.233  1.00  0.00     0.060 A 
BRANCH  82  83
ATOM     83  S   UNL A   1      35.422  32.867  31.792  1.00  0.00     0.124 S 
ATOM     84  O   UNL A   1      34.528  32.432  30.723  1.00  0.00    -0.237 OA
ATOM     85  O   UNL A   1      35.243  32.201  33.078  1.00  0.00    -0.237 OA
ATOM     86  O   UNL A   1      35.660  34.306  31.863  1.00  0.00    -0.744 OA
ENDBRANCH  82  83
ENDBRANCH  61  75
BRANCH  62  87
ATOM     87  C   UNL A   1      48.284  27.807  27.062  1.00  0.00     0.058 A 
ATOM     88  C   UNL A   1      49.253  27.311  27.946  1.00  0.00     0.135 A 
ATOM     89  C   UNL A   1      48.586  27.799  25.691  1.00  0.00     0.135 A 
ATOM     90  F   UNL A   1      49.018  27.311  29.267  1.00  0.00    -0.206 F 
ATOM     91  C   UNL A   1      50.477  26.829  27.492  1.00  0.00     0.059 A 
ATOM     92  C   UNL A   1      49.794  27.302  25.210  1.00  0.00     0.059 A 
ATOM     93  F   UNL A   1      47.694  28.261  24.803  1.00  0.00    -0.206 F 
ATOM     94  C   UNL A   1      50.736  26.822  26.120  1.00  0.00     0.060 A 
BRANCH  94  95
ATOM     95  S   UNL A   1      52.305  26.138  25.542  1.00  0.00     0.124 S 
ATOM     96  O   UNL A   1      52.207  24.755  25.991  1.00  0.00    -0.237 OA
ATOM     97  O   UNL A   1      52.215  26.350  24.100  1.00  0.00    -0.237 OA
ATOM     98  O   UNL A   1      53.301  26.956  26.227  1.00  0.00    -0.744 OA
ENDBRANCH  94  95
ENDBRANCH  62  87
BRANCH  74  99
ATOM     99  C   UNL A   1      41.959  24.915  27.801  1.00  0.00     0.058 A 
ATOM    100  C   UNL A   1      41.217  24.638  26.643  1.00  0.00     0.135 A 
ATOM    101  C   UNL A   1      42.283  23.841  28.646  1.00  0.00     0.135 A 
ATOM    102  F   UNL A   1      40.876  25.630  25.806  1.00  0.00    -0.206 F 
ATOM    103  C   UNL A   1      40.813  23.343  26.333  1.00  0.00     0.059 A 
ATOM    104  C   UNL A   1      41.913  22.534  28.342  1.00  0.00     0.059 A 
ATOM    105  F   UNL A   1      43.002  24.051  29.761  1.00  0.00    -0.206 F 
ATOM    106  C   UNL A   1      41.176  22.297  27.183  1.00  0.00     0.060 A 
BRANCH 106 107
ATOM    107  S   UNL A   1      40.705  20.614  26.728  1.00  0.00     0.124 S 
ATOM    108  O   UNL A   1      41.751  20.262  25.773  1.00  0.00    -0.237 OA
ATOM    109  O   UNL A   1      40.760  19.919  28.011  1.00  0.00    -0.237 OA
ATOM    110  O   UNL A   1      39.368  20.773  26.164  1.00  0.00    -0.744 OA
ENDBRANCH 106 107
ENDBRANCH  74  99
ENDBRANCH  48  49
ENDBRANCH  41  43
ENDBRANCH  40  41
ENDBRANCH  39  40
ENDBRANCH  38  39
ENDBRANCH  37  38
ENDBRANCH  36  37
ENDBRANCH   1  36
TORSDOF 24
ENDMDL
