MODEL 1
REMARK VINA RESULT:      -7.2      0.000      0.000
REMARK SMILES CCOc1cc2c(cc1/C=C1/C(=O)N(c3cccc(C(=O)OCCOCCOCCOCCOC(=O)c4ccc(-c5c6nc(c(-c7c(F)cc(S(=O)(=O)[O-])cc7F)c7ccc([nH]7)c(-c7c(F)cc(S(=O)(=O)[O-])cc7F)c7nc(c(-c8c(F)cc(S(=O)(=O)[O-])cc8F)c8ccc5[nH]8)C=C7)C=C6)cc4)c3)C(=S)N=C1O)OCO2
REMARK SMILES IDX 27 1 26 2 25 3 24 4 23 5 22 6 20 7 21 8 19 9 15 10 16 11
REMARK SMILES IDX 103 12 17 13 18 14 14 15 10 16 11 17 12 18 107 19 13 20
REMARK SMILES IDX 106 21 104 22 105 23 9 24 4 25 5 26 6 27 8 28 7 29 111 30
REMARK SMILES IDX 109 31 110 32 3 33 2 34 1 35 108 36 28 38 29 39 30 40 31 41
REMARK SMILES IDX 32 42 33 43 34 44 35 45 36 46 37 47 38 48 102 49 39 50
REMARK SMILES IDX 101 51 40 52 41 53 42 54 95 55 43 56 100 57 94 58 96 59
REMARK SMILES IDX 44 60 99 61 93 62 92 63 45 65 79 66 58 67 78 68 59 69 62 70
REMARK SMILES IDX 77 71 97 72 60 73 61 74 76 76 98 77 63 78 46 79 47 80 56 81
REMARK SMILES IDX 48 82 49 83 55 84 57 85 50 86 51 87 52 88 53 89 54 90 80 91
REMARK SMILES IDX 81 92 90 93 82 94 83 95 89 96 91 97 84 98 85 99 86 100
REMARK SMILES IDX 87 101 88 102 64 103 65 104 74 105 66 106 67 107 73 108
REMARK SMILES IDX 75 109 68 110 69 111 70 112 71 113 72 114
REMARK H PARENT 108 37 96 64 62 75
REMARK Flexibility Score: inf
ROOT
ATOM      1  C   UNL A   1      50.368  27.944  37.421  1.00  0.00     0.188 C 
ENDROOT
BRANCH   1   2
ATOM      2  C   UNL A   1      49.019  28.322  38.067  1.00  0.00     0.188 C 
BRANCH   2   3
ATOM      3  O   UNL A   1      48.009  28.648  37.129  1.00  0.00    -0.376 OA
BRANCH   3   4
ATOM      4  C   UNL A   1      47.039  29.627  37.455  1.00  0.00     0.202 C 
BRANCH   4   5
ATOM      5  C   UNL A   1      45.593  29.471  36.962  1.00  0.00     0.261 C 
BRANCH   5   6
ATOM      6  O   UNL A   1      45.013  28.174  37.112  1.00  0.00    -0.460 OA
BRANCH   6   7
ATOM      7  C   UNL A   1      43.683  28.048  36.916  1.00  0.00     0.338 C 
ATOM      8  O   UNL A   1      42.869  28.948  36.813  1.00  0.00    -0.246 OA
BRANCH   7   9
ATOM      9  C   UNL A   1      43.427  26.624  36.585  1.00  0.00     0.062 A 
ATOM     10  C   UNL A   1      44.194  24.482  35.714  1.00  0.00     0.052 A 
ATOM     11  C   UNL A   1      42.859  24.038  35.729  1.00  0.00     0.027 A 
ATOM     12  C   UNL A   1      44.464  25.786  36.151  1.00  0.00     0.042 A 
ATOM     13  C   UNL A   1      41.822  24.876  36.153  1.00  0.00     0.003 A 
ATOM     14  C   UNL A   1      42.106  26.166  36.590  1.00  0.00     0.016 A 
BRANCH  10  15
ATOM     15  N   UNL A   1      45.268  23.602  35.310  1.00  0.00    -0.251 N 
ATOM     16  C   UNL A   1      48.418  22.275  36.645  1.00  0.00     0.031 C 
ATOM     17  C   UNL A   1      47.310  22.345  35.863  1.00  0.00     0.103 C 
ATOM     18  C   UNL A   1      46.253  23.323  36.279  1.00  0.00     0.270 C 
ATOM     19  C   UNL A   1      46.930  21.574  34.683  1.00  0.00     0.226 C 
ATOM     20  O   UNL A   1      46.251  23.775  37.425  1.00  0.00    -0.268 OA
ATOM     21  N   UNL A   1      46.013  21.864  33.843  1.00  0.00    -0.184 NA
ATOM     22  C   UNL A   1      45.288  23.017  34.025  1.00  0.00     0.210 C 
ATOM     23  S   UNL A   1      44.489  23.647  32.659  1.00  0.00    -0.038 S 
BRANCH  16  24
ATOM     24  C   UNL A   1      49.617  21.395  36.611  1.00  0.00     0.021 A 
ATOM     25  C   UNL A   1      49.557  20.056  37.099  1.00  0.00     0.130 A 
ATOM     26  C   UNL A   1      50.589  19.141  36.854  1.00  0.00     0.097 A 
ATOM     27  C   UNL A   1      51.720  19.601  36.232  1.00  0.00     0.169 A 
ATOM     28  C   UNL A   1      50.847  21.840  36.104  1.00  0.00     0.062 A 
ATOM     29  C   UNL A   1      51.856  20.922  35.891  1.00  0.00     0.166 A 
ATOM     30  O   UNL A   1      52.806  18.858  35.897  1.00  0.00    -0.453 OA
ATOM     31  O   UNL A   1      53.053  21.182  35.298  1.00  0.00    -0.454 OA
ATOM     32  C   UNL A   1      53.648  19.868  35.307  1.00  0.00     0.468 C 
BRANCH  25  33
ATOM     33  O   UNL A   1      48.448  19.588  37.768  1.00  0.00    -0.493 OA
BRANCH  33  34
ATOM     34  C   UNL A   1      48.568  19.764  39.200  1.00  0.00     0.226 C 
ATOM     35  C   UNL A   1      48.168  18.525  39.992  1.00  0.00     0.049 C 
ENDBRANCH  33  34
ENDBRANCH  25  33
ENDBRANCH  16  24
BRANCH  19  36
ATOM     36  O   UNL A   1      47.539  20.408  34.480  1.00  0.00    -0.493 OA
ATOM     37  H   UNL A   1      48.446  20.387  34.245  1.00  0.00     0.295 HD
ENDBRANCH  19  36
ENDBRANCH  10  15
ENDBRANCH   7   9
ENDBRANCH   6   7
ENDBRANCH   5   6
ENDBRANCH   4   5
ENDBRANCH   3   4
ENDBRANCH   2   3
ENDBRANCH   1   2
BRANCH   1  38
ATOM     38  O   UNL A   1      50.846  26.624  37.629  1.00  0.00    -0.377 OA
BRANCH  38  39
ATOM     39  C   UNL A   1      52.183  26.286  37.265  1.00  0.00     0.188 C 
BRANCH  39  40
ATOM     40  C   UNL A   1      53.269  27.351  36.957  1.00  0.00     0.188 C 
BRANCH  40  41
ATOM     41  O   UNL A   1      53.791  27.311  35.641  1.00  0.00    -0.376 OA
BRANCH  41  42
ATOM     42  C   UNL A   1      52.906  27.030  34.575  1.00  0.00     0.202 C 
BRANCH  42  43
ATOM     43  C   UNL A   1      53.520  26.871  33.180  1.00  0.00     0.261 C 
BRANCH  43  44
ATOM     44  O   UNL A   1      52.746  27.377  32.086  1.00  0.00    -0.460 OA
BRANCH  44  45
ATOM     45  C   UNL A   1      52.449  26.526  31.081  1.00  0.00     0.338 C 
ATOM     46  O   UNL A   1      53.201  25.723  30.548  1.00  0.00    -0.246 OA
BRANCH  45  47
ATOM     47  C   UNL A   1      50.995  26.617  30.855  1.00  0.00     0.060 A 
ATOM     48  C   UNL A   1      50.503  27.202  29.679  1.00  0.00     0.016 A 
ATOM     49  C   UNL A   1      50.122  26.088  31.806  1.00  0.00     0.016 A 
ATOM     50  C   UNL A   1      49.124  27.282  29.465  1.00  0.00     0.010 A 
ATOM     51  C   UNL A   1      48.747  26.191  31.603  1.00  0.00     0.010 A 
ATOM     52  C   UNL A   1      48.242  26.816  30.449  1.00  0.00    -0.014 A 
BRANCH  52  53
ATOM     53  C   UNL A   1      46.805  27.178  30.420  1.00  0.00     0.031 A 
ATOM     54  C   UNL A   1      45.870  26.228  29.723  1.00  0.00     0.074 A 
ATOM     55  C   UNL A   1      46.349  28.330  30.942  1.00  0.00     0.049 A 
ATOM     56  N   UNL A   1      44.625  26.397  29.368  1.00  0.00    -0.248 NA
ATOM     57  C   UNL A   1      46.427  24.911  29.364  1.00  0.00     0.031 C 
ATOM     58  C   UNL A   1      47.146  29.298  31.692  1.00  0.00     0.029 A 
ATOM     59  N   UNL A   1      45.097  28.893  30.890  1.00  0.00    -0.354 N 
ATOM     60  C   UNL A   1      44.253  25.217  28.736  1.00  0.00     0.074 A 
ATOM     61  C   UNL A   1      45.410  24.351  28.727  1.00  0.00     0.031 C 
ATOM     62  C   UNL A   1      46.369  30.351  32.007  1.00  0.00     0.029 A 
ATOM     63  C   UNL A   1      45.037  30.154  31.437  1.00  0.00     0.049 A 
ATOM     64  H   UNL A   1      44.317  28.437  30.499  1.00  0.00     0.167 HD
ATOM     65  C   UNL A   1      43.051  24.884  28.212  1.00  0.00     0.037 A 
ATOM     66  C   UNL A   1      44.033  31.056  31.434  1.00  0.00     0.037 A 
ATOM     67  C   UNL A   1      41.910  25.758  28.220  1.00  0.00     0.049 A 
ATOM     68  C   UNL A   1      42.730  30.702  30.755  1.00  0.00     0.074 A 
ATOM     69  C   UNL A   1      40.649  25.531  27.699  1.00  0.00     0.029 A 
ATOM     70  N   UNL A   1      41.891  27.028  28.780  1.00  0.00    -0.354 N 
ATOM     71  N   UNL A   1      42.390  29.591  30.143  1.00  0.00    -0.248 NA
ATOM     72  C   UNL A   1      41.672  31.725  30.759  1.00  0.00     0.031 C 
ATOM     73  C   UNL A   1      39.881  26.680  27.902  1.00  0.00     0.029 A 
ATOM     74  C   UNL A   1      40.642  27.598  28.609  1.00  0.00     0.049 A 
ATOM     75  H   UNL A   1      42.653  27.458  29.230  1.00  0.00     0.167 HD
ATOM     76  C   UNL A   1      41.067  29.762  29.745  1.00  0.00     0.074 A 
ATOM     77  C   UNL A   1      40.669  31.085  30.172  1.00  0.00     0.031 C 
ATOM     78  C   UNL A   1      40.251  28.898  29.091  1.00  0.00     0.037 A 
BRANCH  65  79
ATOM     79  C   UNL A   1      42.911  23.530  27.579  1.00  0.00     0.058 A 
ATOM     80  C   UNL A   1      43.291  23.297  26.248  1.00  0.00     0.135 A 
ATOM     81  C   UNL A   1      42.440  22.438  28.327  1.00  0.00     0.135 A 
ATOM     82  F   UNL A   1      43.724  24.312  25.482  1.00  0.00    -0.206 F 
ATOM     83  C   UNL A   1      43.202  22.033  25.677  1.00  0.00     0.059 A 
ATOM     84  C   UNL A   1      42.370  21.158  27.784  1.00  0.00     0.059 A 
ATOM     85  F   UNL A   1      42.053  22.607  29.601  1.00  0.00    -0.206 F 
ATOM     86  C   UNL A   1      42.747  20.967  26.457  1.00  0.00     0.060 A 
BRANCH  86  87
ATOM     87  S   UNL A   1      42.675  19.327  25.709  1.00  0.00     0.124 S 
ATOM     88  O   UNL A   1      41.254  19.212  25.394  1.00  0.00    -0.237 OA
ATOM     89  O   UNL A   1      43.568  19.469  24.563  1.00  0.00    -0.237 OA
ATOM     90  O   UNL A   1      43.154  18.447  26.769  1.00  0.00    -0.744 OA
ENDBRANCH  86  87
ENDBRANCH  65  79
BRANCH  66  91
ATOM     91  C   UNL A   1      44.213  32.395  32.064  1.00  0.00     0.058 A 
ATOM     92  C   UNL A   1      43.895  32.609  33.414  1.00  0.00     0.135 A 
ATOM     93  C   UNL A   1      44.656  33.499  31.318  1.00  0.00     0.135 A 
ATOM     94  F   UNL A   1      43.455  31.591  34.168  1.00  0.00    -0.206 F 
ATOM     95  C   UNL A   1      43.975  33.873  33.994  1.00  0.00     0.059 A 
ATOM     96  C   UNL A   1      44.775  34.766  31.884  1.00  0.00     0.059 A 
ATOM     97  F   UNL A   1      44.983  33.353  30.025  1.00  0.00    -0.206 F 
ATOM     98  C   UNL A   1      44.414  34.947  33.218  1.00  0.00     0.060 A 
BRANCH  98  99
ATOM     99  S   UNL A   1      44.525  36.582  33.976  1.00  0.00     0.124 S 
ATOM    100  O   UNL A   1      45.907  36.946  33.687  1.00  0.00    -0.237 OA
ATOM    101  O   UNL A   1      43.501  37.327  33.251  1.00  0.00    -0.237 OA
ATOM    102  O   UNL A   1      44.220  36.321  35.382  1.00  0.00    -0.744 OA
ENDBRANCH  98  99
ENDBRANCH  66  91
BRANCH  78 103
ATOM    103  C   UNL A   1      38.816  29.297  28.878  1.00  0.00     0.058 A 
ATOM    104  C   UNL A   1      37.889  29.351  29.929  1.00  0.00     0.135 A 
ATOM    105  C   UNL A   1      38.397  29.740  27.612  1.00  0.00     0.135 A 
ATOM    106  F   UNL A   1      38.234  28.933  31.157  1.00  0.00    -0.206 F 
ATOM    107  C   UNL A   1      36.595  29.825  29.731  1.00  0.00     0.059 A 
ATOM    108  C   UNL A   1      37.121  30.247  27.398  1.00  0.00     0.059 A 
ATOM    109  F   UNL A   1      39.249  29.721  26.574  1.00  0.00    -0.206 F 
ATOM    110  C   UNL A   1      36.225  30.283  28.464  1.00  0.00     0.060 A 
BRANCH 110 111
ATOM    111  S   UNL A   1      34.569  30.969  28.242  1.00  0.00     0.124 S 
ATOM    112  O   UNL A   1      34.340  31.610  29.533  1.00  0.00    -0.237 OA
ATOM    113  O   UNL A   1      34.757  31.871  27.110  1.00  0.00    -0.237 OA
ATOM    114  O   UNL A   1      33.746  29.794  27.971  1.00  0.00    -0.744 OA
ENDBRANCH 110 111
ENDBRANCH  78 103
ENDBRANCH  52  53
ENDBRANCH  45  47
ENDBRANCH  44  45
ENDBRANCH  43  44
ENDBRANCH  42  43
ENDBRANCH  41  42
ENDBRANCH  40  41
ENDBRANCH  39  40
ENDBRANCH  38  39
ENDBRANCH   1  38
TORSDOF 28
ENDMDL
MODEL 2
REMARK VINA RESULT:      -7.1      4.684     14.453
REMARK SMILES CCOc1cc2c(cc1/C=C1/C(=O)N(c3cccc(C(=O)OCCOCCOCCOCCOC(=O)c4ccc(-c5c6nc(c(-c7c(F)cc(S(=O)(=O)[O-])cc7F)c7ccc([nH]7)c(-c7c(F)cc(S(=O)(=O)[O-])cc7F)c7nc(c(-c8c(F)cc(S(=O)(=O)[O-])cc8F)c8ccc5[nH]8)C=C7)C=C6)cc4)c3)C(=S)N=C1O)OCO2
REMARK SMILES IDX 27 1 26 2 25 3 24 4 23 5 22 6 20 7 21 8 19 9 15 10 16 11
REMARK SMILES IDX 103 12 17 13 18 14 14 15 10 16 11 17 12 18 107 19 13 20
REMARK SMILES IDX 106 21 104 22 105 23 9 24 4 25 5 26 6 27 8 28 7 29 111 30
REMARK SMILES IDX 109 31 110 32 3 33 2 34 1 35 108 36 28 38 29 39 30 40 31 41
REMARK SMILES IDX 32 42 33 43 34 44 35 45 36 46 37 47 38 48 102 49 39 50
REMARK SMILES IDX 101 51 40 52 41 53 42 54 95 55 43 56 100 57 94 58 96 59
REMARK SMILES IDX 44 60 99 61 93 62 92 63 45 65 79 66 58 67 78 68 59 69 62 70
REMARK SMILES IDX 77 71 97 72 60 73 61 74 76 76 98 77 63 78 46 79 47 80 56 81
REMARK SMILES IDX 48 82 49 83 55 84 57 85 50 86 51 87 52 88 53 89 54 90 80 91
REMARK SMILES IDX 81 92 90 93 82 94 83 95 89 96 91 97 84 98 85 99 86 100
REMARK SMILES IDX 87 101 88 102 64 103 65 104 74 105 66 106 67 107 73 108
REMARK SMILES IDX 75 109 68 110 69 111 70 112 71 113 72 114
REMARK H PARENT 108 37 96 64 62 75
REMARK Flexibility Score: inf
ROOT
ATOM      1  C   UNL A   1      40.492  29.525  32.492  1.00  0.00     0.188 C 
ENDROOT
BRANCH   1   2
ATOM      2  C   UNL A   1      41.189  30.013  33.779  1.00  0.00     0.188 C 
BRANCH   2   3
ATOM      3  O   UNL A   1      42.331  30.817  33.541  1.00  0.00    -0.376 OA
BRANCH   3   4
ATOM      4  C   UNL A   1      43.529  30.558  34.247  1.00  0.00     0.202 C 
BRANCH   4   5
ATOM      5  C   UNL A   1      44.496  31.708  34.569  1.00  0.00     0.261 C 
BRANCH   5   6
ATOM      6  O   UNL A   1      43.899  32.985  34.803  1.00  0.00    -0.460 OA
BRANCH   6   7
ATOM      7  C   UNL A   1      43.538  33.293  36.067  1.00  0.00     0.338 C 
ATOM      8  O   UNL A   1      44.194  33.121  37.078  1.00  0.00    -0.246 OA
BRANCH   7   9
ATOM      9  C   UNL A   1      42.310  34.121  35.977  1.00  0.00     0.062 A 
ATOM     10  C   UNL A   1      40.022  34.437  35.202  1.00  0.00     0.052 A 
ATOM     11  C   UNL A   1      40.114  35.787  35.591  1.00  0.00     0.027 A 
ATOM     12  C   UNL A   1      41.135  33.611  35.405  1.00  0.00     0.042 A 
ATOM     13  C   UNL A   1      41.288  36.300  36.153  1.00  0.00     0.003 A 
ATOM     14  C   UNL A   1      42.384  35.465  36.354  1.00  0.00     0.016 A 
BRANCH  10  15
ATOM     15  N   UNL A   1      38.795  33.900  34.656  1.00  0.00    -0.251 N 
ATOM     16  C   UNL A   1      37.011  33.763  31.453  1.00  0.00     0.031 C 
ATOM     17  C   UNL A   1      37.369  33.406  32.712  1.00  0.00     0.103 C 
ATOM     18  C   UNL A   1      38.610  34.041  33.266  1.00  0.00     0.270 C 
ATOM     19  C   UNL A   1      36.773  32.441  33.632  1.00  0.00     0.226 C 
ATOM     20  O   UNL A   1      39.414  34.582  32.507  1.00  0.00    -0.268 OA
ATOM     21  N   UNL A   1      36.991  32.344  34.887  1.00  0.00    -0.184 NA
ATOM     22  C   UNL A   1      37.864  33.226  35.477  1.00  0.00     0.210 C 
ATOM     23  S   UNL A   1      37.725  33.435  37.161  1.00  0.00    -0.038 S 
BRANCH  16  24
ATOM     24  C   UNL A   1      35.923  33.304  30.549  1.00  0.00     0.021 A 
ATOM     25  C   UNL A   1      34.771  34.114  30.318  1.00  0.00     0.130 A 
ATOM     26  C   UNL A   1      33.863  33.819  29.293  1.00  0.00     0.097 A 
ATOM     27  C   UNL A   1      34.045  32.657  28.589  1.00  0.00     0.169 A 
ATOM     28  C   UNL A   1      35.981  32.066  29.891  1.00  0.00     0.062 A 
ATOM     29  C   UNL A   1      35.061  31.791  28.898  1.00  0.00     0.166 A 
ATOM     30  O   UNL A   1      33.280  32.222  27.555  1.00  0.00    -0.453 OA
ATOM     31  O   UNL A   1      35.065  30.691  28.097  1.00  0.00    -0.454 OA
ATOM     32  C   UNL A   1      33.931  30.974  27.248  1.00  0.00     0.468 C 
BRANCH  25  33
ATOM     33  O   UNL A   1      34.545  35.260  31.047  1.00  0.00    -0.493 OA
BRANCH  33  34
ATOM     34  C   UNL A   1      33.698  35.011  32.194  1.00  0.00     0.226 C 
ATOM     35  C   UNL A   1      32.414  35.832  32.180  1.00  0.00     0.049 C 
ENDBRANCH  33  34
ENDBRANCH  25  33
ENDBRANCH  16  24
BRANCH  19  36
ATOM     36  O   UNL A   1      35.971  31.509  33.120  1.00  0.00    -0.493 OA
ATOM     37  H   UNL A   1      36.296  30.642  32.973  1.00  0.00     0.295 HD
ENDBRANCH  19  36
ENDBRANCH  10  15
ENDBRANCH   7   9
ENDBRANCH   6   7
ENDBRANCH   5   6
ENDBRANCH   4   5
ENDBRANCH   3   4
ENDBRANCH   2   3
ENDBRANCH   1   2
BRANCH   1  38
ATOM     38  O   UNL A   1      39.436  30.321  31.978  1.00  0.00    -0.377 OA
BRANCH  38  39
ATOM     39  C   UNL A   1      39.615  31.039  30.758  1.00  0.00     0.188 C 
BRANCH  39  40
ATOM     40  C   UNL A   1      39.239  30.454  29.372  1.00  0.00     0.188 C 
BRANCH  40  41
ATOM     41  O   UNL A   1      38.198  29.492  29.389  1.00  0.00    -0.376 OA
BRANCH  41  42
ATOM     42  C   UNL A   1      38.424  28.248  28.758  1.00  0.00     0.202 C 
BRANCH  42  43
ATOM     43  C   UNL A   1      39.225  27.202  29.541  1.00  0.00     0.261 C 
BRANCH  43  44
ATOM     44  O   UNL A   1      39.940  26.237  28.761  1.00  0.00    -0.460 OA
BRANCH  44  45
ATOM     45  C   UNL A   1      41.027  26.660  28.083  1.00  0.00     0.338 C 
ATOM     46  O   UNL A   1      41.047  27.255  27.015  1.00  0.00    -0.246 OA
BRANCH  45  47
ATOM     47  C   UNL A   1      42.194  26.428  28.954  1.00  0.00     0.060 A 
ATOM     48  C   UNL A   1      42.536  27.370  29.936  1.00  0.00     0.016 A 
ATOM     49  C   UNL A   1      42.929  25.250  28.811  1.00  0.00     0.016 A 
ATOM     50  C   UNL A   1      43.639  27.144  30.763  1.00  0.00     0.010 A 
ATOM     51  C   UNL A   1      44.044  25.038  29.620  1.00  0.00     0.010 A 
ATOM     52  C   UNL A   1      44.422  25.997  30.576  1.00  0.00    -0.014 A 
BRANCH  52  53
ATOM     53  C   UNL A   1      45.767  25.883  31.189  1.00  0.00     0.031 A 
ATOM     54  C   UNL A   1      46.909  26.546  30.470  1.00  0.00     0.074 A 
ATOM     55  C   UNL A   1      45.982  25.172  32.310  1.00  0.00     0.049 A 
ATOM     56  N   UNL A   1      48.195  26.426  30.662  1.00  0.00    -0.248 NA
ATOM     57  C   UNL A   1      46.545  27.460  29.372  1.00  0.00     0.031 C 
ATOM     58  C   UNL A   1      44.949  24.537  33.126  1.00  0.00     0.029 A 
ATOM     59  N   UNL A   1      47.158  24.842  32.939  1.00  0.00    -0.354 N 
ATOM     60  C   UNL A   1      48.794  27.236  29.705  1.00  0.00     0.074 A 
ATOM     61  C   UNL A   1      47.735  27.819  28.913  1.00  0.00     0.031 C 
ATOM     62  C   UNL A   1      45.540  23.869  34.134  1.00  0.00     0.029 A 
ATOM     63  C   UNL A   1      46.992  23.987  34.004  1.00  0.00     0.049 A 
ATOM     64  H   UNL A   1      48.036  25.185  32.655  1.00  0.00     0.167 HD
ATOM     65  C   UNL A   1      50.110  27.475  29.507  1.00  0.00     0.037 A 
ATOM     66  C   UNL A   1      47.911  23.343  34.753  1.00  0.00     0.037 A 
ATOM     67  C   UNL A   1      51.155  26.881  30.297  1.00  0.00     0.049 A 
ATOM     68  C   UNL A   1      49.378  23.545  34.451  1.00  0.00     0.074 A 
ATOM     69  C   UNL A   1      52.523  27.037  30.170  1.00  0.00     0.029 A 
ATOM     70  N   UNL A   1      50.945  26.018  31.363  1.00  0.00    -0.354 N 
ATOM     71  N   UNL A   1      49.938  24.300  33.533  1.00  0.00    -0.248 NA
ATOM     72  C   UNL A   1      50.342  22.807  35.281  1.00  0.00     0.031 C 
ATOM     73  C   UNL A   1      53.143  26.233  31.129  1.00  0.00     0.029 A 
ATOM     74  C   UNL A   1      52.160  25.628  31.897  1.00  0.00     0.049 A 
ATOM     75  H   UNL A   1      50.064  25.727  31.689  1.00  0.00     0.167 HD
ATOM     76  C   UNL A   1      51.312  24.170  33.715  1.00  0.00     0.074 A 
ATOM     77  C   UNL A   1      51.502  23.257  34.822  1.00  0.00     0.031 C 
ATOM     78  C   UNL A   1      52.326  24.759  33.035  1.00  0.00     0.037 A 
BRANCH  65  79
ATOM     79  C   UNL A   1      50.497  28.403  28.392  1.00  0.00     0.058 A 
ATOM     80  C   UNL A   1      50.636  29.784  28.600  1.00  0.00     0.135 A 
ATOM     81  C   UNL A   1      50.784  27.900  27.112  1.00  0.00     0.135 A 
ATOM     82  F   UNL A   1      50.349  30.320  29.797  1.00  0.00    -0.206 F 
ATOM     83  C   UNL A   1      51.037  30.636  27.577  1.00  0.00     0.059 A 
ATOM     84  C   UNL A   1      51.215  28.731  26.082  1.00  0.00     0.059 A 
ATOM     85  F   UNL A   1      50.657  26.589  26.857  1.00  0.00    -0.206 F 
ATOM     86  C   UNL A   1      51.332  30.098  26.322  1.00  0.00     0.060 A 
BRANCH  86  87
ATOM     87  S   UNL A   1      51.887  31.215  25.019  1.00  0.00     0.124 S 
ATOM     88  O   UNL A   1      50.959  32.331  25.174  1.00  0.00    -0.237 OA
ATOM     89  O   UNL A   1      53.268  31.482  25.407  1.00  0.00    -0.237 OA
ATOM     90  O   UNL A   1      51.722  30.428  23.801  1.00  0.00    -0.744 OA
ENDBRANCH  86  87
ENDBRANCH  65  79
BRANCH  66  91
ATOM     91  C   UNL A   1      47.490  22.420  35.846  1.00  0.00     0.058 A 
ATOM     92  C   UNL A   1      47.521  22.826  37.190  1.00  0.00     0.135 A 
ATOM     93  C   UNL A   1      47.097  21.100  35.576  1.00  0.00     0.135 A 
ATOM     94  F   UNL A   1      47.901  24.074  37.504  1.00  0.00    -0.206 F 
ATOM     95  C   UNL A   1      47.214  21.949  38.226  1.00  0.00     0.059 A 
ATOM     96  C   UNL A   1      46.753  20.214  36.593  1.00  0.00     0.059 A 
ATOM     97  F   UNL A   1      47.039  20.658  34.310  1.00  0.00    -0.206 F 
ATOM     98  C   UNL A   1      46.833  20.642  37.918  1.00  0.00     0.060 A 
BRANCH  98  99
ATOM     99  S   UNL A   1      46.427  19.512  39.265  1.00  0.00     0.124 S 
ATOM    100  O   UNL A   1      47.752  19.121  39.732  1.00  0.00    -0.237 OA
ATOM    101  O   UNL A   1      45.659  20.369  40.164  1.00  0.00    -0.237 OA
ATOM    102  O   UNL A   1      45.654  18.463  38.603  1.00  0.00    -0.744 OA
ENDBRANCH  98  99
ENDBRANCH  66  91
BRANCH  78 103
ATOM    103  C   UNL A   1      53.734  24.529  33.514  1.00  0.00     0.058 A 
ATOM    104  C   UNL A   1      54.365  25.387  34.426  1.00  0.00     0.135 A 
ATOM    105  C   UNL A   1      54.416  23.361  33.131  1.00  0.00     0.135 A 
ATOM    106  F   UNL A   1      53.760  26.519  34.819  1.00  0.00    -0.206 F 
ATOM    107  C   UNL A   1      55.626  25.098  34.938  1.00  0.00     0.059 A 
ATOM    108  C   UNL A   1      55.662  23.037  33.654  1.00  0.00     0.059 A 
ATOM    109  F   UNL A   1      53.851  22.500  32.268  1.00  0.00    -0.206 F 
ATOM    110  C   UNL A   1      56.262  23.914  34.555  1.00  0.00     0.060 A 
BRANCH 110 111
ATOM    111  S   UNL A   1      57.863  23.514  35.290  1.00  0.00     0.124 S 
ATOM    112  O   UNL A   1      58.688  24.620  34.816  1.00  0.00    -0.237 OA
ATOM    113  O   UNL A   1      57.558  23.517  36.717  1.00  0.00    -0.237 OA
ATOM    114  O   UNL A   1      58.181  22.206  34.724  1.00  0.00    -0.744 OA
ENDBRANCH 110 111
ENDBRANCH  78 103
ENDBRANCH  52  53
ENDBRANCH  45  47
ENDBRANCH  44  45
ENDBRANCH  43  44
ENDBRANCH  42  43
ENDBRANCH  41  42
ENDBRANCH  40  41
ENDBRANCH  39  40
ENDBRANCH  38  39
ENDBRANCH   1  38
TORSDOF 28
ENDMDL
MODEL 3
REMARK VINA RESULT:      -6.9      3.206      8.917
REMARK SMILES CCOc1cc2c(cc1/C=C1/C(=O)N(c3cccc(C(=O)OCCOCCOCCOCCOC(=O)c4ccc(-c5c6nc(c(-c7c(F)cc(S(=O)(=O)[O-])cc7F)c7ccc([nH]7)c(-c7c(F)cc(S(=O)(=O)[O-])cc7F)c7nc(c(-c8c(F)cc(S(=O)(=O)[O-])cc8F)c8ccc5[nH]8)C=C7)C=C6)cc4)c3)C(=S)N=C1O)OCO2
REMARK SMILES IDX 27 1 26 2 25 3 24 4 23 5 22 6 20 7 21 8 19 9 15 10 16 11
REMARK SMILES IDX 103 12 17 13 18 14 14 15 10 16 11 17 12 18 107 19 13 20
REMARK SMILES IDX 106 21 104 22 105 23 9 24 4 25 5 26 6 27 8 28 7 29 111 30
REMARK SMILES IDX 109 31 110 32 3 33 2 34 1 35 108 36 28 38 29 39 30 40 31 41
REMARK SMILES IDX 32 42 33 43 34 44 35 45 36 46 37 47 38 48 102 49 39 50
REMARK SMILES IDX 101 51 40 52 41 53 42 54 95 55 43 56 100 57 94 58 96 59
REMARK SMILES IDX 44 60 99 61 93 62 92 63 45 65 79 66 58 67 78 68 59 69 62 70
REMARK SMILES IDX 77 71 97 72 60 73 61 74 76 76 98 77 63 78 46 79 47 80 56 81
REMARK SMILES IDX 48 82 49 83 55 84 57 85 50 86 51 87 52 88 53 89 54 90 80 91
REMARK SMILES IDX 81 92 90 93 82 94 83 95 89 96 91 97 84 98 85 99 86 100
REMARK SMILES IDX 87 101 88 102 64 103 65 104 74 105 66 106 67 107 73 108
REMARK SMILES IDX 75 109 68 110 69 111 70 112 71 113 72 114
REMARK H PARENT 108 37 96 64 62 75
REMARK Flexibility Score: inf
ROOT
ATOM      1  C   UNL A   1      43.907  23.134  31.490  1.00  0.00     0.188 C 
ENDROOT
BRANCH   1   2
ATOM      2  C   UNL A   1      44.542  24.207  32.399  1.00  0.00     0.188 C 
BRANCH   2   3
ATOM      3  O   UNL A   1      43.889  24.358  33.647  1.00  0.00    -0.376 OA
BRANCH   3   4
ATOM      4  C   UNL A   1      43.825  23.263  34.542  1.00  0.00     0.202 C 
BRANCH   4   5
ATOM      5  C   UNL A   1      45.006  22.286  34.647  1.00  0.00     0.261 C 
BRANCH   5   6
ATOM      6  O   UNL A   1      45.209  21.679  35.924  1.00  0.00    -0.460 OA
BRANCH   6   7
ATOM      7  C   UNL A   1      45.649  20.403  35.956  1.00  0.00     0.338 C 
ATOM      8  O   UNL A   1      45.239  19.470  35.290  1.00  0.00    -0.246 OA
BRANCH   7   9
ATOM      9  C   UNL A   1      46.899  20.396  36.757  1.00  0.00     0.062 A 
ATOM     10  C   UNL A   1      49.197  21.128  37.100  1.00  0.00     0.052 A 
ATOM     11  C   UNL A   1      49.313  20.165  38.121  1.00  0.00     0.027 A 
ATOM     12  C   UNL A   1      47.974  21.233  36.424  1.00  0.00     0.042 A 
ATOM     13  C   UNL A   1      48.245  19.323  38.447  1.00  0.00     0.003 A 
ATOM     14  C   UNL A   1      47.034  19.444  37.771  1.00  0.00     0.016 A 
BRANCH  10  15
ATOM     15  N   UNL A   1      50.290  22.021  36.790  1.00  0.00    -0.251 N 
ATOM     16  C   UNL A   1      53.319  22.085  34.720  1.00  0.00     0.031 C 
ATOM     17  C   UNL A   1      52.274  22.567  35.440  1.00  0.00     0.103 C 
ATOM     18  C   UNL A   1      51.196  21.589  35.802  1.00  0.00     0.270 C 
ATOM     19  C   UNL A   1      51.977  23.924  35.892  1.00  0.00     0.226 C 
ATOM     20  O   UNL A   1      51.112  20.518  35.199  1.00  0.00    -0.268 OA
ATOM     21  N   UNL A   1      51.128  24.264  36.784  1.00  0.00    -0.184 NA
ATOM     22  C   UNL A   1      50.402  23.283  37.416  1.00  0.00     0.210 C 
ATOM     23  S   UNL A   1      49.713  23.684  38.921  1.00  0.00    -0.038 S 
BRANCH  16  24
ATOM     24  C   UNL A   1      54.510  22.741  34.115  1.00  0.00     0.021 A 
ATOM     25  C   UNL A   1      55.626  23.117  34.920  1.00  0.00     0.130 A 
ATOM     26  C   UNL A   1      56.845  23.503  34.346  1.00  0.00     0.097 A 
ATOM     27  C   UNL A   1      56.901  23.626  32.982  1.00  0.00     0.169 A 
ATOM     28  C   UNL A   1      54.586  23.014  32.741  1.00  0.00     0.062 A 
ATOM     29  C   UNL A   1      55.793  23.413  32.203  1.00  0.00     0.166 A 
ATOM     30  O   UNL A   1      57.996  23.967  32.256  1.00  0.00    -0.453 OA
ATOM     31  O   UNL A   1      56.048  23.599  30.880  1.00  0.00    -0.454 OA
ATOM     32  C   UNL A   1      57.448  23.950  30.923  1.00  0.00     0.468 C 
BRANCH  25  33
ATOM     33  O   UNL A   1      55.574  23.045  36.294  1.00  0.00    -0.493 OA
BRANCH  33  34
ATOM     34  C   UNL A   1      56.028  24.271  36.915  1.00  0.00     0.226 C 
ATOM     35  C   UNL A   1      55.686  24.355  38.398  1.00  0.00     0.049 C 
ENDBRANCH  33  34
ENDBRANCH  25  33
ENDBRANCH  16  24
BRANCH  19  36
ATOM     36  O   UNL A   1      52.590  24.932  35.276  1.00  0.00    -0.493 OA
ATOM     37  H   UNL A   1      53.359  24.771  34.766  1.00  0.00     0.295 HD
ENDBRANCH  19  36
ENDBRANCH  10  15
ENDBRANCH   7   9
ENDBRANCH   6   7
ENDBRANCH   5   6
ENDBRANCH   4   5
ENDBRANCH   3   4
ENDBRANCH   2   3
ENDBRANCH   1   2
BRANCH   1  38
ATOM     38  O   UNL A   1      44.087  23.273  30.091  1.00  0.00    -0.377 OA
BRANCH  38  39
ATOM     39  C   UNL A   1      43.025  23.783  29.284  1.00  0.00     0.188 C 
BRANCH  39  40
ATOM     40  C   UNL A   1      42.839  23.398  27.793  1.00  0.00     0.188 C 
BRANCH  40  41
ATOM     41  O   UNL A   1      43.259  22.088  27.454  1.00  0.00    -0.376 OA
BRANCH  41  42
ATOM     42  C   UNL A   1      42.288  21.171  26.992  1.00  0.00     0.202 C 
BRANCH  42  43
ATOM     43  C   UNL A   1      40.816  21.551  27.191  1.00  0.00     0.261 C 
BRANCH  43  44
ATOM     44  O   UNL A   1      40.133  22.060  26.040  1.00  0.00    -0.460 OA
BRANCH  44  45
ATOM     45  C   UNL A   1      38.996  22.758  26.244  1.00  0.00     0.338 C 
ATOM     46  O   UNL A   1      37.850  22.335  26.195  1.00  0.00    -0.246 OA
BRANCH  45  47
ATOM     47  C   UNL A   1      39.393  24.099  26.713  1.00  0.00     0.060 A 
ATOM     48  C   UNL A   1      40.053  24.979  25.843  1.00  0.00     0.016 A 
ATOM     49  C   UNL A   1      39.075  24.489  28.014  1.00  0.00     0.016 A 
ATOM     50  C   UNL A   1      40.423  26.251  26.288  1.00  0.00     0.010 A 
ATOM     51  C   UNL A   1      39.467  25.748  28.464  1.00  0.00     0.010 A 
ATOM     52  C   UNL A   1      40.170  26.622  27.615  1.00  0.00    -0.014 A 
BRANCH  52  53
ATOM     53  C   UNL A   1      40.830  27.803  28.217  1.00  0.00     0.031 A 
ATOM     54  C   UNL A   1      42.333  27.801  28.270  1.00  0.00     0.074 A 
ATOM     55  C   UNL A   1      40.127  28.819  28.750  1.00  0.00     0.049 A 
ATOM     56  N   UNL A   1      43.145  28.590  28.920  1.00  0.00    -0.248 NA
ATOM     57  C   UNL A   1      43.010  26.750  27.488  1.00  0.00     0.031 C 
ATOM     58  C   UNL A   1      38.673  28.962  28.706  1.00  0.00     0.029 A 
ATOM     59  N   UNL A   1      40.553  29.914  29.463  1.00  0.00    -0.354 N 
ATOM     60  C   UNL A   1      44.424  28.125  28.639  1.00  0.00     0.074 A 
ATOM     61  C   UNL A   1      44.282  26.969  27.784  1.00  0.00     0.031 C 
ATOM     62  C   UNL A   1      38.325  30.068  29.389  1.00  0.00     0.029 A 
ATOM     63  C   UNL A   1      39.524  30.680  29.960  1.00  0.00     0.049 A 
ATOM     64  H   UNL A   1      41.502  30.130  29.604  1.00  0.00     0.167 HD
ATOM     65  C   UNL A   1      45.611  28.623  29.054  1.00  0.00     0.037 A 
ATOM     66  C   UNL A   1      39.552  31.726  30.813  1.00  0.00     0.037 A 
ATOM     67  C   UNL A   1      45.738  29.769  29.912  1.00  0.00     0.049 A 
ATOM     68  C   UNL A   1      40.884  32.204  31.345  1.00  0.00     0.074 A 
ATOM     69  C   UNL A   1      46.892  30.346  30.411  1.00  0.00     0.029 A 
ATOM     70  N   UNL A   1      44.673  30.514  30.397  1.00  0.00    -0.354 N 
ATOM     71  N   UNL A   1      42.090  31.749  31.088  1.00  0.00    -0.248 NA
ATOM     72  C   UNL A   1      40.864  33.333  32.287  1.00  0.00     0.031 C 
ATOM     73  C   UNL A   1      46.523  31.412  31.235  1.00  0.00     0.029 A 
ATOM     74  C   UNL A   1      45.143  31.541  31.195  1.00  0.00     0.049 A 
ATOM     75  H   UNL A   1      43.725  30.338  30.201  1.00  0.00     0.167 HD
ATOM     76  C   UNL A   1      42.967  32.572  31.789  1.00  0.00     0.074 A 
ATOM     77  C   UNL A   1      42.158  33.545  32.490  1.00  0.00     0.031 C 
ATOM     78  C   UNL A   1      44.321  32.533  31.842  1.00  0.00     0.037 A 
BRANCH  65  79
ATOM     79  C   UNL A   1      46.862  27.927  28.599  1.00  0.00     0.058 A 
ATOM     80  C   UNL A   1      47.407  26.851  29.317  1.00  0.00     0.135 A 
ATOM     81  C   UNL A   1      47.494  28.305  27.403  1.00  0.00     0.135 A 
ATOM     82  F   UNL A   1      46.857  26.466  30.480  1.00  0.00    -0.206 F 
ATOM     83  C   UNL A   1      48.540  26.180  28.871  1.00  0.00     0.059 A 
ATOM     84  C   UNL A   1      48.612  27.629  26.924  1.00  0.00     0.059 A 
ATOM     85  F   UNL A   1      47.020  29.334  26.684  1.00  0.00    -0.206 F 
ATOM     86  C   UNL A   1      49.131  26.572  27.668  1.00  0.00     0.060 A 
BRANCH  86  87
ATOM     87  S   UNL A   1      50.578  25.664  27.087  1.00  0.00     0.124 S 
ATOM     88  O   UNL A   1      50.310  24.325  27.604  1.00  0.00    -0.237 OA
ATOM     89  O   UNL A   1      50.478  25.816  25.639  1.00  0.00    -0.237 OA
ATOM     90  O   UNL A   1      51.695  26.365  27.713  1.00  0.00    -0.744 OA
ENDBRANCH  86  87
ENDBRANCH  65  79
BRANCH  66  91
ATOM     91  C   UNL A   1      38.289  32.385  31.250  1.00  0.00     0.058 A 
ATOM     92  C   UNL A   1      37.631  33.311  30.425  1.00  0.00     0.135 A 
ATOM     93  C   UNL A   1      37.742  32.145  32.520  1.00  0.00     0.135 A 
ATOM     94  F   UNL A   1      38.119  33.586  29.206  1.00  0.00    -0.206 F 
ATOM     95  C   UNL A   1      36.498  33.998  30.853  1.00  0.00     0.059 A 
ATOM     96  C   UNL A   1      36.592  32.795  32.959  1.00  0.00     0.059 A 
ATOM     97  F   UNL A   1      38.322  31.263  33.350  1.00  0.00    -0.206 F 
ATOM     98  C   UNL A   1      35.988  33.735  32.125  1.00  0.00     0.060 A 
BRANCH  98  99
ATOM     99  S   UNL A   1      34.514  34.623  32.673  1.00  0.00     0.124 S 
ATOM    100  O   UNL A   1      34.178  35.397  31.484  1.00  0.00    -0.237 OA
ATOM    101  O   UNL A   1      33.603  33.531  33.003  1.00  0.00    -0.237 OA
ATOM    102  O   UNL A   1      34.992  35.395  33.817  1.00  0.00    -0.744 OA
ENDBRANCH  98  99
ENDBRANCH  66  91
BRANCH  78 103
ATOM    103  C   UNL A   1      45.037  33.620  32.597  1.00  0.00     0.058 A 
ATOM    104  C   UNL A   1      45.394  34.837  31.998  1.00  0.00     0.135 A 
ATOM    105  C   UNL A   1      45.266  33.475  33.976  1.00  0.00     0.135 A 
ATOM    106  F   UNL A   1      45.204  35.026  30.683  1.00  0.00    -0.206 F 
ATOM    107  C   UNL A   1      45.958  35.871  32.740  1.00  0.00     0.059 A 
ATOM    108  C   UNL A   1      45.799  34.505  34.742  1.00  0.00     0.059 A 
ATOM    109  F   UNL A   1      44.932  32.333  34.599  1.00  0.00    -0.206 F 
ATOM    110  C   UNL A   1      46.145  35.699  34.114  1.00  0.00     0.060 A 
BRANCH 110 111
ATOM    111  S   UNL A   1      46.804  37.078  35.077  1.00  0.00     0.124 S 
ATOM    112  O   UNL A   1      47.306  36.395  36.264  1.00  0.00    -0.237 OA
ATOM    113  O   UNL A   1      47.820  37.624  34.182  1.00  0.00    -0.237 OA
ATOM    114  O   UNL A   1      45.640  37.933  35.290  1.00  0.00    -0.744 OA
ENDBRANCH 110 111
ENDBRANCH  78 103
ENDBRANCH  52  53
ENDBRANCH  45  47
ENDBRANCH  44  45
ENDBRANCH  43  44
ENDBRANCH  42  43
ENDBRANCH  41  42
ENDBRANCH  40  41
ENDBRANCH  39  40
ENDBRANCH  38  39
ENDBRANCH   1  38
TORSDOF 28
ENDMDL
