MODEL 1
REMARK VINA RESULT:      -8.7      0.000      0.000
REMARK SMILES Cc1ccc(Cl)c(Nc2ccccc2C(=O)N[C@@H](C)C(=O)OCCOCCOCCOCCOC(=O)c2ccc(-c3c4nc(c(-c5c(F)cc(S(=O)(=O)[O-])cc5F)c5ccc([nH]5)c(-c5c(F)cc(S(=O)(=O)[O-])cc5F)c5nc(c(-c6c(F)cc(S(=O)(=O)[O-])cc6F)c6ccc3[nH]6)C=C5)C=C4)cc2)c1Cl
REMARK SMILES IDX 27 1 26 2 25 3 24 4 23 5 22 6 20 7 21 8 18 9 19 10 17 11
REMARK SMILES IDX 15 12 16 13 14 15 9 16 10 17 11 18 13 19 12 20 8 21 7 23
REMARK SMILES IDX 1 24 2 25 3 26 103 27 4 28 104 29 5 30 6 31 28 32 29 33
REMARK SMILES IDX 30 34 31 35 32 36 33 37 34 38 35 39 36 40 37 41 38 42 102 43
REMARK SMILES IDX 39 44 101 45 40 46 41 47 42 48 95 49 43 50 100 51 94 52
REMARK SMILES IDX 96 53 44 54 99 55 93 56 92 57 45 59 79 60 58 61 78 62 59 63
REMARK SMILES IDX 62 64 77 65 97 66 60 67 61 68 76 70 98 71 63 72 46 73 47 74
REMARK SMILES IDX 56 75 48 76 49 77 55 78 57 79 50 80 51 81 52 82 53 83 54 84
REMARK SMILES IDX 80 85 81 86 90 87 82 88 83 89 89 90 91 91 84 92 85 93 86 94
REMARK SMILES IDX 87 95 88 96 64 97 65 98 74 99 66 100 67 101 73 102 75 103
REMARK SMILES IDX 68 104 69 105 70 106 71 107 72 108
REMARK H PARENT 17 14 8 22 96 58 62 69
REMARK Flexibility Score: inf
ROOT
ATOM      1  C   UNL A   1      34.546  34.230  29.376  1.00  0.00     0.188 C 
ENDROOT
BRANCH   1   2
ATOM      2  C   UNL A   1      35.130  32.871  29.937  1.00  0.00     0.188 C 
BRANCH   2   3
ATOM      3  O   UNL A   1      34.811  31.585  29.343  1.00  0.00    -0.376 OA
BRANCH   3   4
ATOM      4  C   UNL A   1      35.796  30.640  28.874  1.00  0.00     0.202 C 
BRANCH   4   5
ATOM      5  C   UNL A   1      35.691  30.055  27.332  1.00  0.00     0.261 C 
BRANCH   5   6
ATOM      6  O   UNL A   1      35.340  28.615  27.085  1.00  0.00    -0.462 OA
BRANCH   6   7
ATOM      7  C   UNL A   1      34.081  28.284  26.592  1.00  0.00     0.328 C 
ATOM      8  O   UNL A   1      33.146  28.009  27.344  1.00  0.00    -0.250 OA
BRANCH   7   9
ATOM      9  C   UNL A   1      33.815  28.561  25.000  1.00  0.00     0.189 C 
ATOM     10  C   UNL A   1      32.682  29.562  24.767  1.00  0.00     0.043 C 
BRANCH   9  11
ATOM     11  N   UNL A   1      33.695  27.508  23.973  1.00  0.00    -0.339 N 
ATOM     12  C   UNL A   1      33.929  26.138  23.898  1.00  0.00     0.254 C 
ATOM     13  O   UNL A   1      33.850  25.741  22.721  1.00  0.00    -0.269 OA
ATOM     14  H   UNL A   1      33.362  27.868  23.118  1.00  0.00     0.164 HD
BRANCH  12  15
ATOM     15  C   UNL A   1      34.191  25.036  24.961  1.00  0.00     0.063 A 
ATOM     16  C   UNL A   1      33.499  24.540  26.100  1.00  0.00     0.051 A 
ATOM     17  C   UNL A   1      34.064  23.467  26.872  1.00  0.00     0.027 A 
ATOM     18  C   UNL A   1      35.251  22.832  26.536  1.00  0.00     0.002 A 
ATOM     19  C   UNL A   1      35.437  24.371  24.698  1.00  0.00     0.016 A 
ATOM     20  C   UNL A   1      35.951  23.296  25.446  1.00  0.00     0.001 A 
BRANCH  16  21
ATOM     21  N   UNL A   1      32.191  24.871  26.537  1.00  0.00    -0.352 N 
ATOM     22  H   UNL A   1      32.090  25.243  27.443  1.00  0.00     0.167 HD
BRANCH  21  23
ATOM     23  C   UNL A   1      30.999  24.698  25.742  1.00  0.00     0.077 A 
ATOM     24  C   UNL A   1      32.103  22.592  23.492  1.00  0.00     0.046 C 
ATOM     25  C   UNL A   1      30.937  23.450  23.836  1.00  0.00    -0.030 A 
ATOM     26  C   UNL A   1      30.414  24.485  23.070  1.00  0.00     0.006 A 
ATOM     27  C   UNL A   1      30.725  23.473  25.187  1.00  0.00     0.069 A 
ATOM     28  C   UNL A   1      30.050  25.654  23.724  1.00  0.00     0.023 A 
ATOM     29  Cl  UNL A   1      30.609  21.982  26.053  1.00  0.00    -0.082 Cl
ATOM     30  C   UNL A   1      30.465  25.797  25.050  1.00  0.00     0.066 A 
ATOM     31  Cl  UNL A   1      30.450  27.356  25.775  1.00  0.00    -0.082 Cl
ENDBRANCH  21  23
ENDBRANCH  16  21
ENDBRANCH  12  15
ENDBRANCH   9  11
ENDBRANCH   7   9
ENDBRANCH   6   7
ENDBRANCH   5   6
ENDBRANCH   4   5
ENDBRANCH   3   4
ENDBRANCH   2   3
ENDBRANCH   1   2
BRANCH   1  32
ATOM     32  O   UNL A   1      33.200  34.569  29.705  1.00  0.00    -0.377 OA
BRANCH  32  33
ATOM     33  C   UNL A   1      32.927  35.953  29.810  1.00  0.00     0.188 C 
BRANCH  33  34
ATOM     34  C   UNL A   1      32.522  36.387  31.217  1.00  0.00     0.188 C 
BRANCH  34  35
ATOM     35  O   UNL A   1      33.559  36.877  32.042  1.00  0.00    -0.376 OA
BRANCH  35  36
ATOM     36  C   UNL A   1      34.179  36.069  33.035  1.00  0.00     0.202 C 
BRANCH  36  37
ATOM     37  C   UNL A   1      35.502  35.305  32.830  1.00  0.00     0.261 C 
BRANCH  37  38
ATOM     38  O   UNL A   1      35.556  33.917  33.199  1.00  0.00    -0.460 OA
BRANCH  38  39
ATOM     39  C   UNL A   1      36.215  33.574  34.329  1.00  0.00     0.338 C 
ATOM     40  O   UNL A   1      35.839  33.717  35.467  1.00  0.00    -0.246 OA
BRANCH  39  41
ATOM     41  C   UNL A   1      37.371  32.736  33.921  1.00  0.00     0.060 A 
ATOM     42  C   UNL A   1      38.543  32.807  34.691  1.00  0.00     0.016 A 
ATOM     43  C   UNL A   1      37.317  31.917  32.792  1.00  0.00     0.016 A 
ATOM     44  C   UNL A   1      39.677  32.105  34.313  1.00  0.00     0.010 A 
ATOM     45  C   UNL A   1      38.481  31.267  32.368  1.00  0.00     0.010 A 
ATOM     46  C   UNL A   1      39.675  31.416  33.098  1.00  0.00    -0.014 A 
BRANCH  46  47
ATOM     47  C   UNL A   1      40.991  31.207  32.456  1.00  0.00     0.031 A 
ATOM     48  C   UNL A   1      41.508  32.316  31.576  1.00  0.00     0.074 A 
ATOM     49  C   UNL A   1      41.758  30.143  32.751  1.00  0.00     0.049 A 
ATOM     50  N   UNL A   1      42.637  32.405  30.926  1.00  0.00    -0.248 NA
ATOM     51  C   UNL A   1      40.633  33.492  31.420  1.00  0.00     0.031 C 
ATOM     52  C   UNL A   1      41.392  29.062  33.664  1.00  0.00     0.029 A 
ATOM     53  N   UNL A   1      43.014  29.811  32.316  1.00  0.00    -0.354 N 
ATOM     54  C   UNL A   1      42.602  33.636  30.279  1.00  0.00     0.074 A 
ATOM     55  C   UNL A   1      41.331  34.249  30.590  1.00  0.00     0.031 C 
ATOM     56  C   UNL A   1      42.401  28.174  33.710  1.00  0.00     0.029 A 
ATOM     57  C   UNL A   1      43.466  28.611  32.806  1.00  0.00     0.049 A 
ATOM     58  H   UNL A   1      43.541  30.378  31.709  1.00  0.00     0.167 HD
ATOM     59  C   UNL A   1      43.548  34.208  29.499  1.00  0.00     0.037 A 
ATOM     60  C   UNL A   1      44.601  27.938  32.534  1.00  0.00     0.037 A 
ATOM     61  C   UNL A   1      44.807  33.584  29.196  1.00  0.00     0.049 A 
ATOM     62  C   UNL A   1      45.606  28.555  31.593  1.00  0.00     0.074 A 
ATOM     63  C   UNL A   1      45.835  34.063  28.404  1.00  0.00     0.029 A 
ATOM     64  N   UNL A   1      45.207  32.342  29.667  1.00  0.00    -0.354 N 
ATOM     65  N   UNL A   1      45.557  29.711  30.971  1.00  0.00    -0.248 NA
ATOM     66  C   UNL A   1      46.825  27.782  31.323  1.00  0.00     0.031 C 
ATOM     67  C   UNL A   1      46.831  33.083  28.349  1.00  0.00     0.029 A 
ATOM     68  C   UNL A   1      46.457  32.026  29.165  1.00  0.00     0.049 A 
ATOM     69  H   UNL A   1      44.678  31.769  30.270  1.00  0.00     0.167 HD
ATOM     70  C   UNL A   1      46.753  29.819  30.269  1.00  0.00     0.074 A 
ATOM     71  C   UNL A   1      47.507  28.615  30.551  1.00  0.00     0.031 C 
ATOM     72  C   UNL A   1      47.193  30.823  29.469  1.00  0.00     0.037 A 
BRANCH  59  73
ATOM     73  C   UNL A   1      43.231  35.544  28.884  1.00  0.00     0.058 A 
ATOM     74  C   UNL A   1      43.320  36.743  29.611  1.00  0.00     0.135 A 
ATOM     75  C   UNL A   1      42.844  35.625  27.537  1.00  0.00     0.135 A 
ATOM     76  F   UNL A   1      43.657  36.724  30.910  1.00  0.00    -0.206 F 
ATOM     77  C   UNL A   1      43.015  37.971  29.029  1.00  0.00     0.059 A 
ATOM     78  C   UNL A   1      42.566  36.844  26.926  1.00  0.00     0.059 A 
ATOM     79  F   UNL A   1      42.730  34.510  26.798  1.00  0.00    -0.206 F 
ATOM     80  C   UNL A   1      42.642  38.011  27.684  1.00  0.00     0.060 A 
BRANCH  80  81
ATOM     81  S   UNL A   1      42.265  39.611  26.941  1.00  0.00     0.124 S 
ATOM     82  O   UNL A   1      42.098  40.450  28.123  1.00  0.00    -0.237 OA
ATOM     83  O   UNL A   1      43.459  39.872  26.142  1.00  0.00    -0.237 OA
ATOM     84  O   UNL A   1      41.047  39.354  26.177  1.00  0.00    -0.744 OA
ENDBRANCH  80  81
ENDBRANCH  59  73
BRANCH  60  85
ATOM     85  C   UNL A   1      44.840  26.601  33.143  1.00  0.00     0.058 A 
ATOM     86  C   UNL A   1      45.427  26.467  34.410  1.00  0.00     0.135 A 
ATOM     87  C   UNL A   1      44.489  25.425  32.461  1.00  0.00     0.135 A 
ATOM     88  F   UNL A   1      45.793  27.558  35.099  1.00  0.00    -0.206 F 
ATOM     89  C   UNL A   1      45.672  25.218  34.972  1.00  0.00     0.059 A 
ATOM     90  C   UNL A   1      44.695  24.166  33.015  1.00  0.00     0.059 A 
ATOM     91  F   UNL A   1      43.916  25.495  31.249  1.00  0.00    -0.206 F 
ATOM     92  C   UNL A   1      45.296  24.072  34.268  1.00  0.00     0.060 A 
BRANCH  92  93
ATOM     93  S   UNL A   1      45.571  22.458  35.030  1.00  0.00     0.124 S 
ATOM     94  O   UNL A   1      46.914  22.135  34.562  1.00  0.00    -0.237 OA
ATOM     95  O   UNL A   1      45.446  22.769  36.451  1.00  0.00    -0.237 OA
ATOM     96  O   UNL A   1      44.496  21.638  34.478  1.00  0.00    -0.744 OA
ENDBRANCH  92  93
ENDBRANCH  60  85
BRANCH  72  97
ATOM     97  C   UNL A   1      48.578  30.693  28.890  1.00  0.00     0.058 A 
ATOM     98  C   UNL A   1      48.809  30.137  27.622  1.00  0.00     0.135 A 
ATOM     99  C   UNL A   1      49.688  31.169  29.608  1.00  0.00     0.135 A 
ATOM    100  F   UNL A   1      47.785  29.667  26.893  1.00  0.00    -0.206 F 
ATOM    101  C   UNL A   1      50.096  30.018  27.106  1.00  0.00     0.059 A 
ATOM    102  C   UNL A   1      50.978  31.094  29.096  1.00  0.00     0.059 A 
ATOM    103  F   UNL A   1      49.523  31.727  30.818  1.00  0.00    -0.206 F 
ATOM    104  C   UNL A   1      51.175  30.497  27.852  1.00  0.00     0.060 A 
BRANCH 104 105
ATOM    105  S   UNL A   1      52.838  30.338  27.171  1.00  0.00     0.124 S 
ATOM    106  O   UNL A   1      52.723  29.102  26.403  1.00  0.00    -0.237 OA
ATOM    107  O   UNL A   1      52.973  31.562  26.386  1.00  0.00    -0.237 OA
ATOM    108  O   UNL A   1      53.686  30.264  28.357  1.00  0.00    -0.744 OA
ENDBRANCH 104 105
ENDBRANCH  72  97
ENDBRANCH  46  47
ENDBRANCH  39  41
ENDBRANCH  38  39
ENDBRANCH  37  38
ENDBRANCH  36  37
ENDBRANCH  35  36
ENDBRANCH  34  35
ENDBRANCH  33  34
ENDBRANCH  32  33
ENDBRANCH   1  32
TORSDOF 27
ENDMDL
MODEL 2
REMARK VINA RESULT:      -8.7      5.168      9.048
REMARK SMILES Cc1ccc(Cl)c(Nc2ccccc2C(=O)N[C@@H](C)C(=O)OCCOCCOCCOCCOC(=O)c2ccc(-c3c4nc(c(-c5c(F)cc(S(=O)(=O)[O-])cc5F)c5ccc([nH]5)c(-c5c(F)cc(S(=O)(=O)[O-])cc5F)c5nc(c(-c6c(F)cc(S(=O)(=O)[O-])cc6F)c6ccc3[nH]6)C=C5)C=C4)cc2)c1Cl
REMARK SMILES IDX 27 1 26 2 25 3 24 4 23 5 22 6 20 7 21 8 18 9 19 10 17 11
REMARK SMILES IDX 15 12 16 13 14 15 9 16 10 17 11 18 13 19 12 20 8 21 7 23
REMARK SMILES IDX 1 24 2 25 3 26 103 27 4 28 104 29 5 30 6 31 28 32 29 33
REMARK SMILES IDX 30 34 31 35 32 36 33 37 34 38 35 39 36 40 37 41 38 42 102 43
REMARK SMILES IDX 39 44 101 45 40 46 41 47 42 48 95 49 43 50 100 51 94 52
REMARK SMILES IDX 96 53 44 54 99 55 93 56 92 57 45 59 79 60 58 61 78 62 59 63
REMARK SMILES IDX 62 64 77 65 97 66 60 67 61 68 76 70 98 71 63 72 46 73 47 74
REMARK SMILES IDX 56 75 48 76 49 77 55 78 57 79 50 80 51 81 52 82 53 83 54 84
REMARK SMILES IDX 80 85 81 86 90 87 82 88 83 89 89 90 91 91 84 92 85 93 86 94
REMARK SMILES IDX 87 95 88 96 64 97 65 98 74 99 66 100 67 101 73 102 75 103
REMARK SMILES IDX 68 104 69 105 70 106 71 107 72 108
REMARK H PARENT 17 14 8 22 96 58 62 69
REMARK Flexibility Score: inf
ROOT
ATOM      1  C   UNL A   1      39.026  34.008  31.979  1.00  0.00     0.188 C 
ENDROOT
BRANCH   1   2
ATOM      2  C   UNL A   1      40.149  32.932  31.693  1.00  0.00     0.188 C 
BRANCH   2   3
ATOM      3  O   UNL A   1      40.235  31.684  32.431  1.00  0.00    -0.376 OA
BRANCH   3   4
ATOM      4  C   UNL A   1      41.154  31.445  33.517  1.00  0.00     0.202 C 
BRANCH   4   5
ATOM      5  C   UNL A   1      42.781  31.567  33.247  1.00  0.00     0.261 C 
BRANCH   5   6
ATOM      6  O   UNL A   1      43.761  30.950  34.204  1.00  0.00    -0.462 OA
BRANCH   6   7
ATOM      7  C   UNL A   1      44.288  29.690  33.939  1.00  0.00     0.328 C 
ATOM      8  O   UNL A   1      45.300  29.282  34.509  1.00  0.00    -0.250 OA
BRANCH   7   9
ATOM      9  C   UNL A   1      43.351  28.666  33.070  1.00  0.00     0.189 C 
ATOM     10  C   UNL A   1      42.600  27.671  33.956  1.00  0.00     0.043 C 
BRANCH   9  11
ATOM     11  N   UNL A   1      43.798  27.937  31.866  1.00  0.00    -0.339 N 
ATOM     12  C   UNL A   1      45.008  27.482  31.351  1.00  0.00     0.254 C 
ATOM     13  O   UNL A   1      44.867  27.083  30.180  1.00  0.00    -0.269 OA
ATOM     14  H   UNL A   1      43.043  27.714  31.273  1.00  0.00     0.164 HD
BRANCH  12  15
ATOM     15  C   UNL A   1      46.432  27.317  31.948  1.00  0.00     0.063 A 
ATOM     16  C   UNL A   1      47.079  26.362  32.780  1.00  0.00     0.051 A 
ATOM     17  C   UNL A   1      48.460  26.539  33.136  1.00  0.00     0.027 A 
ATOM     18  C   UNL A   1      49.239  27.587  32.664  1.00  0.00     0.002 A 
ATOM     19  C   UNL A   1      47.279  28.402  31.536  1.00  0.00     0.016 A 
ATOM     20  C   UNL A   1      48.640  28.534  31.866  1.00  0.00     0.001 A 
BRANCH  16  21
ATOM     21  N   UNL A   1      46.576  25.114  33.227  1.00  0.00    -0.352 N 
ATOM     22  H   UNL A   1      47.173  24.333  33.176  1.00  0.00     0.167 HD
BRANCH  21  23
ATOM     23  C   UNL A   1      45.246  24.914  33.751  1.00  0.00     0.077 A 
ATOM     24  C   UNL A   1      45.955  23.433  36.583  1.00  0.00     0.046 C 
ATOM     25  C   UNL A   1      44.821  23.794  35.690  1.00  0.00    -0.030 A 
ATOM     26  C   UNL A   1      43.925  22.917  35.090  1.00  0.00     0.006 A 
ATOM     27  C   UNL A   1      45.027  25.012  35.102  1.00  0.00     0.069 A 
ATOM     28  C   UNL A   1      43.585  23.145  33.764  1.00  0.00     0.023 A 
ATOM     29  Cl  UNL A   1      45.429  26.373  36.087  1.00  0.00    -0.082 Cl
ATOM     30  C   UNL A   1      44.352  24.078  33.062  1.00  0.00     0.066 A 
ATOM     31  Cl  UNL A   1      44.296  24.095  31.344  1.00  0.00    -0.082 Cl
ENDBRANCH  21  23
ENDBRANCH  16  21
ENDBRANCH  12  15
ENDBRANCH   9  11
ENDBRANCH   7   9
ENDBRANCH   6   7
ENDBRANCH   5   6
ENDBRANCH   4   5
ENDBRANCH   3   4
ENDBRANCH   2   3
ENDBRANCH   1   2
BRANCH   1  32
ATOM     32  O   UNL A   1      38.552  34.143  33.318  1.00  0.00    -0.377 OA
BRANCH  32  33
ATOM     33  C   UNL A   1      37.217  34.592  33.452  1.00  0.00     0.188 C 
BRANCH  33  34
ATOM     34  C   UNL A   1      36.221  33.790  32.618  1.00  0.00     0.188 C 
BRANCH  34  35
ATOM     35  O   UNL A   1      35.508  34.510  31.632  1.00  0.00    -0.376 OA
BRANCH  35  36
ATOM     36  C   UNL A   1      34.889  33.864  30.527  1.00  0.00     0.202 C 
BRANCH  36  37
ATOM     37  C   UNL A   1      34.853  32.336  30.324  1.00  0.00     0.261 C 
BRANCH  37  38
ATOM     38  O   UNL A   1      36.095  31.644  30.112  1.00  0.00    -0.460 OA
BRANCH  38  39
ATOM     39  C   UNL A   1      36.456  30.683  30.992  1.00  0.00     0.338 C 
ATOM     40  O   UNL A   1      35.908  30.397  32.029  1.00  0.00    -0.246 OA
BRANCH  39  41
ATOM     41  C   UNL A   1      37.491  29.850  30.326  1.00  0.00     0.060 A 
ATOM     42  C   UNL A   1      38.270  28.999  31.127  1.00  0.00     0.016 A 
ATOM     43  C   UNL A   1      37.711  29.922  28.950  1.00  0.00     0.016 A 
ATOM     44  C   UNL A   1      39.299  28.257  30.570  1.00  0.00     0.010 A 
ATOM     45  C   UNL A   1      38.797  29.232  28.399  1.00  0.00     0.010 A 
ATOM     46  C   UNL A   1      39.625  28.451  29.225  1.00  0.00    -0.014 A 
BRANCH  46  47
ATOM     47  C   UNL A   1      41.018  28.141  28.833  1.00  0.00     0.031 A 
ATOM     48  C   UNL A   1      42.030  29.249  28.970  1.00  0.00     0.074 A 
ATOM     49  C   UNL A   1      41.396  26.895  28.504  1.00  0.00     0.049 A 
ATOM     50  N   UNL A   1      43.314  29.238  28.731  1.00  0.00    -0.248 NA
ATOM     51  C   UNL A   1      41.523  30.545  29.457  1.00  0.00     0.031 C 
ATOM     52  C   UNL A   1      40.514  25.731  28.435  1.00  0.00     0.029 A 
ATOM     53  N   UNL A   1      42.633  26.403  28.178  1.00  0.00    -0.354 N 
ATOM     54  C   UNL A   1      43.762  30.521  29.027  1.00  0.00     0.074 A 
ATOM     55  C   UNL A   1      42.613  31.294  29.437  1.00  0.00     0.031 C 
ATOM     56  C   UNL A   1      41.240  24.658  28.073  1.00  0.00     0.029 A 
ATOM     57  C   UNL A   1      42.627  25.069  27.855  1.00  0.00     0.049 A 
ATOM     58  H   UNL A   1      43.448  26.955  28.175  1.00  0.00     0.167 HD
ATOM     59  C   UNL A   1      45.022  31.010  28.967  1.00  0.00     0.037 A 
ATOM     60  C   UNL A   1      43.627  24.282  27.413  1.00  0.00     0.037 A 
ATOM     61  C   UNL A   1      46.156  30.229  28.555  1.00  0.00     0.049 A 
ATOM     62  C   UNL A   1      45.010  24.870  27.272  1.00  0.00     0.074 A 
ATOM     63  C   UNL A   1      47.477  30.624  28.442  1.00  0.00     0.029 A 
ATOM     64  N   UNL A   1      46.101  28.893  28.181  1.00  0.00    -0.354 N 
ATOM     65  N   UNL A   1      45.421  26.088  27.536  1.00  0.00    -0.248 NA
ATOM     66  C   UNL A   1      46.065  23.975  26.782  1.00  0.00     0.031 C 
ATOM     67  C   UNL A   1      48.210  29.542  27.942  1.00  0.00     0.029 A 
ATOM     68  C   UNL A   1      47.361  28.453  27.815  1.00  0.00     0.049 A 
ATOM     69  H   UNL A   1      45.286  28.341  28.178  1.00  0.00     0.167 HD
ATOM     70  C   UNL A   1      46.789  26.094  27.282  1.00  0.00     0.074 A 
ATOM     71  C   UNL A   1      47.134  24.755  26.851  1.00  0.00     0.031 C 
ATOM     72  C   UNL A   1      47.682  27.110  27.398  1.00  0.00     0.037 A 
BRANCH  59  73
ATOM     73  C   UNL A   1      45.223  32.462  29.307  1.00  0.00     0.058 A 
ATOM     74  C   UNL A   1      45.127  33.477  28.341  1.00  0.00     0.135 A 
ATOM     75  C   UNL A   1      45.505  32.843  30.629  1.00  0.00     0.135 A 
ATOM     76  F   UNL A   1      44.887  33.169  27.056  1.00  0.00    -0.206 F 
ATOM     77  C   UNL A   1      45.324  34.816  28.670  1.00  0.00     0.059 A 
ATOM     78  C   UNL A   1      45.674  34.177  30.986  1.00  0.00     0.059 A 
ATOM     79  F   UNL A   1      45.622  31.914  31.590  1.00  0.00    -0.206 F 
ATOM     80  C   UNL A   1      45.594  35.156  29.997  1.00  0.00     0.060 A 
BRANCH  80  81
ATOM     81  S   UNL A   1      45.832  36.896  30.410  1.00  0.00     0.124 S 
ATOM     82  O   UNL A   1      44.684  37.513  29.753  1.00  0.00    -0.237 OA
ATOM     83  O   UNL A   1      45.793  36.878  31.869  1.00  0.00    -0.237 OA
ATOM     84  O   UNL A   1      47.133  37.211  29.825  1.00  0.00    -0.744 OA
ENDBRANCH  80  81
ENDBRANCH  59  73
BRANCH  60  85
ATOM     85  C   UNL A   1      43.357  22.862  27.055  1.00  0.00     0.058 A 
ATOM     86  C   UNL A   1      43.311  22.440  25.718  1.00  0.00     0.135 A 
ATOM     87  C   UNL A   1      43.133  21.898  28.051  1.00  0.00     0.135 A 
ATOM     88  F   UNL A   1      43.507  23.323  24.728  1.00  0.00    -0.206 F 
ATOM     89  C   UNL A   1      43.038  21.118  25.380  1.00  0.00     0.059 A 
ATOM     90  C   UNL A   1      42.889  20.564  27.739  1.00  0.00     0.059 A 
ATOM     91  F   UNL A   1      43.174  22.245  29.346  1.00  0.00    -0.206 F 
ATOM     92  C   UNL A   1      42.833  20.186  26.399  1.00  0.00     0.060 A 
BRANCH  92  93
ATOM     93  S   UNL A   1      42.532  18.463  25.949  1.00  0.00     0.124 S 
ATOM     94  O   UNL A   1      42.852  17.773  27.193  1.00  0.00    -0.237 OA
ATOM     95  O   UNL A   1      41.120  18.489  25.577  1.00  0.00    -0.237 OA
ATOM     96  O   UNL A   1      43.460  18.237  24.844  1.00  0.00    -0.744 OA
ENDBRANCH  92  93
ENDBRANCH  60  85
BRANCH  72  97
ATOM     97  C   UNL A   1      49.128  26.798  27.115  1.00  0.00     0.058 A 
ATOM     98  C   UNL A   1      50.036  26.472  28.134  1.00  0.00     0.135 A 
ATOM     99  C   UNL A   1      49.600  26.791  25.791  1.00  0.00     0.135 A 
ATOM    100  F   UNL A   1      49.640  26.464  29.416  1.00  0.00    -0.206 F 
ATOM    101  C   UNL A   1      51.370  26.195  27.855  1.00  0.00     0.059 A 
ATOM    102  C   UNL A   1      50.920  26.479  25.486  1.00  0.00     0.059 A 
ATOM    103  F   UNL A   1      48.770  27.077  24.775  1.00  0.00    -0.206 F 
ATOM    104  C   UNL A   1      51.804  26.202  26.527  1.00  0.00     0.060 A 
BRANCH 104 105
ATOM    105  S   UNL A   1      53.536  25.838  26.179  1.00  0.00     0.124 S 
ATOM    106  O   UNL A   1      53.423  24.657  25.331  1.00  0.00    -0.237 OA
ATOM    107  O   UNL A   1      53.983  27.058  25.512  1.00  0.00    -0.237 OA
ATOM    108  O   UNL A   1      54.109  25.609  27.502  1.00  0.00    -0.744 OA
ENDBRANCH 104 105
ENDBRANCH  72  97
ENDBRANCH  46  47
ENDBRANCH  39  41
ENDBRANCH  38  39
ENDBRANCH  37  38
ENDBRANCH  36  37
ENDBRANCH  35  36
ENDBRANCH  34  35
ENDBRANCH  33  34
ENDBRANCH  32  33
ENDBRANCH   1  32
TORSDOF 27
ENDMDL
MODEL 3
REMARK VINA RESULT:      -8.6      1.877      8.235
REMARK SMILES Cc1ccc(Cl)c(Nc2ccccc2C(=O)N[C@@H](C)C(=O)OCCOCCOCCOCCOC(=O)c2ccc(-c3c4nc(c(-c5c(F)cc(S(=O)(=O)[O-])cc5F)c5ccc([nH]5)c(-c5c(F)cc(S(=O)(=O)[O-])cc5F)c5nc(c(-c6c(F)cc(S(=O)(=O)[O-])cc6F)c6ccc3[nH]6)C=C5)C=C4)cc2)c1Cl
REMARK SMILES IDX 27 1 26 2 25 3 24 4 23 5 22 6 20 7 21 8 18 9 19 10 17 11
REMARK SMILES IDX 15 12 16 13 14 15 9 16 10 17 11 18 13 19 12 20 8 21 7 23
REMARK SMILES IDX 1 24 2 25 3 26 103 27 4 28 104 29 5 30 6 31 28 32 29 33
REMARK SMILES IDX 30 34 31 35 32 36 33 37 34 38 35 39 36 40 37 41 38 42 102 43
REMARK SMILES IDX 39 44 101 45 40 46 41 47 42 48 95 49 43 50 100 51 94 52
REMARK SMILES IDX 96 53 44 54 99 55 93 56 92 57 45 59 79 60 58 61 78 62 59 63
REMARK SMILES IDX 62 64 77 65 97 66 60 67 61 68 76 70 98 71 63 72 46 73 47 74
REMARK SMILES IDX 56 75 48 76 49 77 55 78 57 79 50 80 51 81 52 82 53 83 54 84
REMARK SMILES IDX 80 85 81 86 90 87 82 88 83 89 89 90 91 91 84 92 85 93 86 94
REMARK SMILES IDX 87 95 88 96 64 97 65 98 74 99 66 100 67 101 73 102 75 103
REMARK SMILES IDX 68 104 69 105 70 106 71 107 72 108
REMARK H PARENT 17 14 8 22 96 58 62 69
REMARK Flexibility Score: inf
ROOT
ATOM      1  C   UNL A   1      35.783  32.729  30.941  1.00  0.00     0.188 C 
ENDROOT
BRANCH   1   2
ATOM      2  C   UNL A   1      35.957  31.170  31.146  1.00  0.00     0.188 C 
BRANCH   2   3
ATOM      3  O   UNL A   1      36.463  30.301  30.099  1.00  0.00    -0.376 OA
BRANCH   3   4
ATOM      4  C   UNL A   1      36.620  30.698  28.720  1.00  0.00     0.202 C 
BRANCH   4   5
ATOM      5  C   UNL A   1      35.459  30.285  27.619  1.00  0.00     0.261 C 
BRANCH   5   6
ATOM      6  O   UNL A   1      34.750  28.965  27.717  1.00  0.00    -0.462 OA
BRANCH   6   7
ATOM      7  C   UNL A   1      33.501  28.803  27.124  1.00  0.00     0.328 C 
ATOM      8  O   UNL A   1      32.660  28.034  27.590  1.00  0.00    -0.250 OA
BRANCH   7   9
ATOM      9  C   UNL A   1      33.088  29.886  25.967  1.00  0.00     0.189 C 
ATOM     10  C   UNL A   1      31.820  30.662  26.323  1.00  0.00     0.043 C 
BRANCH   9  11
ATOM     11  N   UNL A   1      33.035  29.590  24.521  1.00  0.00    -0.339 N 
ATOM     12  C   UNL A   1      32.298  28.755  23.687  1.00  0.00     0.254 C 
ATOM     13  O   UNL A   1      32.781  28.739  22.540  1.00  0.00    -0.269 OA
ATOM     14  H   UNL A   1      33.693  30.121  24.015  1.00  0.00     0.164 HD
BRANCH  12  15
ATOM     15  C   UNL A   1      30.999  27.925  23.878  1.00  0.00     0.063 A 
ATOM     16  C   UNL A   1      30.634  26.770  24.625  1.00  0.00     0.051 A 
ATOM     17  C   UNL A   1      29.288  26.270  24.560  1.00  0.00     0.027 A 
ATOM     18  C   UNL A   1      28.280  26.891  23.834  1.00  0.00     0.002 A 
ATOM     19  C   UNL A   1      29.924  28.489  23.110  1.00  0.00     0.016 A 
ATOM     20  C   UNL A   1      28.604  28.003  23.093  1.00  0.00     0.001 A 
BRANCH  16  21
ATOM     21  N   UNL A   1      31.408  26.075  25.588  1.00  0.00    -0.352 N 
ATOM     22  H   UNL A   1      31.505  26.481  26.480  1.00  0.00     0.167 HD
BRANCH  21  23
ATOM     23  C   UNL A   1      32.064  24.812  25.347  1.00  0.00     0.077 A 
ATOM     24  C   UNL A   1      32.640  25.061  22.135  1.00  0.00     0.046 C 
ATOM     25  C   UNL A   1      32.698  24.107  23.275  1.00  0.00    -0.030 A 
ATOM     26  C   UNL A   1      32.017  22.899  23.381  1.00  0.00     0.006 A 
ATOM     27  C   UNL A   1      33.079  24.739  24.426  1.00  0.00     0.069 A 
ATOM     28  C   UNL A   1      31.433  22.591  24.602  1.00  0.00     0.023 A 
ATOM     29  Cl  UNL A   1      34.507  25.712  24.428  1.00  0.00    -0.082 Cl
ATOM     30  C   UNL A   1      31.355  23.617  25.547  1.00  0.00     0.066 A 
ATOM     31  Cl  UNL A   1      30.275  23.459  26.876  1.00  0.00    -0.082 Cl
ENDBRANCH  21  23
ENDBRANCH  16  21
ENDBRANCH  12  15
ENDBRANCH   9  11
ENDBRANCH   7   9
ENDBRANCH   6   7
ENDBRANCH   5   6
ENDBRANCH   4   5
ENDBRANCH   3   4
ENDBRANCH   2   3
ENDBRANCH   1   2
BRANCH   1  32
ATOM     32  O   UNL A   1      34.462  33.239  30.766  1.00  0.00    -0.377 OA
BRANCH  32  33
ATOM     33  C   UNL A   1      34.197  34.478  31.396  1.00  0.00     0.188 C 
BRANCH  33  34
ATOM     34  C   UNL A   1      33.851  34.344  32.877  1.00  0.00     0.188 C 
BRANCH  34  35
ATOM     35  O   UNL A   1      34.703  35.018  33.781  1.00  0.00    -0.376 OA
BRANCH  35  36
ATOM     36  C   UNL A   1      35.520  34.319  34.712  1.00  0.00     0.202 C 
BRANCH  36  37
ATOM     37  C   UNL A   1      36.804  33.555  34.335  1.00  0.00     0.261 C 
BRANCH  37  38
ATOM     38  O   UNL A   1      36.928  32.181  34.739  1.00  0.00    -0.460 OA
BRANCH  38  39
ATOM     39  C   UNL A   1      37.725  31.887  35.790  1.00  0.00     0.338 C 
ATOM     40  O   UNL A   1      37.460  31.998  36.963  1.00  0.00    -0.246 OA
BRANCH  39  41
ATOM     41  C   UNL A   1      38.894  31.142  35.257  1.00  0.00     0.060 A 
ATOM     42  C   UNL A   1      40.139  31.330  35.878  1.00  0.00     0.016 A 
ATOM     43  C   UNL A   1      38.777  30.295  34.153  1.00  0.00     0.016 A 
ATOM     44  C   UNL A   1      41.276  30.719  35.375  1.00  0.00     0.010 A 
ATOM     45  C   UNL A   1      39.935  29.738  33.599  1.00  0.00     0.010 A 
ATOM     46  C   UNL A   1      41.190  30.005  34.177  1.00  0.00    -0.014 A 
BRANCH  46  47
ATOM     47  C   UNL A   1      42.433  29.894  33.384  1.00  0.00     0.031 A 
ATOM     48  C   UNL A   1      43.189  28.593  33.475  1.00  0.00     0.074 A 
ATOM     49  C   UNL A   1      42.801  30.849  32.514  1.00  0.00     0.049 A 
ATOM     50  N   UNL A   1      44.281  28.220  32.863  1.00  0.00    -0.248 NA
ATOM     51  C   UNL A   1      42.626  27.567  34.372  1.00  0.00     0.031 C 
ATOM     52  C   UNL A   1      42.088  32.102  32.279  1.00  0.00     0.029 A 
ATOM     53  N   UNL A   1      43.868  30.899  31.655  1.00  0.00    -0.354 N 
ATOM     54  C   UNL A   1      44.538  26.928  33.308  1.00  0.00     0.074 A 
ATOM     55  C   UNL A   1      43.507  26.588  34.261  1.00  0.00     0.031 C 
ATOM     56  C   UNL A   1      42.748  32.808  31.344  1.00  0.00     0.029 A 
ATOM     57  C   UNL A   1      43.944  32.069  30.941  1.00  0.00     0.049 A 
ATOM     58  H   UNL A   1      44.519  30.166  31.561  1.00  0.00     0.167 HD
ATOM     59  C   UNL A   1      45.543  26.095  32.949  1.00  0.00     0.037 A 
ATOM     60  C   UNL A   1      44.888  32.495  30.079  1.00  0.00     0.037 A 
ATOM     61  C   UNL A   1      46.563  26.449  32.001  1.00  0.00     0.049 A 
ATOM     62  C   UNL A   1      46.047  31.584  29.757  1.00  0.00     0.074 A 
ATOM     63  C   UNL A   1      47.639  25.691  31.573  1.00  0.00     0.029 A 
ATOM     64  N   UNL A   1      46.639  27.666  31.338  1.00  0.00    -0.354 N 
ATOM     65  N   UNL A   1      46.292  30.371  30.196  1.00  0.00    -0.248 NA
ATOM     66  C   UNL A   1      47.052  32.095  28.817  1.00  0.00     0.031 C 
ATOM     67  C   UNL A   1      48.397  26.474  30.696  1.00  0.00     0.029 A 
ATOM     68  C   UNL A   1      47.755  27.690  30.521  1.00  0.00     0.049 A 
ATOM     69  H   UNL A   1      45.993  28.403  31.436  1.00  0.00     0.167 HD
ATOM     70  C   UNL A   1      47.458  29.961  29.555  1.00  0.00     0.074 A 
ATOM     71  C   UNL A   1      47.861  31.053  28.693  1.00  0.00     0.031 C 
ATOM     72  C   UNL A   1      48.131  28.787  29.663  1.00  0.00     0.037 A 
BRANCH  59  73
ATOM     73  C   UNL A   1      45.609  24.751  33.623  1.00  0.00     0.058 A 
ATOM     74  C   UNL A   1      44.937  23.626  33.117  1.00  0.00     0.135 A 
ATOM     75  C   UNL A   1      46.373  24.586  34.790  1.00  0.00     0.135 A 
ATOM     76  F   UNL A   1      44.169  23.732  32.021  1.00  0.00    -0.206 F 
ATOM     77  C   UNL A   1      45.001  22.391  33.757  1.00  0.00     0.059 A 
ATOM     78  C   UNL A   1      46.478  23.354  35.427  1.00  0.00     0.059 A 
ATOM     79  F   UNL A   1      47.025  25.630  35.324  1.00  0.00    -0.206 F 
ATOM     80  C   UNL A   1      45.779  22.265  34.910  1.00  0.00     0.060 A 
BRANCH  80  81
ATOM     81  S   UNL A   1      45.865  20.654  35.719  1.00  0.00     0.124 S 
ATOM     82  O   UNL A   1      44.754  19.949  35.088  1.00  0.00    -0.237 OA
ATOM     83  O   UNL A   1      47.199  20.192  35.351  1.00  0.00    -0.237 OA
ATOM     84  O   UNL A   1      45.683  20.972  37.133  1.00  0.00    -0.744 OA
ENDBRANCH  80  81
ENDBRANCH  59  73
BRANCH  60  85
ATOM     85  C   UNL A   1      44.788  33.852  29.474  1.00  0.00     0.058 A 
ATOM     86  C   UNL A   1      45.254  34.991  30.148  1.00  0.00     0.135 A 
ATOM     87  C   UNL A   1      44.215  34.036  28.205  1.00  0.00     0.135 A 
ATOM     88  F   UNL A   1      45.799  34.872  31.368  1.00  0.00    -0.206 F 
ATOM     89  C   UNL A   1      45.143  36.262  29.595  1.00  0.00     0.059 A 
ATOM     90  C   UNL A   1      44.120  35.293  27.618  1.00  0.00     0.059 A 
ATOM     91  F   UNL A   1      43.760  32.980  27.513  1.00  0.00    -0.206 F 
ATOM     92  C   UNL A   1      44.578  36.402  28.326  1.00  0.00     0.060 A 
BRANCH  92  93
ATOM     93  S   UNL A   1      44.487  38.052  27.596  1.00  0.00     0.124 S 
ATOM     94  O   UNL A   1      43.387  37.896  26.651  1.00  0.00    -0.237 OA
ATOM     95  O   UNL A   1      44.214  38.886  28.763  1.00  0.00    -0.237 OA
ATOM     96  O   UNL A   1      45.809  38.230  27.002  1.00  0.00    -0.744 OA
ENDBRANCH  92  93
ENDBRANCH  60  85
BRANCH  72  97
ATOM     97  C   UNL A   1      49.339  28.598  28.783  1.00  0.00     0.058 A 
ATOM     98  C   UNL A   1      49.251  28.024  27.506  1.00  0.00     0.135 A 
ATOM     99  C   UNL A   1      50.602  29.036  29.219  1.00  0.00     0.135 A 
ATOM    100  F   UNL A   1      48.070  27.588  27.040  1.00  0.00    -0.206 F 
ATOM    101  C   UNL A   1      50.379  27.849  26.710  1.00  0.00     0.059 A 
ATOM    102  C   UNL A   1      51.735  28.906  28.424  1.00  0.00     0.059 A 
ATOM    103  F   UNL A   1      50.741  29.609  30.425  1.00  0.00    -0.206 F 
ATOM    104  C   UNL A   1      51.617  28.292  27.179  1.00  0.00     0.060 A 
BRANCH 104 105
ATOM    105  S   UNL A   1      53.072  28.062  26.136  1.00  0.00     0.124 S 
ATOM    106  O   UNL A   1      52.615  28.620  24.868  1.00  0.00    -0.237 OA
ATOM    107  O   UNL A   1      54.087  28.838  26.841  1.00  0.00    -0.237 OA
ATOM    108  O   UNL A   1      53.274  26.616  26.149  1.00  0.00    -0.744 OA
ENDBRANCH 104 105
ENDBRANCH  72  97
ENDBRANCH  46  47
ENDBRANCH  39  41
ENDBRANCH  38  39
ENDBRANCH  37  38
ENDBRANCH  36  37
ENDBRANCH  35  36
ENDBRANCH  34  35
ENDBRANCH  33  34
ENDBRANCH  32  33
ENDBRANCH   1  32
TORSDOF 27
ENDMDL
