MODEL 1
REMARK VINA RESULT:     -10.9      0.000      0.000
REMARK SMILES O=C(OCCOCCOCCOCCOC(=O)c1ccc(-c2c3nc(c(-c4c(F)cc(S(=O)(=O)[O-])cc4F)c4ccc([nH]4)c(-c4c(F)cc(S(=O)(=O)[O-])cc4F)c4nc(c(-c5c(F)cc(S(=O)(=O)[O-])cc5F)c5ccc2[nH]5)C=C4)C=C3)cc1)C1=Cc2c(Cl)ccc(Cl)c2O[C@@H]1C(F)(F)F
REMARK SMILES IDX 10 1 9 2 8 3 7 4 6 5 5 6 4 7 3 8 2 9 1 10 84 11 85 12 95 13
REMARK SMILES IDX 86 14 94 15 87 16 93 17 88 18 89 19 91 20 90 21 92 22 96 23
REMARK SMILES IDX 97 24 98 25 99 26 11 27 12 28 13 29 14 30 15 31 16 32 17 33
REMARK SMILES IDX 18 34 19 35 83 36 20 37 82 38 21 39 22 40 23 41 76 42 24 43
REMARK SMILES IDX 81 44 75 45 77 46 25 47 80 48 74 49 73 50 26 52 60 53 39 54
REMARK SMILES IDX 59 55 40 56 43 57 58 58 78 59 41 60 42 61 57 63 79 64 44 65
REMARK SMILES IDX 27 66 28 67 37 68 29 69 30 70 36 71 38 72 31 73 32 74 33 75
REMARK SMILES IDX 34 76 35 77 61 78 62 79 71 80 63 81 64 82 70 83 72 84 65 85
REMARK SMILES IDX 66 86 67 87 68 88 69 89 45 90 46 91 55 92 47 93 48 94 54 95
REMARK SMILES IDX 56 96 49 97 50 98 51 99 52 100 53 101
REMARK H PARENT 77 51 43 62
REMARK Flexibility Score: inf
ROOT
ATOM      1  C   UNL A   1      35.200  31.644  29.923  1.00  0.00     0.188 C 
ENDROOT
BRANCH   1   2
ATOM      2  O   UNL A   1      35.617  30.837  28.848  1.00  0.00    -0.377 OA
BRANCH   2   3
ATOM      3  C   UNL A   1      35.033  31.243  27.635  1.00  0.00     0.188 C 
BRANCH   3   4
ATOM      4  C   UNL A   1      33.868  30.366  27.159  1.00  0.00     0.188 C 
BRANCH   4   5
ATOM      5  O   UNL A   1      32.599  30.876  26.618  1.00  0.00    -0.376 OA
BRANCH   5   6
ATOM      6  C   UNL A   1      31.416  30.215  25.657  1.00  0.00     0.202 C 
BRANCH   6   7
ATOM      7  C   UNL A   1      31.562  28.399  24.453  1.00  0.00     0.261 C 
BRANCH   7   8
ATOM      8  O   UNL A   1      32.772  27.503  24.320  1.00  0.00    -0.460 OA
BRANCH   8   9
ATOM      9  C   UNL A   1      32.487  26.224  24.586  1.00  0.00     0.338 C 
ATOM     10  O   UNL A   1      31.897  25.776  25.538  1.00  0.00    -0.246 OA
BRANCH   9  11
ATOM     11  C   UNL A   1      33.497  25.626  23.724  1.00  0.00     0.087 C 
ATOM     12  C   UNL A   1      34.593  24.970  24.440  1.00  0.00     0.029 C 
ATOM     13  C   UNL A   1      32.187  24.713  22.666  1.00  0.00     0.316 C 
ATOM     14  C   UNL A   1      34.767  23.180  24.647  1.00  0.00     0.037 A 
ATOM     15  O   UNL A   1      32.237  22.788  22.980  1.00  0.00    -0.474 OA
ATOM     16  C   UNL A   1      35.804  22.653  25.383  1.00  0.00     0.052 A 
ATOM     17  C   UNL A   1      33.568  22.075  24.039  1.00  0.00     0.148 A 
ATOM     18  Cl  UNL A   1      37.037  23.608  26.094  1.00  0.00    -0.084 Cl
ATOM     19  C   UNL A   1      35.799  21.256  25.554  1.00  0.00     0.023 A 
ATOM     20  C   UNL A   1      33.612  20.731  24.327  1.00  0.00     0.083 A 
ATOM     21  C   UNL A   1      34.765  20.356  25.065  1.00  0.00     0.026 A 
ATOM     22  Cl  UNL A   1      32.398  19.583  24.009  1.00  0.00    -0.080 Cl
BRANCH  13  23
ATOM     23  C   UNL A   1      32.533  25.654  21.317  1.00  0.00     0.430 C 
ATOM     24  F   UNL A   1      32.810  25.036  20.155  1.00  0.00    -0.167 F 
ATOM     25  F   UNL A   1      31.395  26.366  21.042  1.00  0.00    -0.167 F 
ATOM     26  F   UNL A   1      33.479  26.607  21.506  1.00  0.00    -0.167 F 
ENDBRANCH  13  23
ENDBRANCH   9  11
ENDBRANCH   8   9
ENDBRANCH   7   8
ENDBRANCH   6   7
ENDBRANCH   5   6
ENDBRANCH   4   5
ENDBRANCH   3   4
ENDBRANCH   2   3
ENDBRANCH   1   2
BRANCH   1  27
ATOM     27  C   UNL A   1      34.708  33.052  29.574  1.00  0.00     0.188 C 
BRANCH  27  28
ATOM     28  O   UNL A   1      35.138  34.216  30.257  1.00  0.00    -0.376 OA
BRANCH  28  29
ATOM     29  C   UNL A   1      35.456  34.193  31.635  1.00  0.00     0.202 C 
BRANCH  29  30
ATOM     30  C   UNL A   1      36.907  34.178  32.142  1.00  0.00     0.261 C 
BRANCH  30  31
ATOM     31  O   UNL A   1      37.813  33.288  31.482  1.00  0.00    -0.460 OA
BRANCH  31  32
ATOM     32  C   UNL A   1      37.975  32.090  32.084  1.00  0.00     0.338 C 
ATOM     33  O   UNL A   1      37.358  31.674  33.050  1.00  0.00    -0.246 OA
BRANCH  32  34
ATOM     34  C   UNL A   1      38.887  31.242  31.285  1.00  0.00     0.060 A 
ATOM     35  C   UNL A   1      39.737  30.370  31.982  1.00  0.00     0.016 A 
ATOM     36  C   UNL A   1      38.938  31.307  29.890  1.00  0.00     0.016 A 
ATOM     37  C   UNL A   1      40.685  29.618  31.303  1.00  0.00     0.010 A 
ATOM     38  C   UNL A   1      39.923  30.582  29.209  1.00  0.00     0.010 A 
ATOM     39  C   UNL A   1      40.834  29.782  29.924  1.00  0.00    -0.014 A 
BRANCH  39  40
ATOM     40  C   UNL A   1      42.101  29.327  29.306  1.00  0.00     0.031 A 
ATOM     41  C   UNL A   1      43.237  30.313  29.215  1.00  0.00     0.074 A 
ATOM     42  C   UNL A   1      42.276  28.045  28.939  1.00  0.00     0.049 A 
ATOM     43  N   UNL A   1      44.440  30.151  28.729  1.00  0.00    -0.248 NA
ATOM     44  C   UNL A   1      42.981  31.663  29.745  1.00  0.00     0.031 C 
ATOM     45  C   UNL A   1      41.263  26.995  29.037  1.00  0.00     0.029 A 
ATOM     46  N   UNL A   1      43.370  27.412  28.409  1.00  0.00    -0.354 N 
ATOM     47  C   UNL A   1      45.081  31.373  28.896  1.00  0.00     0.074 A 
ATOM     48  C   UNL A   1      44.120  32.282  29.481  1.00  0.00     0.031 C 
ATOM     49  C   UNL A   1      41.781  25.847  28.567  1.00  0.00     0.029 A 
ATOM     50  C   UNL A   1      43.146  26.091  28.102  1.00  0.00     0.049 A 
ATOM     51  H   UNL A   1      44.234  27.860  28.263  1.00  0.00     0.167 HD
ATOM     52  C   UNL A   1      46.361  31.703  28.605  1.00  0.00     0.037 A 
ATOM     53  C   UNL A   1      43.943  25.196  27.486  1.00  0.00     0.037 A 
ATOM     54  C   UNL A   1      47.305  30.791  28.014  1.00  0.00     0.049 A 
ATOM     55  C   UNL A   1      45.335  25.614  27.084  1.00  0.00     0.074 A 
ATOM     56  C   UNL A   1      48.623  31.025  27.664  1.00  0.00     0.029 A 
ATOM     57  N   UNL A   1      47.031  29.472  27.679  1.00  0.00    -0.354 N 
ATOM     58  N   UNL A   1      45.934  26.770  27.253  1.00  0.00    -0.248 NA
ATOM     59  C   UNL A   1      46.166  24.602  26.416  1.00  0.00     0.031 C 
ATOM     60  C   UNL A   1      49.125  29.868  27.060  1.00  0.00     0.029 A 
ATOM     61  C   UNL A   1      48.147  28.887  27.105  1.00  0.00     0.049 A 
ATOM     62  H   UNL A   1      46.169  29.020  27.827  1.00  0.00     0.167 HD
ATOM     63  C   UNL A   1      47.220  26.613  26.743  1.00  0.00     0.074 A 
ATOM     64  C   UNL A   1      47.318  25.243  26.284  1.00  0.00     0.031 C 
ATOM     65  C   UNL A   1      48.230  27.517  26.660  1.00  0.00     0.037 A 
BRANCH  52  66
ATOM     66  C   UNL A   1      46.808  33.109  28.905  1.00  0.00     0.058 A 
ATOM     67  C   UNL A   1      46.671  34.146  27.967  1.00  0.00     0.135 A 
ATOM     68  C   UNL A   1      47.341  33.436  30.163  1.00  0.00     0.135 A 
ATOM     69  F   UNL A   1      46.188  33.890  26.741  1.00  0.00    -0.206 F 
ATOM     70  C   UNL A   1      47.064  35.448  28.258  1.00  0.00     0.059 A 
ATOM     71  C   UNL A   1      47.708  34.739  30.488  1.00  0.00     0.059 A 
ATOM     72  F   UNL A   1      47.502  32.485  31.097  1.00  0.00    -0.206 F 
ATOM     73  C   UNL A   1      47.574  35.737  29.525  1.00  0.00     0.060 A 
BRANCH  73  74
ATOM     74  S   UNL A   1      48.048  37.438  29.892  1.00  0.00     0.124 S 
ATOM     75  O   UNL A   1      48.315  37.964  28.557  1.00  0.00    -0.237 OA
ATOM     76  O   UNL A   1      46.854  37.956  30.551  1.00  0.00    -0.237 OA
ATOM     77  O   UNL A   1      49.220  37.289  30.751  1.00  0.00    -0.744 OA
ENDBRANCH  73  74
ENDBRANCH  52  66
BRANCH  53  78
ATOM     78  C   UNL A   1      43.438  23.829  27.178  1.00  0.00     0.058 A 
ATOM     79  C   UNL A   1      42.928  23.500  25.913  1.00  0.00     0.135 A 
ATOM     80  C   UNL A   1      43.428  22.827  28.163  1.00  0.00     0.135 A 
ATOM     81  F   UNL A   1      42.907  24.422  24.938  1.00  0.00    -0.206 F 
ATOM     82  C   UNL A   1      42.396  22.242  25.645  1.00  0.00     0.059 A 
ATOM     83  C   UNL A   1      42.938  21.550  27.908  1.00  0.00     0.059 A 
ATOM     84  F   UNL A   1      43.914  23.080  29.388  1.00  0.00    -0.206 F 
ATOM     85  C   UNL A   1      42.409  21.273  26.649  1.00  0.00     0.060 A 
BRANCH  85  86
ATOM     86  S   UNL A   1      41.747  19.635  26.279  1.00  0.00     0.124 S 
ATOM     87  O   UNL A   1      42.164  18.876  27.452  1.00  0.00    -0.237 OA
ATOM     88  O   UNL A   1      40.318  19.906  26.166  1.00  0.00    -0.237 OA
ATOM     89  O   UNL A   1      42.411  19.280  25.028  1.00  0.00    -0.744 OA
ENDBRANCH  85  86
ENDBRANCH  53  78
BRANCH  65  90
ATOM     90  C   UNL A   1      49.545  27.039  26.101  1.00  0.00     0.058 A 
ATOM     91  C   UNL A   1      50.512  26.406  26.899  1.00  0.00     0.135 A 
ATOM     92  C   UNL A   1      49.831  27.194  24.733  1.00  0.00     0.135 A 
ATOM     93  F   UNL A   1      50.295  26.232  28.213  1.00  0.00    -0.206 F 
ATOM     94  C   UNL A   1      51.731  25.991  26.374  1.00  0.00     0.059 A 
ATOM     95  C   UNL A   1      51.025  26.747  24.178  1.00  0.00     0.059 A 
ATOM     96  F   UNL A   1      48.938  27.777  23.916  1.00  0.00    -0.206 F 
ATOM     97  C   UNL A   1      51.978  26.166  25.011  1.00  0.00     0.060 A 
BRANCH  97  98
ATOM     98  S   UNL A   1      53.561  25.614  24.343  1.00  0.00     0.124 S 
ATOM     99  O   UNL A   1      54.505  26.376  25.155  1.00  0.00    -0.237 OA
ATOM    100  O   UNL A   1      53.521  24.177  24.598  1.00  0.00    -0.237 OA
ATOM    101  O   UNL A   1      53.491  25.998  22.936  1.00  0.00    -0.744 OA
ENDBRANCH  97  98
ENDBRANCH  65  90
ENDBRANCH  39  40
ENDBRANCH  32  34
ENDBRANCH  31  32
ENDBRANCH  30  31
ENDBRANCH  29  30
ENDBRANCH  28  29
ENDBRANCH  27  28
ENDBRANCH   1  27
TORSDOF 24
ENDMDL
MODEL 2
REMARK VINA RESULT:     -10.5      4.850     11.239
REMARK SMILES O=C(OCCOCCOCCOCCOC(=O)c1ccc(-c2c3nc(c(-c4c(F)cc(S(=O)(=O)[O-])cc4F)c4ccc([nH]4)c(-c4c(F)cc(S(=O)(=O)[O-])cc4F)c4nc(c(-c5c(F)cc(S(=O)(=O)[O-])cc5F)c5ccc2[nH]5)C=C4)C=C3)cc1)C1=Cc2c(Cl)ccc(Cl)c2O[C@@H]1C(F)(F)F
REMARK SMILES IDX 10 1 9 2 8 3 7 4 6 5 5 6 4 7 3 8 2 9 1 10 84 11 85 12 95 13
REMARK SMILES IDX 86 14 94 15 87 16 93 17 88 18 89 19 91 20 90 21 92 22 96 23
REMARK SMILES IDX 97 24 98 25 99 26 11 27 12 28 13 29 14 30 15 31 16 32 17 33
REMARK SMILES IDX 18 34 19 35 83 36 20 37 82 38 21 39 22 40 23 41 76 42 24 43
REMARK SMILES IDX 81 44 75 45 77 46 25 47 80 48 74 49 73 50 26 52 60 53 39 54
REMARK SMILES IDX 59 55 40 56 43 57 58 58 78 59 41 60 42 61 57 63 79 64 44 65
REMARK SMILES IDX 27 66 28 67 37 68 29 69 30 70 36 71 38 72 31 73 32 74 33 75
REMARK SMILES IDX 34 76 35 77 61 78 62 79 71 80 63 81 64 82 70 83 72 84 65 85
REMARK SMILES IDX 66 86 67 87 68 88 69 89 45 90 46 91 55 92 47 93 48 94 54 95
REMARK SMILES IDX 56 96 49 97 50 98 51 99 52 100 53 101
REMARK H PARENT 77 51 43 62
REMARK Flexibility Score: inf
ROOT
ATOM      1  C   UNL A   1      32.997  36.672  30.898  1.00  0.00     0.188 C 
ENDROOT
BRANCH   1   2
ATOM      2  O   UNL A   1      33.938  37.174  31.818  1.00  0.00    -0.377 OA
BRANCH   2   3
ATOM      3  C   UNL A   1      33.760  36.621  33.099  1.00  0.00     0.188 C 
BRANCH   3   4
ATOM      4  C   UNL A   1      34.399  35.241  33.297  1.00  0.00     0.188 C 
BRANCH   4   5
ATOM      5  O   UNL A   1      35.634  34.988  34.056  1.00  0.00    -0.376 OA
BRANCH   5   6
ATOM      6  C   UNL A   1      36.088  33.820  35.147  1.00  0.00     0.202 C 
BRANCH   6   7
ATOM      7  C   UNL A   1      37.745  33.918  36.565  1.00  0.00     0.261 C 
BRANCH   7   8
ATOM      8  O   UNL A   1      39.201  33.643  36.267  1.00  0.00    -0.460 OA
BRANCH   8   9
ATOM      9  C   UNL A   1      39.592  32.445  36.716  1.00  0.00     0.338 C 
ATOM     10  O   UNL A   1      39.521  32.012  37.839  1.00  0.00    -0.246 OA
BRANCH   9  11
ATOM     11  C   UNL A   1      40.514  32.134  35.632  1.00  0.00     0.087 C 
ATOM     12  C   UNL A   1      41.928  32.168  36.011  1.00  0.00     0.029 C 
ATOM     13  C   UNL A   1      39.555  30.549  35.147  1.00  0.00     0.316 C 
ATOM     14  C   UNL A   1      42.952  30.706  36.317  1.00  0.00     0.037 A 
ATOM     15  O   UNL A   1      40.561  28.942  35.605  1.00  0.00    -0.474 OA
ATOM     16  C   UNL A   1      44.261  30.834  36.722  1.00  0.00     0.052 A 
ATOM     17  C   UNL A   1      42.287  29.100  36.237  1.00  0.00     0.148 A 
ATOM     18  Cl  UNL A   1      45.050  32.346  36.902  1.00  0.00    -0.084 Cl
ATOM     19  C   UNL A   1      44.941  29.638  37.015  1.00  0.00     0.023 A 
ATOM     20  C   UNL A   1      43.015  27.997  36.619  1.00  0.00     0.083 A 
ATOM     21  C   UNL A   1      44.354  28.307  36.974  1.00  0.00     0.026 A 
ATOM     22  Cl  UNL A   1      42.428  26.413  36.820  1.00  0.00    -0.080 Cl
BRANCH  13  23
ATOM     23  C   UNL A   1      39.082  31.213  33.677  1.00  0.00     0.430 C 
ATOM     24  F   UNL A   1      39.757  32.275  33.203  1.00  0.00    -0.167 F 
ATOM     25  F   UNL A   1      39.294  30.246  32.731  1.00  0.00    -0.167 F 
ATOM     26  F   UNL A   1      37.759  31.492  33.570  1.00  0.00    -0.167 F 
ENDBRANCH  13  23
ENDBRANCH   9  11
ENDBRANCH   8   9
ENDBRANCH   7   8
ENDBRANCH   6   7
ENDBRANCH   5   6
ENDBRANCH   4   5
ENDBRANCH   3   4
ENDBRANCH   2   3
ENDBRANCH   1   2
BRANCH   1  27
ATOM     27  C   UNL A   1      33.541  35.783  29.776  1.00  0.00     0.188 C 
BRANCH  27  28
ATOM     28  O   UNL A   1      32.722  35.223  28.764  1.00  0.00    -0.376 OA
BRANCH  28  29
ATOM     29  C   UNL A   1      32.917  33.902  28.297  1.00  0.00     0.202 C 
BRANCH  29  30
ATOM     30  C   UNL A   1      34.311  33.260  28.211  1.00  0.00     0.261 C 
BRANCH  30  31
ATOM     31  O   UNL A   1      34.551  32.122  29.045  1.00  0.00    -0.460 OA
BRANCH  31  32
ATOM     32  C   UNL A   1      34.500  30.930  28.412  1.00  0.00     0.338 C 
ATOM     33  O   UNL A   1      33.582  30.510  27.729  1.00  0.00    -0.246 OA
BRANCH  32  34
ATOM     34  C   UNL A   1      35.815  30.257  28.494  1.00  0.00     0.060 A 
ATOM     35  C   UNL A   1      36.254  29.846  29.762  1.00  0.00     0.016 A 
ATOM     36  C   UNL A   1      36.621  30.051  27.371  1.00  0.00     0.016 A 
ATOM     37  C   UNL A   1      37.517  29.298  29.926  1.00  0.00     0.010 A 
ATOM     38  C   UNL A   1      37.912  29.539  27.542  1.00  0.00     0.010 A 
ATOM     39  C   UNL A   1      38.380  29.217  28.830  1.00  0.00    -0.014 A 
BRANCH  39  40
ATOM     40  C   UNL A   1      39.828  29.054  29.099  1.00  0.00     0.031 A 
ATOM     41  C   UNL A   1      40.466  27.733  28.755  1.00  0.00     0.074 A 
ATOM     42  C   UNL A   1      40.576  30.084  29.530  1.00  0.00     0.049 A 
ATOM     43  N   UNL A   1      41.709  27.353  28.887  1.00  0.00    -0.248 NA
ATOM     44  C   UNL A   1      39.581  26.703  28.185  1.00  0.00     0.031 C 
ATOM     45  C   UNL A   1      40.072  31.422  29.839  1.00  0.00     0.029 A 
ATOM     46  N   UNL A   1      41.921  30.163  29.785  1.00  0.00    -0.354 N 
ATOM     47  C   UNL A   1      41.755  26.046  28.416  1.00  0.00     0.074 A 
ATOM     48  C   UNL A   1      40.407  25.680  28.043  1.00  0.00     0.031 C 
ATOM     49  C   UNL A   1      41.095  32.186  30.256  1.00  0.00     0.029 A 
ATOM     50  C   UNL A   1      42.317  31.383  30.279  1.00  0.00     0.049 A 
ATOM     51  H   UNL A   1      42.544  29.417  29.628  1.00  0.00     0.167 HD
ATOM     52  C   UNL A   1      42.828  25.230  28.289  1.00  0.00     0.037 A 
ATOM     53  C   UNL A   1      43.521  31.788  30.728  1.00  0.00     0.037 A 
ATOM     54  C   UNL A   1      44.164  25.603  28.674  1.00  0.00     0.049 A 
ATOM     55  C   UNL A   1      44.684  30.829  30.666  1.00  0.00     0.074 A 
ATOM     56  C   UNL A   1      45.322  24.849  28.602  1.00  0.00     0.029 A 
ATOM     57  N   UNL A   1      44.521  26.833  29.208  1.00  0.00    -0.354 N 
ATOM     58  N   UNL A   1      44.717  29.598  30.211  1.00  0.00    -0.248 NA
ATOM     59  C   UNL A   1      45.976  31.318  31.166  1.00  0.00     0.031 C 
ATOM     60  C   UNL A   1      46.365  25.601  29.152  1.00  0.00     0.029 A 
ATOM     61  C   UNL A   1      45.876  26.851  29.493  1.00  0.00     0.049 A 
ATOM     62  H   UNL A   1      43.901  27.583  29.363  1.00  0.00     0.167 HD
ATOM     63  C   UNL A   1      46.039  29.178  30.341  1.00  0.00     0.074 A 
ATOM     64  C   UNL A   1      46.775  30.297  30.892  1.00  0.00     0.031 C 
ATOM     65  C   UNL A   1      46.596  27.978  30.035  1.00  0.00     0.037 A 
BRANCH  52  66
ATOM     66  C   UNL A   1      42.598  23.851  27.729  1.00  0.00     0.058 A 
ATOM     67  C   UNL A   1      42.520  23.617  26.346  1.00  0.00     0.135 A 
ATOM     68  C   UNL A   1      42.496  22.742  28.583  1.00  0.00     0.135 A 
ATOM     69  F   UNL A   1      42.588  24.641  25.481  1.00  0.00    -0.206 F 
ATOM     70  C   UNL A   1      42.330  22.338  25.833  1.00  0.00     0.059 A 
ATOM     71  C   UNL A   1      42.341  21.448  28.091  1.00  0.00     0.059 A 
ATOM     72  F   UNL A   1      42.556  22.905  29.914  1.00  0.00    -0.206 F 
ATOM     73  C   UNL A   1      42.250  21.258  26.714  1.00  0.00     0.060 A 
BRANCH  73  74
ATOM     74  S   UNL A   1      42.035  19.604  26.027  1.00  0.00     0.124 S 
ATOM     75  O   UNL A   1      42.945  19.639  24.886  1.00  0.00    -0.237 OA
ATOM     76  O   UNL A   1      42.446  18.752  27.139  1.00  0.00    -0.237 OA
ATOM     77  O   UNL A   1      40.615  19.553  25.693  1.00  0.00    -0.744 OA
ENDBRANCH  73  74
ENDBRANCH  52  66
BRANCH  53  78
ATOM     78  C   UNL A   1      43.686  33.150  31.309  1.00  0.00     0.058 A 
ATOM     79  C   UNL A   1      43.732  33.358  32.695  1.00  0.00     0.135 A 
ATOM     80  C   UNL A   1      43.769  34.281  30.479  1.00  0.00     0.135 A 
ATOM     81  F   UNL A   1      43.649  32.314  33.534  1.00  0.00    -0.206 F 
ATOM     82  C   UNL A   1      43.821  34.636  33.239  1.00  0.00     0.059 A 
ATOM     83  C   UNL A   1      43.897  35.565  30.998  1.00  0.00     0.059 A 
ATOM     84  F   UNL A   1      43.742  34.142  29.144  1.00  0.00    -0.206 F 
ATOM     85  C   UNL A   1      43.906  35.733  32.380  1.00  0.00     0.060 A 
BRANCH  85  86
ATOM     86  S   UNL A   1      44.054  37.383  33.098  1.00  0.00     0.124 S 
ATOM     87  O   UNL A   1      42.847  37.460  33.912  1.00  0.00    -0.237 OA
ATOM     88  O   UNL A   1      45.314  37.283  33.827  1.00  0.00    -0.237 OA
ATOM     89  O   UNL A   1      44.083  38.256  31.928  1.00  0.00    -0.744 OA
ENDBRANCH  85  86
ENDBRANCH  53  78
BRANCH  65  90
ATOM     90  C   UNL A   1      48.082  27.831  30.237  1.00  0.00     0.058 A 
ATOM     91  C   UNL A   1      48.630  27.366  31.444  1.00  0.00     0.135 A 
ATOM     92  C   UNL A   1      48.972  28.138  29.193  1.00  0.00     0.135 A 
ATOM     93  F   UNL A   1      47.829  27.059  32.477  1.00  0.00    -0.206 F 
ATOM     94  C   UNL A   1      50.005  27.257  31.624  1.00  0.00     0.059 A 
ATOM     95  C   UNL A   1      50.348  27.995  29.337  1.00  0.00     0.059 A 
ATOM     96  F   UNL A   1      48.506  28.572  28.011  1.00  0.00    -0.206 F 
ATOM     97  C   UNL A   1      50.856  27.574  30.563  1.00  0.00     0.060 A 
BRANCH  97  98
ATOM     98  S   UNL A   1      52.637  27.420  30.811  1.00  0.00     0.124 S 
ATOM     99  O   UNL A   1      52.821  28.126  32.074  1.00  0.00    -0.237 OA
ATOM    100  O   UNL A   1      52.819  25.973  30.860  1.00  0.00    -0.237 OA
ATOM    101  O   UNL A   1      53.203  28.078  29.636  1.00  0.00    -0.744 OA
ENDBRANCH  97  98
ENDBRANCH  65  90
ENDBRANCH  39  40
ENDBRANCH  32  34
ENDBRANCH  31  32
ENDBRANCH  30  31
ENDBRANCH  29  30
ENDBRANCH  28  29
ENDBRANCH  27  28
ENDBRANCH   1  27
TORSDOF 24
ENDMDL
MODEL 3
REMARK VINA RESULT:     -10.4      6.168     11.880
REMARK SMILES O=C(OCCOCCOCCOCCOC(=O)c1ccc(-c2c3nc(c(-c4c(F)cc(S(=O)(=O)[O-])cc4F)c4ccc([nH]4)c(-c4c(F)cc(S(=O)(=O)[O-])cc4F)c4nc(c(-c5c(F)cc(S(=O)(=O)[O-])cc5F)c5ccc2[nH]5)C=C4)C=C3)cc1)C1=Cc2c(Cl)ccc(Cl)c2O[C@@H]1C(F)(F)F
REMARK SMILES IDX 10 1 9 2 8 3 7 4 6 5 5 6 4 7 3 8 2 9 1 10 84 11 85 12 95 13
REMARK SMILES IDX 86 14 94 15 87 16 93 17 88 18 89 19 91 20 90 21 92 22 96 23
REMARK SMILES IDX 97 24 98 25 99 26 11 27 12 28 13 29 14 30 15 31 16 32 17 33
REMARK SMILES IDX 18 34 19 35 83 36 20 37 82 38 21 39 22 40 23 41 76 42 24 43
REMARK SMILES IDX 81 44 75 45 77 46 25 47 80 48 74 49 73 50 26 52 60 53 39 54
REMARK SMILES IDX 59 55 40 56 43 57 58 58 78 59 41 60 42 61 57 63 79 64 44 65
REMARK SMILES IDX 27 66 28 67 37 68 29 69 30 70 36 71 38 72 31 73 32 74 33 75
REMARK SMILES IDX 34 76 35 77 61 78 62 79 71 80 63 81 64 82 70 83 72 84 65 85
REMARK SMILES IDX 66 86 67 87 68 88 69 89 45 90 46 91 55 92 47 93 48 94 54 95
REMARK SMILES IDX 56 96 49 97 50 98 51 99 52 100 53 101
REMARK H PARENT 77 51 43 62
REMARK Flexibility Score: inf
ROOT
ATOM      1  C   UNL A   1      36.723  21.354  25.596  1.00  0.00     0.188 C 
ENDROOT
BRANCH   1   2
ATOM      2  O   UNL A   1      35.435  21.636  26.091  1.00  0.00    -0.377 OA
BRANCH   2   3
ATOM      3  C   UNL A   1      34.472  21.637  25.065  1.00  0.00     0.188 C 
BRANCH   3   4
ATOM      4  C   UNL A   1      33.074  21.176  25.497  1.00  0.00     0.188 C 
BRANCH   4   5
ATOM      5  O   UNL A   1      32.164  21.947  26.357  1.00  0.00    -0.376 OA
BRANCH   5   6
ATOM      6  C   UNL A   1      31.003  23.097  26.056  1.00  0.00     0.202 C 
BRANCH   6   7
ATOM      7  C   UNL A   1      31.104  25.225  26.535  1.00  0.00     0.261 C 
BRANCH   7   8
ATOM      8  O   UNL A   1      32.359  26.048  26.714  1.00  0.00    -0.460 OA
BRANCH   8   9
ATOM      9  C   UNL A   1      32.100  27.265  27.207  1.00  0.00     0.338 C 
ATOM     10  O   UNL A   1      31.230  27.585  27.978  1.00  0.00    -0.246 OA
BRANCH   9  11
ATOM     11  C   UNL A   1      32.791  28.031  26.180  1.00  0.00     0.087 C 
ATOM     12  C   UNL A   1      32.463  27.638  24.807  1.00  0.00     0.029 C 
ATOM     13  C   UNL A   1      32.314  29.706  26.976  1.00  0.00     0.316 C 
ATOM     14  C   UNL A   1      31.355  28.554  23.707  1.00  0.00     0.037 A 
ATOM     15  O   UNL A   1      30.998  30.656  25.895  1.00  0.00    -0.474 OA
ATOM     16  C   UNL A   1      31.062  28.081  22.448  1.00  0.00     0.052 A 
ATOM     17  C   UNL A   1      30.525  29.986  24.243  1.00  0.00     0.148 A 
ATOM     18  Cl  UNL A   1      31.753  26.657  21.791  1.00  0.00    -0.084 Cl
ATOM     19  C   UNL A   1      30.124  28.823  21.708  1.00  0.00     0.023 A 
ATOM     20  C   UNL A   1      29.565  30.597  23.469  1.00  0.00     0.083 A 
ATOM     21  C   UNL A   1      29.416  29.999  22.190  1.00  0.00     0.026 A 
ATOM     22  Cl  UNL A   1      28.514  31.845  23.952  1.00  0.00    -0.080 Cl
BRANCH  13  23
ATOM     23  C   UNL A   1      33.912  30.040  27.376  1.00  0.00     0.430 C 
ATOM     24  F   UNL A   1      34.712  30.573  26.436  1.00  0.00    -0.167 F 
ATOM     25  F   UNL A   1      33.872  31.001  28.351  1.00  0.00    -0.167 F 
ATOM     26  F   UNL A   1      34.589  29.015  27.952  1.00  0.00    -0.167 F 
ENDBRANCH  13  23
ENDBRANCH   9  11
ENDBRANCH   8   9
ENDBRANCH   7   8
ENDBRANCH   6   7
ENDBRANCH   5   6
ENDBRANCH   4   5
ENDBRANCH   3   4
ENDBRANCH   2   3
ENDBRANCH   1   2
BRANCH   1  27
ATOM     27  C   UNL A   1      37.776  22.454  25.759  1.00  0.00     0.188 C 
BRANCH  27  28
ATOM     28  O   UNL A   1      38.982  22.272  26.480  1.00  0.00    -0.376 OA
BRANCH  28  29
ATOM     29  C   UNL A   1      40.051  21.505  25.959  1.00  0.00     0.202 C 
BRANCH  29  30
ATOM     30  C   UNL A   1      41.523  21.872  26.211  1.00  0.00     0.261 C 
BRANCH  30  31
ATOM     31  O   UNL A   1      41.773  22.948  27.120  1.00  0.00    -0.460 OA
BRANCH  31  32
ATOM     32  C   UNL A   1      42.148  24.109  26.539  1.00  0.00     0.338 C 
ATOM     33  O   UNL A   1      42.699  24.235  25.459  1.00  0.00    -0.246 OA
BRANCH  32  34
ATOM     34  C   UNL A   1      41.616  25.254  27.310  1.00  0.00     0.060 A 
ATOM     35  C   UNL A   1      42.411  26.409  27.383  1.00  0.00     0.016 A 
ATOM     36  C   UNL A   1      40.387  25.205  27.971  1.00  0.00     0.016 A 
ATOM     37  C   UNL A   1      42.020  27.484  28.168  1.00  0.00     0.010 A 
ATOM     38  C   UNL A   1      40.014  26.270  28.798  1.00  0.00     0.010 A 
ATOM     39  C   UNL A   1      40.860  27.385  28.941  1.00  0.00    -0.014 A 
BRANCH  39  40
ATOM     40  C   UNL A   1      40.702  28.326  30.075  1.00  0.00     0.031 A 
ATOM     41  C   UNL A   1      41.650  28.194  31.240  1.00  0.00     0.074 A 
ATOM     42  C   UNL A   1      39.819  29.338  30.022  1.00  0.00     0.049 A 
ATOM     43  N   UNL A   1      41.719  28.900  32.337  1.00  0.00    -0.248 NA
ATOM     44  C   UNL A   1      42.654  27.120  31.152  1.00  0.00     0.031 C 
ATOM     45  C   UNL A   1      38.895  29.594  28.919  1.00  0.00     0.029 A 
ATOM     46  N   UNL A   1      39.557  30.339  30.922  1.00  0.00    -0.354 N 
ATOM     47  C   UNL A   1      42.771  28.358  33.067  1.00  0.00     0.074 A 
ATOM     48  C   UNL A   1      43.279  27.234  32.313  1.00  0.00     0.031 C 
ATOM     49  C   UNL A   1      38.154  30.676  29.214  1.00  0.00     0.029 A 
ATOM     50  C   UNL A   1      38.526  31.165  30.541  1.00  0.00     0.049 A 
ATOM     51  H   UNL A   1      40.058  30.455  31.761  1.00  0.00     0.167 HD
ATOM     52  C   UNL A   1      43.280  28.773  34.251  1.00  0.00     0.037 A 
ATOM     53  C   UNL A   1      37.933  32.176  31.206  1.00  0.00     0.037 A 
ATOM     54  C   UNL A   1      42.759  29.888  34.997  1.00  0.00     0.049 A 
ATOM     55  C   UNL A   1      38.456  32.560  32.568  1.00  0.00     0.074 A 
ATOM     56  C   UNL A   1      43.189  30.385  36.214  1.00  0.00     0.029 A 
ATOM     57  N   UNL A   1      41.688  30.677  34.599  1.00  0.00    -0.354 N 
ATOM     58  N   UNL A   1      39.457  32.046  33.245  1.00  0.00    -0.248 NA
ATOM     59  C   UNL A   1      37.778  33.669  33.252  1.00  0.00     0.031 C 
ATOM     60  C   UNL A   1      42.340  31.433  36.581  1.00  0.00     0.029 A 
ATOM     61  C   UNL A   1      41.429  31.642  35.558  1.00  0.00     0.049 A 
ATOM     62  H   UNL A   1      41.187  30.566  33.759  1.00  0.00     0.167 HD
ATOM     63  C   UNL A   1      39.547  32.791  34.418  1.00  0.00     0.074 A 
ATOM     64  C   UNL A   1      38.516  33.805  34.343  1.00  0.00     0.031 C 
ATOM     65  C   UNL A   1      40.402  32.651  35.464  1.00  0.00     0.037 A 
BRANCH  52  66
ATOM     66  C   UNL A   1      44.446  28.007  34.819  1.00  0.00     0.058 A 
ATOM     67  C   UNL A   1      44.264  26.887  35.646  1.00  0.00     0.135 A 
ATOM     68  C   UNL A   1      45.763  28.372  34.498  1.00  0.00     0.135 A 
ATOM     69  F   UNL A   1      43.028  26.503  36.005  1.00  0.00    -0.206 F 
ATOM     70  C   UNL A   1      45.344  26.169  36.149  1.00  0.00     0.059 A 
ATOM     71  C   UNL A   1      46.858  27.647  34.961  1.00  0.00     0.059 A 
ATOM     72  F   UNL A   1      45.999  29.438  33.718  1.00  0.00    -0.206 F 
ATOM     73  C   UNL A   1      46.638  26.552  35.794  1.00  0.00     0.060 A 
BRANCH  73  74
ATOM     74  S   UNL A   1      48.024  25.589  36.432  1.00  0.00     0.124 S 
ATOM     75  O   UNL A   1      49.164  26.300  35.860  1.00  0.00    -0.237 OA
ATOM     76  O   UNL A   1      47.854  25.721  37.875  1.00  0.00    -0.237 OA
ATOM     77  O   UNL A   1      47.788  24.252  35.895  1.00  0.00    -0.744 OA
ENDBRANCH  73  74
ENDBRANCH  52  66
BRANCH  53  78
ATOM     78  C   UNL A   1      36.759  32.876  30.615  1.00  0.00     0.058 A 
ATOM     79  C   UNL A   1      36.905  33.823  29.591  1.00  0.00     0.135 A 
ATOM     80  C   UNL A   1      35.460  32.630  31.092  1.00  0.00     0.135 A 
ATOM     81  F   UNL A   1      38.123  34.102  29.104  1.00  0.00    -0.206 F 
ATOM     82  C   UNL A   1      35.815  34.524  29.084  1.00  0.00     0.059 A 
ATOM     83  C   UNL A   1      34.350  33.289  30.575  1.00  0.00     0.059 A 
ATOM     84  F   UNL A   1      35.258  31.725  32.063  1.00  0.00    -0.206 F 
ATOM     85  C   UNL A   1      34.540  34.246  29.581  1.00  0.00     0.060 A 
BRANCH  85  86
ATOM     86  S   UNL A   1      33.130  35.138  28.892  1.00  0.00     0.124 S 
ATOM     87  O   UNL A   1      32.418  35.541  30.099  1.00  0.00    -0.237 OA
ATOM     88  O   UNL A   1      33.785  36.209  28.147  1.00  0.00    -0.237 OA
ATOM     89  O   UNL A   1      32.464  34.131  28.072  1.00  0.00    -0.744 OA
ENDBRANCH  85  86
ENDBRANCH  53  78
BRANCH  65  90
ATOM     90  C   UNL A   1      40.295  33.651  36.586  1.00  0.00     0.058 A 
ATOM     91  C   UNL A   1      39.449  33.451  37.688  1.00  0.00     0.135 A 
ATOM     92  C   UNL A   1      41.075  34.821  36.568  1.00  0.00     0.135 A 
ATOM     93  F   UNL A   1      38.679  32.353  37.759  1.00  0.00    -0.206 F 
ATOM     94  C   UNL A   1      39.343  34.394  38.706  1.00  0.00     0.059 A 
ATOM     95  C   UNL A   1      41.017  35.756  37.596  1.00  0.00     0.059 A 
ATOM     96  F   UNL A   1      41.914  35.060  35.548  1.00  0.00    -0.206 F 
ATOM     97  C   UNL A   1      40.133  35.544  38.650  1.00  0.00     0.060 A 
BRANCH  97  98
ATOM     98  S   UNL A   1      39.990  36.754  39.981  1.00  0.00     0.124 S 
ATOM     99  O   UNL A   1      39.627  37.960  39.245  1.00  0.00    -0.237 OA
ATOM    100  O   UNL A   1      38.937  36.177  40.813  1.00  0.00    -0.237 OA
ATOM    101  O   UNL A   1      41.321  36.761  40.581  1.00  0.00    -0.744 OA
ENDBRANCH  97  98
ENDBRANCH  65  90
ENDBRANCH  39  40
ENDBRANCH  32  34
ENDBRANCH  31  32
ENDBRANCH  30  31
ENDBRANCH  29  30
ENDBRANCH  28  29
ENDBRANCH  27  28
ENDBRANCH   1  27
TORSDOF 24
ENDMDL
