MODEL 1
REMARK VINA RESULT:      -8.6      0.000      0.000
REMARK SMILES COC(=O)c1ccc(C)c2c1[C@H]1C=CC[C@H]1[C@@H](c1ccc(C(=O)OCCOCCOCCOCCOC(=O)c3ccc(-c4c5nc(c(-c6c(F)cc(S(=O)(=O)[O-])cc6F)c6ccc([nH]6)c(-c6c(F)cc(S(=O)(=O)[O-])cc6F)c6nc(c(-c7c(F)cc(S(=O)(=O)[O-])cc7F)c7ccc4[nH]7)C=C6)C=C5)cc3)cc1)N2
REMARK SMILES IDX 30 1 29 2 28 3 27 4 26 5 25 6 24 7 22 8 23 9 21 10 18 11
REMARK SMILES IDX 19 12 106 13 20 14 105 15 17 16 5 17 6 18 11 19 7 20 10 21
REMARK SMILES IDX 12 22 8 23 107 24 13 25 16 26 9 27 14 29 15 30 3 31 4 32
REMARK SMILES IDX 2 33 1 34 31 35 32 36 33 37 34 38 35 39 36 40 37 41 38 42
REMARK SMILES IDX 39 43 40 44 104 45 41 46 103 47 42 48 43 49 44 50 97 51
REMARK SMILES IDX 45 52 102 53 96 54 98 55 46 56 101 57 95 58 94 59 47 61
REMARK SMILES IDX 81 62 60 63 80 64 61 65 64 66 79 67 99 68 62 69 63 70 78 72
REMARK SMILES IDX 100 73 65 74 48 75 49 76 58 77 50 78 51 79 57 80 59 81 52 82
REMARK SMILES IDX 53 83 54 84 55 85 56 86 82 87 83 88 92 89 84 90 85 91 91 92
REMARK SMILES IDX 93 93 86 94 87 95 88 96 89 97 90 98 66 99 67 100 76 101
REMARK SMILES IDX 68 102 69 103 75 104 77 105 70 106 71 107 72 108 73 109
REMARK SMILES IDX 74 110
REMARK H PARENT 107 28 98 60 64 71
REMARK Flexibility Score: inf
ROOT
ATOM      1  O   UNL A   1      43.398  26.279  27.427  1.00  0.00    -0.377 OA
ENDROOT
BRANCH   1   2
ATOM      2  C   UNL A   1      42.711  25.342  28.241  1.00  0.00     0.188 C 
BRANCH   2   3
ATOM      3  C   UNL A   1      42.409  23.937  27.680  1.00  0.00     0.188 C 
BRANCH   3   4
ATOM      4  O   UNL A   1      41.234  23.339  28.202  1.00  0.00    -0.376 OA
BRANCH   4   5
ATOM      5  C   UNL A   1      40.839  22.077  27.690  1.00  0.00     0.202 C 
BRANCH   5   6
ATOM      6  C   UNL A   1      40.155  22.034  26.314  1.00  0.00     0.261 C 
BRANCH   6   7
ATOM      7  O   UNL A   1      38.795  22.485  26.285  1.00  0.00    -0.460 OA
BRANCH   7   8
ATOM      8  C   UNL A   1      37.923  21.742  25.571  1.00  0.00     0.338 C 
ATOM      9  O   UNL A   1      38.110  20.621  25.130  1.00  0.00    -0.246 OA
BRANCH   8  10
ATOM     10  C   UNL A   1      36.597  22.398  25.651  1.00  0.00     0.060 A 
ATOM     11  C   UNL A   1      34.064  23.598  26.073  1.00  0.00    -0.025 A 
ATOM     12  C   UNL A   1      34.328  22.272  26.460  1.00  0.00     0.007 A 
ATOM     13  C   UNL A   1      35.119  24.315  25.477  1.00  0.00     0.007 A 
ATOM     14  C   UNL A   1      35.565  21.668  26.233  1.00  0.00     0.016 A 
ATOM     15  C   UNL A   1      36.382  23.730  25.281  1.00  0.00     0.016 A 
BRANCH  11  16
ATOM     16  C   UNL A   1      32.686  24.256  26.247  1.00  0.00     0.114 C 
ATOM     17  C   UNL A   1      32.696  26.761  22.800  1.00  0.00     0.065 A 
ATOM     18  C   UNL A   1      33.436  27.945  22.851  1.00  0.00     0.016 A 
ATOM     19  C   UNL A   1      32.469  26.000  23.970  1.00  0.00    -0.003 A 
ATOM     20  C   UNL A   1      33.922  28.407  24.069  1.00  0.00     0.006 A 
ATOM     21  C   UNL A   1      32.953  26.485  25.215  1.00  0.00     0.042 A 
ATOM     22  C   UNL A   1      31.729  24.677  23.908  1.00  0.00     0.050 C 
ATOM     23  C   UNL A   1      33.677  27.701  25.258  1.00  0.00    -0.028 A 
ATOM     24  N   UNL A   1      32.820  25.705  26.359  1.00  0.00    -0.377 N 
ATOM     25  C   UNL A   1      32.374  23.576  23.099  1.00  0.00    -0.023 C 
ATOM     26  C   UNL A   1      31.537  23.965  25.260  1.00  0.00     0.031 C 
ATOM     27  C   UNL A   1      34.286  28.275  26.512  1.00  0.00     0.046 C 
ATOM     28  H   UNL A   1      32.818  26.132  27.246  1.00  0.00     0.161 HD
ATOM     29  C   UNL A   1      32.148  22.372  23.641  1.00  0.00    -0.030 C 
ATOM     30  C   UNL A   1      31.360  22.485  24.905  1.00  0.00     0.034 C 
BRANCH  17  31
ATOM     31  C   UNL A   1      32.127  26.361  21.491  1.00  0.00     0.338 C 
ATOM     32  O   UNL A   1      30.954  26.477  21.184  1.00  0.00    -0.246 OA
BRANCH  31  33
ATOM     33  O   UNL A   1      33.113  25.834  20.720  1.00  0.00    -0.465 OA
ATOM     34  C   UNL A   1      32.666  25.415  19.429  1.00  0.00     0.282 C 
ENDBRANCH  31  33
ENDBRANCH  17  31
ENDBRANCH  11  16
ENDBRANCH   8  10
ENDBRANCH   7   8
ENDBRANCH   6   7
ENDBRANCH   5   6
ENDBRANCH   4   5
ENDBRANCH   3   4
ENDBRANCH   2   3
ENDBRANCH   1   2
BRANCH   1  35
ATOM     35  C   UNL A   1      43.041  27.658  27.477  1.00  0.00     0.188 C 
BRANCH  35  36
ATOM     36  C   UNL A   1      42.086  28.284  26.432  1.00  0.00     0.188 C 
BRANCH  36  37
ATOM     37  O   UNL A   1      41.091  29.135  26.979  1.00  0.00    -0.376 OA
BRANCH  37  38
ATOM     38  C   UNL A   1      39.976  28.512  27.589  1.00  0.00     0.202 C 
BRANCH  38  39
ATOM     39  C   UNL A   1      39.064  29.401  28.445  1.00  0.00     0.261 C 
BRANCH  39  40
ATOM     40  O   UNL A   1      39.688  30.101  29.531  1.00  0.00    -0.460 OA
BRANCH  40  41
ATOM     41  C   UNL A   1      38.915  30.458  30.579  1.00  0.00     0.338 C 
ATOM     42  O   UNL A   1      37.731  30.749  30.556  1.00  0.00    -0.246 OA
BRANCH  41  43
ATOM     43  C   UNL A   1      39.727  30.265  31.798  1.00  0.00     0.060 A 
ATOM     44  C   UNL A   1      39.140  29.713  32.946  1.00  0.00     0.016 A 
ATOM     45  C   UNL A   1      41.081  30.603  31.785  1.00  0.00     0.016 A 
ATOM     46  C   UNL A   1      39.911  29.504  34.089  1.00  0.00     0.010 A 
ATOM     47  C   UNL A   1      41.842  30.430  32.941  1.00  0.00     0.010 A 
ATOM     48  C   UNL A   1      41.255  29.905  34.105  1.00  0.00    -0.014 A 
BRANCH  48  49
ATOM     49  C   UNL A   1      41.972  30.013  35.397  1.00  0.00     0.031 A 
ATOM     50  C   UNL A   1      42.890  28.886  35.779  1.00  0.00     0.074 A 
ATOM     51  C   UNL A   1      41.822  31.076  36.206  1.00  0.00     0.049 A 
ATOM     52  N   UNL A   1      43.594  28.719  36.867  1.00  0.00    -0.248 NA
ATOM     53  C   UNL A   1      43.033  27.800  34.794  1.00  0.00     0.031 C 
ATOM     54  C   UNL A   1      41.000  32.250  35.919  1.00  0.00     0.029 A 
ATOM     55  N   UNL A   1      42.356  31.331  37.444  1.00  0.00    -0.354 N 
ATOM     56  C   UNL A   1      44.269  27.518  36.694  1.00  0.00     0.074 A 
ATOM     57  C   UNL A   1      43.862  26.977  35.417  1.00  0.00     0.031 C 
ATOM     58  C   UNL A   1      41.079  33.098  36.960  1.00  0.00     0.029 A 
ATOM     59  C   UNL A   1      41.929  32.514  37.998  1.00  0.00     0.049 A 
ATOM     60  H   UNL A   1      42.986  30.722  37.894  1.00  0.00     0.167 HD
ATOM     61  C   UNL A   1      45.160  26.924  37.521  1.00  0.00     0.037 A 
ATOM     62  C   UNL A   1      42.185  33.050  39.209  1.00  0.00     0.037 A 
ATOM     63  C   UNL A   1      45.535  27.450  38.805  1.00  0.00     0.049 A 
ATOM     64  C   UNL A   1      43.092  32.315  40.165  1.00  0.00     0.074 A 
ATOM     65  C   UNL A   1      46.419  26.919  39.727  1.00  0.00     0.029 A 
ATOM     66  N   UNL A   1      45.036  28.621  39.357  1.00  0.00    -0.354 N 
ATOM     67  N   UNL A   1      43.738  31.186  39.988  1.00  0.00    -0.248 NA
ATOM     68  C   UNL A   1      43.305  32.926  41.485  1.00  0.00     0.031 C 
ATOM     69  C   UNL A   1      46.411  27.739  40.860  1.00  0.00     0.029 A 
ATOM     70  C   UNL A   1      45.570  28.815  40.619  1.00  0.00     0.049 A 
ATOM     71  H   UNL A   1      44.396  29.226  38.916  1.00  0.00     0.167 HD
ATOM     72  C   UNL A   1      44.453  30.964  41.163  1.00  0.00     0.074 A 
ATOM     73  C   UNL A   1      44.166  32.082  42.039  1.00  0.00     0.031 C 
ATOM     74  C   UNL A   1      45.273  29.933  41.484  1.00  0.00     0.037 A 
BRANCH  61  75
ATOM     75  C   UNL A   1      45.763  25.625  37.066  1.00  0.00     0.058 A 
ATOM     76  C   UNL A   1      46.872  25.591  36.204  1.00  0.00     0.135 A 
ATOM     77  C   UNL A   1      45.236  24.399  37.504  1.00  0.00     0.135 A 
ATOM     78  F   UNL A   1      47.399  26.732  35.735  1.00  0.00    -0.206 F 
ATOM     79  C   UNL A   1      47.419  24.388  35.771  1.00  0.00     0.059 A 
ATOM     80  C   UNL A   1      45.787  23.184  37.108  1.00  0.00     0.059 A 
ATOM     81  F   UNL A   1      44.172  24.374  38.322  1.00  0.00    -0.206 F 
ATOM     82  C   UNL A   1      46.870  23.189  36.230  1.00  0.00     0.060 A 
BRANCH  82  83
ATOM     83  S   UNL A   1      47.592  21.639  35.654  1.00  0.00     0.124 S 
ATOM     84  O   UNL A   1      49.019  21.910  35.797  1.00  0.00    -0.237 OA
ATOM     85  O   UNL A   1      47.034  20.671  36.594  1.00  0.00    -0.237 OA
ATOM     86  O   UNL A   1      47.110  21.526  34.282  1.00  0.00    -0.744 OA
ENDBRANCH  82  83
ENDBRANCH  61  75
BRANCH  62  87
ATOM     87  C   UNL A   1      41.581  34.358  39.579  1.00  0.00     0.058 A 
ATOM     88  C   UNL A   1      42.260  35.560  39.332  1.00  0.00     0.135 A 
ATOM     89  C   UNL A   1      40.302  34.437  40.153  1.00  0.00     0.135 A 
ATOM     90  F   UNL A   1      43.492  35.537  38.802  1.00  0.00    -0.206 F 
ATOM     91  C   UNL A   1      41.690  36.794  39.631  1.00  0.00     0.059 A 
ATOM     92  C   UNL A   1      39.701  35.660  40.439  1.00  0.00     0.059 A 
ATOM     93  F   UNL A   1      39.610  33.316  40.409  1.00  0.00    -0.206 F 
ATOM     94  C   UNL A   1      40.403  36.834  40.172  1.00  0.00     0.060 A 
BRANCH  94  95
ATOM     95  S   UNL A   1      39.644  38.445  40.469  1.00  0.00     0.124 S 
ATOM     96  O   UNL A   1      38.500  38.406  39.565  1.00  0.00    -0.237 OA
ATOM     97  O   UNL A   1      39.336  38.376  41.894  1.00  0.00    -0.237 OA
ATOM     98  O   UNL A   1      40.700  39.387  40.108  1.00  0.00    -0.744 OA
ENDBRANCH  94  95
ENDBRANCH  62  87
BRANCH  74  99
ATOM     99  C   UNL A   1      45.942  29.956  42.833  1.00  0.00     0.058 A 
ATOM    100  C   UNL A   1      47.174  30.596  43.034  1.00  0.00     0.135 A 
ATOM    101  C   UNL A   1      45.296  29.413  43.957  1.00  0.00     0.135 A 
ATOM    102  F   UNL A   1      47.836  31.130  41.995  1.00  0.00    -0.206 F 
ATOM    103  C   UNL A   1      47.750  30.684  44.298  1.00  0.00     0.059 A 
ATOM    104  C   UNL A   1      45.839  29.515  45.234  1.00  0.00     0.059 A 
ATOM    105  F   UNL A   1      44.109  28.801  43.824  1.00  0.00    -0.206 F 
ATOM    106  C   UNL A   1      47.071  30.148  45.392  1.00  0.00     0.060 A 
BRANCH 106 107
ATOM    107  S   UNL A   1      47.811  30.314  47.031  1.00  0.00     0.124 S 
ATOM    108  O   UNL A   1      48.063  31.750  47.097  1.00  0.00    -0.237 OA
ATOM    109  O   UNL A   1      46.752  29.815  47.902  1.00  0.00    -0.237 OA
ATOM    110  O   UNL A   1      49.002  29.473  46.956  1.00  0.00    -0.744 OA
ENDBRANCH 106 107
ENDBRANCH  74  99
ENDBRANCH  48  49
ENDBRANCH  41  43
ENDBRANCH  40  41
ENDBRANCH  39  40
ENDBRANCH  38  39
ENDBRANCH  37  38
ENDBRANCH  36  37
ENDBRANCH  35  36
ENDBRANCH   1  35
TORSDOF 26
ENDMDL
MODEL 2
REMARK VINA RESULT:      -8.6      5.545      9.003
REMARK SMILES COC(=O)c1ccc(C)c2c1[C@H]1C=CC[C@H]1[C@@H](c1ccc(C(=O)OCCOCCOCCOCCOC(=O)c3ccc(-c4c5nc(c(-c6c(F)cc(S(=O)(=O)[O-])cc6F)c6ccc([nH]6)c(-c6c(F)cc(S(=O)(=O)[O-])cc6F)c6nc(c(-c7c(F)cc(S(=O)(=O)[O-])cc7F)c7ccc4[nH]7)C=C6)C=C5)cc3)cc1)N2
REMARK SMILES IDX 30 1 29 2 28 3 27 4 26 5 25 6 24 7 22 8 23 9 21 10 18 11
REMARK SMILES IDX 19 12 106 13 20 14 105 15 17 16 5 17 6 18 11 19 7 20 10 21
REMARK SMILES IDX 12 22 8 23 107 24 13 25 16 26 9 27 14 29 15 30 3 31 4 32
REMARK SMILES IDX 2 33 1 34 31 35 32 36 33 37 34 38 35 39 36 40 37 41 38 42
REMARK SMILES IDX 39 43 40 44 104 45 41 46 103 47 42 48 43 49 44 50 97 51
REMARK SMILES IDX 45 52 102 53 96 54 98 55 46 56 101 57 95 58 94 59 47 61
REMARK SMILES IDX 81 62 60 63 80 64 61 65 64 66 79 67 99 68 62 69 63 70 78 72
REMARK SMILES IDX 100 73 65 74 48 75 49 76 58 77 50 78 51 79 57 80 59 81 52 82
REMARK SMILES IDX 53 83 54 84 55 85 56 86 82 87 83 88 92 89 84 90 85 91 91 92
REMARK SMILES IDX 93 93 86 94 87 95 88 96 89 97 90 98 66 99 67 100 76 101
REMARK SMILES IDX 68 102 69 103 75 104 77 105 70 106 71 107 72 108 73 109
REMARK SMILES IDX 74 110
REMARK H PARENT 107 28 98 60 64 71
REMARK Flexibility Score: inf
ROOT
ATOM      1  O   UNL A   1      43.328  26.418  27.516  1.00  0.00    -0.377 OA
ENDROOT
BRANCH   1   2
ATOM      2  C   UNL A   1      42.775  25.431  28.372  1.00  0.00     0.188 C 
BRANCH   2   3
ATOM      3  C   UNL A   1      42.508  24.017  27.817  1.00  0.00     0.188 C 
BRANCH   3   4
ATOM      4  O   UNL A   1      41.352  23.389  28.345  1.00  0.00    -0.376 OA
BRANCH   4   5
ATOM      5  C   UNL A   1      40.946  22.151  27.787  1.00  0.00     0.202 C 
BRANCH   5   6
ATOM      6  C   UNL A   1      40.259  22.164  26.411  1.00  0.00     0.261 C 
BRANCH   6   7
ATOM      7  O   UNL A   1      38.878  22.545  26.413  1.00  0.00    -0.460 OA
BRANCH   7   8
ATOM      8  C   UNL A   1      38.039  21.794  25.669  1.00  0.00     0.338 C 
ATOM      9  O   UNL A   1      38.259  20.682  25.221  1.00  0.00    -0.246 OA
BRANCH   8  10
ATOM     10  C   UNL A   1      36.699  22.423  25.723  1.00  0.00     0.060 A 
ATOM     11  C   UNL A   1      34.134  23.572  26.096  1.00  0.00    -0.025 A 
ATOM     12  C   UNL A   1      34.420  22.254  26.493  1.00  0.00     0.007 A 
ATOM     13  C   UNL A   1      35.185  24.309  25.515  1.00  0.00     0.007 A 
ATOM     14  C   UNL A   1      35.672  21.674  26.291  1.00  0.00     0.016 A 
ATOM     15  C   UNL A   1      36.463  23.748  25.343  1.00  0.00     0.016 A 
BRANCH  11  16
ATOM     16  C   UNL A   1      32.741  24.202  26.243  1.00  0.00     0.114 C 
ATOM     17  C   UNL A   1      32.737  26.650  22.755  1.00  0.00     0.065 A 
ATOM     18  C   UNL A   1      33.451  27.851  22.795  1.00  0.00     0.016 A 
ATOM     19  C   UNL A   1      32.513  25.904  23.935  1.00  0.00    -0.003 A 
ATOM     20  C   UNL A   1      33.912  28.343  24.010  1.00  0.00     0.006 A 
ATOM     21  C   UNL A   1      32.971  26.420  25.176  1.00  0.00     0.042 A 
ATOM     22  C   UNL A   1      31.802  24.565  23.886  1.00  0.00     0.050 C 
ATOM     23  C   UNL A   1      33.668  27.652  25.208  1.00  0.00    -0.028 A 
ATOM     24  N   UNL A   1      32.842  25.656  26.332  1.00  0.00    -0.377 N 
ATOM     25  C   UNL A   1      32.481  23.465  23.104  1.00  0.00    -0.023 C 
ATOM     26  C   UNL A   1      31.610  23.870  25.248  1.00  0.00     0.031 C 
ATOM     27  C   UNL A   1      34.249  28.259  26.459  1.00  0.00     0.046 C 
ATOM     28  H   UNL A   1      32.820  26.097  27.212  1.00  0.00     0.161 HD
ATOM     29  C   UNL A   1      32.275  22.265  23.663  1.00  0.00    -0.030 C 
ATOM     30  C   UNL A   1      31.470  22.381  24.915  1.00  0.00     0.034 C 
BRANCH  17  31
ATOM     31  C   UNL A   1      32.193  26.216  21.447  1.00  0.00     0.338 C 
ATOM     32  O   UNL A   1      31.028  26.335  21.110  1.00  0.00    -0.246 OA
BRANCH  31  33
ATOM     33  O   UNL A   1      33.190  25.657  20.713  1.00  0.00    -0.465 OA
ATOM     34  C   UNL A   1      32.796  25.311  19.384  1.00  0.00     0.282 C 
ENDBRANCH  31  33
ENDBRANCH  17  31
ENDBRANCH  11  16
ENDBRANCH   8  10
ENDBRANCH   7   8
ENDBRANCH   6   7
ENDBRANCH   5   6
ENDBRANCH   4   5
ENDBRANCH   3   4
ENDBRANCH   2   3
ENDBRANCH   1   2
BRANCH   1  35
ATOM     35  C   UNL A   1      42.807  27.744  27.533  1.00  0.00     0.188 C 
BRANCH  35  36
ATOM     36  C   UNL A   1      41.732  28.204  26.518  1.00  0.00     0.188 C 
BRANCH  36  37
ATOM     37  O   UNL A   1      40.591  28.812  27.103  1.00  0.00    -0.376 OA
BRANCH  37  38
ATOM     38  C   UNL A   1      39.705  27.968  27.814  1.00  0.00     0.202 C 
BRANCH  38  39
ATOM     39  C   UNL A   1      38.464  28.625  28.432  1.00  0.00     0.261 C 
BRANCH  39  40
ATOM     40  O   UNL A   1      38.674  29.863  29.127  1.00  0.00    -0.460 OA
BRANCH  40  41
ATOM     41  C   UNL A   1      37.843  30.162  30.148  1.00  0.00     0.338 C 
ATOM     42  O   UNL A   1      36.767  29.646  30.398  1.00  0.00    -0.246 OA
BRANCH  41  43
ATOM     43  C   UNL A   1      38.557  31.120  31.017  1.00  0.00     0.060 A 
ATOM     44  C   UNL A   1      38.190  32.473  31.012  1.00  0.00     0.016 A 
ATOM     45  C   UNL A   1      39.569  30.663  31.862  1.00  0.00     0.016 A 
ATOM     46  C   UNL A   1      38.843  33.375  31.852  1.00  0.00     0.010 A 
ATOM     47  C   UNL A   1      40.248  31.572  32.674  1.00  0.00     0.010 A 
ATOM     48  C   UNL A   1      39.906  32.935  32.652  1.00  0.00    -0.014 A 
BRANCH  48  49
ATOM     49  C   UNL A   1      40.819  33.925  33.268  1.00  0.00     0.031 A 
ATOM     50  C   UNL A   1      40.626  34.237  34.726  1.00  0.00     0.074 A 
ATOM     51  C   UNL A   1      41.792  34.529  32.564  1.00  0.00     0.049 A 
ATOM     52  N   UNL A   1      41.259  35.092  35.485  1.00  0.00    -0.248 NA
ATOM     53  C   UNL A   1      39.574  33.475  35.421  1.00  0.00     0.031 C 
ATOM     54  C   UNL A   1      42.107  34.272  31.160  1.00  0.00     0.029 A 
ATOM     55  N   UNL A   1      42.692  35.494  32.942  1.00  0.00    -0.354 N 
ATOM     56  C   UNL A   1      40.691  34.964  36.746  1.00  0.00     0.074 A 
ATOM     57  C   UNL A   1      39.637  33.979  36.643  1.00  0.00     0.031 C 
ATOM     58  C   UNL A   1      43.125  35.068  30.792  1.00  0.00     0.029 A 
ATOM     59  C   UNL A   1      43.513  35.914  31.923  1.00  0.00     0.049 A 
ATOM     60  H   UNL A   1      42.744  35.853  33.857  1.00  0.00     0.167 HD
ATOM     61  C   UNL A   1      41.026  35.600  37.891  1.00  0.00     0.037 A 
ATOM     62  C   UNL A   1      44.455  36.879  31.905  1.00  0.00     0.037 A 
ATOM     63  C   UNL A   1      42.053  36.603  37.980  1.00  0.00     0.049 A 
ATOM     64  C   UNL A   1      44.736  37.658  33.166  1.00  0.00     0.074 A 
ATOM     65  C   UNL A   1      42.462  37.319  39.090  1.00  0.00     0.029 A 
ATOM     66  N   UNL A   1      42.822  37.043  36.912  1.00  0.00    -0.354 N 
ATOM     67  N   UNL A   1      44.204  37.521  34.358  1.00  0.00    -0.248 NA
ATOM     68  C   UNL A   1      45.744  38.725  33.079  1.00  0.00     0.031 C 
ATOM     69  C   UNL A   1      43.440  38.232  38.681  1.00  0.00     0.029 A 
ATOM     70  C   UNL A   1      43.685  38.042  37.330  1.00  0.00     0.049 A 
ATOM     71  H   UNL A   1      42.765  36.695  35.993  1.00  0.00     0.167 HD
ATOM     72  C   UNL A   1      44.829  38.465  35.169  1.00  0.00     0.074 A 
ATOM     73  C   UNL A   1      45.787  39.160  34.332  1.00  0.00     0.031 C 
ATOM     74  C   UNL A   1      44.632  38.728  36.484  1.00  0.00     0.037 A 
BRANCH  61  75
ATOM     75  C   UNL A   1      40.252  35.246  39.129  1.00  0.00     0.058 A 
ATOM     76  C   UNL A   1      40.525  34.076  39.858  1.00  0.00     0.135 A 
ATOM     77  C   UNL A   1      39.232  36.088  39.601  1.00  0.00     0.135 A 
ATOM     78  F   UNL A   1      41.472  33.223  39.438  1.00  0.00    -0.206 F 
ATOM     79  C   UNL A   1      39.796  33.742  40.994  1.00  0.00     0.059 A 
ATOM     80  C   UNL A   1      38.511  35.788  40.753  1.00  0.00     0.059 A 
ATOM     81  F   UNL A   1      38.924  37.214  38.938  1.00  0.00    -0.206 F 
ATOM     82  C   UNL A   1      38.792  34.605  41.435  1.00  0.00     0.060 A 
BRANCH  82  83
ATOM     83  S   UNL A   1      37.856  34.151  42.909  1.00  0.00     0.124 S 
ATOM     84  O   UNL A   1      38.055  32.706  42.949  1.00  0.00    -0.237 OA
ATOM     85  O   UNL A   1      38.536  34.913  43.952  1.00  0.00    -0.237 OA
ATOM     86  O   UNL A   1      36.499  34.588  42.601  1.00  0.00    -0.744 OA
ENDBRANCH  82  83
ENDBRANCH  61  75
BRANCH  62  87
ATOM     87  C   UNL A   1      45.209  37.152  30.651  1.00  0.00     0.058 A 
ATOM     88  C   UNL A   1      46.455  36.554  30.416  1.00  0.00     0.135 A 
ATOM     89  C   UNL A   1      44.685  37.985  29.650  1.00  0.00     0.135 A 
ATOM     90  F   UNL A   1      47.007  35.765  31.349  1.00  0.00    -0.206 F 
ATOM     91  C   UNL A   1      47.152  36.763  29.230  1.00  0.00     0.059 A 
ATOM     92  C   UNL A   1      45.351  38.192  28.445  1.00  0.00     0.059 A 
ATOM     93  F   UNL A   1      43.495  38.581  29.825  1.00  0.00    -0.206 F 
ATOM     94  C   UNL A   1      46.585  37.574  28.244  1.00  0.00     0.060 A 
BRANCH  94  95
ATOM     95  S   UNL A   1      47.460  37.762  26.675  1.00  0.00     0.124 S 
ATOM     96  O   UNL A   1      46.509  37.182  25.733  1.00  0.00    -0.237 OA
ATOM     97  O   UNL A   1      47.635  39.208  26.599  1.00  0.00    -0.237 OA
ATOM     98  O   UNL A   1      48.688  36.999  26.881  1.00  0.00    -0.744 OA
ENDBRANCH  94  95
ENDBRANCH  62  87
BRANCH  74  99
ATOM     99  C   UNL A   1      45.472  39.803  37.123  1.00  0.00     0.058 A 
ATOM    100  C   UNL A   1      45.079  41.150  37.113  1.00  0.00     0.135 A 
ATOM    101  C   UNL A   1      46.637  39.467  37.833  1.00  0.00     0.135 A 
ATOM    102  F   UNL A   1      43.975  41.527  36.448  1.00  0.00    -0.206 F 
ATOM    103  C   UNL A   1      45.817  42.127  37.773  1.00  0.00     0.059 A 
ATOM    104  C   UNL A   1      47.375  40.424  38.525  1.00  0.00     0.059 A 
ATOM    105  F   UNL A   1      47.053  38.192  37.886  1.00  0.00    -0.206 F 
ATOM    106  C   UNL A   1      46.959  41.754  38.482  1.00  0.00     0.060 A 
BRANCH 106 107
ATOM    107  S   UNL A   1      47.878  43.029  39.371  1.00  0.00     0.124 S 
ATOM    108  O   UNL A   1      46.825  43.649  40.169  1.00  0.00    -0.237 OA
ATOM    109  O   UNL A   1      48.858  42.244  40.114  1.00  0.00    -0.237 OA
ATOM    110  O   UNL A   1      48.427  43.861  38.304  1.00  0.00    -0.744 OA
ENDBRANCH 106 107
ENDBRANCH  74  99
ENDBRANCH  48  49
ENDBRANCH  41  43
ENDBRANCH  40  41
ENDBRANCH  39  40
ENDBRANCH  38  39
ENDBRANCH  37  38
ENDBRANCH  36  37
ENDBRANCH  35  36
ENDBRANCH   1  35
TORSDOF 26
ENDMDL
MODEL 3
REMARK VINA RESULT:      -8.5      6.681     10.759
REMARK SMILES COC(=O)c1ccc(C)c2c1[C@H]1C=CC[C@H]1[C@@H](c1ccc(C(=O)OCCOCCOCCOCCOC(=O)c3ccc(-c4c5nc(c(-c6c(F)cc(S(=O)(=O)[O-])cc6F)c6ccc([nH]6)c(-c6c(F)cc(S(=O)(=O)[O-])cc6F)c6nc(c(-c7c(F)cc(S(=O)(=O)[O-])cc7F)c7ccc4[nH]7)C=C6)C=C5)cc3)cc1)N2
REMARK SMILES IDX 30 1 29 2 28 3 27 4 26 5 25 6 24 7 22 8 23 9 21 10 18 11
REMARK SMILES IDX 19 12 106 13 20 14 105 15 17 16 5 17 6 18 11 19 7 20 10 21
REMARK SMILES IDX 12 22 8 23 107 24 13 25 16 26 9 27 14 29 15 30 3 31 4 32
REMARK SMILES IDX 2 33 1 34 31 35 32 36 33 37 34 38 35 39 36 40 37 41 38 42
REMARK SMILES IDX 39 43 40 44 104 45 41 46 103 47 42 48 43 49 44 50 97 51
REMARK SMILES IDX 45 52 102 53 96 54 98 55 46 56 101 57 95 58 94 59 47 61
REMARK SMILES IDX 81 62 60 63 80 64 61 65 64 66 79 67 99 68 62 69 63 70 78 72
REMARK SMILES IDX 100 73 65 74 48 75 49 76 58 77 50 78 51 79 57 80 59 81 52 82
REMARK SMILES IDX 53 83 54 84 55 85 56 86 82 87 83 88 92 89 84 90 85 91 91 92
REMARK SMILES IDX 93 93 86 94 87 95 88 96 89 97 90 98 66 99 67 100 76 101
REMARK SMILES IDX 68 102 69 103 75 104 77 105 70 106 71 107 72 108 73 109
REMARK SMILES IDX 74 110
REMARK H PARENT 107 28 98 60 64 71
REMARK Flexibility Score: inf
ROOT
ATOM      1  O   UNL A   1      40.978  24.565  26.246  1.00  0.00    -0.377 OA
ENDROOT
BRANCH   1   2
ATOM      2  C   UNL A   1      41.055  25.961  26.001  1.00  0.00     0.188 C 
BRANCH   2   3
ATOM      3  C   UNL A   1      41.089  26.935  27.197  1.00  0.00     0.188 C 
BRANCH   3   4
ATOM      4  O   UNL A   1      40.966  28.302  26.842  1.00  0.00    -0.376 OA
BRANCH   4   5
ATOM      5  C   UNL A   1      42.004  28.894  26.080  1.00  0.00     0.202 C 
BRANCH   5   6
ATOM      6  C   UNL A   1      43.456  28.673  26.535  1.00  0.00     0.261 C 
BRANCH   6   7
ATOM      7  O   UNL A   1      44.023  29.723  27.327  1.00  0.00    -0.460 OA
BRANCH   7   8
ATOM      8  C   UNL A   1      44.441  29.392  28.567  1.00  0.00     0.338 C 
ATOM      9  O   UNL A   1      45.593  29.216  28.926  1.00  0.00    -0.246 OA
BRANCH   8  10
ATOM     10  C   UNL A   1      43.293  29.552  29.490  1.00  0.00     0.060 A 
ATOM     11  C   UNL A   1      40.938  29.885  31.033  1.00  0.00    -0.025 A 
ATOM     12  C   UNL A   1      41.326  30.826  30.063  1.00  0.00     0.007 A 
ATOM     13  C   UNL A   1      41.764  28.756  31.198  1.00  0.00     0.007 A 
ATOM     14  C   UNL A   1      42.496  30.681  29.318  1.00  0.00     0.016 A 
ATOM     15  C   UNL A   1      42.924  28.579  30.424  1.00  0.00     0.016 A 
BRANCH  11  16
ATOM     16  C   UNL A   1      39.693  30.065  31.915  1.00  0.00     0.114 C 
ATOM     17  C   UNL A   1      37.050  31.727  29.015  1.00  0.00     0.065 A 
ATOM     18  C   UNL A   1      37.201  33.077  28.686  1.00  0.00     0.016 A 
ATOM     19  C   UNL A   1      37.738  31.171  30.118  1.00  0.00    -0.003 A 
ATOM     20  C   UNL A   1      38.000  33.897  29.474  1.00  0.00     0.006 A 
ATOM     21  C   UNL A   1      38.541  32.017  30.929  1.00  0.00     0.042 A 
ATOM     22  C   UNL A   1      37.636  29.691  30.434  1.00  0.00     0.050 C 
ATOM     23  C   UNL A   1      38.662  33.389  30.604  1.00  0.00    -0.028 A 
ATOM     24  N   UNL A   1      39.297  31.469  31.961  1.00  0.00    -0.377 N 
ATOM     25  C   UNL A   1      38.167  28.736  29.391  1.00  0.00    -0.023 C 
ATOM     26  C   UNL A   1      38.422  29.226  31.675  1.00  0.00     0.031 C 
ATOM     27  C   UNL A   1      39.533  34.360  31.359  1.00  0.00     0.046 C 
ATOM     28  H   UNL A   1      39.566  32.031  32.724  1.00  0.00     0.161 HD
ATOM     29  C   UNL A   1      38.717  27.651  29.953  1.00  0.00    -0.030 C 
ATOM     30  C   UNL A   1      38.678  27.733  31.443  1.00  0.00     0.034 C 
BRANCH  17  31
ATOM     31  C   UNL A   1      36.117  30.919  28.194  1.00  0.00     0.338 C 
ATOM     32  O   UNL A   1      36.449  30.241  27.238  1.00  0.00    -0.246 OA
BRANCH  31  33
ATOM     33  O   UNL A   1      34.855  31.078  28.669  1.00  0.00    -0.465 OA
ATOM     34  C   UNL A   1      33.959  31.666  27.723  1.00  0.00     0.282 C 
ENDBRANCH  31  33
ENDBRANCH  17  31
ENDBRANCH  11  16
ENDBRANCH   8  10
ENDBRANCH   7   8
ENDBRANCH   6   7
ENDBRANCH   5   6
ENDBRANCH   4   5
ENDBRANCH   3   4
ENDBRANCH   2   3
ENDBRANCH   1   2
BRANCH   1  35
ATOM     35  C   UNL A   1      39.816  24.016  26.863  1.00  0.00     0.188 C 
BRANCH  35  36
ATOM     36  C   UNL A   1      39.302  22.602  26.502  1.00  0.00     0.188 C 
BRANCH  36  37
ATOM     37  O   UNL A   1      40.067  21.540  27.050  1.00  0.00    -0.376 OA
BRANCH  37  38
ATOM     38  C   UNL A   1      41.119  21.028  26.252  1.00  0.00     0.202 C 
BRANCH  38  39
ATOM     39  C   UNL A   1      42.545  21.464  26.619  1.00  0.00     0.261 C 
BRANCH  39  40
ATOM     40  O   UNL A   1      43.530  21.369  25.580  1.00  0.00    -0.460 OA
BRANCH  40  41
ATOM     41  C   UNL A   1      43.770  22.470  24.837  1.00  0.00     0.338 C 
ATOM     42  O   UNL A   1      43.234  22.782  23.786  1.00  0.00    -0.246 OA
BRANCH  41  43
ATOM     43  C   UNL A   1      44.686  23.325  25.618  1.00  0.00     0.060 A 
ATOM     44  C   UNL A   1      45.700  22.738  26.389  1.00  0.00     0.016 A 
ATOM     45  C   UNL A   1      44.557  24.714  25.556  1.00  0.00     0.016 A 
ATOM     46  C   UNL A   1      46.585  23.543  27.106  1.00  0.00     0.010 A 
ATOM     47  C   UNL A   1      45.418  25.517  26.303  1.00  0.00     0.010 A 
ATOM     48  C   UNL A   1      46.417  24.935  27.102  1.00  0.00    -0.014 A 
BRANCH  48  49
ATOM     49  C   UNL A   1      47.111  25.761  28.118  1.00  0.00     0.031 A 
ATOM     50  C   UNL A   1      48.477  26.285  27.772  1.00  0.00     0.074 A 
ATOM     51  C   UNL A   1      46.552  26.042  29.307  1.00  0.00     0.049 A 
ATOM     52  N   UNL A   1      49.306  26.988  28.497  1.00  0.00    -0.248 NA
ATOM     53  C   UNL A   1      48.972  25.972  26.420  1.00  0.00     0.031 C 
ATOM     54  C   UNL A   1      45.216  25.632  29.734  1.00  0.00     0.029 A 
ATOM     55  N   UNL A   1      47.052  26.739  30.379  1.00  0.00    -0.354 N 
ATOM     56  C   UNL A   1      50.413  27.211  27.688  1.00  0.00     0.074 A 
ATOM     57  C   UNL A   1      50.170  26.536  26.433  1.00  0.00     0.031 C 
ATOM     58  C   UNL A   1      45.005  26.079  30.985  1.00  0.00     0.029 A 
ATOM     59  C   UNL A   1      46.202  26.778  31.458  1.00  0.00     0.049 A 
ATOM     60  H   UNL A   1      47.937  27.170  30.375  1.00  0.00     0.167 HD
ATOM     61  C   UNL A   1      51.528  27.925  27.962  1.00  0.00     0.037 A 
ATOM     62  C   UNL A   1      46.379  27.303  32.687  1.00  0.00     0.037 A 
ATOM     63  C   UNL A   1      51.780  28.566  29.224  1.00  0.00     0.049 A 
ATOM     64  C   UNL A   1      47.678  27.999  33.013  1.00  0.00     0.074 A 
ATOM     65  C   UNL A   1      52.884  29.303  29.610  1.00  0.00     0.029 A 
ATOM     66  N   UNL A   1      50.920  28.532  30.313  1.00  0.00    -0.354 N 
ATOM     67  N   UNL A   1      48.715  28.217  32.237  1.00  0.00    -0.248 NA
ATOM     68  C   UNL A   1      47.834  28.517  34.379  1.00  0.00     0.031 C 
ATOM     69  C   UNL A   1      52.718  29.667  30.950  1.00  0.00     0.029 A 
ATOM     70  C   UNL A   1      51.482  29.211  31.381  1.00  0.00     0.049 A 
ATOM     71  H   UNL A   1      50.039  28.092  30.325  1.00  0.00     0.167 HD
ATOM     72  C   UNL A   1      49.634  28.919  33.013  1.00  0.00     0.074 A 
ATOM     73  C   UNL A   1      49.025  29.097  34.316  1.00  0.00     0.031 C 
ATOM     74  C   UNL A   1      50.865  29.378  32.676  1.00  0.00     0.037 A 
BRANCH  61  75
ATOM     75  C   UNL A   1      52.568  28.023  26.881  1.00  0.00     0.058 A 
ATOM     76  C   UNL A   1      52.512  29.021  25.895  1.00  0.00     0.135 A 
ATOM     77  C   UNL A   1      53.639  27.116  26.835  1.00  0.00     0.135 A 
ATOM     78  F   UNL A   1      51.496  29.899  25.877  1.00  0.00    -0.206 F 
ATOM     79  C   UNL A   1      53.466  29.100  24.886  1.00  0.00     0.059 A 
ATOM     80  C   UNL A   1      54.621  27.195  25.852  1.00  0.00     0.059 A 
ATOM     81  F   UNL A   1      53.735  26.137  27.748  1.00  0.00    -0.206 F 
ATOM     82  C   UNL A   1      54.517  28.183  24.873  1.00  0.00     0.060 A 
BRANCH  82  83
ATOM     83  S   UNL A   1      55.743  28.300  23.555  1.00  0.00     0.124 S 
ATOM     84  O   UNL A   1      55.771  26.927  23.059  1.00  0.00    -0.237 OA
ATOM     85  O   UNL A   1      55.141  29.284  22.661  1.00  0.00    -0.237 OA
ATOM     86  O   UNL A   1      56.950  28.739  24.246  1.00  0.00    -0.744 OA
ENDBRANCH  82  83
ENDBRANCH  61  75
BRANCH  62  87
ATOM     87  C   UNL A   1      45.292  27.201  33.698  1.00  0.00     0.058 A 
ATOM     88  C   UNL A   1      44.350  28.228  33.849  1.00  0.00     0.135 A 
ATOM     89  C   UNL A   1      45.151  26.062  34.508  1.00  0.00     0.135 A 
ATOM     90  F   UNL A   1      44.453  29.345  33.112  1.00  0.00    -0.206 F 
ATOM     91  C   UNL A   1      43.301  28.129  34.757  1.00  0.00     0.059 A 
ATOM     92  C   UNL A   1      44.096  25.928  35.407  1.00  0.00     0.059 A 
ATOM     93  F   UNL A   1      46.025  25.049  34.402  1.00  0.00    -0.206 F 
ATOM     94  C   UNL A   1      43.174  26.967  35.523  1.00  0.00     0.060 A 
BRANCH  94  95
ATOM     95  S   UNL A   1      41.757  26.816  36.630  1.00  0.00     0.124 S 
ATOM     96  O   UNL A   1      40.930  25.843  35.925  1.00  0.00    -0.237 OA
ATOM     97  O   UNL A   1      42.385  26.349  37.862  1.00  0.00    -0.237 OA
ATOM     98  O   UNL A   1      41.224  28.175  36.683  1.00  0.00    -0.744 OA
ENDBRANCH  94  95
ENDBRANCH  62  87
BRANCH  74  99
ATOM     99  C   UNL A   1      51.646  30.135  33.718  1.00  0.00     0.058 A 
ATOM    100  C   UNL A   1      51.548  31.529  33.845  1.00  0.00     0.135 A 
ATOM    101  C   UNL A   1      52.429  29.446  34.659  1.00  0.00     0.135 A 
ATOM    102  F   UNL A   1      50.816  32.237  32.971  1.00  0.00    -0.206 F 
ATOM    103  C   UNL A   1      52.209  32.214  34.859  1.00  0.00     0.059 A 
ATOM    104  C   UNL A   1      53.075  30.108  35.700  1.00  0.00     0.059 A 
ATOM    105  F   UNL A   1      52.547  28.110  34.593  1.00  0.00    -0.206 F 
ATOM    106  C   UNL A   1      52.964  31.494  35.786  1.00  0.00     0.060 A 
BRANCH 106 107
ATOM    107  S   UNL A   1      53.775  32.396  37.124  1.00  0.00     0.124 S 
ATOM    108  O   UNL A   1      55.080  32.683  36.536  1.00  0.00    -0.237 OA
ATOM    109  O   UNL A   1      52.894  33.545  37.302  1.00  0.00    -0.237 OA
ATOM    110  O   UNL A   1      53.782  31.439  38.227  1.00  0.00    -0.744 OA
ENDBRANCH 106 107
ENDBRANCH  74  99
ENDBRANCH  48  49
ENDBRANCH  41  43
ENDBRANCH  40  41
ENDBRANCH  39  40
ENDBRANCH  38  39
ENDBRANCH  37  38
ENDBRANCH  36  37
ENDBRANCH  35  36
ENDBRANCH   1  35
TORSDOF 26
ENDMDL
