MODEL 1
REMARK VINA RESULT:      -9.8      0.000      0.000
REMARK SMILES COC(=O)c1ccc2c(c1)=N[C@H](c1cn(CCC(=O)OCCOCCOCCOCCOC(=O)c3ccc(-c4c5nc(c(-c6c(F)cc(S(=O)(=O)[O-])cc6F)c6ccc([nH]6)c(-c6c(F)cc(S(=O)(=O)[O-])cc6F)c6nc(c(-c7c(F)cc(S(=O)(=O)[O-])cc7F)c7ccc4[nH]7)C=C6)C=C5)cc3)c3ccccc13)N=2
REMARK SMILES IDX 25 1 24 2 23 3 22 4 21 5 20 6 18 7 19 8 17 9 16 10 15 11
REMARK SMILES IDX 13 12 14 13 106 14 101 15 105 16 102 17 104 18 103 19 12 20
REMARK SMILES IDX 5 21 6 22 10 23 7 24 9 25 8 26 11 27 107 28 3 29 4 30 2 31
REMARK SMILES IDX 1 32 26 33 27 34 28 35 29 36 30 37 31 38 32 39 33 40 34 41
REMARK SMILES IDX 35 42 36 43 100 44 37 45 99 46 38 47 39 48 40 49 93 50 41 51
REMARK SMILES IDX 98 52 92 53 94 54 42 55 97 56 91 57 90 58 43 60 77 61 56 62
REMARK SMILES IDX 76 63 57 64 60 65 75 66 95 67 58 68 59 69 74 71 96 72 61 73
REMARK SMILES IDX 44 74 45 75 54 76 46 77 47 78 53 79 55 80 48 81 49 82 50 83
REMARK SMILES IDX 51 84 52 85 78 86 79 87 88 88 80 89 81 90 87 91 89 92 82 93
REMARK SMILES IDX 83 94 84 95 85 96 86 97 62 98 63 99 72 100 64 101 65 102
REMARK SMILES IDX 71 103 73 104 66 105 67 106 68 107 69 108 70 109
REMARK H PARENT 94 59 60 70
REMARK Flexibility Score: inf
ROOT
ATOM      1  C   UNL A   1      33.988  25.757  25.118  1.00  0.00     0.188 C 
ENDROOT
BRANCH   1   2
ATOM      2  C   UNL A   1      33.074  24.755  25.831  1.00  0.00     0.188 C 
BRANCH   2   3
ATOM      3  O   UNL A   1      33.528  23.726  26.683  1.00  0.00    -0.376 OA
BRANCH   3   4
ATOM      4  C   UNL A   1      33.048  22.397  26.724  1.00  0.00     0.202 C 
BRANCH   4   5
ATOM      5  C   UNL A   1      33.438  21.259  25.769  1.00  0.00     0.261 C 
BRANCH   5   6
ATOM      6  O   UNL A   1      34.837  21.053  25.513  1.00  0.00    -0.463 OA
BRANCH   6   7
ATOM      7  C   UNL A   1      35.410  21.949  24.674  1.00  0.00     0.307 C 
ATOM      8  O   UNL A   1      34.819  22.473  23.732  1.00  0.00    -0.252 OA
BRANCH   7   9
ATOM      9  C   UNL A   1      36.868  22.275  24.950  1.00  0.00     0.144 C 
BRANCH   9  10
ATOM     10  C   UNL A   1      37.359  23.676  25.332  1.00  0.00     0.134 C 
BRANCH  10  11
ATOM     11  N   UNL A   1      38.563  23.694  26.130  1.00  0.00    -0.346 N 
ATOM     12  C   UNL A   1      40.132  23.133  27.559  1.00  0.00     0.024 A 
ATOM     13  C   UNL A   1      39.280  22.609  26.580  1.00  0.00     0.094 A 
ATOM     14  C   UNL A   1      39.557  24.434  27.857  1.00  0.00     0.007 A 
ATOM     15  C   UNL A   1      39.301  24.779  26.525  1.00  0.00     0.048 A 
ATOM     16  C   UNL A   1      39.967  25.474  28.701  1.00  0.00     0.011 A 
ATOM     17  C   UNL A   1      40.145  25.681  25.879  1.00  0.00     0.027 A 
ATOM     18  C   UNL A   1      40.804  26.415  28.117  1.00  0.00     0.001 A 
ATOM     19  C   UNL A   1      40.994  26.396  26.734  1.00  0.00     0.002 A 
BRANCH  12  20
ATOM     20  C   UNL A   1      41.461  22.567  27.992  1.00  0.00     0.255 C 
ATOM     21  C   UNL A   1      44.450  20.290  25.425  1.00  0.00     0.062 A 
ATOM     22  C   UNL A   1      45.101  21.597  25.463  1.00  0.00     0.018 A 
ATOM     23  C   UNL A   1      43.250  20.078  25.996  1.00  0.00     0.046 A 
ATOM     24  C   UNL A   1      44.564  22.670  26.068  1.00  0.00     0.031 A 
ATOM     25  C   UNL A   1      42.630  21.180  26.749  1.00  0.00     0.087 A 
ATOM     26  C   UNL A   1      43.285  22.499  26.777  1.00  0.00     0.086 A 
ATOM     27  N   UNL A   1      41.569  21.151  27.478  1.00  0.00    -0.252 NA
ATOM     28  N   UNL A   1      42.641  23.343  27.503  1.00  0.00    -0.252 NA
BRANCH  21  29
ATOM     29  C   UNL A   1      45.079  19.110  24.753  1.00  0.00     0.337 C 
ATOM     30  O   UNL A   1      45.259  18.027  25.290  1.00  0.00    -0.246 OA
BRANCH  29  31
ATOM     31  O   UNL A   1      45.481  19.439  23.496  1.00  0.00    -0.465 OA
ATOM     32  C   UNL A   1      44.781  18.755  22.451  1.00  0.00     0.282 C 
ENDBRANCH  29  31
ENDBRANCH  21  29
ENDBRANCH  12  20
ENDBRANCH  10  11
ENDBRANCH   9  10
ENDBRANCH   7   9
ENDBRANCH   6   7
ENDBRANCH   5   6
ENDBRANCH   4   5
ENDBRANCH   3   4
ENDBRANCH   2   3
ENDBRANCH   1   2
BRANCH   1  33
ATOM     33  O   UNL A   1      33.555  26.605  24.080  1.00  0.00    -0.377 OA
BRANCH  33  34
ATOM     34  C   UNL A   1      33.653  27.988  24.361  1.00  0.00     0.188 C 
BRANCH  34  35
ATOM     35  C   UNL A   1      32.371  28.450  25.040  1.00  0.00     0.188 C 
BRANCH  35  36
ATOM     36  O   UNL A   1      32.325  29.835  25.341  1.00  0.00    -0.376 OA
BRANCH  36  37
ATOM     37  C   UNL A   1      32.557  30.305  26.665  1.00  0.00     0.202 C 
BRANCH  37  38
ATOM     38  C   UNL A   1      32.469  31.774  27.153  1.00  0.00     0.261 C 
BRANCH  38  39
ATOM     39  O   UNL A   1      33.636  32.319  27.771  1.00  0.00    -0.460 OA
BRANCH  39  40
ATOM     40  C   UNL A   1      33.571  33.454  28.514  1.00  0.00     0.338 C 
ATOM     41  O   UNL A   1      32.803  34.363  28.414  1.00  0.00    -0.246 OA
BRANCH  40  42
ATOM     42  C   UNL A   1      34.481  33.156  29.661  1.00  0.00     0.060 A 
ATOM     43  C   UNL A   1      34.793  34.147  30.587  1.00  0.00     0.016 A 
ATOM     44  C   UNL A   1      35.280  32.013  29.555  1.00  0.00     0.016 A 
ATOM     45  C   UNL A   1      36.007  34.066  31.267  1.00  0.00     0.010 A 
ATOM     46  C   UNL A   1      36.518  31.970  30.205  1.00  0.00     0.010 A 
ATOM     47  C   UNL A   1      36.927  33.043  30.996  1.00  0.00    -0.014 A 
BRANCH  47  48
ATOM     48  C   UNL A   1      38.225  33.084  31.707  1.00  0.00     0.031 A 
ATOM     49  C   UNL A   1      39.362  33.454  30.816  1.00  0.00     0.074 A 
ATOM     50  C   UNL A   1      38.389  32.903  33.039  1.00  0.00     0.049 A 
ATOM     51  N   UNL A   1      40.502  32.861  30.657  1.00  0.00    -0.248 NA
ATOM     52  C   UNL A   1      39.123  34.561  29.869  1.00  0.00     0.031 C 
ATOM     53  C   UNL A   1      37.317  32.694  34.009  1.00  0.00     0.029 A 
ATOM     54  N   UNL A   1      39.508  32.956  33.844  1.00  0.00    -0.354 N 
ATOM     55  C   UNL A   1      41.204  33.663  29.763  1.00  0.00     0.074 A 
ATOM     56  C   UNL A   1      40.258  34.575  29.176  1.00  0.00     0.031 C 
ATOM     57  C   UNL A   1      37.799  32.822  35.262  1.00  0.00     0.029 A 
ATOM     58  C   UNL A   1      39.216  33.122  35.203  1.00  0.00     0.049 A 
ATOM     59  H   UNL A   1      40.425  32.883  33.494  1.00  0.00     0.167 HD
ATOM     60  C   UNL A   1      42.560  33.736  29.768  1.00  0.00     0.037 A 
ATOM     61  C   UNL A   1      40.017  33.577  36.211  1.00  0.00     0.037 A 
ATOM     62  C   UNL A   1      43.173  32.566  30.323  1.00  0.00     0.049 A 
ATOM     63  C   UNL A   1      41.424  33.442  35.761  1.00  0.00     0.074 A 
ATOM     64  C   UNL A   1      43.157  31.225  29.992  1.00  0.00     0.029 A 
ATOM     65  N   UNL A   1      43.690  32.639  31.592  1.00  0.00    -0.354 N 
ATOM     66  N   UNL A   1      42.040  32.303  35.613  1.00  0.00    -0.248 NA
ATOM     67  C   UNL A   1      42.006  34.563  35.038  1.00  0.00     0.031 C 
ATOM     68  C   UNL A   1      43.244  30.531  31.228  1.00  0.00     0.029 A 
ATOM     69  C   UNL A   1      43.358  31.480  32.245  1.00  0.00     0.049 A 
ATOM     70  H   UNL A   1      44.207  33.388  31.966  1.00  0.00     0.167 HD
ATOM     71  C   UNL A   1      42.788  32.457  34.455  1.00  0.00     0.074 A 
ATOM     72  C   UNL A   1      42.794  33.894  34.194  1.00  0.00     0.031 C 
ATOM     73  C   UNL A   1      43.096  31.389  33.665  1.00  0.00     0.037 A 
BRANCH  60  74
ATOM     74  C   UNL A   1      43.265  35.049  29.578  1.00  0.00     0.058 A 
ATOM     75  C   UNL A   1      43.289  36.009  30.600  1.00  0.00     0.135 A 
ATOM     76  C   UNL A   1      43.728  35.479  28.311  1.00  0.00     0.135 A 
ATOM     77  F   UNL A   1      42.820  35.712  31.822  1.00  0.00    -0.206 F 
ATOM     78  C   UNL A   1      43.738  37.311  30.376  1.00  0.00     0.059 A 
ATOM     79  C   UNL A   1      44.238  36.747  28.081  1.00  0.00     0.059 A 
ATOM     80  F   UNL A   1      43.622  34.708  27.219  1.00  0.00    -0.206 F 
ATOM     81  C   UNL A   1      44.212  37.668  29.114  1.00  0.00     0.060 A 
BRANCH  81  82
ATOM     82  S   UNL A   1      44.733  39.363  28.804  1.00  0.00     0.124 S 
ATOM     83  O   UNL A   1      44.796  39.900  30.158  1.00  0.00    -0.237 OA
ATOM     84  O   UNL A   1      46.014  39.165  28.132  1.00  0.00    -0.237 OA
ATOM     85  O   UNL A   1      43.666  39.895  27.962  1.00  0.00    -0.744 OA
ENDBRANCH  81  82
ENDBRANCH  60  74
BRANCH  61  86
ATOM     86  C   UNL A   1      39.625  34.398  37.410  1.00  0.00     0.058 A 
ATOM     87  C   UNL A   1      39.435  33.828  38.687  1.00  0.00     0.135 A 
ATOM     88  C   UNL A   1      39.667  35.810  37.388  1.00  0.00     0.135 A 
ATOM     89  F   UNL A   1      39.408  32.495  38.835  1.00  0.00    -0.206 F 
ATOM     90  C   UNL A   1      39.336  34.604  39.857  1.00  0.00     0.059 A 
ATOM     91  C   UNL A   1      39.543  36.600  38.530  1.00  0.00     0.059 A 
ATOM     92  F   UNL A   1      39.932  36.488  36.265  1.00  0.00    -0.206 F 
ATOM     93  C   UNL A   1      39.413  35.993  39.768  1.00  0.00     0.060 A 
BRANCH  93  94
ATOM     94  S   UNL A   1      39.493  37.005  41.267  1.00  0.00     0.124 S 
ATOM     95  O   UNL A   1      40.924  37.023  41.549  1.00  0.00    -0.237 OA
ATOM     96  O   UNL A   1      38.913  38.264  40.817  1.00  0.00    -0.237 OA
ATOM     97  O   UNL A   1      38.679  36.258  42.224  1.00  0.00    -0.744 OA
ENDBRANCH  93  94
ENDBRANCH  61  86
BRANCH  73  98
ATOM     98  C   UNL A   1      42.927  30.001  34.232  1.00  0.00     0.058 A 
ATOM     99  C   UNL A   1      43.893  29.328  35.001  1.00  0.00     0.135 A 
ATOM    100  C   UNL A   1      41.660  29.404  34.128  1.00  0.00     0.135 A 
ATOM    101  F   UNL A   1      45.099  29.871  35.227  1.00  0.00    -0.206 F 
ATOM    102  C   UNL A   1      43.616  28.103  35.615  1.00  0.00     0.059 A 
ATOM    103  C   UNL A   1      41.353  28.203  34.757  1.00  0.00     0.059 A 
ATOM    104  F   UNL A   1      40.678  30.025  33.452  1.00  0.00    -0.206 F 
ATOM    105  C   UNL A   1      42.340  27.552  35.492  1.00  0.00     0.060 A 
BRANCH 105 106
ATOM    106  S   UNL A   1      41.960  26.008  36.352  1.00  0.00     0.124 S 
ATOM    107  O   UNL A   1      40.716  25.597  35.709  1.00  0.00    -0.237 OA
ATOM    108  O   UNL A   1      43.128  25.185  36.058  1.00  0.00    -0.237 OA
ATOM    109  O   UNL A   1      41.831  26.418  37.749  1.00  0.00    -0.744 OA
ENDBRANCH 105 106
ENDBRANCH  73  98
ENDBRANCH  47  48
ENDBRANCH  40  42
ENDBRANCH  39  40
ENDBRANCH  38  39
ENDBRANCH  37  38
ENDBRANCH  36  37
ENDBRANCH  35  36
ENDBRANCH  34  35
ENDBRANCH  33  34
ENDBRANCH   1  33
TORSDOF 28
ENDMDL
MODEL 2
REMARK VINA RESULT:      -8.9      1.982      2.580
REMARK SMILES COC(=O)c1ccc2c(c1)=N[C@H](c1cn(CCC(=O)OCCOCCOCCOCCOC(=O)c3ccc(-c4c5nc(c(-c6c(F)cc(S(=O)(=O)[O-])cc6F)c6ccc([nH]6)c(-c6c(F)cc(S(=O)(=O)[O-])cc6F)c6nc(c(-c7c(F)cc(S(=O)(=O)[O-])cc7F)c7ccc4[nH]7)C=C6)C=C5)cc3)c3ccccc13)N=2
REMARK SMILES IDX 25 1 24 2 23 3 22 4 21 5 20 6 18 7 19 8 17 9 16 10 15 11
REMARK SMILES IDX 13 12 14 13 106 14 101 15 105 16 102 17 104 18 103 19 12 20
REMARK SMILES IDX 5 21 6 22 10 23 7 24 9 25 8 26 11 27 107 28 3 29 4 30 2 31
REMARK SMILES IDX 1 32 26 33 27 34 28 35 29 36 30 37 31 38 32 39 33 40 34 41
REMARK SMILES IDX 35 42 36 43 100 44 37 45 99 46 38 47 39 48 40 49 93 50 41 51
REMARK SMILES IDX 98 52 92 53 94 54 42 55 97 56 91 57 90 58 43 60 77 61 56 62
REMARK SMILES IDX 76 63 57 64 60 65 75 66 95 67 58 68 59 69 74 71 96 72 61 73
REMARK SMILES IDX 44 74 45 75 54 76 46 77 47 78 53 79 55 80 48 81 49 82 50 83
REMARK SMILES IDX 51 84 52 85 78 86 79 87 88 88 80 89 81 90 87 91 89 92 82 93
REMARK SMILES IDX 83 94 84 95 85 96 86 97 62 98 63 99 72 100 64 101 65 102
REMARK SMILES IDX 71 103 73 104 66 105 67 106 68 107 69 108 70 109
REMARK H PARENT 94 59 60 70
REMARK Flexibility Score: inf
ROOT
ATOM      1  C   UNL A   1      34.034  25.666  23.992  1.00  0.00     0.188 C 
ENDROOT
BRANCH   1   2
ATOM      2  C   UNL A   1      33.608  24.355  24.661  1.00  0.00     0.188 C 
BRANCH   2   3
ATOM      3  O   UNL A   1      34.424  23.598  25.527  1.00  0.00    -0.376 OA
BRANCH   3   4
ATOM      4  C   UNL A   1      34.673  22.209  25.446  1.00  0.00     0.202 C 
BRANCH   4   5
ATOM      5  C   UNL A   1      36.039  21.541  25.224  1.00  0.00     0.261 C 
BRANCH   5   6
ATOM      6  O   UNL A   1      37.132  21.967  26.053  1.00  0.00    -0.463 OA
BRANCH   6   7
ATOM      7  C   UNL A   1      37.815  23.046  25.602  1.00  0.00     0.307 C 
ATOM      8  O   UNL A   1      37.777  23.437  24.437  1.00  0.00    -0.252 OA
BRANCH   7   9
ATOM      9  C   UNL A   1      38.668  23.767  26.633  1.00  0.00     0.144 C 
BRANCH   9  10
ATOM     10  C   UNL A   1      38.274  25.109  27.261  1.00  0.00     0.134 C 
BRANCH  10  11
ATOM     11  N   UNL A   1      39.370  25.836  27.860  1.00  0.00    -0.346 N 
ATOM     12  C   UNL A   1      41.237  26.309  28.911  1.00  0.00     0.024 A 
ATOM     13  C   UNL A   1      40.674  25.418  27.990  1.00  0.00     0.094 A 
ATOM     14  C   UNL A   1      40.085  26.946  29.525  1.00  0.00     0.007 A 
ATOM     15  C   UNL A   1      39.374  27.122  28.333  1.00  0.00     0.048 A 
ATOM     16  C   UNL A   1      39.969  27.968  30.476  1.00  0.00     0.011 A 
ATOM     17  C   UNL A   1      39.329  28.385  27.745  1.00  0.00     0.027 A 
ATOM     18  C   UNL A   1      39.910  29.254  29.957  1.00  0.00     0.001 A 
ATOM     19  C   UNL A   1      39.746  29.430  28.581  1.00  0.00     0.002 A 
BRANCH  12  20
ATOM     20  C   UNL A   1      42.695  26.679  29.029  1.00  0.00     0.255 C 
ATOM     21  C   UNL A   1      45.910  26.252  25.836  1.00  0.00     0.062 A 
ATOM     22  C   UNL A   1      45.651  27.685  25.737  1.00  0.00     0.018 A 
ATOM     23  C   UNL A   1      45.202  25.457  26.661  1.00  0.00     0.046 A 
ATOM     24  C   UNL A   1      44.707  28.315  26.457  1.00  0.00     0.031 A 
ATOM     25  C   UNL A   1      44.202  26.081  27.543  1.00  0.00     0.087 A 
ATOM     26  C   UNL A   1      43.938  27.527  27.434  1.00  0.00     0.086 A 
ATOM     27  N   UNL A   1      43.524  25.536  28.492  1.00  0.00    -0.252 NA
ATOM     28  N   UNL A   1      43.068  27.925  28.293  1.00  0.00    -0.252 NA
BRANCH  21  29
ATOM     29  C   UNL A   1      46.977  25.581  25.030  1.00  0.00     0.337 C 
ATOM     30  O   UNL A   1      46.775  24.672  24.240  1.00  0.00    -0.246 OA
BRANCH  29  31
ATOM     31  O   UNL A   1      48.201  26.080  25.356  1.00  0.00    -0.465 OA
ATOM     32  C   UNL A   1      49.034  26.387  24.233  1.00  0.00     0.282 C 
ENDBRANCH  29  31
ENDBRANCH  21  29
ENDBRANCH  12  20
ENDBRANCH  10  11
ENDBRANCH   9  10
ENDBRANCH   7   9
ENDBRANCH   6   7
ENDBRANCH   5   6
ENDBRANCH   4   5
ENDBRANCH   3   4
ENDBRANCH   2   3
ENDBRANCH   1   2
BRANCH   1  33
ATOM     33  O   UNL A   1      33.180  26.443  23.185  1.00  0.00    -0.377 OA
BRANCH  33  34
ATOM     34  C   UNL A   1      33.275  27.839  23.390  1.00  0.00     0.188 C 
BRANCH  34  35
ATOM     35  C   UNL A   1      32.842  28.163  24.813  1.00  0.00     0.188 C 
BRANCH  35  36
ATOM     36  O   UNL A   1      32.969  29.528  25.176  1.00  0.00    -0.376 OA
BRANCH  36  37
ATOM     37  C   UNL A   1      33.349  29.904  26.496  1.00  0.00     0.202 C 
BRANCH  37  38
ATOM     38  C   UNL A   1      33.062  31.260  27.191  1.00  0.00     0.261 C 
BRANCH  38  39
ATOM     39  O   UNL A   1      34.187  31.966  27.716  1.00  0.00    -0.460 OA
BRANCH  39  40
ATOM     40  C   UNL A   1      34.024  33.089  28.463  1.00  0.00     0.338 C 
ATOM     41  O   UNL A   1      33.209  33.953  28.333  1.00  0.00    -0.246 OA
BRANCH  40  42
ATOM     42  C   UNL A   1      34.897  32.834  29.647  1.00  0.00     0.060 A 
ATOM     43  C   UNL A   1      35.159  33.850  30.561  1.00  0.00     0.016 A 
ATOM     44  C   UNL A   1      35.720  31.704  29.595  1.00  0.00     0.016 A 
ATOM     45  C   UNL A   1      36.348  33.807  31.285  1.00  0.00     0.010 A 
ATOM     46  C   UNL A   1      36.935  31.698  30.290  1.00  0.00     0.010 A 
ATOM     47  C   UNL A   1      37.296  32.796  31.070  1.00  0.00    -0.014 A 
BRANCH  47  48
ATOM     48  C   UNL A   1      38.567  32.876  31.825  1.00  0.00     0.031 A 
ATOM     49  C   UNL A   1      39.737  33.196  30.958  1.00  0.00     0.074 A 
ATOM     50  C   UNL A   1      38.681  32.772  33.171  1.00  0.00     0.049 A 
ATOM     51  N   UNL A   1      40.881  32.595  30.875  1.00  0.00    -0.248 NA
ATOM     52  C   UNL A   1      39.535  34.248  29.941  1.00  0.00     0.031 C 
ATOM     53  C   UNL A   1      37.574  32.617  34.111  1.00  0.00     0.029 A 
ATOM     54  N   UNL A   1      39.769  32.870  34.012  1.00  0.00    -0.354 N 
ATOM     55  C   UNL A   1      41.617  33.345  29.963  1.00  0.00     0.074 A 
ATOM     56  C   UNL A   1      40.695  34.222  29.292  1.00  0.00     0.031 C 
ATOM     57  C   UNL A   1      38.009  32.816  35.371  1.00  0.00     0.029 A 
ATOM     58  C   UNL A   1      39.428  33.113  35.348  1.00  0.00     0.049 A 
ATOM     59  H   UNL A   1      40.698  32.778  33.702  1.00  0.00     0.167 HD
ATOM     60  C   UNL A   1      42.972  33.418  30.015  1.00  0.00     0.037 A 
ATOM     61  C   UNL A   1      40.191  33.624  36.357  1.00  0.00     0.037 A 
ATOM     62  C   UNL A   1      43.562  32.282  30.657  1.00  0.00     0.049 A 
ATOM     63  C   UNL A   1      41.614  33.464  35.968  1.00  0.00     0.074 A 
ATOM     64  C   UNL A   1      43.554  30.924  30.402  1.00  0.00     0.029 A 
ATOM     65  N   UNL A   1      44.032  32.426  31.938  1.00  0.00    -0.354 N 
ATOM     66  N   UNL A   1      42.233  32.318  35.908  1.00  0.00    -0.248 NA
ATOM     67  C   UNL A   1      42.225  34.542  35.206  1.00  0.00     0.031 C 
ATOM     68  C   UNL A   1      43.594  30.301  31.678  1.00  0.00     0.029 A 
ATOM     69  C   UNL A   1      43.673  31.305  32.643  1.00  0.00     0.049 A 
ATOM     70  H   UNL A   1      44.536  33.195  32.289  1.00  0.00     0.167 HD
ATOM     71  C   UNL A   1      43.023  32.407  34.772  1.00  0.00     0.074 A 
ATOM     72  C   UNL A   1      43.043  33.826  34.430  1.00  0.00     0.031 C 
ATOM     73  C   UNL A   1      43.358  31.295  34.056  1.00  0.00     0.037 A 
BRANCH  60  74
ATOM     74  C   UNL A   1      43.687  34.718  29.777  1.00  0.00     0.058 A 
ATOM     75  C   UNL A   1      43.596  35.770  30.700  1.00  0.00     0.135 A 
ATOM     76  C   UNL A   1      44.279  35.035  28.531  1.00  0.00     0.135 A 
ATOM     77  F   UNL A   1      43.002  35.581  31.889  1.00  0.00    -0.206 F 
ATOM     78  C   UNL A   1      44.060  37.052  30.404  1.00  0.00     0.059 A 
ATOM     79  C   UNL A   1      44.804  36.284  28.237  1.00  0.00     0.059 A 
ATOM     80  F   UNL A   1      44.294  34.165  27.511  1.00  0.00    -0.206 F 
ATOM     81  C   UNL A   1      44.664  37.296  29.170  1.00  0.00     0.060 A 
BRANCH  81  82
ATOM     82  S   UNL A   1      45.206  38.963  28.758  1.00  0.00     0.124 S 
ATOM     83  O   UNL A   1      46.620  38.903  29.109  1.00  0.00    -0.237 OA
ATOM     84  O   UNL A   1      44.900  39.035  27.333  1.00  0.00    -0.237 OA
ATOM     85  O   UNL A   1      44.378  39.808  29.614  1.00  0.00    -0.744 OA
ENDBRANCH  81  82
ENDBRANCH  60  74
BRANCH  61  86
ATOM     86  C   UNL A   1      39.758  34.511  37.493  1.00  0.00     0.058 A 
ATOM     87  C   UNL A   1      39.534  34.017  38.796  1.00  0.00     0.135 A 
ATOM     88  C   UNL A   1      39.787  35.919  37.387  1.00  0.00     0.135 A 
ATOM     89  F   UNL A   1      39.515  32.695  39.024  1.00  0.00    -0.206 F 
ATOM     90  C   UNL A   1      39.394  34.861  39.913  1.00  0.00     0.059 A 
ATOM     91  C   UNL A   1      39.623  36.775  38.475  1.00  0.00     0.059 A 
ATOM     92  F   UNL A   1      40.080  36.531  36.233  1.00  0.00    -0.206 F 
ATOM     93  C   UNL A   1      39.462  36.243  39.743  1.00  0.00     0.060 A 
BRANCH  93  94
ATOM     94  S   UNL A   1      39.488  37.343  41.180  1.00  0.00     0.124 S 
ATOM     95  O   UNL A   1      38.859  36.522  42.208  1.00  0.00    -0.237 OA
ATOM     96  O   UNL A   1      40.915  37.595  41.346  1.00  0.00    -0.237 OA
ATOM     97  O   UNL A   1      38.706  38.496  40.739  1.00  0.00    -0.744 OA
ENDBRANCH  93  94
ENDBRANCH  61  86
BRANCH  73  98
ATOM     98  C   UNL A   1      43.165  29.942  34.693  1.00  0.00     0.058 A 
ATOM     99  C   UNL A   1      44.118  29.294  35.499  1.00  0.00     0.135 A 
ATOM    100  C   UNL A   1      41.889  29.360  34.617  1.00  0.00     0.135 A 
ATOM    101  F   UNL A   1      45.333  29.828  35.700  1.00  0.00    -0.206 F 
ATOM    102  C   UNL A   1      43.820  28.107  36.175  1.00  0.00     0.059 A 
ATOM    103  C   UNL A   1      41.561  28.198  35.306  1.00  0.00     0.059 A 
ATOM    104  F   UNL A   1      40.918  29.961  33.906  1.00  0.00    -0.206 F 
ATOM    105  C   UNL A   1      42.536  27.571  36.077  1.00  0.00     0.060 A 
BRANCH 105 106
ATOM    106  S   UNL A   1      42.129  26.080  37.015  1.00  0.00     0.124 S 
ATOM    107  O   UNL A   1      42.904  26.266  38.237  1.00  0.00    -0.237 OA
ATOM    108  O   UNL A   1      40.680  26.183  37.161  1.00  0.00    -0.237 OA
ATOM    109  O   UNL A   1      42.585  24.996  36.148  1.00  0.00    -0.744 OA
ENDBRANCH 105 106
ENDBRANCH  73  98
ENDBRANCH  47  48
ENDBRANCH  40  42
ENDBRANCH  39  40
ENDBRANCH  38  39
ENDBRANCH  37  38
ENDBRANCH  36  37
ENDBRANCH  35  36
ENDBRANCH  34  35
ENDBRANCH  33  34
ENDBRANCH   1  33
TORSDOF 28
ENDMDL
MODEL 3
REMARK VINA RESULT:      -8.7      1.658      2.378
REMARK SMILES COC(=O)c1ccc2c(c1)=N[C@H](c1cn(CCC(=O)OCCOCCOCCOCCOC(=O)c3ccc(-c4c5nc(c(-c6c(F)cc(S(=O)(=O)[O-])cc6F)c6ccc([nH]6)c(-c6c(F)cc(S(=O)(=O)[O-])cc6F)c6nc(c(-c7c(F)cc(S(=O)(=O)[O-])cc7F)c7ccc4[nH]7)C=C6)C=C5)cc3)c3ccccc13)N=2
REMARK SMILES IDX 25 1 24 2 23 3 22 4 21 5 20 6 18 7 19 8 17 9 16 10 15 11
REMARK SMILES IDX 13 12 14 13 106 14 101 15 105 16 102 17 104 18 103 19 12 20
REMARK SMILES IDX 5 21 6 22 10 23 7 24 9 25 8 26 11 27 107 28 3 29 4 30 2 31
REMARK SMILES IDX 1 32 26 33 27 34 28 35 29 36 30 37 31 38 32 39 33 40 34 41
REMARK SMILES IDX 35 42 36 43 100 44 37 45 99 46 38 47 39 48 40 49 93 50 41 51
REMARK SMILES IDX 98 52 92 53 94 54 42 55 97 56 91 57 90 58 43 60 77 61 56 62
REMARK SMILES IDX 76 63 57 64 60 65 75 66 95 67 58 68 59 69 74 71 96 72 61 73
REMARK SMILES IDX 44 74 45 75 54 76 46 77 47 78 53 79 55 80 48 81 49 82 50 83
REMARK SMILES IDX 51 84 52 85 78 86 79 87 88 88 80 89 81 90 87 91 89 92 82 93
REMARK SMILES IDX 83 94 84 95 85 96 86 97 62 98 63 99 72 100 64 101 65 102
REMARK SMILES IDX 71 103 73 104 66 105 67 106 68 107 69 108 70 109
REMARK H PARENT 94 59 60 70
REMARK Flexibility Score: inf
ROOT
ATOM      1  C   UNL A   1      33.769  23.872  26.442  1.00  0.00     0.188 C 
ENDROOT
BRANCH   1   2
ATOM      2  C   UNL A   1      33.165  22.474  26.611  1.00  0.00     0.188 C 
BRANCH   2   3
ATOM      3  O   UNL A   1      33.899  21.271  26.539  1.00  0.00    -0.376 OA
BRANCH   3   4
ATOM      4  C   UNL A   1      34.524  20.736  25.389  1.00  0.00     0.202 C 
BRANCH   4   5
ATOM      5  C   UNL A   1      35.668  21.381  24.593  1.00  0.00     0.261 C 
BRANCH   5   6
ATOM      6  O   UNL A   1      36.889  21.670  25.293  1.00  0.00    -0.463 OA
BRANCH   6   7
ATOM      7  C   UNL A   1      37.174  22.986  25.440  1.00  0.00     0.307 C 
ATOM      8  O   UNL A   1      36.858  23.846  24.620  1.00  0.00    -0.252 OA
BRANCH   7   9
ATOM      9  C   UNL A   1      37.942  23.360  26.697  1.00  0.00     0.144 C 
BRANCH   9  10
ATOM     10  C   UNL A   1      38.393  24.791  27.013  1.00  0.00     0.134 C 
BRANCH  10  11
ATOM     11  N   UNL A   1      39.815  24.941  27.218  1.00  0.00    -0.346 N 
ATOM     12  C   UNL A   1      41.882  24.587  27.864  1.00  0.00     0.024 A 
ATOM     13  C   UNL A   1      40.745  23.939  27.370  1.00  0.00     0.094 A 
ATOM     14  C   UNL A   1      41.378  25.873  28.316  1.00  0.00     0.007 A 
ATOM     15  C   UNL A   1      40.555  26.094  27.207  1.00  0.00     0.048 A 
ATOM     16  C   UNL A   1      42.015  26.999  28.852  1.00  0.00     0.011 A 
ATOM     17  C   UNL A   1      40.966  26.989  26.219  1.00  0.00     0.027 A 
ATOM     18  C   UNL A   1      42.443  27.936  27.922  1.00  0.00     0.001 A 
ATOM     19  C   UNL A   1      42.031  27.817  26.593  1.00  0.00     0.002 A 
BRANCH  12  20
ATOM     20  C   UNL A   1      43.313  24.134  27.714  1.00  0.00     0.255 C 
ATOM     21  C   UNL A   1      44.990  21.311  24.564  1.00  0.00     0.062 A 
ATOM     22  C   UNL A   1      45.435  22.588  24.014  1.00  0.00     0.018 A 
ATOM     23  C   UNL A   1      44.226  21.241  25.670  1.00  0.00     0.046 A 
ATOM     24  C   UNL A   1      45.129  23.775  24.565  1.00  0.00     0.031 A 
ATOM     25  C   UNL A   1      43.911  22.491  26.381  1.00  0.00     0.087 A 
ATOM     26  C   UNL A   1      44.355  23.779  25.818  1.00  0.00     0.086 A 
ATOM     27  N   UNL A   1      43.323  22.637  27.517  1.00  0.00    -0.252 NA
ATOM     28  N   UNL A   1      44.036  24.770  26.571  1.00  0.00    -0.252 NA
BRANCH  21  29
ATOM     29  C   UNL A   1      45.358  20.005  23.934  1.00  0.00     0.337 C 
ATOM     30  O   UNL A   1      44.668  19.416  23.114  1.00  0.00    -0.246 OA
BRANCH  29  31
ATOM     31  O   UNL A   1      46.527  19.540  24.454  1.00  0.00    -0.465 OA
ATOM     32  C   UNL A   1      46.369  18.606  25.527  1.00  0.00     0.282 C 
ENDBRANCH  29  31
ENDBRANCH  21  29
ENDBRANCH  12  20
ENDBRANCH  10  11
ENDBRANCH   9  10
ENDBRANCH   7   9
ENDBRANCH   6   7
ENDBRANCH   5   6
ENDBRANCH   4   5
ENDBRANCH   3   4
ENDBRANCH   2   3
ENDBRANCH   1   2
BRANCH   1  33
ATOM     33  O   UNL A   1      33.499  24.711  25.344  1.00  0.00    -0.377 OA
BRANCH  33  34
ATOM     34  C   UNL A   1      34.116  25.982  25.399  1.00  0.00     0.188 C 
BRANCH  34  35
ATOM     35  C   UNL A   1      33.216  26.938  26.170  1.00  0.00     0.188 C 
BRANCH  35  36
ATOM     36  O   UNL A   1      33.588  28.304  26.082  1.00  0.00    -0.376 OA
BRANCH  36  37
ATOM     37  C   UNL A   1      33.647  29.124  27.245  1.00  0.00     0.202 C 
BRANCH  37  38
ATOM     38  C   UNL A   1      33.462  30.663  27.301  1.00  0.00     0.261 C 
BRANCH  38  39
ATOM     39  O   UNL A   1      34.632  31.443  27.555  1.00  0.00    -0.460 OA
BRANCH  39  40
ATOM     40  C   UNL A   1      34.554  32.629  28.213  1.00  0.00     0.338 C 
ATOM     41  O   UNL A   1      33.744  33.496  28.083  1.00  0.00    -0.246 OA
BRANCH  40  42
ATOM     42  C   UNL A   1      35.529  32.456  29.332  1.00  0.00     0.060 A 
ATOM     43  C   UNL A   1      35.739  33.482  30.247  1.00  0.00     0.016 A 
ATOM     44  C   UNL A   1      36.466  31.426  29.201  1.00  0.00     0.016 A 
ATOM     45  C   UNL A   1      36.972  33.562  30.890  1.00  0.00     0.010 A 
ATOM     46  C   UNL A   1      37.719  31.546  29.813  1.00  0.00     0.010 A 
ATOM     47  C   UNL A   1      38.009  32.666  30.591  1.00  0.00    -0.014 A 
BRANCH  47  48
ATOM     48  C   UNL A   1      39.312  32.878  31.261  1.00  0.00     0.031 A 
ATOM     49  C   UNL A   1      40.304  33.575  30.394  1.00  0.00     0.074 A 
ATOM     50  C   UNL A   1      39.582  32.570  32.553  1.00  0.00     0.049 A 
ATOM     51  N   UNL A   1      41.526  33.247  30.124  1.00  0.00    -0.248 NA
ATOM     52  C   UNL A   1      39.801  34.720  29.609  1.00  0.00     0.031 C 
ATOM     53  C   UNL A   1      38.627  32.032  33.518  1.00  0.00     0.029 A 
ATOM     54  N   UNL A   1      40.712  32.746  33.323  1.00  0.00    -0.354 N 
ATOM     55  C   UNL A   1      42.008  34.277  29.323  1.00  0.00     0.074 A 
ATOM     56  C   UNL A   1      40.872  35.047  28.891  1.00  0.00     0.031 C 
ATOM     57  C   UNL A   1      39.143  32.098  34.762  1.00  0.00     0.029 A 
ATOM     58  C   UNL A   1      40.469  32.681  34.701  1.00  0.00     0.049 A 
ATOM     59  H   UNL A   1      41.604  32.902  32.940  1.00  0.00     0.167 HD
ATOM     60  C   UNL A   1      43.322  34.619  29.297  1.00  0.00     0.037 A 
ATOM     61  C   UNL A   1      41.221  33.159  35.735  1.00  0.00     0.037 A 
ATOM     62  C   UNL A   1      44.181  33.536  29.673  1.00  0.00     0.049 A 
ATOM     63  C   UNL A   1      42.600  33.365  35.229  1.00  0.00     0.074 A 
ATOM     64  C   UNL A   1      44.407  32.270  29.169  1.00  0.00     0.029 A 
ATOM     65  N   UNL A   1      44.744  33.554  30.925  1.00  0.00    -0.354 N 
ATOM     66  N   UNL A   1      43.417  32.400  34.914  1.00  0.00    -0.248 NA
ATOM     67  C   UNL A   1      42.912  34.660  34.644  1.00  0.00     0.031 C 
ATOM     68  C   UNL A   1      44.697  31.460  30.299  1.00  0.00     0.029 A 
ATOM     69  C   UNL A   1      44.681  32.279  31.429  1.00  0.00     0.049 A 
ATOM     70  H   UNL A   1      45.125  34.339  31.379  1.00  0.00     0.167 HD
ATOM     71  C   UNL A   1      44.055  32.842  33.765  1.00  0.00     0.074 A 
ATOM     72  C   UNL A   1      43.767  34.272  33.695  1.00  0.00     0.031 C 
ATOM     73  C   UNL A   1      44.520  31.963  32.832  1.00  0.00     0.037 A 
BRANCH  60  74
ATOM     74  C   UNL A   1      43.747  36.059  29.261  1.00  0.00     0.058 A 
ATOM     75  C   UNL A   1      43.628  36.875  30.396  1.00  0.00     0.135 A 
ATOM     76  C   UNL A   1      44.058  36.723  28.049  1.00  0.00     0.135 A 
ATOM     77  F   UNL A   1      43.282  36.345  31.580  1.00  0.00    -0.206 F 
ATOM     78  C   UNL A   1      43.802  38.258  30.331  1.00  0.00     0.059 A 
ATOM     79  C   UNL A   1      44.299  38.086  27.973  1.00  0.00     0.059 A 
ATOM     80  F   UNL A   1      44.056  36.085  26.871  1.00  0.00    -0.206 F 
ATOM     81  C   UNL A   1      44.139  38.851  29.114  1.00  0.00     0.060 A 
BRANCH  81  82
ATOM     82  S   UNL A   1      44.303  40.642  29.012  1.00  0.00     0.124 S 
ATOM     83  O   UNL A   1      43.711  41.060  30.277  1.00  0.00    -0.237 OA
ATOM     84  O   UNL A   1      45.749  40.804  28.895  1.00  0.00    -0.237 OA
ATOM     85  O   UNL A   1      43.541  40.982  27.815  1.00  0.00    -0.744 OA
ENDBRANCH  81  82
ENDBRANCH  60  74
BRANCH  61  86
ATOM     86  C   UNL A   1      40.745  33.730  37.044  1.00  0.00     0.058 A 
ATOM     87  C   UNL A   1      39.723  34.702  37.118  1.00  0.00     0.135 A 
ATOM     88  C   UNL A   1      41.111  33.157  38.281  1.00  0.00     0.135 A 
ATOM     89  F   UNL A   1      39.271  35.294  36.002  1.00  0.00    -0.206 F 
ATOM     90  C   UNL A   1      39.088  35.043  38.326  1.00  0.00     0.059 A 
ATOM     91  C   UNL A   1      40.516  33.500  39.494  1.00  0.00     0.059 A 
ATOM     92  F   UNL A   1      41.999  32.158  38.357  1.00  0.00    -0.206 F 
ATOM     93  C   UNL A   1      39.479  34.418  39.509  1.00  0.00     0.060 A 
BRANCH  93  94
ATOM     94  S   UNL A   1      38.549  34.685  41.038  1.00  0.00     0.124 S 
ATOM     95  O   UNL A   1      37.394  33.813  40.852  1.00  0.00    -0.237 OA
ATOM     96  O   UNL A   1      39.507  34.268  42.055  1.00  0.00    -0.237 OA
ATOM     97  O   UNL A   1      38.259  36.117  41.014  1.00  0.00    -0.744 OA
ENDBRANCH  93  94
ENDBRANCH  61  86
BRANCH  73  98
ATOM     98  C   UNL A   1      44.657  30.510  33.215  1.00  0.00     0.058 A 
ATOM     99  C   UNL A   1      43.616  29.567  33.157  1.00  0.00     0.135 A 
ATOM    100  C   UNL A   1      45.947  30.026  33.489  1.00  0.00     0.135 A 
ATOM    101  F   UNL A   1      42.371  29.930  32.812  1.00  0.00    -0.206 F 
ATOM    102  C   UNL A   1      43.846  28.208  33.389  1.00  0.00     0.059 A 
ATOM    103  C   UNL A   1      46.203  28.674  33.690  1.00  0.00     0.059 A 
ATOM    104  F   UNL A   1      46.992  30.871  33.504  1.00  0.00    -0.206 F 
ATOM    105  C   UNL A   1      45.145  27.771  33.648  1.00  0.00     0.060 A 
BRANCH 105 106
ATOM    106  S   UNL A   1      45.454  26.003  33.869  1.00  0.00     0.124 S 
ATOM    107  O   UNL A   1      45.706  25.913  35.303  1.00  0.00    -0.237 OA
ATOM    108  O   UNL A   1      44.207  25.403  33.405  1.00  0.00    -0.237 OA
ATOM    109  O   UNL A   1      46.614  25.750  33.017  1.00  0.00    -0.744 OA
ENDBRANCH 105 106
ENDBRANCH  73  98
ENDBRANCH  47  48
ENDBRANCH  40  42
ENDBRANCH  39  40
ENDBRANCH  38  39
ENDBRANCH  37  38
ENDBRANCH  36  37
ENDBRANCH  35  36
ENDBRANCH  34  35
ENDBRANCH  33  34
ENDBRANCH   1  33
TORSDOF 28
ENDMDL
