MODEL 1
REMARK VINA RESULT:     -11.5      0.000      0.000
REMARK SMILES Cc1ccc(C(=O)NC2(CC(=O)OCCOCCOCCOCCOC(=O)c3ccc(-c4c5nc(c(-c6c(F)cc(S(=O)(=O)[O-])cc6F)c6ccc([nH]6)c(-c6c(F)cc(S(=O)(=O)[O-])cc6F)c6nc(c(-c7c(F)cc(S(=O)(=O)[O-])cc7F)c7ccc4[nH]7)C=C6)C=C5)cc3)CCC2)cc1
REMARK SMILES IDX 19 1 18 2 17 3 16 4 15 5 14 6 13 7 11 8 12 9 10 10 9 11
REMARK SMILES IDX 94 12 96 13 95 14 8 15 6 16 7 17 5 19 1 20 2 21 3 22 98 23
REMARK SMILES IDX 4 24 97 25 20 26 21 27 22 28 23 29 24 30 25 31 26 32 27 33
REMARK SMILES IDX 28 34 29 35 93 36 30 37 92 38 31 39 32 40 33 41 86 42 34 43
REMARK SMILES IDX 91 44 85 45 87 46 35 47 90 48 84 49 83 50 36 52 70 53 49 54
REMARK SMILES IDX 69 55 50 56 53 57 68 58 88 59 51 60 52 61 67 63 89 64 54 65
REMARK SMILES IDX 37 66 38 67 47 68 39 69 40 70 46 71 48 72 41 73 42 74 43 75
REMARK SMILES IDX 44 76 45 77 71 78 72 79 81 80 73 81 74 82 80 83 82 84 75 85
REMARK SMILES IDX 76 86 77 87 78 88 79 89 55 90 56 91 65 92 57 93 58 94 64 95
REMARK SMILES IDX 66 96 59 97 60 98 61 99 62 100 63 101
REMARK H PARENT 8 18 87 51 53 62
REMARK Flexibility Score: inf
ROOT
ATOM      1  O   UNL A   1      51.243  21.632  33.846  1.00  0.00    -0.377 OA
ENDROOT
BRANCH   1   2
ATOM      2  C   UNL A   1      50.604  20.598  34.518  1.00  0.00     0.188 C 
BRANCH   2   3
ATOM      3  C   UNL A   1      49.169  20.066  34.065  1.00  0.00     0.188 C 
BRANCH   3   4
ATOM      4  O   UNL A   1      47.576  20.291  34.718  1.00  0.00    -0.376 OA
BRANCH   4   5
ATOM      5  C   UNL A   1      46.914  20.409  36.426  1.00  0.00     0.202 C 
BRANCH   5   6
ATOM      6  C   UNL A   1      46.383  19.164  37.794  1.00  0.00     0.261 C 
BRANCH   6   7
ATOM      7  O   UNL A   1      46.661  18.484  39.724  1.00  0.00    -0.463 OA
BRANCH   7   8
ATOM      8  C   UNL A   1      47.926  18.026  40.810  1.00  0.00     0.308 C 
ATOM      9  O   UNL A   1      49.113  18.010  40.422  1.00  0.00    -0.252 OA
BRANCH   8  10
ATOM     10  C   UNL A   1      47.973  18.181  42.439  1.00  0.00     0.151 C 
BRANCH  10  11
ATOM     11  C   UNL A   1      46.764  17.688  43.302  1.00  0.00     0.051 C 
ATOM     12  C   UNL A   1      47.137  17.298  44.804  1.00  0.00     0.029 C 
ATOM     13  C   UNL A   1      46.276  16.155  43.287  1.00  0.00     0.029 C 
ATOM     14  C   UNL A   1      47.299  15.839  44.351  1.00  0.00     0.005 C 
BRANCH  11  15
ATOM     15  N   UNL A   1      45.607  18.592  43.266  1.00  0.00    -0.346 N 
ATOM     16  C   UNL A   1      44.356  18.426  42.729  1.00  0.00     0.251 C 
ATOM     17  O   UNL A   1      43.540  19.334  42.898  1.00  0.00    -0.269 OA
ATOM     18  H   UNL A   1      45.754  19.465  43.699  1.00  0.00     0.164 HD
BRANCH  16  19
ATOM     19  C   UNL A   1      43.910  17.159  42.030  1.00  0.00     0.039 A 
ATOM     20  C   UNL A   1      41.219  13.033  40.477  1.00  0.00     0.044 C 
ATOM     21  C   UNL A   1      41.958  14.277  40.835  1.00  0.00    -0.051 A 
ATOM     22  C   UNL A   1      42.184  14.698  42.489  1.00  0.00     0.004 A 
ATOM     23  C   UNL A   1      42.872  15.208  39.694  1.00  0.00     0.004 A 
ATOM     24  C   UNL A   1      43.051  16.195  43.030  1.00  0.00     0.014 A 
ATOM     25  C   UNL A   1      43.776  16.707  40.285  1.00  0.00     0.014 A 
ENDBRANCH  16  19
ENDBRANCH  11  15
ENDBRANCH  10  11
ENDBRANCH   8  10
ENDBRANCH   7   8
ENDBRANCH   6   7
ENDBRANCH   5   6
ENDBRANCH   4   5
ENDBRANCH   3   4
ENDBRANCH   2   3
ENDBRANCH   1   2
BRANCH   1  26
ATOM     26  C   UNL A   1      50.807  22.909  34.228  1.00  0.00     0.188 C 
BRANCH  26  27
ATOM     27  C   UNL A   1      51.102  24.077  33.318  1.00  0.00     0.188 C 
BRANCH  27  28
ATOM     28  O   UNL A   1      50.528  23.942  32.013  1.00  0.00    -0.376 OA
BRANCH  28  29
ATOM     29  C   UNL A   1      50.584  25.096  31.202  1.00  0.00     0.202 C 
BRANCH  29  30
ATOM     30  C   UNL A   1      49.162  25.550  30.877  1.00  0.00     0.261 C 
BRANCH  30  31
ATOM     31  O   UNL A   1      49.261  26.440  29.719  1.00  0.00    -0.460 OA
BRANCH  31  32
ATOM     32  C   UNL A   1      48.894  27.746  29.893  1.00  0.00     0.338 C 
ATOM     33  O   UNL A   1      48.907  28.321  30.973  1.00  0.00    -0.246 OA
BRANCH  32  34
ATOM     34  C   UNL A   1      48.244  28.322  28.636  1.00  0.00     0.060 A 
ATOM     35  C   UNL A   1      48.211  29.697  28.473  1.00  0.00     0.016 A 
ATOM     36  C   UNL A   1      47.431  27.594  27.756  1.00  0.00     0.016 A 
ATOM     37  C   UNL A   1      47.222  30.307  27.628  1.00  0.00     0.010 A 
ATOM     38  C   UNL A   1      46.395  28.218  26.956  1.00  0.00     0.010 A 
ATOM     39  C   UNL A   1      46.106  29.602  27.023  1.00  0.00    -0.014 A 
BRANCH  39  40
ATOM     40  C   UNL A   1      44.351  30.027  26.900  1.00  0.00     0.031 A 
ATOM     41  C   UNL A   1      44.384  31.761  27.485  1.00  0.00     0.074 A 
ATOM     42  C   UNL A   1      43.067  28.988  26.622  1.00  0.00     0.049 A 
ATOM     43  N   UNL A   1      44.227  32.271  28.733  1.00  0.00    -0.248 NA
ATOM     44  C   UNL A   1      44.668  32.898  26.613  1.00  0.00     0.031 C 
ATOM     45  C   UNL A   1      41.987  28.765  25.551  1.00  0.00     0.029 A 
ATOM     46  N   UNL A   1      42.596  27.474  27.220  1.00  0.00    -0.354 N 
ATOM     47  C   UNL A   1      43.755  33.640  28.703  1.00  0.00     0.074 A 
ATOM     48  C   UNL A   1      44.350  33.980  27.369  1.00  0.00     0.031 C 
ATOM     49  C   UNL A   1      41.199  27.631  25.744  1.00  0.00     0.029 A 
ATOM     50  C   UNL A   1      41.324  26.873  27.008  1.00  0.00     0.049 A 
ATOM     51  H   UNL A   1      43.253  26.972  27.756  1.00  0.00     0.167 HD
ATOM     52  C   UNL A   1      42.642  34.391  29.370  1.00  0.00     0.037 A 
ATOM     53  C   UNL A   1      40.314  26.535  28.072  1.00  0.00     0.037 A 
ATOM     54  C   UNL A   1      41.096  33.845  29.902  1.00  0.00     0.049 A 
ATOM     55  C   UNL A   1      39.279  27.441  29.370  1.00  0.00     0.074 A 
ATOM     56  C   UNL A   1      39.795  34.091  29.401  1.00  0.00     0.029 A 
ATOM     57  N   UNL A   1      40.616  32.946  30.994  1.00  0.00    -0.354 N 
ATOM     58  N   UNL A   1      38.872  28.754  29.456  1.00  0.00    -0.248 NA
ATOM     59  C   UNL A   1      38.998  26.909  30.731  1.00  0.00     0.031 C 
ATOM     60  C   UNL A   1      38.750  33.191  29.965  1.00  0.00     0.029 A 
ATOM     61  C   UNL A   1      39.369  32.133  30.652  1.00  0.00     0.049 A 
ATOM     62  H   UNL A   1      41.068  32.881  31.866  1.00  0.00     0.167 HD
ATOM     63  C   UNL A   1      38.726  29.331  30.812  1.00  0.00     0.074 A 
ATOM     64  C   UNL A   1      38.695  28.001  31.503  1.00  0.00     0.031 C 
ATOM     65  C   UNL A   1      38.839  30.730  31.386  1.00  0.00     0.037 A 
BRANCH  52  66
ATOM     66  C   UNL A   1      42.774  35.921  29.071  1.00  0.00     0.058 A 
ATOM     67  C   UNL A   1      43.519  36.841  29.830  1.00  0.00     0.135 A 
ATOM     68  C   UNL A   1      42.096  36.509  27.972  1.00  0.00     0.135 A 
ATOM     69  F   UNL A   1      44.417  36.468  30.741  1.00  0.00    -0.206 F 
ATOM     70  C   UNL A   1      43.428  38.224  29.665  1.00  0.00     0.059 A 
ATOM     71  C   UNL A   1      41.975  37.893  27.789  1.00  0.00     0.059 A 
ATOM     72  F   UNL A   1      41.481  35.739  27.057  1.00  0.00    -0.206 F 
ATOM     73  C   UNL A   1      42.622  38.747  28.669  1.00  0.00     0.060 A 
BRANCH  73  74
ATOM     74  S   UNL A   1      42.490  40.537  28.528  1.00  0.00     0.124 S 
ATOM     75  O   UNL A   1      41.826  40.697  27.238  1.00  0.00    -0.237 OA
ATOM     76  O   UNL A   1      41.687  40.876  29.700  1.00  0.00    -0.237 OA
ATOM     77  O   UNL A   1      43.879  40.986  28.572  1.00  0.00    -0.744 OA
ENDBRANCH  73  74
ENDBRANCH  52  66
BRANCH  53  78
ATOM     78  C   UNL A   1      40.684  25.041  28.244  1.00  0.00     0.058 A 
ATOM     79  C   UNL A   1      40.190  24.246  27.181  1.00  0.00     0.135 A 
ATOM     80  C   UNL A   1      41.970  24.683  28.724  1.00  0.00     0.135 A 
ATOM     81  F   UNL A   1      38.975  24.518  26.676  1.00  0.00    -0.206 F 
ATOM     82  C   UNL A   1      41.016  23.378  26.454  1.00  0.00     0.059 A 
ATOM     83  C   UNL A   1      42.807  23.790  28.022  1.00  0.00     0.059 A 
ATOM     84  F   UNL A   1      42.491  25.330  29.777  1.00  0.00    -0.206 F 
ATOM     85  C   UNL A   1      42.338  23.184  26.852  1.00  0.00     0.060 A 
BRANCH  85  86
ATOM     86  S   UNL A   1      43.473  22.297  25.731  1.00  0.00     0.124 S 
ATOM     87  O   UNL A   1      43.245  20.904  26.088  1.00  0.00    -0.237 OA
ATOM     88  O   UNL A   1      42.987  22.683  24.409  1.00  0.00    -0.237 OA
ATOM     89  O   UNL A   1      44.787  22.826  26.088  1.00  0.00    -0.744 OA
ENDBRANCH  85  86
ENDBRANCH  53  78
BRANCH  65  90
ATOM     90  C   UNL A   1      38.598  31.083  32.922  1.00  0.00     0.058 A 
ATOM     91  C   UNL A   1      39.344  30.672  34.032  1.00  0.00     0.135 A 
ATOM     92  C   UNL A   1      37.514  31.934  33.303  1.00  0.00     0.135 A 
ATOM     93  F   UNL A   1      40.099  29.570  33.998  1.00  0.00    -0.206 F 
ATOM     94  C   UNL A   1      39.240  31.290  35.295  1.00  0.00     0.059 A 
ATOM     95  C   UNL A   1      37.404  32.593  34.521  1.00  0.00     0.059 A 
ATOM     96  F   UNL A   1      36.421  32.096  32.548  1.00  0.00    -0.206 F 
ATOM     97  C   UNL A   1      38.308  32.300  35.509  1.00  0.00     0.060 A 
BRANCH  97  98
ATOM     98  S   UNL A   1      38.179  33.113  37.106  1.00  0.00     0.124 S 
ATOM     99  O   UNL A   1      36.751  33.001  37.384  1.00  0.00    -0.237 OA
ATOM    100  O   UNL A   1      39.055  32.289  37.932  1.00  0.00    -0.237 OA
ATOM    101  O   UNL A   1      38.660  34.466  36.846  1.00  0.00    -0.744 OA
ENDBRANCH  97  98
ENDBRANCH  65  90
ENDBRANCH  39  40
ENDBRANCH  32  34
ENDBRANCH  31  32
ENDBRANCH  30  31
ENDBRANCH  29  30
ENDBRANCH  28  29
ENDBRANCH  27  28
ENDBRANCH  26  27
ENDBRANCH   1  26
TORSDOF 26
ENDMDL
MODEL 2
REMARK VINA RESULT:     -11.0      3.576      4.876
REMARK SMILES Cc1ccc(C(=O)NC2(CC(=O)OCCOCCOCCOCCOC(=O)c3ccc(-c4c5nc(c(-c6c(F)cc(S(=O)(=O)[O-])cc6F)c6ccc([nH]6)c(-c6c(F)cc(S(=O)(=O)[O-])cc6F)c6nc(c(-c7c(F)cc(S(=O)(=O)[O-])cc7F)c7ccc4[nH]7)C=C6)C=C5)cc3)CCC2)cc1
REMARK SMILES IDX 19 1 18 2 17 3 16 4 15 5 14 6 13 7 11 8 12 9 10 10 9 11
REMARK SMILES IDX 94 12 96 13 95 14 8 15 6 16 7 17 5 19 1 20 2 21 3 22 98 23
REMARK SMILES IDX 4 24 97 25 20 26 21 27 22 28 23 29 24 30 25 31 26 32 27 33
REMARK SMILES IDX 28 34 29 35 93 36 30 37 92 38 31 39 32 40 33 41 86 42 34 43
REMARK SMILES IDX 91 44 85 45 87 46 35 47 90 48 84 49 83 50 36 52 70 53 49 54
REMARK SMILES IDX 69 55 50 56 53 57 68 58 88 59 51 60 52 61 67 63 89 64 54 65
REMARK SMILES IDX 37 66 38 67 47 68 39 69 40 70 46 71 48 72 41 73 42 74 43 75
REMARK SMILES IDX 44 76 45 77 71 78 72 79 81 80 73 81 74 82 80 83 82 84 75 85
REMARK SMILES IDX 76 86 77 87 78 88 79 89 55 90 56 91 65 92 57 93 58 94 64 95
REMARK SMILES IDX 66 96 59 97 60 98 61 99 62 100 63 101
REMARK H PARENT 8 18 87 51 53 62
REMARK Flexibility Score: inf
ROOT
ATOM      1  O   UNL A   1      55.376  25.365  32.209  1.00  0.00    -0.377 OA
ENDROOT
BRANCH   1   2
ATOM      2  C   UNL A   1      55.006  24.170  32.811  1.00  0.00     0.188 C 
BRANCH   2   3
ATOM      3  C   UNL A   1      55.494  23.787  34.281  1.00  0.00     0.188 C 
BRANCH   3   4
ATOM      4  O   UNL A   1      55.341  24.589  35.813  1.00  0.00    -0.376 OA
BRANCH   4   5
ATOM      5  C   UNL A   1      55.060  23.997  37.529  1.00  0.00     0.202 C 
BRANCH   5   6
ATOM      6  C   UNL A   1      53.582  23.256  38.513  1.00  0.00     0.261 C 
BRANCH   6   7
ATOM      7  O   UNL A   1      51.548  22.911  38.589  1.00  0.00    -0.463 OA
BRANCH   7   8
ATOM      8  C   UNL A   1      50.306  22.043  37.754  1.00  0.00     0.308 C 
ATOM      9  O   UNL A   1      49.185  21.887  38.282  1.00  0.00    -0.252 OA
BRANCH   8  10
ATOM     10  C   UNL A   1      50.085  21.887  36.141  1.00  0.00     0.151 C 
BRANCH  10  11
ATOM     11  C   UNL A   1      49.728  20.488  35.536  1.00  0.00     0.051 C 
ATOM     12  C   UNL A   1      50.926  19.434  35.552  1.00  0.00     0.029 C 
ATOM     13  C   UNL A   1      49.819  20.194  33.957  1.00  0.00     0.029 C 
ATOM     14  C   UNL A   1      51.283  19.866  34.121  1.00  0.00     0.005 C 
BRANCH  11  15
ATOM     15  N   UNL A   1      48.504  19.899  36.095  1.00  0.00    -0.346 N 
ATOM     16  C   UNL A   1      47.190  20.268  35.959  1.00  0.00     0.251 C 
ATOM     17  O   UNL A   1      46.341  19.550  36.491  1.00  0.00    -0.269 OA
ATOM     18  H   UNL A   1      48.651  19.108  36.663  1.00  0.00     0.164 HD
BRANCH  16  19
ATOM     19  C   UNL A   1      46.736  21.444  35.121  1.00  0.00     0.039 A 
ATOM     20  C   UNL A   1      44.019  25.351  33.113  1.00  0.00     0.044 C 
ATOM     21  C   UNL A   1      44.858  24.299  33.754  1.00  0.00    -0.051 A 
ATOM     22  C   UNL A   1      44.199  22.737  34.054  1.00  0.00     0.004 A 
ATOM     23  C   UNL A   1      46.572  24.442  33.968  1.00  0.00     0.004 A 
ATOM     24  C   UNL A   1      45.128  21.395  34.842  1.00  0.00     0.014 A 
ATOM     25  C   UNL A   1      47.495  23.040  34.740  1.00  0.00     0.014 A 
ENDBRANCH  16  19
ENDBRANCH  11  15
ENDBRANCH  10  11
ENDBRANCH   8  10
ENDBRANCH   7   8
ENDBRANCH   6   7
ENDBRANCH   5   6
ENDBRANCH   4   5
ENDBRANCH   3   4
ENDBRANCH   2   3
ENDBRANCH   1   2
BRANCH   1  26
ATOM     26  C   UNL A   1      54.622  25.683  31.070  1.00  0.00     0.188 C 
BRANCH  26  27
ATOM     27  C   UNL A   1      53.124  25.811  31.205  1.00  0.00     0.188 C 
BRANCH  27  28
ATOM     28  O   UNL A   1      52.516  26.546  30.136  1.00  0.00    -0.376 OA
BRANCH  28  29
ATOM     29  C   UNL A   1      51.107  26.615  30.171  1.00  0.00     0.202 C 
BRANCH  29  30
ATOM     30  C   UNL A   1      50.540  25.921  28.934  1.00  0.00     0.261 C 
BRANCH  30  31
ATOM     31  O   UNL A   1      49.113  26.243  28.889  1.00  0.00    -0.460 OA
BRANCH  31  32
ATOM     32  C   UNL A   1      48.519  26.309  27.659  1.00  0.00     0.338 C 
ATOM     33  O   UNL A   1      48.545  25.403  26.838  1.00  0.00    -0.246 OA
BRANCH  32  34
ATOM     34  C   UNL A   1      48.033  27.723  27.342  1.00  0.00     0.060 A 
ATOM     35  C   UNL A   1      47.807  28.600  28.389  1.00  0.00     0.016 A 
ATOM     36  C   UNL A   1      47.532  28.132  26.098  1.00  0.00     0.016 A 
ATOM     37  C   UNL A   1      46.909  29.711  28.229  1.00  0.00     0.010 A 
ATOM     38  C   UNL A   1      46.579  29.216  25.961  1.00  0.00     0.010 A 
ATOM     39  C   UNL A   1      46.059  29.924  27.071  1.00  0.00    -0.014 A 
BRANCH  39  40
ATOM     40  C   UNL A   1      44.314  30.385  26.939  1.00  0.00     0.031 A 
ATOM     41  C   UNL A   1      44.390  32.138  27.461  1.00  0.00     0.074 A 
ATOM     42  C   UNL A   1      43.005  29.367  26.705  1.00  0.00     0.049 A 
ATOM     43  N   UNL A   1      44.251  32.696  28.690  1.00  0.00    -0.248 NA
ATOM     44  C   UNL A   1      44.697  33.235  26.547  1.00  0.00     0.031 C 
ATOM     45  C   UNL A   1      41.915  29.130  25.647  1.00  0.00     0.029 A 
ATOM     46  N   UNL A   1      42.502  27.887  27.359  1.00  0.00    -0.354 N 
ATOM     47  C   UNL A   1      43.811  34.073  28.612  1.00  0.00     0.074 A 
ATOM     48  C   UNL A   1      44.407  34.351  27.264  1.00  0.00     0.031 C 
ATOM     49  C   UNL A   1      41.101  28.023  25.883  1.00  0.00     0.029 A 
ATOM     50  C   UNL A   1      41.215  27.309  27.173  1.00  0.00     0.049 A 
ATOM     51  H   UNL A   1      43.149  27.389  27.910  1.00  0.00     0.167 HD
ATOM     52  C   UNL A   1      42.719  34.874  29.256  1.00  0.00     0.037 A 
ATOM     53  C   UNL A   1      40.203  27.033  28.254  1.00  0.00     0.037 A 
ATOM     54  C   UNL A   1      41.163  34.384  29.814  1.00  0.00     0.049 A 
ATOM     55  C   UNL A   1      39.196  28.010  29.521  1.00  0.00     0.074 A 
ATOM     56  C   UNL A   1      39.866  34.643  29.310  1.00  0.00     0.029 A 
ATOM     57  N   UNL A   1      40.668  33.537  30.940  1.00  0.00    -0.354 N 
ATOM     58  N   UNL A   1      38.819  29.334  29.561  1.00  0.00    -0.248 NA
ATOM     59  C   UNL A   1      38.909  27.534  30.902  1.00  0.00     0.031 C 
ATOM     60  C   UNL A   1      38.804  33.788  29.910  1.00  0.00     0.029 A 
ATOM     61  C   UNL A   1      39.401  32.742  30.632  1.00  0.00     0.049 A 
ATOM     62  H   UNL A   1      41.123  33.493  31.812  1.00  0.00     0.167 HD
ATOM     63  C   UNL A   1      38.694  29.962  30.896  1.00  0.00     0.074 A 
ATOM     64  C   UNL A   1      38.635  28.659  31.636  1.00  0.00     0.031 C 
ATOM     65  C   UNL A   1      38.842  31.378  31.419  1.00  0.00     0.037 A 
BRANCH  52  66
ATOM     66  C   UNL A   1      42.886  36.389  28.902  1.00  0.00     0.058 A 
ATOM     67  C   UNL A   1      42.375  37.021  27.754  1.00  0.00     0.135 A 
ATOM     68  C   UNL A   1      43.620  37.257  29.750  1.00  0.00     0.135 A 
ATOM     69  F   UNL A   1      41.461  36.460  26.964  1.00  0.00    -0.206 F 
ATOM     70  C   UNL A   1      42.737  38.312  27.364  1.00  0.00     0.059 A 
ATOM     71  C   UNL A   1      44.010  38.551  29.380  1.00  0.00     0.059 A 
ATOM     72  F   UNL A   1      44.026  36.845  30.964  1.00  0.00    -0.206 F 
ATOM     73  C   UNL A   1      43.589  39.059  28.160  1.00  0.00     0.060 A 
BRANCH  73  74
ATOM     74  S   UNL A   1      44.074  40.697  27.592  1.00  0.00     0.124 S 
ATOM     75  O   UNL A   1      44.382  41.379  28.844  1.00  0.00    -0.237 OA
ATOM     76  O   UNL A   1      45.217  40.396  26.736  1.00  0.00    -0.237 OA
ATOM     77  O   UNL A   1      42.884  41.182  26.896  1.00  0.00    -0.744 OA
ENDBRANCH  73  74
ENDBRANCH  52  66
BRANCH  53  78
ATOM     78  C   UNL A   1      40.539  25.538  28.478  1.00  0.00     0.058 A 
ATOM     79  C   UNL A   1      39.878  24.700  27.547  1.00  0.00     0.135 A 
ATOM     80  C   UNL A   1      41.864  25.154  28.808  1.00  0.00     0.135 A 
ATOM     81  F   UNL A   1      38.617  24.993  27.189  1.00  0.00    -0.206 F 
ATOM     82  C   UNL A   1      40.567  23.751  26.779  1.00  0.00     0.059 A 
ATOM     83  C   UNL A   1      42.567  24.181  28.064  1.00  0.00     0.059 A 
ATOM     84  F   UNL A   1      42.545  25.843  29.736  1.00  0.00    -0.206 F 
ATOM     85  C   UNL A   1      41.923  23.524  27.012  1.00  0.00     0.060 A 
BRANCH  85  86
ATOM     86  S   UNL A   1      42.864  22.518  25.815  1.00  0.00     0.124 S 
ATOM     87  O   UNL A   1      41.957  21.409  25.553  1.00  0.00    -0.237 OA
ATOM     88  O   UNL A   1      43.052  23.439  24.697  1.00  0.00    -0.237 OA
ATOM     89  O   UNL A   1      44.081  22.170  26.544  1.00  0.00    -0.744 OA
ENDBRANCH  85  86
ENDBRANCH  53  78
BRANCH  65  90
ATOM     90  C   UNL A   1      38.617  31.792  32.942  1.00  0.00     0.058 A 
ATOM     91  C   UNL A   1      37.587  32.570  33.484  1.00  0.00     0.135 A 
ATOM     92  C   UNL A   1      39.524  31.344  33.952  1.00  0.00     0.135 A 
ATOM     93  F   UNL A   1      36.898  33.437  32.737  1.00  0.00    -0.206 F 
ATOM     94  C   UNL A   1      37.305  32.610  34.865  1.00  0.00     0.059 A 
ATOM     95  C   UNL A   1      39.261  31.329  35.316  1.00  0.00     0.059 A 
ATOM     96  F   UNL A   1      40.787  30.989  33.684  1.00  0.00    -0.206 F 
ATOM     97  C   UNL A   1      38.113  31.927  35.768  1.00  0.00     0.060 A 
BRANCH  97  98
ATOM     98  S   UNL A   1      37.754  31.949  37.529  1.00  0.00     0.124 S 
ATOM     99  O   UNL A   1      37.283  30.587  37.755  1.00  0.00    -0.237 OA
ATOM    100  O   UNL A   1      39.058  32.275  38.095  1.00  0.00    -0.237 OA
ATOM    101  O   UNL A   1      36.739  32.990  37.662  1.00  0.00    -0.744 OA
ENDBRANCH  97  98
ENDBRANCH  65  90
ENDBRANCH  39  40
ENDBRANCH  32  34
ENDBRANCH  31  32
ENDBRANCH  30  31
ENDBRANCH  29  30
ENDBRANCH  28  29
ENDBRANCH  27  28
ENDBRANCH  26  27
ENDBRANCH   1  26
TORSDOF 26
ENDMDL
MODEL 3
REMARK VINA RESULT:     -10.8      3.996      8.940
REMARK SMILES Cc1ccc(C(=O)NC2(CC(=O)OCCOCCOCCOCCOC(=O)c3ccc(-c4c5nc(c(-c6c(F)cc(S(=O)(=O)[O-])cc6F)c6ccc([nH]6)c(-c6c(F)cc(S(=O)(=O)[O-])cc6F)c6nc(c(-c7c(F)cc(S(=O)(=O)[O-])cc7F)c7ccc4[nH]7)C=C6)C=C5)cc3)CCC2)cc1
REMARK SMILES IDX 19 1 18 2 17 3 16 4 15 5 14 6 13 7 11 8 12 9 10 10 9 11
REMARK SMILES IDX 94 12 96 13 95 14 8 15 6 16 7 17 5 19 1 20 2 21 3 22 98 23
REMARK SMILES IDX 4 24 97 25 20 26 21 27 22 28 23 29 24 30 25 31 26 32 27 33
REMARK SMILES IDX 28 34 29 35 93 36 30 37 92 38 31 39 32 40 33 41 86 42 34 43
REMARK SMILES IDX 91 44 85 45 87 46 35 47 90 48 84 49 83 50 36 52 70 53 49 54
REMARK SMILES IDX 69 55 50 56 53 57 68 58 88 59 51 60 52 61 67 63 89 64 54 65
REMARK SMILES IDX 37 66 38 67 47 68 39 69 40 70 46 71 48 72 41 73 42 74 43 75
REMARK SMILES IDX 44 76 45 77 71 78 72 79 81 80 73 81 74 82 80 83 82 84 75 85
REMARK SMILES IDX 76 86 77 87 78 88 79 89 55 90 56 91 65 92 57 93 58 94 64 95
REMARK SMILES IDX 66 96 59 97 60 98 61 99 62 100 63 101
REMARK H PARENT 8 18 87 51 53 62
REMARK Flexibility Score: inf
ROOT
ATOM      1  O   UNL A   1      45.055  24.744  32.621  1.00  0.00    -0.377 OA
ENDROOT
BRANCH   1   2
ATOM      2  C   UNL A   1      45.917  24.236  33.585  1.00  0.00     0.188 C 
BRANCH   2   3
ATOM      3  C   UNL A   1      45.389  23.768  35.016  1.00  0.00     0.188 C 
BRANCH   3   4
ATOM      4  O   UNL A   1      44.930  22.217  35.645  1.00  0.00    -0.376 OA
BRANCH   4   5
ATOM      5  C   UNL A   1      45.763  20.582  35.715  1.00  0.00     0.202 C 
BRANCH   5   6
ATOM      6  C   UNL A   1      45.684  19.036  36.858  1.00  0.00     0.261 C 
BRANCH   6   7
ATOM      7  O   UNL A   1      46.250  18.167  38.643  1.00  0.00    -0.463 OA
BRANCH   7   8
ATOM      8  C   UNL A   1      47.307  18.437  39.986  1.00  0.00     0.308 C 
ATOM      9  O   UNL A   1      47.632  19.600  40.305  1.00  0.00    -0.252 OA
BRANCH   8  10
ATOM     10  C   UNL A   1      47.507  17.516  41.323  1.00  0.00     0.151 C 
BRANCH  10  11
ATOM     11  C   UNL A   1      46.867  17.965  42.679  1.00  0.00     0.051 C 
ATOM     12  C   UNL A   1      47.906  18.547  43.742  1.00  0.00     0.029 C 
ATOM     13  C   UNL A   1      46.601  16.927  43.879  1.00  0.00     0.029 C 
ATOM     14  C   UNL A   1      48.017  17.144  44.356  1.00  0.00     0.005 C 
BRANCH  11  15
ATOM     15  N   UNL A   1      45.718  18.866  42.519  1.00  0.00    -0.346 N 
ATOM     16  C   UNL A   1      44.449  18.626  42.060  1.00  0.00     0.251 C 
ATOM     17  O   UNL A   1      43.647  19.562  42.091  1.00  0.00    -0.269 OA
ATOM     18  H   UNL A   1      45.889  19.799  42.786  1.00  0.00     0.164 HD
BRANCH  16  19
ATOM     19  C   UNL A   1      43.968  17.262  41.611  1.00  0.00     0.039 A 
ATOM     20  C   UNL A   1      41.328  12.852  41.101  1.00  0.00     0.044 C 
ATOM     21  C   UNL A   1      42.032  14.165  41.162  1.00  0.00    -0.051 A 
ATOM     22  C   UNL A   1      42.540  14.799  42.679  1.00  0.00     0.004 A 
ATOM     23  C   UNL A   1      42.642  14.988  39.764  1.00  0.00     0.004 A 
ATOM     24  C   UNL A   1      43.387  16.391  42.864  1.00  0.00     0.014 A 
ATOM     25  C   UNL A   1      43.534  16.590  39.990  1.00  0.00     0.014 A 
ENDBRANCH  16  19
ENDBRANCH  11  15
ENDBRANCH  10  11
ENDBRANCH   8  10
ENDBRANCH   7   8
ENDBRANCH   6   7
ENDBRANCH   5   6
ENDBRANCH   4   5
ENDBRANCH   3   4
ENDBRANCH   2   3
ENDBRANCH   1   2
BRANCH   1  26
ATOM     26  C   UNL A   1      44.495  23.762  31.789  1.00  0.00     0.188 C 
BRANCH  26  27
ATOM     27  C   UNL A   1      43.998  24.168  30.423  1.00  0.00     0.188 C 
BRANCH  27  28
ATOM     28  O   UNL A   1      43.834  23.064  29.525  1.00  0.00    -0.376 OA
BRANCH  28  29
ATOM     29  C   UNL A   1      42.608  23.025  28.828  1.00  0.00     0.202 C 
BRANCH  29  30
ATOM     30  C   UNL A   1      42.402  24.354  28.101  1.00  0.00     0.261 C 
BRANCH  30  31
ATOM     31  O   UNL A   1      41.430  24.102  27.035  1.00  0.00    -0.460 OA
BRANCH  31  32
ATOM     32  C   UNL A   1      40.109  24.300  27.326  1.00  0.00     0.338 C 
ATOM     33  O   UNL A   1      39.241  23.452  27.172  1.00  0.00    -0.246 OA
BRANCH  32  34
ATOM     34  C   UNL A   1      39.812  25.767  27.632  1.00  0.00     0.060 A 
ATOM     35  C   UNL A   1      40.150  26.726  26.691  1.00  0.00     0.016 A 
ATOM     36  C   UNL A   1      39.476  26.263  28.899  1.00  0.00     0.016 A 
ATOM     37  C   UNL A   1      40.371  28.090  27.087  1.00  0.00     0.010 A 
ATOM     38  C   UNL A   1      39.761  27.627  29.303  1.00  0.00     0.010 A 
ATOM     39  C   UNL A   1      40.427  28.551  28.463  1.00  0.00    -0.014 A 
BRANCH  39  40
ATOM     40  C   UNL A   1      41.584  29.659  29.304  1.00  0.00     0.031 A 
ATOM     41  C   UNL A   1      43.146  28.726  29.107  1.00  0.00     0.074 A 
ATOM     42  C   UNL A   1      41.215  30.992  30.249  1.00  0.00     0.049 A 
ATOM     43  N   UNL A   1      43.730  27.807  29.917  1.00  0.00    -0.248 NA
ATOM     44  C   UNL A   1      43.995  28.823  27.922  1.00  0.00     0.031 C 
ATOM     45  C   UNL A   1      41.448  32.511  30.225  1.00  0.00     0.029 A 
ATOM     46  N   UNL A   1      40.099  31.318  31.483  1.00  0.00    -0.354 N 
ATOM     47  C   UNL A   1      45.162  27.740  29.715  1.00  0.00     0.074 A 
ATOM     48  C   UNL A   1      45.139  28.188  28.284  1.00  0.00     0.031 C 
ATOM     49  C   UNL A   1      40.794  33.219  31.233  1.00  0.00     0.029 A 
ATOM     50  C   UNL A   1      40.120  32.471  32.317  1.00  0.00     0.049 A 
ATOM     51  H   UNL A   1      39.383  30.660  31.634  1.00  0.00     0.167 HD
ATOM     52  C   UNL A   1      46.361  27.782  30.615  1.00  0.00     0.037 A 
ATOM     53  C   UNL A   1      40.318  32.482  33.809  1.00  0.00     0.037 A 
ATOM     54  C   UNL A   1      46.588  28.576  32.128  1.00  0.00     0.049 A 
ATOM     55  C   UNL A   1      41.650  31.986  35.056  1.00  0.00     0.074 A 
ATOM     56  C   UNL A   1      47.365  29.704  32.484  1.00  0.00     0.029 A 
ATOM     57  N   UNL A   1      46.049  28.384  33.508  1.00  0.00    -0.354 N 
ATOM     58  N   UNL A   1      43.009  31.812  34.917  1.00  0.00    -0.248 NA
ATOM     59  C   UNL A   1      41.363  31.371  36.381  1.00  0.00     0.031 C 
ATOM     60  C   UNL A   1      47.052  30.251  33.834  1.00  0.00     0.029 A 
ATOM     61  C   UNL A   1      45.863  29.672  34.306  1.00  0.00     0.049 A 
ATOM     62  H   UNL A   1      45.830  27.497  33.874  1.00  0.00     0.167 HD
ATOM     63  C   UNL A   1      43.652  30.791  35.775  1.00  0.00     0.074 A 
ATOM     64  C   UNL A   1      42.509  30.712  36.742  1.00  0.00     0.031 C 
ATOM     65  C   UNL A   1      44.879  29.910  35.636  1.00  0.00     0.037 A 
BRANCH  52  66
ATOM     66  C   UNL A   1      47.656  27.462  29.797  1.00  0.00     0.058 A 
ATOM     67  C   UNL A   1      48.426  28.399  29.085  1.00  0.00     0.135 A 
ATOM     68  C   UNL A   1      48.144  26.133  29.699  1.00  0.00     0.135 A 
ATOM     69  F   UNL A   1      48.293  29.715  29.244  1.00  0.00    -0.206 F 
ATOM     70  C   UNL A   1      49.434  28.041  28.189  1.00  0.00     0.059 A 
ATOM     71  C   UNL A   1      49.144  25.742  28.798  1.00  0.00     0.059 A 
ATOM     72  F   UNL A   1      47.618  25.155  30.456  1.00  0.00    -0.206 F 
ATOM     73  C   UNL A   1      49.762  26.707  28.017  1.00  0.00     0.060 A 
BRANCH  73  74
ATOM     74  S   UNL A   1      51.030  26.286  26.810  1.00  0.00     0.124 S 
ATOM     75  O   UNL A   1      51.245  24.866  27.071  1.00  0.00    -0.237 OA
ATOM     76  O   UNL A   1      50.367  26.605  25.549  1.00  0.00    -0.237 OA
ATOM     77  O   UNL A   1      52.145  27.159  27.168  1.00  0.00    -0.744 OA
ENDBRANCH  73  74
ENDBRANCH  52  66
BRANCH  53  78
ATOM     78  C   UNL A   1      38.825  32.553  34.217  1.00  0.00     0.058 A 
ATOM     79  C   UNL A   1      38.263  33.826  33.956  1.00  0.00     0.135 A 
ATOM     80  C   UNL A   1      37.971  31.448  33.964  1.00  0.00     0.135 A 
ATOM     81  F   UNL A   1      39.007  34.923  34.179  1.00  0.00    -0.206 F 
ATOM     82  C   UNL A   1      37.080  33.982  33.222  1.00  0.00     0.059 A 
ATOM     83  C   UNL A   1      36.762  31.588  33.250  1.00  0.00     0.059 A 
ATOM     84  F   UNL A   1      38.389  30.206  34.250  1.00  0.00    -0.206 F 
ATOM     85  C   UNL A   1      36.353  32.858  32.833  1.00  0.00     0.060 A 
BRANCH  85  86
ATOM     86  S   UNL A   1      34.994  33.061  31.631  1.00  0.00     0.124 S 
ATOM     87  O   UNL A   1      35.121  34.461  31.247  1.00  0.00    -0.237 OA
ATOM     88  O   UNL A   1      35.341  32.101  30.587  1.00  0.00    -0.237 OA
ATOM     89  O   UNL A   1      33.801  32.732  32.406  1.00  0.00    -0.744 OA
ENDBRANCH  85  86
ENDBRANCH  53  78
BRANCH  65  90
ATOM     90  C   UNL A   1      45.373  28.889  36.756  1.00  0.00     0.058 A 
ATOM     91  C   UNL A   1      44.773  27.692  37.162  1.00  0.00     0.135 A 
ATOM     92  C   UNL A   1      46.582  29.142  37.477  1.00  0.00     0.135 A 
ATOM     93  F   UNL A   1      43.470  27.464  36.972  1.00  0.00    -0.206 F 
ATOM     94  C   UNL A   1      45.449  26.718  37.925  1.00  0.00     0.059 A 
ATOM     95  C   UNL A   1      47.296  28.195  38.200  1.00  0.00     0.059 A 
ATOM     96  F   UNL A   1      47.097  30.370  37.619  1.00  0.00    -0.206 F 
ATOM     97  C   UNL A   1      46.741  26.955  38.382  1.00  0.00     0.060 A 
BRANCH  97  98
ATOM     98  S   UNL A   1      47.624  25.714  39.335  1.00  0.00     0.124 S 
ATOM     99  O   UNL A   1      48.416  26.540  40.240  1.00  0.00    -0.237 OA
ATOM    100  O   UNL A   1      46.527  24.971  39.947  1.00  0.00    -0.237 OA
ATOM    101  O   UNL A   1      48.388  24.982  38.329  1.00  0.00    -0.744 OA
ENDBRANCH  97  98
ENDBRANCH  65  90
ENDBRANCH  39  40
ENDBRANCH  32  34
ENDBRANCH  31  32
ENDBRANCH  30  31
ENDBRANCH  29  30
ENDBRANCH  28  29
ENDBRANCH  27  28
ENDBRANCH  26  27
ENDBRANCH   1  26
TORSDOF 26
ENDMDL
