MODEL 1
REMARK VINA RESULT:     -10.2      0.000      0.000
REMARK SMILES [NH3+][C@]1(C(=O)OCCOCCOCCOCCOC(=O)c2ccc(-c3c4nc(c(-c5c(F)cc(S(=O)(=O)[O-])cc5F)c5ccc([nH]5)c(-c5c(F)cc(S(=O)(=O)[O-])cc5F)c5nc(c(-c6c(F)cc(S(=O)(=O)[O-])cc6F)c6ccc3[nH]6)C=C5)C=C4)cc2)CC[C@@H]([NH+]2CCC(C(F)(F)F)CC2)C1
REMARK SMILES IDX 12 1 11 2 10 3 9 4 8 5 7 6 6 7 5 8 3 9 4 10 2 11 86 12 99 13
REMARK SMILES IDX 87 14 88 15 1 16 89 20 90 21 98 22 91 24 97 25 92 26 93 27
REMARK SMILES IDX 94 28 95 29 96 30 13 31 14 32 15 33 16 34 17 35 18 36 19 37
REMARK SMILES IDX 20 38 21 39 85 40 22 41 84 42 23 43 24 44 25 45 78 46 26 47
REMARK SMILES IDX 83 48 77 49 79 50 27 51 82 52 76 53 75 54 28 56 62 57 41 58
REMARK SMILES IDX 61 59 42 60 45 61 60 62 80 63 43 64 44 65 59 67 81 68 46 69
REMARK SMILES IDX 29 70 30 71 39 72 31 73 32 74 38 75 40 76 33 77 34 78 35 79
REMARK SMILES IDX 36 80 37 81 63 82 64 83 73 84 65 85 66 86 72 87 74 88 67 89
REMARK SMILES IDX 68 90 69 91 70 92 71 93 47 94 48 95 57 96 49 97 50 98 56 99
REMARK SMILES IDX 58 100 51 101 52 102 53 103 54 104 55 105
REMARK H PARENT 1 17 1 18 1 19 89 23 79 55 45 66
REMARK Flexibility Score: inf
ROOT
ATOM      1  C   UNL A   1      41.902  19.938  27.300  1.00  0.00     0.188 C 
ENDROOT
BRANCH   1   2
ATOM      2  O   UNL A   1      40.570  20.400  27.466  1.00  0.00    -0.377 OA
BRANCH   2   3
ATOM      3  C   UNL A   1      39.965  21.061  26.379  1.00  0.00     0.188 C 
BRANCH   3   4
ATOM      4  C   UNL A   1      39.348  22.432  26.671  1.00  0.00     0.188 C 
BRANCH   4   5
ATOM      5  O   UNL A   1      38.596  23.116  25.687  1.00  0.00    -0.376 OA
BRANCH   5   6
ATOM      6  C   UNL A   1      37.442  23.865  26.038  1.00  0.00     0.202 C 
BRANCH   6   7
ATOM      7  C   UNL A   1      36.005  23.384  25.749  1.00  0.00     0.261 C 
BRANCH   7   8
ATOM      8  O   UNL A   1      35.265  24.043  24.698  1.00  0.00    -0.459 OA
BRANCH   8   9
ATOM      9  C   UNL A   1      34.232  24.807  25.116  1.00  0.00     0.368 C 
ATOM     10  O   UNL A   1      34.381  25.917  25.632  1.00  0.00    -0.245 OA
BRANCH   9  11
ATOM     11  C   UNL A   1      32.815  24.165  24.995  1.00  0.00     0.198 C 
ATOM     12  C   UNL A   1      32.723  23.693  23.528  1.00  0.00     0.087 C 
ATOM     13  C   UNL A   1      32.370  22.899  25.781  1.00  0.00     0.145 C 
ATOM     14  C   UNL A   1      31.548  22.741  23.484  1.00  0.00     0.072 C 
ATOM     15  C   UNL A   1      31.685  21.918  24.770  1.00  0.00     0.191 C 
BRANCH  11  16
ATOM     16  N   UNL A   1      31.832  25.247  25.253  1.00  0.00    -0.343 N 
ATOM     17  H   UNL A   1      31.518  25.197  26.222  1.00  0.00     0.345 HD
ATOM     18  H   UNL A   1      31.032  25.136  24.630  1.00  0.00     0.345 HD
ATOM     19  H   UNL A   1      32.271  26.152  25.085  1.00  0.00     0.345 HD
ENDBRANCH  11  16
BRANCH  15  20
ATOM     20  N   UNL A   1      32.214  20.556  24.529  1.00  0.00    -0.332 N 
ATOM     21  C   UNL A   1      32.243  20.040  23.162  1.00  0.00     0.263 C 
ATOM     22  C   UNL A   1      33.441  20.260  25.274  1.00  0.00     0.263 C 
ATOM     23  H   UNL A   1      31.457  20.002  24.930  1.00  0.00     0.348 HD
ATOM     24  C   UNL A   1      32.520  18.531  23.126  1.00  0.00     0.074 C 
ATOM     25  C   UNL A   1      33.715  18.749  25.305  1.00  0.00     0.074 C 
ATOM     26  C   UNL A   1      33.793  18.167  23.891  1.00  0.00     0.106 C 
BRANCH  26  27
ATOM     27  C   UNL A   1      34.000  16.662  23.916  1.00  0.00     0.392 C 
ATOM     28  F   UNL A   1      32.850  16.024  24.237  1.00  0.00    -0.171 F 
ATOM     29  F   UNL A   1      34.384  16.205  22.703  1.00  0.00    -0.171 F 
ATOM     30  F   UNL A   1      34.937  16.289  24.813  1.00  0.00    -0.171 F 
ENDBRANCH  26  27
ENDBRANCH  15  20
ENDBRANCH   9  11
ENDBRANCH   8   9
ENDBRANCH   7   8
ENDBRANCH   6   7
ENDBRANCH   5   6
ENDBRANCH   4   5
ENDBRANCH   3   4
ENDBRANCH   2   3
ENDBRANCH   1   2
BRANCH   1  31
ATOM     31  C   UNL A   1      42.294  19.335  25.939  1.00  0.00     0.188 C 
BRANCH  31  32
ATOM     32  O   UNL A   1      43.304  20.064  25.251  1.00  0.00    -0.376 OA
BRANCH  32  33
ATOM     33  C   UNL A   1      43.669  21.348  25.739  1.00  0.00     0.202 C 
BRANCH  33  34
ATOM     34  C   UNL A   1      42.960  22.576  25.141  1.00  0.00     0.261 C 
BRANCH  34  35
ATOM     35  O   UNL A   1      42.604  23.627  26.050  1.00  0.00    -0.460 OA
BRANCH  35  36
ATOM     36  C   UNL A   1      43.156  24.847  25.852  1.00  0.00     0.338 C 
ATOM     37  O   UNL A   1      43.906  25.170  24.958  1.00  0.00    -0.246 OA
BRANCH  36  38
ATOM     38  C   UNL A   1      42.519  25.788  26.801  1.00  0.00     0.060 A 
ATOM     39  C   UNL A   1      42.827  27.152  26.706  1.00  0.00     0.016 A 
ATOM     40  C   UNL A   1      41.637  25.329  27.783  1.00  0.00     0.016 A 
ATOM     41  C   UNL A   1      42.298  28.054  27.627  1.00  0.00     0.010 A 
ATOM     42  C   UNL A   1      41.124  26.231  28.719  1.00  0.00     0.010 A 
ATOM     43  C   UNL A   1      41.491  27.588  28.673  1.00  0.00    -0.014 A 
BRANCH  43  44
ATOM     44  C   UNL A   1      41.239  28.463  29.844  1.00  0.00     0.031 A 
ATOM     45  C   UNL A   1      42.143  28.315  31.040  1.00  0.00     0.074 A 
ATOM     46  C   UNL A   1      40.260  29.383  29.843  1.00  0.00     0.049 A 
ATOM     47  N   UNL A   1      42.106  28.930  32.193  1.00  0.00    -0.248 NA
ATOM     48  C   UNL A   1      43.233  27.334  30.916  1.00  0.00     0.031 C 
ATOM     49  C   UNL A   1      39.357  29.657  28.727  1.00  0.00     0.029 A 
ATOM     50  N   UNL A   1      39.861  30.257  30.824  1.00  0.00    -0.354 N 
ATOM     51  C   UNL A   1      43.156  28.399  32.935  1.00  0.00     0.074 A 
ATOM     52  C   UNL A   1      43.788  27.391  32.115  1.00  0.00     0.031 C 
ATOM     53  C   UNL A   1      38.504  30.632  29.089  1.00  0.00     0.029 A 
ATOM     54  C   UNL A   1      38.776  31.023  30.471  1.00  0.00     0.049 A 
ATOM     55  H   UNL A   1      40.311  30.328  31.696  1.00  0.00     0.167 HD
ATOM     56  C   UNL A   1      43.561  28.728  34.186  1.00  0.00     0.037 A 
ATOM     57  C   UNL A   1      38.077  31.924  31.191  1.00  0.00     0.037 A 
ATOM     58  C   UNL A   1      42.922  29.730  34.996  1.00  0.00     0.049 A 
ATOM     59  C   UNL A   1      38.495  32.221  32.610  1.00  0.00     0.074 A 
ATOM     60  C   UNL A   1      43.260  30.152  36.269  1.00  0.00     0.029 A 
ATOM     61  N   UNL A   1      41.800  30.457  34.619  1.00  0.00    -0.354 N 
ATOM     62  N   UNL A   1      39.500  31.728  33.296  1.00  0.00    -0.248 NA
ATOM     63  C   UNL A   1      37.687  33.201  33.349  1.00  0.00     0.031 C 
ATOM     64  C   UNL A   1      42.307  31.087  36.686  1.00  0.00     0.029 A 
ATOM     65  C   UNL A   1      41.415  31.303  35.647  1.00  0.00     0.049 A 
ATOM     66  H   UNL A   1      41.346  30.383  33.749  1.00  0.00     0.167 HD
ATOM     67  C   UNL A   1      39.468  32.365  34.534  1.00  0.00     0.074 A 
ATOM     68  C   UNL A   1      38.344  33.280  34.499  1.00  0.00     0.031 C 
ATOM     69  C   UNL A   1      40.298  32.215  35.597  1.00  0.00     0.037 A 
BRANCH  56  70
ATOM     70  C   UNL A   1      44.717  27.955  34.763  1.00  0.00     0.058 A 
ATOM     71  C   UNL A   1      46.036  28.438  34.718  1.00  0.00     0.135 A 
ATOM     72  C   UNL A   1      44.502  26.704  35.363  1.00  0.00     0.135 A 
ATOM     73  F   UNL A   1      46.306  29.620  34.140  1.00  0.00    -0.206 F 
ATOM     74  C   UNL A   1      47.103  27.688  35.205  1.00  0.00     0.059 A 
ATOM     75  C   UNL A   1      45.549  25.953  35.888  1.00  0.00     0.059 A 
ATOM     76  F   UNL A   1      43.264  26.192  35.434  1.00  0.00    -0.206 F 
ATOM     77  C   UNL A   1      46.849  26.443  35.782  1.00  0.00     0.060 A 
BRANCH  77  78
ATOM     78  S   UNL A   1      48.245  25.469  36.381  1.00  0.00     0.124 S 
ATOM     79  O   UNL A   1      47.823  25.166  37.745  1.00  0.00    -0.237 OA
ATOM     80  O   UNL A   1      48.258  24.341  35.456  1.00  0.00    -0.237 OA
ATOM     81  O   UNL A   1      49.376  26.385  36.265  1.00  0.00    -0.744 OA
ENDBRANCH  77  78
ENDBRANCH  56  70
BRANCH  57  82
ATOM     82  C   UNL A   1      36.912  32.617  30.577  1.00  0.00     0.058 A 
ATOM     83  C   UNL A   1      35.599  32.276  30.930  1.00  0.00     0.135 A 
ATOM     84  C   UNL A   1      37.088  33.648  29.639  1.00  0.00     0.135 A 
ATOM     85  F   UNL A   1      35.376  31.286  31.809  1.00  0.00    -0.206 F 
ATOM     86  C   UNL A   1      34.501  32.928  30.378  1.00  0.00     0.059 A 
ATOM     87  C   UNL A   1      36.008  34.335  29.094  1.00  0.00     0.059 A 
ATOM     88  F   UNL A   1      38.324  34.017  29.270  1.00  0.00    -0.206 F 
ATOM     89  C   UNL A   1      34.716  33.965  29.469  1.00  0.00     0.060 A 
BRANCH  89  90
ATOM     90  S   UNL A   1      33.285  34.855  28.820  1.00  0.00     0.124 S 
ATOM     91  O   UNL A   1      33.919  35.969  28.125  1.00  0.00    -0.237 OA
ATOM     92  O   UNL A   1      32.660  33.844  27.971  1.00  0.00    -0.237 OA
ATOM     93  O   UNL A   1      32.533  35.206  30.021  1.00  0.00    -0.744 OA
ENDBRANCH  89  90
ENDBRANCH  57  82
BRANCH  69  94
ATOM     94  C   UNL A   1      40.064  33.093  36.798  1.00  0.00     0.058 A 
ATOM     95  C   UNL A   1      40.807  34.262  37.027  1.00  0.00     0.135 A 
ATOM     96  C   UNL A   1      39.034  32.788  37.705  1.00  0.00     0.135 A 
ATOM     97  F   UNL A   1      41.805  34.602  36.195  1.00  0.00    -0.206 F 
ATOM     98  C   UNL A   1      40.557  35.079  38.125  1.00  0.00     0.059 A 
ATOM     99  C   UNL A   1      38.745  33.608  38.790  1.00  0.00     0.059 A 
ATOM    100  F   UNL A   1      38.281  31.689  37.529  1.00  0.00    -0.206 F 
ATOM    101  C   UNL A   1      39.521  34.746  38.999  1.00  0.00     0.060 A 
BRANCH 101 102
ATOM    102  S   UNL A   1      39.188  35.832  40.403  1.00  0.00     0.124 S 
ATOM    103  O   UNL A   1      40.469  35.814  41.100  1.00  0.00    -0.237 OA
ATOM    104  O   UNL A   1      38.840  37.090  39.747  1.00  0.00    -0.237 OA
ATOM    105  O   UNL A   1      38.086  35.168  41.094  1.00  0.00    -0.744 OA
ENDBRANCH 101 102
ENDBRANCH  69  94
ENDBRANCH  43  44
ENDBRANCH  36  38
ENDBRANCH  35  36
ENDBRANCH  34  35
ENDBRANCH  33  34
ENDBRANCH  32  33
ENDBRANCH  31  32
ENDBRANCH   1  31
TORSDOF 26
ENDMDL
MODEL 2
REMARK VINA RESULT:      -9.8      2.788      4.020
REMARK SMILES [NH3+][C@]1(C(=O)OCCOCCOCCOCCOC(=O)c2ccc(-c3c4nc(c(-c5c(F)cc(S(=O)(=O)[O-])cc5F)c5ccc([nH]5)c(-c5c(F)cc(S(=O)(=O)[O-])cc5F)c5nc(c(-c6c(F)cc(S(=O)(=O)[O-])cc6F)c6ccc3[nH]6)C=C5)C=C4)cc2)CC[C@@H]([NH+]2CCC(C(F)(F)F)CC2)C1
REMARK SMILES IDX 12 1 11 2 10 3 9 4 8 5 7 6 6 7 5 8 3 9 4 10 2 11 86 12 99 13
REMARK SMILES IDX 87 14 88 15 1 16 89 20 90 21 98 22 91 24 97 25 92 26 93 27
REMARK SMILES IDX 94 28 95 29 96 30 13 31 14 32 15 33 16 34 17 35 18 36 19 37
REMARK SMILES IDX 20 38 21 39 85 40 22 41 84 42 23 43 24 44 25 45 78 46 26 47
REMARK SMILES IDX 83 48 77 49 79 50 27 51 82 52 76 53 75 54 28 56 62 57 41 58
REMARK SMILES IDX 61 59 42 60 45 61 60 62 80 63 43 64 44 65 59 67 81 68 46 69
REMARK SMILES IDX 29 70 30 71 39 72 31 73 32 74 38 75 40 76 33 77 34 78 35 79
REMARK SMILES IDX 36 80 37 81 63 82 64 83 73 84 65 85 66 86 72 87 74 88 67 89
REMARK SMILES IDX 68 90 69 91 70 92 71 93 47 94 48 95 57 96 49 97 50 98 56 99
REMARK SMILES IDX 58 100 51 101 52 102 53 103 54 104 55 105
REMARK H PARENT 1 17 1 18 1 19 89 23 79 55 45 66
REMARK Flexibility Score: inf
ROOT
ATOM      1  C   UNL A   1      41.693  20.336  27.196  1.00  0.00     0.188 C 
ENDROOT
BRANCH   1   2
ATOM      2  O   UNL A   1      40.325  20.695  27.316  1.00  0.00    -0.377 OA
BRANCH   2   3
ATOM      3  C   UNL A   1      39.688  21.241  26.184  1.00  0.00     0.188 C 
BRANCH   3   4
ATOM      4  C   UNL A   1      38.926  22.553  26.395  1.00  0.00     0.188 C 
BRANCH   4   5
ATOM      5  O   UNL A   1      37.977  23.003  25.448  1.00  0.00    -0.376 OA
BRANCH   5   6
ATOM      6  C   UNL A   1      36.978  22.130  24.941  1.00  0.00     0.202 C 
BRANCH   6   7
ATOM      7  C   UNL A   1      35.466  22.395  25.100  1.00  0.00     0.261 C 
BRANCH   7   8
ATOM      8  O   UNL A   1      34.557  21.706  24.215  1.00  0.00    -0.459 OA
BRANCH   8   9
ATOM      9  C   UNL A   1      33.254  22.028  24.367  1.00  0.00     0.368 C 
ATOM     10  O   UNL A   1      32.527  21.511  25.217  1.00  0.00    -0.245 OA
BRANCH   9  11
ATOM     11  C   UNL A   1      32.677  23.042  23.331  1.00  0.00     0.198 C 
ATOM     12  C   UNL A   1      31.322  23.481  23.925  1.00  0.00     0.087 C 
ATOM     13  C   UNL A   1      33.348  24.404  22.988  1.00  0.00     0.145 C 
ATOM     14  C   UNL A   1      30.930  24.725  23.159  1.00  0.00     0.072 C 
ATOM     15  C   UNL A   1      32.240  25.510  23.025  1.00  0.00     0.191 C 
BRANCH  11  16
ATOM     16  N   UNL A   1      32.470  22.291  22.067  1.00  0.00    -0.343 N 
ATOM     17  H   UNL A   1      33.217  22.518  21.410  1.00  0.00     0.345 HD
ATOM     18  H   UNL A   1      31.570  22.548  21.661  1.00  0.00     0.345 HD
ATOM     19  H   UNL A   1      32.482  21.290  22.261  1.00  0.00     0.345 HD
ENDBRANCH  11  16
BRANCH  15  20
ATOM     20  N   UNL A   1      32.321  26.660  23.956  1.00  0.00    -0.332 N 
ATOM     21  C   UNL A   1      33.592  26.946  24.618  1.00  0.00     0.263 C 
ATOM     22  C   UNL A   1      31.653  27.867  23.462  1.00  0.00     0.263 C 
ATOM     23  H   UNL A   1      31.774  26.291  24.736  1.00  0.00     0.348 HD
ATOM     24  C   UNL A   1      33.425  27.953  25.764  1.00  0.00     0.074 C 
ATOM     25  C   UNL A   1      31.421  28.872  24.599  1.00  0.00     0.074 C 
ATOM     26  C   UNL A   1      32.732  29.234  25.300  1.00  0.00     0.106 C 
BRANCH  26  27
ATOM     27  C   UNL A   1      32.500  30.179  26.467  1.00  0.00     0.392 C 
ATOM     28  F   UNL A   1      32.147  29.492  27.579  1.00  0.00    -0.171 F 
ATOM     29  F   UNL A   1      33.625  30.868  26.765  1.00  0.00    -0.171 F 
ATOM     30  F   UNL A   1      31.523  31.075  26.214  1.00  0.00    -0.171 F 
ENDBRANCH  26  27
ENDBRANCH  15  20
ENDBRANCH   9  11
ENDBRANCH   8   9
ENDBRANCH   7   8
ENDBRANCH   6   7
ENDBRANCH   5   6
ENDBRANCH   4   5
ENDBRANCH   3   4
ENDBRANCH   2   3
ENDBRANCH   1   2
BRANCH   1  31
ATOM     31  C   UNL A   1      42.215  19.934  25.804  1.00  0.00     0.188 C 
BRANCH  31  32
ATOM     32  O   UNL A   1      43.423  20.586  25.429  1.00  0.00    -0.376 OA
BRANCH  32  33
ATOM     33  C   UNL A   1      43.684  21.885  25.940  1.00  0.00     0.202 C 
BRANCH  33  34
ATOM     34  C   UNL A   1      42.592  22.958  25.778  1.00  0.00     0.261 C 
BRANCH  34  35
ATOM     35  O   UNL A   1      42.791  24.198  26.472  1.00  0.00    -0.460 OA
BRANCH  35  36
ATOM     36  C   UNL A   1      42.507  25.344  25.811  1.00  0.00     0.338 C 
ATOM     37  O   UNL A   1      42.569  25.529  24.616  1.00  0.00    -0.246 OA
BRANCH  36  38
ATOM     38  C   UNL A   1      41.901  26.285  26.780  1.00  0.00     0.060 A 
ATOM     39  C   UNL A   1      42.284  27.632  26.741  1.00  0.00     0.016 A 
ATOM     40  C   UNL A   1      40.973  25.840  27.726  1.00  0.00     0.016 A 
ATOM     41  C   UNL A   1      41.784  28.529  27.684  1.00  0.00     0.010 A 
ATOM     42  C   UNL A   1      40.489  26.735  28.683  1.00  0.00     0.010 A 
ATOM     43  C   UNL A   1      40.929  28.071  28.694  1.00  0.00    -0.014 A 
BRANCH  43  44
ATOM     44  C   UNL A   1      40.699  28.916  29.891  1.00  0.00     0.031 A 
ATOM     45  C   UNL A   1      41.586  28.698  31.089  1.00  0.00     0.074 A 
ATOM     46  C   UNL A   1      39.753  29.870  29.913  1.00  0.00     0.049 A 
ATOM     47  N   UNL A   1      41.561  29.276  32.261  1.00  0.00    -0.248 NA
ATOM     48  C   UNL A   1      42.642  27.683  30.942  1.00  0.00     0.031 C 
ATOM     49  C   UNL A   1      38.869  30.212  28.800  1.00  0.00     0.029 A 
ATOM     50  N   UNL A   1      39.376  30.726  30.918  1.00  0.00    -0.354 N 
ATOM     51  C   UNL A   1      42.585  28.685  32.993  1.00  0.00     0.074 A 
ATOM     52  C   UNL A   1      43.188  27.682  32.146  1.00  0.00     0.031 C 
ATOM     53  C   UNL A   1      38.048  31.204  29.186  1.00  0.00     0.029 A 
ATOM     54  C   UNL A   1      38.323  31.542  30.582  1.00  0.00     0.049 A 
ATOM     55  H   UNL A   1      39.821  30.754  31.796  1.00  0.00     0.167 HD
ATOM     56  C   UNL A   1      42.990  28.959  34.257  1.00  0.00     0.037 A 
ATOM     57  C   UNL A   1      37.649  32.443  31.326  1.00  0.00     0.037 A 
ATOM     58  C   UNL A   1      42.380  29.957  35.094  1.00  0.00     0.049 A 
ATOM     59  C   UNL A   1      38.066  32.680  32.756  1.00  0.00     0.074 A 
ATOM     60  C   UNL A   1      42.722  30.326  36.382  1.00  0.00     0.029 A 
ATOM     61  N   UNL A   1      41.288  30.736  34.732  1.00  0.00    -0.354 N 
ATOM     62  N   UNL A   1      39.046  32.129  33.434  1.00  0.00    -0.248 NA
ATOM     63  C   UNL A   1      37.287  33.663  33.520  1.00  0.00     0.031 C 
ATOM     64  C   UNL A   1      41.799  31.281  36.823  1.00  0.00     0.029 A 
ATOM     65  C   UNL A   1      40.925  31.561  35.784  1.00  0.00     0.049 A 
ATOM     66  H   UNL A   1      40.839  30.705  33.857  1.00  0.00     0.167 HD
ATOM     67  C   UNL A   1      39.026  32.728  34.691  1.00  0.00     0.074 A 
ATOM     68  C   UNL A   1      37.936  33.683  34.677  1.00  0.00     0.031 C 
ATOM     69  C   UNL A   1      39.840  32.514  35.755  1.00  0.00     0.037 A 
BRANCH  56  70
ATOM     70  C   UNL A   1      44.113  28.128  34.818  1.00  0.00     0.058 A 
ATOM     71  C   UNL A   1      45.460  28.513  34.701  1.00  0.00     0.135 A 
ATOM     72  C   UNL A   1      43.837  26.918  35.475  1.00  0.00     0.135 A 
ATOM     73  F   UNL A   1      45.786  29.651  34.067  1.00  0.00    -0.206 F 
ATOM     74  C   UNL A   1      46.491  27.707  35.174  1.00  0.00     0.059 A 
ATOM     75  C   UNL A   1      44.850  26.113  35.987  1.00  0.00     0.059 A 
ATOM     76  F   UNL A   1      42.570  26.498  35.615  1.00  0.00    -0.206 F 
ATOM     77  C   UNL A   1      46.176  26.506  35.810  1.00  0.00     0.060 A 
BRANCH  77  78
ATOM     78  S   UNL A   1      47.525  25.456  36.391  1.00  0.00     0.124 S 
ATOM     79  O   UNL A   1      48.513  25.643  35.334  1.00  0.00    -0.237 OA
ATOM     80  O   UNL A   1      47.853  26.057  37.680  1.00  0.00    -0.237 OA
ATOM     81  O   UNL A   1      46.921  24.129  36.457  1.00  0.00    -0.744 OA
ENDBRANCH  77  78
ENDBRANCH  56  70
BRANCH  57  82
ATOM     82  C   UNL A   1      36.516  33.197  30.725  1.00  0.00     0.058 A 
ATOM     83  C   UNL A   1      35.190  32.918  31.087  1.00  0.00     0.135 A 
ATOM     84  C   UNL A   1      36.734  34.224  29.793  1.00  0.00     0.135 A 
ATOM     85  F   UNL A   1      34.925  31.935  31.962  1.00  0.00    -0.206 F 
ATOM     86  C   UNL A   1      34.121  33.627  30.548  1.00  0.00     0.059 A 
ATOM     87  C   UNL A   1      35.685  34.967  29.261  1.00  0.00     0.059 A 
ATOM     88  F   UNL A   1      37.985  34.535  29.415  1.00  0.00    -0.206 F 
ATOM     89  C   UNL A   1      34.380  34.658  29.643  1.00  0.00     0.060 A 
BRANCH  89  90
ATOM     90  S   UNL A   1      32.989  35.622  29.011  1.00  0.00     0.124 S 
ATOM     91  O   UNL A   1      32.245  35.904  30.233  1.00  0.00    -0.237 OA
ATOM     92  O   UNL A   1      33.665  36.761  28.397  1.00  0.00    -0.237 OA
ATOM     93  O   UNL A   1      32.343  34.707  28.075  1.00  0.00    -0.744 OA
ENDBRANCH  89  90
ENDBRANCH  57  82
BRANCH  69  94
ATOM     94  C   UNL A   1      39.628  33.361  36.982  1.00  0.00     0.058 A 
ATOM     95  C   UNL A   1      38.711  33.010  37.984  1.00  0.00     0.135 A 
ATOM     96  C   UNL A   1      40.402  34.517  37.183  1.00  0.00     0.135 A 
ATOM     97  F   UNL A   1      37.942  31.917  37.845  1.00  0.00    -0.206 F 
ATOM     98  C   UNL A   1      38.549  33.787  39.128  1.00  0.00     0.059 A 
ATOM     99  C   UNL A   1      40.281  35.290  38.333  1.00  0.00     0.059 A 
ATOM    100  F   UNL A   1      41.305  34.896  36.264  1.00  0.00    -0.206 F 
ATOM    101  C   UNL A   1      39.342  34.924  39.294  1.00  0.00     0.060 A 
BRANCH 101 102
ATOM    102  S   UNL A   1      39.144  35.906  40.797  1.00  0.00     0.124 S 
ATOM    103  O   UNL A   1      38.735  37.197  40.253  1.00  0.00    -0.237 OA
ATOM    104  O   UNL A   1      38.111  35.167  41.517  1.00  0.00    -0.237 OA
ATOM    105  O   UNL A   1      40.471  35.872  41.405  1.00  0.00    -0.744 OA
ENDBRANCH 101 102
ENDBRANCH  69  94
ENDBRANCH  43  44
ENDBRANCH  36  38
ENDBRANCH  35  36
ENDBRANCH  34  35
ENDBRANCH  33  34
ENDBRANCH  32  33
ENDBRANCH  31  32
ENDBRANCH   1  31
TORSDOF 26
ENDMDL
MODEL 3
REMARK VINA RESULT:      -9.6      2.940      8.814
REMARK SMILES [NH3+][C@]1(C(=O)OCCOCCOCCOCCOC(=O)c2ccc(-c3c4nc(c(-c5c(F)cc(S(=O)(=O)[O-])cc5F)c5ccc([nH]5)c(-c5c(F)cc(S(=O)(=O)[O-])cc5F)c5nc(c(-c6c(F)cc(S(=O)(=O)[O-])cc6F)c6ccc3[nH]6)C=C5)C=C4)cc2)CC[C@@H]([NH+]2CCC(C(F)(F)F)CC2)C1
REMARK SMILES IDX 12 1 11 2 10 3 9 4 8 5 7 6 6 7 5 8 3 9 4 10 2 11 86 12 99 13
REMARK SMILES IDX 87 14 88 15 1 16 89 20 90 21 98 22 91 24 97 25 92 26 93 27
REMARK SMILES IDX 94 28 95 29 96 30 13 31 14 32 15 33 16 34 17 35 18 36 19 37
REMARK SMILES IDX 20 38 21 39 85 40 22 41 84 42 23 43 24 44 25 45 78 46 26 47
REMARK SMILES IDX 83 48 77 49 79 50 27 51 82 52 76 53 75 54 28 56 62 57 41 58
REMARK SMILES IDX 61 59 42 60 45 61 60 62 80 63 43 64 44 65 59 67 81 68 46 69
REMARK SMILES IDX 29 70 30 71 39 72 31 73 32 74 38 75 40 76 33 77 34 78 35 79
REMARK SMILES IDX 36 80 37 81 63 82 64 83 73 84 65 85 66 86 72 87 74 88 67 89
REMARK SMILES IDX 68 90 69 91 70 92 71 93 47 94 48 95 57 96 49 97 50 98 56 99
REMARK SMILES IDX 58 100 51 101 52 102 53 103 54 104 55 105
REMARK H PARENT 1 17 1 18 1 19 89 23 79 55 45 66
REMARK Flexibility Score: inf
ROOT
ATOM      1  C   UNL A   1      41.450  20.762  27.314  1.00  0.00     0.188 C 
ENDROOT
BRANCH   1   2
ATOM      2  O   UNL A   1      40.043  20.890  27.177  1.00  0.00    -0.377 OA
BRANCH   2   3
ATOM      3  C   UNL A   1      39.517  20.987  25.874  1.00  0.00     0.188 C 
BRANCH   3   4
ATOM      4  C   UNL A   1      38.331  21.938  25.684  1.00  0.00     0.188 C 
BRANCH   4   5
ATOM      5  O   UNL A   1      37.322  21.661  24.732  1.00  0.00    -0.376 OA
BRANCH   5   6
ATOM      6  C   UNL A   1      36.292  20.724  25.008  1.00  0.00     0.202 C 
BRANCH   6   7
ATOM      7  C   UNL A   1      34.879  21.137  25.471  1.00  0.00     0.261 C 
BRANCH   7   8
ATOM      8  O   UNL A   1      33.777  20.927  24.562  1.00  0.00    -0.459 OA
BRANCH   8   9
ATOM      9  C   UNL A   1      32.725  21.756  24.735  1.00  0.00     0.368 C 
ATOM     10  O   UNL A   1      31.990  21.715  25.724  1.00  0.00    -0.245 OA
BRANCH   9  11
ATOM     11  C   UNL A   1      32.422  22.729  23.553  1.00  0.00     0.198 C 
ATOM     12  C   UNL A   1      31.033  23.319  23.878  1.00  0.00     0.087 C 
ATOM     13  C   UNL A   1      33.261  24.002  23.244  1.00  0.00     0.145 C 
ATOM     14  C   UNL A   1      30.888  24.527  22.979  1.00  0.00     0.072 C 
ATOM     15  C   UNL A   1      32.269  25.193  23.022  1.00  0.00     0.191 C 
BRANCH  11  16
ATOM     16  N   UNL A   1      32.357  21.901  22.323  1.00  0.00    -0.343 N 
ATOM     17  H   UNL A   1      32.007  20.971  22.556  1.00  0.00     0.345 HD
ATOM     18  H   UNL A   1      33.290  21.821  21.916  1.00  0.00     0.345 HD
ATOM     19  H   UNL A   1      31.729  22.341  21.650  1.00  0.00     0.345 HD
ENDBRANCH  11  16
BRANCH  15  20
ATOM     20  N   UNL A   1      32.299  26.401  23.878  1.00  0.00    -0.332 N 
ATOM     21  C   UNL A   1      31.115  26.741  24.664  1.00  0.00     0.263 C 
ATOM     22  C   UNL A   1      33.546  26.556  24.634  1.00  0.00     0.263 C 
ATOM     23  H   UNL A   1      32.271  27.125  23.159  1.00  0.00     0.348 HD
ATOM     24  C   UNL A   1      31.199  28.162  25.238  1.00  0.00     0.074 C 
ATOM     25  C   UNL A   1      33.686  27.987  25.175  1.00  0.00     0.074 C 
ATOM     26  C   UNL A   1      32.485  28.377  26.038  1.00  0.00     0.106 C 
BRANCH  26  27
ATOM     27  C   UNL A   1      32.588  29.814  26.523  1.00  0.00     0.392 C 
ATOM     28  F   UNL A   1      32.783  29.857  27.861  1.00  0.00    -0.171 F 
ATOM     29  F   UNL A   1      33.635  30.447  25.947  1.00  0.00    -0.171 F 
ATOM     30  F   UNL A   1      31.475  30.526  26.249  1.00  0.00    -0.171 F 
ENDBRANCH  26  27
ENDBRANCH  15  20
ENDBRANCH   9  11
ENDBRANCH   8   9
ENDBRANCH   7   8
ENDBRANCH   6   7
ENDBRANCH   5   6
ENDBRANCH   4   5
ENDBRANCH   3   4
ENDBRANCH   2   3
ENDBRANCH   1   2
BRANCH   1  31
ATOM     31  C   UNL A   1      42.259  20.319  26.081  1.00  0.00     0.188 C 
BRANCH  31  32
ATOM     32  O   UNL A   1      42.979  21.372  25.451  1.00  0.00    -0.376 OA
BRANCH  32  33
ATOM     33  C   UNL A   1      42.667  22.714  25.798  1.00  0.00     0.202 C 
BRANCH  33  34
ATOM     34  C   UNL A   1      43.650  23.818  25.373  1.00  0.00     0.261 C 
BRANCH  34  35
ATOM     35  O   UNL A   1      43.254  25.174  25.626  1.00  0.00    -0.460 OA
BRANCH  35  36
ATOM     36  C   UNL A   1      44.151  25.992  26.226  1.00  0.00     0.338 C 
ATOM     37  O   UNL A   1      45.298  26.185  25.890  1.00  0.00    -0.246 OA
BRANCH  36  38
ATOM     38  C   UNL A   1      43.427  26.780  27.249  1.00  0.00     0.060 A 
ATOM     39  C   UNL A   1      43.702  28.149  27.364  1.00  0.00     0.016 A 
ATOM     40  C   UNL A   1      42.494  26.173  28.094  1.00  0.00     0.016 A 
ATOM     41  C   UNL A   1      43.089  28.905  28.362  1.00  0.00     0.010 A 
ATOM     42  C   UNL A   1      41.897  26.926  29.108  1.00  0.00     0.010 A 
ATOM     43  C   UNL A   1      42.227  28.283  29.274  1.00  0.00    -0.014 A 
BRANCH  43  44
ATOM     44  C   UNL A   1      41.875  28.981  30.534  1.00  0.00     0.031 A 
ATOM     45  C   UNL A   1      40.647  29.853  30.537  1.00  0.00     0.074 A 
ATOM     46  C   UNL A   1      42.600  28.828  31.655  1.00  0.00     0.049 A 
ATOM     47  N   UNL A   1      40.152  30.595  31.493  1.00  0.00    -0.248 NA
ATOM     48  C   UNL A   1      39.876  29.896  29.284  1.00  0.00     0.031 C 
ATOM     49  C   UNL A   1      43.776  27.971  31.793  1.00  0.00     0.029 A 
ATOM     50  N   UNL A   1      42.451  29.399  32.895  1.00  0.00    -0.354 N 
ATOM     51  C   UNL A   1      39.025  31.203  30.953  1.00  0.00     0.074 A 
ATOM     52  C   UNL A   1      38.928  30.770  29.577  1.00  0.00     0.031 C 
ATOM     53  C   UNL A   1      44.246  28.076  33.048  1.00  0.00     0.029 A 
ATOM     54  C   UNL A   1      43.428  29.035  33.791  1.00  0.00     0.049 A 
ATOM     55  H   UNL A   1      41.714  30.010  33.121  1.00  0.00     0.167 HD
ATOM     56  C   UNL A   1      38.145  32.041  31.552  1.00  0.00     0.037 A 
ATOM     57  C   UNL A   1      43.642  29.444  35.058  1.00  0.00     0.037 A 
ATOM     58  C   UNL A   1      38.253  32.470  32.921  1.00  0.00     0.049 A 
ATOM     59  C   UNL A   1      42.696  30.438  35.683  1.00  0.00     0.074 A 
ATOM     60  C   UNL A   1      37.409  33.303  33.631  1.00  0.00     0.029 A 
ATOM     61  N   UNL A   1      39.279  32.110  33.785  1.00  0.00    -0.354 N 
ATOM     62  N   UNL A   1      41.622  30.993  35.171  1.00  0.00    -0.248 NA
ATOM     63  C   UNL A   1      42.988  30.857  37.061  1.00  0.00     0.031 C 
ATOM     64  C   UNL A   1      37.957  33.500  34.903  1.00  0.00     0.029 A 
ATOM     65  C   UNL A   1      39.106  32.731  35.011  1.00  0.00     0.049 A 
ATOM     66  H   UNL A   1      40.021  31.503  33.559  1.00  0.00     0.167 HD
ATOM     67  C   UNL A   1      41.089  31.797  36.175  1.00  0.00     0.074 A 
ATOM     68  C   UNL A   1      41.960  31.653  37.325  1.00  0.00     0.031 C 
ATOM     69  C   UNL A   1      39.977  32.573  36.152  1.00  0.00     0.037 A 
BRANCH  56  70
ATOM     70  C   UNL A   1      37.023  32.585  30.707  1.00  0.00     0.058 A 
ATOM     71  C   UNL A   1      37.123  33.813  30.031  1.00  0.00     0.135 A 
ATOM     72  C   UNL A   1      35.823  31.867  30.580  1.00  0.00     0.135 A 
ATOM     73  F   UNL A   1      38.240  34.552  30.130  1.00  0.00    -0.206 F 
ATOM     74  C   UNL A   1      36.057  34.330  29.300  1.00  0.00     0.059 A 
ATOM     75  C   UNL A   1      34.758  32.349  29.825  1.00  0.00     0.059 A 
ATOM     76  F   UNL A   1      35.670  30.689  31.203  1.00  0.00    -0.206 F 
ATOM     77  C   UNL A   1      34.877  33.593  29.208  1.00  0.00     0.060 A 
BRANCH  77  78
ATOM     78  S   UNL A   1      33.493  34.290  28.282  1.00  0.00     0.124 S 
ATOM     79  O   UNL A   1      32.745  34.961  29.340  1.00  0.00    -0.237 OA
ATOM     80  O   UNL A   1      34.166  35.164  27.328  1.00  0.00    -0.237 OA
ATOM     81  O   UNL A   1      32.844  33.117  27.703  1.00  0.00    -0.744 OA
ENDBRANCH  77  78
ENDBRANCH  56  70
BRANCH  57  82
ATOM     82  C   UNL A   1      44.799  28.905  35.823  1.00  0.00     0.058 A 
ATOM     83  C   UNL A   1      46.059  29.517  35.756  1.00  0.00     0.135 A 
ATOM     84  C   UNL A   1      44.665  27.779  36.651  1.00  0.00     0.135 A 
ATOM     85  F   UNL A   1      46.244  30.587  34.966  1.00  0.00    -0.206 F 
ATOM     86  C   UNL A   1      47.145  29.036  36.480  1.00  0.00     0.059 A 
ATOM     87  C   UNL A   1      45.728  27.294  37.407  1.00  0.00     0.059 A 
ATOM     88  F   UNL A   1      43.480  27.157  36.755  1.00  0.00    -0.206 F 
ATOM     89  C   UNL A   1      46.966  27.929  37.313  1.00  0.00     0.060 A 
BRANCH  89  90
ATOM     90  S   UNL A   1      48.364  27.362  38.306  1.00  0.00     0.124 S 
ATOM     91  O   UNL A   1      47.807  26.180  38.953  1.00  0.00    -0.237 OA
ATOM     92  O   UNL A   1      49.379  27.116  37.286  1.00  0.00    -0.237 OA
ATOM     93  O   UNL A   1      48.633  28.495  39.187  1.00  0.00    -0.744 OA
ENDBRANCH  89  90
ENDBRANCH  57  82
BRANCH  69  94
ATOM     94  C   UNL A   1      39.597  33.292  37.420  1.00  0.00     0.058 A 
ATOM     95  C   UNL A   1      38.662  32.768  38.326  1.00  0.00     0.135 A 
ATOM     96  C   UNL A   1      40.227  34.501  37.762  1.00  0.00     0.135 A 
ATOM     97  F   UNL A   1      38.026  31.617  38.051  1.00  0.00    -0.206 F 
ATOM     98  C   UNL A   1      38.345  33.428  39.509  1.00  0.00     0.059 A 
ATOM     99  C   UNL A   1      39.952  35.161  38.954  1.00  0.00     0.059 A 
ATOM    100  F   UNL A   1      41.141  35.043  36.940  1.00  0.00    -0.206 F 
ATOM    101  C   UNL A   1      38.998  34.624  39.816  1.00  0.00     0.060 A 
BRANCH 101 102
ATOM    102  S   UNL A   1      38.601  35.455  41.369  1.00  0.00     0.124 S 
ATOM    103  O   UNL A   1      38.645  36.858  40.971  1.00  0.00    -0.237 OA
ATOM    104  O   UNL A   1      37.275  34.925  41.674  1.00  0.00    -0.237 OA
ATOM    105  O   UNL A   1      39.665  35.023  42.270  1.00  0.00    -0.744 OA
ENDBRANCH 101 102
ENDBRANCH  69  94
ENDBRANCH  43  44
ENDBRANCH  36  38
ENDBRANCH  35  36
ENDBRANCH  34  35
ENDBRANCH  33  34
ENDBRANCH  32  33
ENDBRANCH  31  32
ENDBRANCH   1  31
TORSDOF 26
ENDMDL
