MODEL 1
REMARK VINA RESULT:      -9.7      0.000      0.000
REMARK SMILES O=C(OCCOCCOCCOCCOC(=O)[C@]1(CCc2ccccc2)C[C@H]2CC[C@@H]1O2)c1ccc(-c2c3nc(c(-c4c(F)cc(S(=O)(=O)[O-])cc4F)c4ccc([nH]4)c(-c4c(F)cc(S(=O)(=O)[O-])cc4F)c4nc(c(-c5c(F)cc(S(=O)(=O)[O-])cc5F)c5ccc2[nH]5)C=C4)C=C3)cc1
REMARK SMILES IDX 9 1 8 2 7 3 6 4 5 5 4 6 3 7 2 8 1 9 33 10 34 11 98 12 35 13
REMARK SMILES IDX 97 14 36 15 37 16 38 17 91 18 39 19 96 20 90 21 92 22 40 23
REMARK SMILES IDX 95 24 89 25 88 26 41 28 75 29 54 30 74 31 55 32 58 33 73 34
REMARK SMILES IDX 93 35 56 36 57 37 72 39 94 40 59 41 42 42 43 43 52 44 44 45
REMARK SMILES IDX 45 46 51 47 53 48 46 49 47 50 48 51 49 52 50 53 76 54 77 55
REMARK SMILES IDX 86 56 78 57 79 58 85 59 87 60 80 61 81 62 82 63 83 64 84 65
REMARK SMILES IDX 60 66 61 67 70 68 62 69 63 70 69 71 71 72 64 73 65 74 66 75
REMARK SMILES IDX 67 76 68 77 10 78 11 79 12 80 13 81 14 82 15 83 16 84 17 85
REMARK SMILES IDX 18 86 27 87 31 88 28 89 30 90 32 91 29 92 19 93 20 94 21 95
REMARK SMILES IDX 22 96 26 97 23 98 25 99 24 100
REMARK H PARENT 92 27 58 38
REMARK Flexibility Score: inf
ROOT
ATOM      1  O   UNL A   1      35.000  20.569  25.683  1.00  0.00    -0.377 OA
ENDROOT
BRANCH   1   2
ATOM      2  C   UNL A   1      36.182  21.353  25.623  1.00  0.00     0.188 C 
BRANCH   2   3
ATOM      3  C   UNL A   1      37.388  20.682  24.983  1.00  0.00     0.188 C 
BRANCH   3   4
ATOM      4  O   UNL A   1      38.471  21.601  25.041  1.00  0.00    -0.376 OA
BRANCH   4   5
ATOM      5  C   UNL A   1      39.106  21.770  26.301  1.00  0.00     0.202 C 
BRANCH   5   6
ATOM      6  C   UNL A   1      40.532  22.273  26.183  1.00  0.00     0.261 C 
BRANCH   6   7
ATOM      7  O   UNL A   1      40.823  23.408  27.013  1.00  0.00    -0.460 OA
BRANCH   7   8
ATOM      8  C   UNL A   1      40.478  24.710  26.878  1.00  0.00     0.338 C 
ATOM      9  O   UNL A   1      40.180  25.095  25.745  1.00  0.00    -0.246 OA
BRANCH   8  10
ATOM     10  C   UNL A   1      40.412  25.727  27.977  1.00  0.00     0.060 A 
ATOM     11  C   UNL A   1      39.366  25.908  28.883  1.00  0.00     0.016 A 
ATOM     12  C   UNL A   1      41.570  26.505  28.166  1.00  0.00     0.016 A 
ATOM     13  C   UNL A   1      39.454  26.793  29.945  1.00  0.00     0.010 A 
ATOM     14  C   UNL A   1      41.661  27.430  29.210  1.00  0.00     0.010 A 
ATOM     15  C   UNL A   1      40.589  27.578  30.093  1.00  0.00    -0.014 A 
BRANCH  15  16
ATOM     16  C   UNL A   1      40.497  28.699  31.035  1.00  0.00     0.031 A 
ATOM     17  C   UNL A   1      41.505  28.731  32.142  1.00  0.00     0.074 A 
ATOM     18  C   UNL A   1      39.658  29.719  30.791  1.00  0.00     0.049 A 
ATOM     19  N   UNL A   1      41.590  29.539  33.159  1.00  0.00    -0.248 NA
ATOM     20  C   UNL A   1      42.582  27.722  32.082  1.00  0.00     0.031 C 
ATOM     21  C   UNL A   1      38.789  29.835  29.615  1.00  0.00     0.029 A 
ATOM     22  N   UNL A   1      39.414  30.863  31.499  1.00  0.00    -0.354 N 
ATOM     23  C   UNL A   1      42.692  29.105  33.883  1.00  0.00     0.074 A 
ATOM     24  C   UNL A   1      43.265  27.981  33.185  1.00  0.00     0.031 C 
ATOM     25  C   UNL A   1      38.097  30.984  29.694  1.00  0.00     0.029 A 
ATOM     26  C   UNL A   1      38.415  31.637  30.958  1.00  0.00     0.049 A 
ATOM     27  H   UNL A   1      39.906  31.109  32.316  1.00  0.00     0.167 HD
ATOM     28  C   UNL A   1      43.155  29.605  35.048  1.00  0.00     0.037 A 
ATOM     29  C   UNL A   1      37.793  32.712  31.477  1.00  0.00     0.037 A 
ATOM     30  C   UNL A   1      42.553  30.738  35.691  1.00  0.00     0.049 A 
ATOM     31  C   UNL A   1      38.251  33.177  32.837  1.00  0.00     0.074 A 
ATOM     32  C   UNL A   1      42.876  31.321  36.899  1.00  0.00     0.029 A 
ATOM     33  N   UNL A   1      41.488  31.458  35.162  1.00  0.00    -0.354 N 
ATOM     34  N   UNL A   1      39.244  32.722  33.570  1.00  0.00    -0.248 NA
ATOM     35  C   UNL A   1      37.503  34.276  33.453  1.00  0.00     0.031 C 
ATOM     36  C   UNL A   1      41.967  32.359  37.128  1.00  0.00     0.029 A 
ATOM     37  C   UNL A   1      41.117  32.461  36.034  1.00  0.00     0.049 A 
ATOM     38  H   UNL A   1      41.061  31.280  34.293  1.00  0.00     0.167 HD
ATOM     39  C   UNL A   1      39.246  33.486  34.729  1.00  0.00     0.074 A 
ATOM     40  C   UNL A   1      38.172  34.452  34.583  1.00  0.00     0.031 C 
ATOM     41  C   UNL A   1      40.044  33.402  35.822  1.00  0.00     0.037 A 
BRANCH  28  42
ATOM     42  C   UNL A   1      44.277  28.877  35.726  1.00  0.00     0.058 A 
ATOM     43  C   UNL A   1      44.061  27.815  36.618  1.00  0.00     0.135 A 
ATOM     44  C   UNL A   1      45.605  29.253  35.465  1.00  0.00     0.135 A 
ATOM     45  F   UNL A   1      42.812  27.447  36.941  1.00  0.00    -0.206 F 
ATOM     46  C   UNL A   1      45.124  27.148  37.220  1.00  0.00     0.059 A 
ATOM     47  C   UNL A   1      46.681  28.586  36.037  1.00  0.00     0.059 A 
ATOM     48  F   UNL A   1      45.865  30.284  34.644  1.00  0.00    -0.206 F 
ATOM     49  C   UNL A   1      46.431  27.534  36.914  1.00  0.00     0.060 A 
BRANCH  49  50
ATOM     50  S   UNL A   1      47.798  26.620  37.659  1.00  0.00     0.124 S 
ATOM     51  O   UNL A   1      47.136  25.962  38.782  1.00  0.00    -0.237 OA
ATOM     52  O   UNL A   1      48.217  25.746  36.569  1.00  0.00    -0.237 OA
ATOM     53  O   UNL A   1      48.751  27.667  38.020  1.00  0.00    -0.744 OA
ENDBRANCH  49  50
ENDBRANCH  28  42
BRANCH  29  54
ATOM     54  C   UNL A   1      36.626  33.334  30.791  1.00  0.00     0.058 A 
ATOM     55  C   UNL A   1      36.778  34.106  29.630  1.00  0.00     0.135 A 
ATOM     56  C   UNL A   1      35.327  33.209  31.315  1.00  0.00     0.135 A 
ATOM     57  F   UNL A   1      37.994  34.265  29.085  1.00  0.00    -0.206 F 
ATOM     58  C   UNL A   1      35.699  34.763  29.041  1.00  0.00     0.059 A 
ATOM     59  C   UNL A   1      34.229  33.825  30.726  1.00  0.00     0.059 A 
ATOM     60  F   UNL A   1      35.112  32.475  32.419  1.00  0.00    -0.206 F 
ATOM     61  C   UNL A   1      34.428  34.622  29.601  1.00  0.00     0.060 A 
BRANCH  61  62
ATOM     62  S   UNL A   1      33.042  35.501  28.848  1.00  0.00     0.124 S 
ATOM     63  O   UNL A   1      32.328  35.983  30.014  1.00  0.00    -0.237 OA
ATOM     64  O   UNL A   1      33.722  36.514  28.042  1.00  0.00    -0.237 OA
ATOM     65  O   UNL A   1      32.365  34.456  28.075  1.00  0.00    -0.744 OA
ENDBRANCH  61  62
ENDBRANCH  29  54
BRANCH  41  66
ATOM     66  C   UNL A   1      39.799  34.396  36.916  1.00  0.00     0.058 A 
ATOM     67  C   UNL A   1      39.069  34.055  38.063  1.00  0.00     0.135 A 
ATOM     68  C   UNL A   1      40.371  35.675  36.846  1.00  0.00     0.135 A 
ATOM     69  F   UNL A   1      38.499  32.844  38.168  1.00  0.00    -0.206 F 
ATOM     70  C   UNL A   1      38.897  34.960  39.101  1.00  0.00     0.059 A 
ATOM     71  C   UNL A   1      40.242  36.583  37.888  1.00  0.00     0.059 A 
ATOM     72  F   UNL A   1      41.091  36.038  35.773  1.00  0.00    -0.206 F 
ATOM     73  C   UNL A   1      39.493  36.220  39.007  1.00  0.00     0.060 A 
BRANCH  73  74
ATOM     74  S   UNL A   1      39.307  37.364  40.386  1.00  0.00     0.124 S 
ATOM     75  O   UNL A   1      38.654  38.497  39.740  1.00  0.00    -0.237 OA
ATOM     76  O   UNL A   1      38.480  36.600  41.315  1.00  0.00    -0.237 OA
ATOM     77  O   UNL A   1      40.680  37.596  40.824  1.00  0.00    -0.744 OA
ENDBRANCH  73  74
ENDBRANCH  41  66
ENDBRANCH  15  16
ENDBRANCH   8  10
ENDBRANCH   7   8
ENDBRANCH   6   7
ENDBRANCH   5   6
ENDBRANCH   4   5
ENDBRANCH   3   4
ENDBRANCH   2   3
ENDBRANCH   1   2
BRANCH   1  78
ATOM     78  C   UNL A   1      33.902  20.962  24.876  1.00  0.00     0.188 C 
BRANCH  78  79
ATOM     79  C   UNL A   1      33.628  22.425  24.469  1.00  0.00     0.188 C 
BRANCH  79  80
ATOM     80  O   UNL A   1      34.130  22.940  23.256  1.00  0.00    -0.376 OA
BRANCH  80  81
ATOM     81  C   UNL A   1      33.296  22.881  22.116  1.00  0.00     0.202 C 
BRANCH  81  82
ATOM     82  C   UNL A   1      32.756  24.169  21.481  1.00  0.00     0.261 C 
BRANCH  82  83
ATOM     83  O   UNL A   1      32.646  25.336  22.329  1.00  0.00    -0.463 OA
BRANCH  83  84
ATOM     84  C   UNL A   1      31.572  25.391  23.158  1.00  0.00     0.314 C 
ATOM     85  O   UNL A   1      30.819  24.441  23.362  1.00  0.00    -0.252 OA
BRANCH  84  86
ATOM     86  C   UNL A   1      31.310  26.765  23.818  1.00  0.00     0.097 C 
ATOM     87  C   UNL A   1      29.891  27.193  24.268  1.00  0.00     0.053 C 
ATOM     88  C   UNL A   1      31.544  27.790  22.659  1.00  0.00     0.136 C 
ATOM     89  C   UNL A   1      29.524  28.308  23.270  1.00  0.00     0.120 C 
ATOM     90  C   UNL A   1      31.696  29.247  23.087  1.00  0.00     0.036 C 
ATOM     91  O   UNL A   1      30.212  27.891  22.075  1.00  0.00    -0.374 OA
ATOM     92  C   UNL A   1      30.286  29.595  23.572  1.00  0.00     0.035 C 
BRANCH  86  93
ATOM     93  C   UNL A   1      32.305  26.849  24.999  1.00  0.00     0.026 C 
BRANCH  93  94
ATOM     94  C   UNL A   1      31.857  27.733  26.191  1.00  0.00     0.037 C 
BRANCH  94  95
ATOM     95  C   UNL A   1      32.815  28.782  26.704  1.00  0.00    -0.048 A 
ATOM     96  C   UNL A   1      34.168  28.465  26.916  1.00  0.00     0.004 A 
ATOM     97  C   UNL A   1      32.384  30.086  26.986  1.00  0.00     0.004 A 
ATOM     98  C   UNL A   1      35.067  29.431  27.381  1.00  0.00     0.000 A 
ATOM     99  C   UNL A   1      33.287  31.055  27.437  1.00  0.00     0.000 A 
ATOM    100  C   UNL A   1      34.626  30.727  27.638  1.00  0.00     0.000 A 
ENDBRANCH  94  95
ENDBRANCH  93  94
ENDBRANCH  86  93
ENDBRANCH  84  86
ENDBRANCH  83  84
ENDBRANCH  82  83
ENDBRANCH  81  82
ENDBRANCH  80  81
ENDBRANCH  79  80
ENDBRANCH  78  79
ENDBRANCH   1  78
TORSDOF 26
ENDMDL
MODEL 2
REMARK VINA RESULT:      -9.6      6.365     10.880
REMARK SMILES O=C(OCCOCCOCCOCCOC(=O)[C@]1(CCc2ccccc2)C[C@H]2CC[C@@H]1O2)c1ccc(-c2c3nc(c(-c4c(F)cc(S(=O)(=O)[O-])cc4F)c4ccc([nH]4)c(-c4c(F)cc(S(=O)(=O)[O-])cc4F)c4nc(c(-c5c(F)cc(S(=O)(=O)[O-])cc5F)c5ccc2[nH]5)C=C4)C=C3)cc1
REMARK SMILES IDX 9 1 8 2 7 3 6 4 5 5 4 6 3 7 2 8 1 9 33 10 34 11 98 12 35 13
REMARK SMILES IDX 97 14 36 15 37 16 38 17 91 18 39 19 96 20 90 21 92 22 40 23
REMARK SMILES IDX 95 24 89 25 88 26 41 28 75 29 54 30 74 31 55 32 58 33 73 34
REMARK SMILES IDX 93 35 56 36 57 37 72 39 94 40 59 41 42 42 43 43 52 44 44 45
REMARK SMILES IDX 45 46 51 47 53 48 46 49 47 50 48 51 49 52 50 53 76 54 77 55
REMARK SMILES IDX 86 56 78 57 79 58 85 59 87 60 80 61 81 62 82 63 83 64 84 65
REMARK SMILES IDX 60 66 61 67 70 68 62 69 63 70 69 71 71 72 64 73 65 74 66 75
REMARK SMILES IDX 67 76 68 77 10 78 11 79 12 80 13 81 14 82 15 83 16 84 17 85
REMARK SMILES IDX 18 86 27 87 31 88 28 89 30 90 32 91 29 92 19 93 20 94 21 95
REMARK SMILES IDX 22 96 26 97 23 98 25 99 24 100
REMARK H PARENT 92 27 58 38
REMARK Flexibility Score: inf
ROOT
ATOM      1  O   UNL A   1      34.297  22.290  26.221  1.00  0.00    -0.377 OA
ENDROOT
BRANCH   1   2
ATOM      2  C   UNL A   1      35.353  22.780  25.409  1.00  0.00     0.188 C 
BRANCH   2   3
ATOM      3  C   UNL A   1      36.729  22.196  25.691  1.00  0.00     0.188 C 
BRANCH   3   4
ATOM      4  O   UNL A   1      36.726  20.851  25.232  1.00  0.00    -0.376 OA
BRANCH   4   5
ATOM      5  C   UNL A   1      37.980  20.291  24.870  1.00  0.00     0.202 C 
BRANCH   5   6
ATOM      6  C   UNL A   1      39.134  20.842  25.686  1.00  0.00     0.261 C 
BRANCH   6   7
ATOM      7  O   UNL A   1      40.111  19.859  26.057  1.00  0.00    -0.460 OA
BRANCH   7   8
ATOM      8  C   UNL A   1      41.444  19.976  26.264  1.00  0.00     0.338 C 
ATOM      9  O   UNL A   1      42.117  18.947  26.167  1.00  0.00    -0.246 OA
BRANCH   8  10
ATOM     10  C   UNL A   1      42.183  21.239  26.588  1.00  0.00     0.060 A 
ATOM     11  C   UNL A   1      42.596  21.662  27.852  1.00  0.00     0.016 A 
ATOM     12  C   UNL A   1      42.581  22.018  25.486  1.00  0.00     0.016 A 
ATOM     13  C   UNL A   1      43.386  22.786  28.033  1.00  0.00     0.010 A 
ATOM     14  C   UNL A   1      43.346  23.176  25.653  1.00  0.00     0.010 A 
ATOM     15  C   UNL A   1      43.736  23.562  26.937  1.00  0.00    -0.014 A 
BRANCH  15  16
ATOM     16  C   UNL A   1      44.300  24.887  27.221  1.00  0.00     0.031 A 
ATOM     17  C   UNL A   1      43.355  25.922  27.748  1.00  0.00     0.074 A 
ATOM     18  C   UNL A   1      45.629  25.079  27.171  1.00  0.00     0.049 A 
ATOM     19  N   UNL A   1      43.561  27.185  27.982  1.00  0.00    -0.248 NA
ATOM     20  C   UNL A   1      41.990  25.462  28.075  1.00  0.00     0.031 C 
ATOM     21  C   UNL A   1      46.621  24.046  26.854  1.00  0.00     0.029 A 
ATOM     22  N   UNL A   1      46.378  26.199  27.408  1.00  0.00    -0.354 N 
ATOM     23  C   UNL A   1      42.343  27.679  28.433  1.00  0.00     0.074 A 
ATOM     24  C   UNL A   1      41.407  26.583  28.466  1.00  0.00     0.031 C 
ATOM     25  C   UNL A   1      47.849  24.588  26.904  1.00  0.00     0.029 A 
ATOM     26  C   UNL A   1      47.721  26.015  27.175  1.00  0.00     0.049 A 
ATOM     27  H   UNL A   1      45.994  27.051  27.716  1.00  0.00     0.167 HD
ATOM     28  C   UNL A   1      42.048  28.954  28.763  1.00  0.00     0.037 A 
ATOM     29  C   UNL A   1      48.709  26.927  27.125  1.00  0.00     0.037 A 
ATOM     30  C   UNL A   1      43.028  30.003  28.727  1.00  0.00     0.049 A 
ATOM     31  C   UNL A   1      48.328  28.364  27.380  1.00  0.00     0.074 A 
ATOM     32  C   UNL A   1      42.864  31.350  28.979  1.00  0.00     0.029 A 
ATOM     33  N   UNL A   1      44.367  29.807  28.409  1.00  0.00    -0.354 N 
ATOM     34  N   UNL A   1      47.159  28.855  27.729  1.00  0.00    -0.248 NA
ATOM     35  C   UNL A   1      49.380  29.372  27.215  1.00  0.00     0.031 C 
ATOM     36  C   UNL A   1      44.093  31.977  28.756  1.00  0.00     0.029 A 
ATOM     37  C   UNL A   1      45.037  31.014  28.425  1.00  0.00     0.049 A 
ATOM     38  H   UNL A   1      44.778  28.937  28.204  1.00  0.00     0.167 HD
ATOM     39  C   UNL A   1      47.337  30.228  27.837  1.00  0.00     0.074 A 
ATOM     40  C   UNL A   1      48.736  30.483  27.543  1.00  0.00     0.031 C 
ATOM     41  C   UNL A   1      46.438  31.198  28.137  1.00  0.00     0.037 A 
BRANCH  28  42
ATOM     42  C   UNL A   1      40.621  29.282  29.083  1.00  0.00     0.058 A 
ATOM     43  C   UNL A   1      40.150  29.408  30.398  1.00  0.00     0.135 A 
ATOM     44  C   UNL A   1      39.705  29.484  28.037  1.00  0.00     0.135 A 
ATOM     45  F   UNL A   1      40.970  29.178  31.436  1.00  0.00    -0.206 F 
ATOM     46  C   UNL A   1      38.822  29.730  30.665  1.00  0.00     0.059 A 
ATOM     47  C   UNL A   1      38.381  29.829  28.279  1.00  0.00     0.059 A 
ATOM     48  F   UNL A   1      40.098  29.344  26.760  1.00  0.00    -0.206 F 
ATOM     49  C   UNL A   1      37.948  29.949  29.597  1.00  0.00     0.060 A 
BRANCH  49  50
ATOM     50  S   UNL A   1      36.244  30.423  29.960  1.00  0.00     0.124 S 
ATOM     51  O   UNL A   1      36.273  31.858  29.692  1.00  0.00    -0.237 OA
ATOM     52  O   UNL A   1      35.489  29.615  29.008  1.00  0.00    -0.237 OA
ATOM     53  O   UNL A   1      36.079  30.051  31.363  1.00  0.00    -0.744 OA
ENDBRANCH  49  50
ENDBRANCH  28  42
BRANCH  29  54
ATOM     54  C   UNL A   1      50.090  26.546  26.714  1.00  0.00     0.058 A 
ATOM     55  C   UNL A   1      50.446  26.410  25.364  1.00  0.00     0.135 A 
ATOM     56  C   UNL A   1      51.077  26.257  27.673  1.00  0.00     0.135 A 
ATOM     57  F   UNL A   1      49.545  26.667  24.403  1.00  0.00    -0.206 F 
ATOM     58  C   UNL A   1      51.711  25.965  24.981  1.00  0.00     0.059 A 
ATOM     59  C   UNL A   1      52.357  25.845  27.316  1.00  0.00     0.059 A 
ATOM     60  F   UNL A   1      50.803  26.377  28.982  1.00  0.00    -0.206 F 
ATOM     61  C   UNL A   1      52.657  25.677  25.967  1.00  0.00     0.060 A 
BRANCH  61  62
ATOM     62  S   UNL A   1      54.283  25.073  25.463  1.00  0.00     0.124 S 
ATOM     63  O   UNL A   1      54.644  26.020  24.427  1.00  0.00    -0.237 OA
ATOM     64  O   UNL A   1      55.042  25.160  26.710  1.00  0.00    -0.237 OA
ATOM     65  O   UNL A   1      54.006  23.708  25.009  1.00  0.00    -0.744 OA
ENDBRANCH  61  62
ENDBRANCH  29  54
BRANCH  41  66
ATOM     66  C   UNL A   1      46.953  32.604  28.189  1.00  0.00     0.058 A 
ATOM     67  C   UNL A   1      47.661  33.083  29.301  1.00  0.00     0.135 A 
ATOM     68  C   UNL A   1      46.800  33.451  27.080  1.00  0.00     0.135 A 
ATOM     69  F   UNL A   1      47.823  32.309  30.385  1.00  0.00    -0.206 F 
ATOM     70  C   UNL A   1      48.188  34.366  29.319  1.00  0.00     0.059 A 
ATOM     71  C   UNL A   1      47.350  34.725  27.063  1.00  0.00     0.059 A 
ATOM     72  F   UNL A   1      46.143  33.028  25.990  1.00  0.00    -0.206 F 
ATOM     73  C   UNL A   1      48.033  35.178  28.192  1.00  0.00     0.060 A 
BRANCH  73  74
ATOM     74  S   UNL A   1      48.769  36.823  28.209  1.00  0.00     0.124 S 
ATOM     75  O   UNL A   1      47.609  37.660  28.491  1.00  0.00    -0.237 OA
ATOM     76  O   UNL A   1      49.749  36.713  29.285  1.00  0.00    -0.237 OA
ATOM     77  O   UNL A   1      49.332  36.957  26.868  1.00  0.00    -0.744 OA
ENDBRANCH  73  74
ENDBRANCH  41  66
ENDBRANCH  15  16
ENDBRANCH   8  10
ENDBRANCH   7   8
ENDBRANCH   6   7
ENDBRANCH   5   6
ENDBRANCH   4   5
ENDBRANCH   3   4
ENDBRANCH   2   3
ENDBRANCH   1   2
BRANCH   1  78
ATOM     78  C   UNL A   1      33.566  21.168  25.751  1.00  0.00     0.188 C 
BRANCH  78  79
ATOM     79  C   UNL A   1      32.039  21.182  25.532  1.00  0.00     0.188 C 
BRANCH  79  80
ATOM     80  O   UNL A   1      31.413  22.274  24.898  1.00  0.00    -0.376 OA
BRANCH  80  81
ATOM     81  C   UNL A   1      30.639  23.148  25.695  1.00  0.00     0.202 C 
BRANCH  81  82
ATOM     82  C   UNL A   1      31.321  24.127  26.661  1.00  0.00     0.261 C 
BRANCH  82  83
ATOM     83  O   UNL A   1      31.139  25.541  26.415  1.00  0.00    -0.463 OA
BRANCH  83  84
ATOM     84  C   UNL A   1      32.166  26.194  25.812  1.00  0.00     0.314 C 
ATOM     85  O   UNL A   1      33.183  26.556  26.401  1.00  0.00    -0.252 OA
BRANCH  84  86
ATOM     86  C   UNL A   1      31.966  26.508  24.311  1.00  0.00     0.097 C 
ATOM     87  C   UNL A   1      30.986  25.689  23.434  1.00  0.00     0.053 C 
ATOM     88  C   UNL A   1      33.325  26.092  23.656  1.00  0.00     0.136 C 
ATOM     89  C   UNL A   1      31.924  24.901  22.499  1.00  0.00     0.120 C 
ATOM     90  C   UNL A   1      33.556  26.603  22.237  1.00  0.00     0.036 C 
ATOM     91  O   UNL A   1      33.084  24.692  23.328  1.00  0.00    -0.374 OA
ATOM     92  C   UNL A   1      32.530  25.805  21.429  1.00  0.00     0.035 C 
BRANCH  86  93
ATOM     93  C   UNL A   1      31.623  28.015  24.249  1.00  0.00     0.026 C 
BRANCH  93  94
ATOM     94  C   UNL A   1      30.814  28.467  23.008  1.00  0.00     0.037 C 
BRANCH  94  95
ATOM     95  C   UNL A   1      29.652  29.410  23.215  1.00  0.00    -0.048 A 
ATOM     96  C   UNL A   1      29.870  30.707  23.711  1.00  0.00     0.004 A 
ATOM     97  C   UNL A   1      28.336  29.020  22.926  1.00  0.00     0.004 A 
ATOM     98  C   UNL A   1      28.804  31.593  23.895  1.00  0.00     0.000 A 
ATOM     99  C   UNL A   1      27.272  29.912  23.097  1.00  0.00     0.000 A 
ATOM    100  C   UNL A   1      27.504  31.196  23.585  1.00  0.00     0.000 A 
ENDBRANCH  94  95
ENDBRANCH  93  94
ENDBRANCH  86  93
ENDBRANCH  84  86
ENDBRANCH  83  84
ENDBRANCH  82  83
ENDBRANCH  81  82
ENDBRANCH  80  81
ENDBRANCH  79  80
ENDBRANCH  78  79
ENDBRANCH   1  78
TORSDOF 26
ENDMDL
MODEL 3
REMARK VINA RESULT:      -8.8      6.205     10.734
REMARK SMILES O=C(OCCOCCOCCOCCOC(=O)[C@]1(CCc2ccccc2)C[C@H]2CC[C@@H]1O2)c1ccc(-c2c3nc(c(-c4c(F)cc(S(=O)(=O)[O-])cc4F)c4ccc([nH]4)c(-c4c(F)cc(S(=O)(=O)[O-])cc4F)c4nc(c(-c5c(F)cc(S(=O)(=O)[O-])cc5F)c5ccc2[nH]5)C=C4)C=C3)cc1
REMARK SMILES IDX 9 1 8 2 7 3 6 4 5 5 4 6 3 7 2 8 1 9 33 10 34 11 98 12 35 13
REMARK SMILES IDX 97 14 36 15 37 16 38 17 91 18 39 19 96 20 90 21 92 22 40 23
REMARK SMILES IDX 95 24 89 25 88 26 41 28 75 29 54 30 74 31 55 32 58 33 73 34
REMARK SMILES IDX 93 35 56 36 57 37 72 39 94 40 59 41 42 42 43 43 52 44 44 45
REMARK SMILES IDX 45 46 51 47 53 48 46 49 47 50 48 51 49 52 50 53 76 54 77 55
REMARK SMILES IDX 86 56 78 57 79 58 85 59 87 60 80 61 81 62 82 63 83 64 84 65
REMARK SMILES IDX 60 66 61 67 70 68 62 69 63 70 69 71 71 72 64 73 65 74 66 75
REMARK SMILES IDX 67 76 68 77 10 78 11 79 12 80 13 81 14 82 15 83 16 84 17 85
REMARK SMILES IDX 18 86 27 87 31 88 28 89 30 90 32 91 29 92 19 93 20 94 21 95
REMARK SMILES IDX 22 96 26 97 23 98 25 99 24 100
REMARK H PARENT 92 27 58 38
REMARK Flexibility Score: inf
ROOT
ATOM      1  O   UNL A   1      34.742  22.055  25.964  1.00  0.00    -0.377 OA
ENDROOT
BRANCH   1   2
ATOM      2  C   UNL A   1      35.680  21.214  25.310  1.00  0.00     0.188 C 
BRANCH   2   3
ATOM      3  C   UNL A   1      36.874  21.919  24.684  1.00  0.00     0.188 C 
BRANCH   3   4
ATOM      4  O   UNL A   1      37.778  20.916  24.239  1.00  0.00    -0.376 OA
BRANCH   4   5
ATOM      5  C   UNL A   1      37.673  19.637  24.847  1.00  0.00     0.202 C 
BRANCH   5   6
ATOM      6  C   UNL A   1      38.948  19.207  25.547  1.00  0.00     0.261 C 
BRANCH   6   7
ATOM      7  O   UNL A   1      39.797  20.297  25.937  1.00  0.00    -0.460 OA
BRANCH   7   8
ATOM      8  C   UNL A   1      41.072  20.301  26.392  1.00  0.00     0.338 C 
ATOM      9  O   UNL A   1      41.626  19.206  26.513  1.00  0.00    -0.246 OA
BRANCH   8  10
ATOM     10  C   UNL A   1      41.881  21.511  26.751  1.00  0.00     0.060 A 
ATOM     11  C   UNL A   1      42.442  21.799  27.996  1.00  0.00     0.016 A 
ATOM     12  C   UNL A   1      42.180  22.387  25.691  1.00  0.00     0.016 A 
ATOM     13  C   UNL A   1      43.281  22.883  28.194  1.00  0.00     0.010 A 
ATOM     14  C   UNL A   1      42.994  23.507  25.882  1.00  0.00     0.010 A 
ATOM     15  C   UNL A   1      43.534  23.757  27.146  1.00  0.00    -0.014 A 
BRANCH  15  16
ATOM     16  C   UNL A   1      44.166  25.035  27.491  1.00  0.00     0.031 A 
ATOM     17  C   UNL A   1      43.281  26.084  28.088  1.00  0.00     0.074 A 
ATOM     18  C   UNL A   1      45.502  25.166  27.428  1.00  0.00     0.049 A 
ATOM     19  N   UNL A   1      43.551  27.322  28.386  1.00  0.00    -0.248 NA
ATOM     20  C   UNL A   1      41.899  25.674  28.413  1.00  0.00     0.031 C 
ATOM     21  C   UNL A   1      46.437  24.105  27.040  1.00  0.00     0.029 A 
ATOM     22  N   UNL A   1      46.308  26.233  27.713  1.00  0.00    -0.354 N 
ATOM     23  C   UNL A   1      42.366  27.849  28.883  1.00  0.00     0.074 A 
ATOM     24  C   UNL A   1      41.378  26.799  28.873  1.00  0.00     0.031 C 
ATOM     25  C   UNL A   1      47.691  24.583  27.099  1.00  0.00     0.029 A 
ATOM     26  C   UNL A   1      47.637  25.998  27.448  1.00  0.00     0.049 A 
ATOM     27  H   UNL A   1      45.971  27.085  28.072  1.00  0.00     0.167 HD
ATOM     28  C   UNL A   1      42.138  29.116  29.286  1.00  0.00     0.037 A 
ATOM     29  C   UNL A   1      48.668  26.862  27.430  1.00  0.00     0.037 A 
ATOM     30  C   UNL A   1      43.168  30.118  29.289  1.00  0.00     0.049 A 
ATOM     31  C   UNL A   1      48.362  28.300  27.768  1.00  0.00     0.074 A 
ATOM     32  C   UNL A   1      43.073  31.455  29.616  1.00  0.00     0.029 A 
ATOM     33  N   UNL A   1      44.490  29.875  28.939  1.00  0.00    -0.354 N 
ATOM     34  N   UNL A   1      47.223  28.828  28.162  1.00  0.00    -0.248 NA
ATOM     35  C   UNL A   1      49.459  29.264  27.640  1.00  0.00     0.031 C 
ATOM     36  C   UNL A   1      44.328  32.034  29.406  1.00  0.00     0.029 A 
ATOM     37  C   UNL A   1      45.219  31.045  29.008  1.00  0.00     0.049 A 
ATOM     38  H   UNL A   1      44.855  28.998  28.681  1.00  0.00     0.167 HD
ATOM     39  C   UNL A   1      47.470  30.182  28.340  1.00  0.00     0.074 A 
ATOM     40  C   UNL A   1      48.875  30.385  28.037  1.00  0.00     0.031 C 
ATOM     41  C   UNL A   1      46.624  31.177  28.707  1.00  0.00     0.037 A 
BRANCH  28  42
ATOM     42  C   UNL A   1      40.733  29.496  29.647  1.00  0.00     0.058 A 
ATOM     43  C   UNL A   1      40.316  29.677  30.974  1.00  0.00     0.135 A 
ATOM     44  C   UNL A   1      39.785  29.690  28.629  1.00  0.00     0.135 A 
ATOM     45  F   UNL A   1      41.168  29.456  31.987  1.00  0.00    -0.206 F 
ATOM     46  C   UNL A   1      39.008  30.045  31.278  1.00  0.00     0.059 A 
ATOM     47  C   UNL A   1      38.481  30.079  28.908  1.00  0.00     0.059 A 
ATOM     48  F   UNL A   1      40.125  29.497  27.344  1.00  0.00    -0.206 F 
ATOM     49  C   UNL A   1      38.101  30.255  30.236  1.00  0.00     0.060 A 
BRANCH  49  50
ATOM     50  S   UNL A   1      36.425  30.788  30.645  1.00  0.00     0.124 S 
ATOM     51  O   UNL A   1      36.531  32.236  30.495  1.00  0.00    -0.237 OA
ATOM     52  O   UNL A   1      35.627  30.102  29.636  1.00  0.00    -0.237 OA
ATOM     53  O   UNL A   1      36.242  30.312  32.015  1.00  0.00    -0.744 OA
ENDBRANCH  49  50
ENDBRANCH  28  42
BRANCH  29  54
ATOM     54  C   UNL A   1      50.022  26.438  26.976  1.00  0.00     0.058 A 
ATOM     55  C   UNL A   1      51.047  26.143  27.887  1.00  0.00     0.135 A 
ATOM     56  C   UNL A   1      50.338  26.366  25.607  1.00  0.00     0.135 A 
ATOM     57  F   UNL A   1      50.807  26.200  29.207  1.00  0.00    -0.206 F 
ATOM     58  C   UNL A   1      52.338  25.836  27.463  1.00  0.00     0.059 A 
ATOM     59  C   UNL A   1      51.609  26.027  25.158  1.00  0.00     0.059 A 
ATOM     60  F   UNL A   1      49.399  26.627  24.683  1.00  0.00    -0.206 F 
ATOM     61  C   UNL A   1      52.612  25.788  26.095  1.00  0.00     0.060 A 
BRANCH  61  62
ATOM     62  S   UNL A   1      54.295  25.417  25.555  1.00  0.00     0.124 S 
ATOM     63  O   UNL A   1      54.815  26.741  25.275  1.00  0.00    -0.237 OA
ATOM     64  O   UNL A   1      54.850  24.739  26.726  1.00  0.00    -0.237 OA
ATOM     65  O   UNL A   1      54.089  24.555  24.388  1.00  0.00    -0.744 OA
ENDBRANCH  61  62
ENDBRANCH  29  54
BRANCH  41  66
ATOM     66  C   UNL A   1      47.207  32.552  28.826  1.00  0.00     0.058 A 
ATOM     67  C   UNL A   1      47.806  32.991  30.015  1.00  0.00     0.135 A 
ATOM     68  C   UNL A   1      47.234  33.403  27.710  1.00  0.00     0.135 A 
ATOM     69  F   UNL A   1      47.796  32.212  31.107  1.00  0.00    -0.206 F 
ATOM     70  C   UNL A   1      48.399  34.243  30.100  1.00  0.00     0.059 A 
ATOM     71  C   UNL A   1      47.853  34.645  27.764  1.00  0.00     0.059 A 
ATOM     72  F   UNL A   1      46.686  33.016  26.548  1.00  0.00    -0.206 F 
ATOM     73  C   UNL A   1      48.423  35.060  28.967  1.00  0.00     0.060 A 
BRANCH  73  74
ATOM     74  S   UNL A   1      49.244  36.660  29.078  1.00  0.00     0.124 S 
ATOM     75  O   UNL A   1      50.044  36.665  27.859  1.00  0.00    -0.237 OA
ATOM     76  O   UNL A   1      48.117  37.587  29.102  1.00  0.00    -0.237 OA
ATOM     77  O   UNL A   1      49.999  36.569  30.325  1.00  0.00    -0.744 OA
ENDBRANCH  73  74
ENDBRANCH  41  66
ENDBRANCH  15  16
ENDBRANCH   8  10
ENDBRANCH   7   8
ENDBRANCH   6   7
ENDBRANCH   5   6
ENDBRANCH   4   5
ENDBRANCH   3   4
ENDBRANCH   2   3
ENDBRANCH   1   2
BRANCH   1  78
ATOM     78  C   UNL A   1      33.522  21.474  26.400  1.00  0.00     0.188 C 
BRANCH  78  79
ATOM     79  C   UNL A   1      32.137  22.088  26.106  1.00  0.00     0.188 C 
BRANCH  79  80
ATOM     80  O   UNL A   1      31.998  23.472  25.876  1.00  0.00    -0.376 OA
BRANCH  80  81
ATOM     81  C   UNL A   1      30.911  24.138  26.489  1.00  0.00     0.202 C 
BRANCH  81  82
ATOM     82  C   UNL A   1      30.260  25.350  25.809  1.00  0.00     0.261 C 
BRANCH  82  83
ATOM     83  O   UNL A   1      30.902  25.873  24.621  1.00  0.00    -0.463 OA
BRANCH  83  84
ATOM     84  C   UNL A   1      30.849  27.217  24.440  1.00  0.00     0.314 C 
ATOM     85  O   UNL A   1      29.913  27.794  23.888  1.00  0.00    -0.252 OA
BRANCH  84  86
ATOM     86  C   UNL A   1      32.082  28.006  24.938  1.00  0.00     0.097 C 
ATOM     87  C   UNL A   1      33.085  27.393  25.947  1.00  0.00     0.053 C 
ATOM     88  C   UNL A   1      31.469  29.140  25.826  1.00  0.00     0.136 C 
ATOM     89  C   UNL A   1      32.834  28.203  27.233  1.00  0.00     0.120 C 
ATOM     90  C   UNL A   1      32.415  30.286  26.176  1.00  0.00     0.036 C 
ATOM     91  O   UNL A   1      31.428  28.506  27.137  1.00  0.00    -0.374 OA
ATOM     92  C   UNL A   1      33.410  29.611  27.124  1.00  0.00     0.035 C 
BRANCH  86  93
ATOM     93  C   UNL A   1      32.813  28.475  23.659  1.00  0.00     0.026 C 
BRANCH  93  94
ATOM     94  C   UNL A   1      34.011  27.599  23.212  1.00  0.00     0.037 C 
BRANCH  94  95
ATOM     95  C   UNL A   1      33.734  26.189  22.748  1.00  0.00    -0.048 A 
ATOM     96  C   UNL A   1      32.966  25.960  21.593  1.00  0.00     0.004 A 
ATOM     97  C   UNL A   1      34.225  25.080  23.452  1.00  0.00     0.004 A 
ATOM     98  C   UNL A   1      32.713  24.658  21.146  1.00  0.00     0.000 A 
ATOM     99  C   UNL A   1      33.983  23.780  22.997  1.00  0.00     0.000 A 
ATOM    100  C   UNL A   1      33.224  23.568  21.848  1.00  0.00     0.000 A 
ENDBRANCH  94  95
ENDBRANCH  93  94
ENDBRANCH  86  93
ENDBRANCH  84  86
ENDBRANCH  83  84
ENDBRANCH  82  83
ENDBRANCH  81  82
ENDBRANCH  80  81
ENDBRANCH  79  80
ENDBRANCH  78  79
ENDBRANCH   1  78
TORSDOF 26
ENDMDL
