MODEL 1
REMARK VINA RESULT:      -9.6      0.000      0.000
REMARK SMILES NS(=O)(=O)c1ccc(-n2nc(C(F)(F)F)cc2-c2ccc(C(=O)OCCOCCOCCOCCOC(=O)c3ccc(-c4c5nc(c(-c6c(F)cc(S(=O)(=O)[O-])cc6F)c6ccc([nH]6)c(-c6c(F)cc(S(=O)(=O)[O-])cc6F)c6nc(c(-c7c(F)cc(S(=O)(=O)[O-])cc7F)c7ccc4[nH]7)C=C6)C=C5)cc3)cc2)cc1
REMARK SMILES IDX 29 1 28 2 27 3 26 4 25 5 24 6 22 7 23 8 21 9 18 10 19 11
REMARK SMILES IDX 106 12 20 13 105 14 17 15 9 16 10 17 11 18 16 19 8 20 5 21
REMARK SMILES IDX 6 22 108 23 7 24 107 25 2 26 3 27 4 28 1 29 12 32 13 33
REMARK SMILES IDX 14 34 15 35 30 36 31 37 32 38 33 39 34 40 35 41 36 42 37 43
REMARK SMILES IDX 38 44 39 45 40 46 104 47 41 48 103 49 42 50 43 51 44 52
REMARK SMILES IDX 97 53 45 54 102 55 96 56 98 57 46 58 101 59 95 60 94 61
REMARK SMILES IDX 47 63 81 64 60 65 80 66 61 67 64 68 79 69 99 70 62 71 63 72
REMARK SMILES IDX 78 74 100 75 65 76 48 77 49 78 58 79 50 80 51 81 57 82 59 83
REMARK SMILES IDX 52 84 53 85 54 86 55 87 56 88 82 89 83 90 92 91 84 92 85 93
REMARK SMILES IDX 91 94 93 95 86 96 87 97 88 98 89 99 90 100 66 101 67 102
REMARK SMILES IDX 76 103 68 104 69 105 75 106 77 107 70 108 71 109 72 110
REMARK SMILES IDX 73 111 74 112
REMARK H PARENT 1 30 1 31 98 62 64 73
REMARK Flexibility Score: inf
ROOT
ATOM      1  C   UNL A   1      34.354  35.294  32.041  1.00  0.00     0.188 C 
ENDROOT
BRANCH   1   2
ATOM      2  C   UNL A   1      34.325  34.452  30.747  1.00  0.00     0.188 C 
BRANCH   2   3
ATOM      3  O   UNL A   1      33.852  34.956  29.503  1.00  0.00    -0.376 OA
BRANCH   3   4
ATOM      4  C   UNL A   1      33.913  34.194  28.310  1.00  0.00     0.202 C 
BRANCH   4   5
ATOM      5  C   UNL A   1      33.103  32.896  28.163  1.00  0.00     0.261 C 
BRANCH   5   6
ATOM      6  O   UNL A   1      33.564  31.979  27.170  1.00  0.00    -0.460 OA
BRANCH   6   7
ATOM      7  C   UNL A   1      34.383  31.005  27.622  1.00  0.00     0.338 C 
ATOM      8  O   UNL A   1      35.368  31.133  28.328  1.00  0.00    -0.246 OA
BRANCH   7   9
ATOM      9  C   UNL A   1      33.808  29.695  27.244  1.00  0.00     0.060 A 
ATOM     10  C   UNL A   1      32.783  27.236  26.393  1.00  0.00     0.000 A 
ATOM     11  C   UNL A   1      34.118  27.575  26.128  1.00  0.00     0.011 A 
ATOM     12  C   UNL A   1      31.986  28.108  27.146  1.00  0.00     0.011 A 
ATOM     13  C   UNL A   1      34.623  28.806  26.538  1.00  0.00     0.016 A 
ATOM     14  C   UNL A   1      32.500  29.332  27.584  1.00  0.00     0.016 A 
BRANCH  10  15
ATOM     15  C   UNL A   1      32.194  26.089  25.704  1.00  0.00     0.075 A 
ATOM     16  N   UNL A   1      31.007  26.070  24.984  1.00  0.00    -0.233 N 
ATOM     17  N   UNL A   1      30.471  24.819  24.947  1.00  0.00    -0.163 NA
ATOM     18  C   UNL A   1      31.433  24.011  25.432  1.00  0.00     0.167 A 
ATOM     19  C   UNL A   1      32.537  24.765  25.892  1.00  0.00     0.064 A 
BRANCH  16  20
ATOM     20  C   UNL A   1      30.346  27.154  24.345  1.00  0.00     0.065 A 
ATOM     21  C   UNL A   1      29.069  29.283  23.072  1.00  0.00     0.082 A 
ATOM     22  C   UNL A   1      28.385  28.078  23.262  1.00  0.00     0.024 A 
ATOM     23  C   UNL A   1      30.382  29.438  23.528  1.00  0.00     0.024 A 
ATOM     24  C   UNL A   1      29.028  27.009  23.890  1.00  0.00     0.030 A 
ATOM     25  C   UNL A   1      31.012  28.380  24.192  1.00  0.00     0.030 A 
BRANCH  21  26
ATOM     26  S   UNL A   1      28.269  30.586  22.179  1.00  0.00     0.238 S 
ATOM     27  O   UNL A   1      27.228  31.136  23.013  1.00  0.00    -0.207 OA
ATOM     28  O   UNL A   1      28.026  30.150  20.822  1.00  0.00    -0.207 OA
BRANCH  26  29
ATOM     29  N   UNL A   1      29.475  31.745  22.083  1.00  0.00    -0.225 NA
ATOM     30  H   UNL A   1      29.859  31.914  23.013  1.00  0.00     0.137 HD
ATOM     31  H   UNL A   1      29.085  32.613  21.715  1.00  0.00     0.137 HD
ENDBRANCH  26  29
ENDBRANCH  21  26
ENDBRANCH  16  20
BRANCH  18  32
ATOM     32  C   UNL A   1      31.292  22.518  25.535  1.00  0.00     0.435 C 
ATOM     33  F   UNL A   1      31.418  21.885  24.339  1.00  0.00    -0.164 F 
ATOM     34  F   UNL A   1      32.207  21.970  26.378  1.00  0.00    -0.164 F 
ATOM     35  F   UNL A   1      30.068  22.166  26.023  1.00  0.00    -0.164 F 
ENDBRANCH  18  32
ENDBRANCH  10  15
ENDBRANCH   7   9
ENDBRANCH   6   7
ENDBRANCH   5   6
ENDBRANCH   4   5
ENDBRANCH   3   4
ENDBRANCH   2   3
ENDBRANCH   1   2
BRANCH   1  36
ATOM     36  O   UNL A   1      34.468  34.544  33.242  1.00  0.00    -0.377 OA
BRANCH  36  37
ATOM     37  C   UNL A   1      35.074  33.263  33.083  1.00  0.00     0.188 C 
BRANCH  37  38
ATOM     38  C   UNL A   1      36.505  33.118  33.639  1.00  0.00     0.188 C 
BRANCH  38  39
ATOM     39  O   UNL A   1      36.546  32.638  34.983  1.00  0.00    -0.376 OA
BRANCH  39  40
ATOM     40  C   UNL A   1      37.815  32.522  35.611  1.00  0.00     0.202 C 
BRANCH  40  41
ATOM     41  C   UNL A   1      38.283  31.073  35.727  1.00  0.00     0.261 C 
BRANCH  41  42
ATOM     42  O   UNL A   1      39.602  30.941  36.243  1.00  0.00    -0.460 OA
BRANCH  42  43
ATOM     43  C   UNL A   1      40.330  29.923  35.742  1.00  0.00     0.338 C 
ATOM     44  O   UNL A   1      40.544  28.842  36.259  1.00  0.00    -0.246 OA
BRANCH  43  45
ATOM     45  C   UNL A   1      40.924  30.352  34.474  1.00  0.00     0.060 A 
ATOM     46  C   UNL A   1      40.545  29.628  33.343  1.00  0.00     0.016 A 
ATOM     47  C   UNL A   1      42.020  31.230  34.474  1.00  0.00     0.016 A 
ATOM     48  C   UNL A   1      41.421  29.583  32.286  1.00  0.00     0.010 A 
ATOM     49  C   UNL A   1      42.899  31.176  33.421  1.00  0.00     0.010 A 
ATOM     50  C   UNL A   1      42.632  30.272  32.397  1.00  0.00    -0.014 A 
BRANCH  50  51
ATOM     51  C   UNL A   1      43.658  29.948  31.435  1.00  0.00     0.031 A 
ATOM     52  C   UNL A   1      43.720  30.861  30.285  1.00  0.00     0.074 A 
ATOM     53  C   UNL A   1      44.510  28.928  31.644  1.00  0.00     0.049 A 
ATOM     54  N   UNL A   1      43.450  30.603  29.051  1.00  0.00    -0.248 NA
ATOM     55  C   UNL A   1      43.986  32.279  30.571  1.00  0.00     0.031 C 
ATOM     56  C   UNL A   1      44.709  28.193  32.900  1.00  0.00     0.029 A 
ATOM     57  N   UNL A   1      45.462  28.413  30.821  1.00  0.00    -0.354 N 
ATOM     58  C   UNL A   1      43.753  31.774  28.369  1.00  0.00     0.074 A 
ATOM     59  C   UNL A   1      43.874  32.813  29.356  1.00  0.00     0.031 C 
ATOM     60  C   UNL A   1      45.859  27.491  32.819  1.00  0.00     0.029 A 
ATOM     61  C   UNL A   1      46.397  27.625  31.475  1.00  0.00     0.049 A 
ATOM     62  H   UNL A   1      45.485  28.583  29.852  1.00  0.00     0.167 HD
ATOM     63  C   UNL A   1      44.183  31.741  27.082  1.00  0.00     0.037 A 
ATOM     64  C   UNL A   1      47.578  27.195  30.972  1.00  0.00     0.037 A 
ATOM     65  C   UNL A   1      43.904  30.477  26.454  1.00  0.00     0.049 A 
ATOM     66  C   UNL A   1      47.487  27.235  29.490  1.00  0.00     0.074 A 
ATOM     67  C   UNL A   1      42.770  29.808  26.048  1.00  0.00     0.029 A 
ATOM     68  N   UNL A   1      44.928  29.564  26.482  1.00  0.00    -0.354 N 
ATOM     69  N   UNL A   1      46.680  26.489  28.783  1.00  0.00    -0.248 NA
ATOM     70  C   UNL A   1      48.079  28.357  28.769  1.00  0.00     0.031 C 
ATOM     71  C   UNL A   1      43.098  28.423  26.079  1.00  0.00     0.029 A 
ATOM     72  C   UNL A   1      44.421  28.290  26.502  1.00  0.00     0.049 A 
ATOM     73  H   UNL A   1      45.886  29.791  26.488  1.00  0.00     0.167 HD
ATOM     74  C   UNL A   1      46.354  27.265  27.685  1.00  0.00     0.074 A 
ATOM     75  C   UNL A   1      47.361  28.314  27.645  1.00  0.00     0.031 C 
ATOM     76  C   UNL A   1      45.129  27.171  27.093  1.00  0.00     0.037 A 
BRANCH  63  77
ATOM     77  C   UNL A   1      45.234  32.677  26.542  1.00  0.00     0.058 A 
ATOM     78  C   UNL A   1      46.515  32.682  27.126  1.00  0.00     0.135 A 
ATOM     79  C   UNL A   1      44.942  33.763  25.686  1.00  0.00     0.135 A 
ATOM     80  F   UNL A   1      46.882  31.705  27.971  1.00  0.00    -0.206 F 
ATOM     81  C   UNL A   1      47.419  33.725  26.920  1.00  0.00     0.059 A 
ATOM     82  C   UNL A   1      45.848  34.778  25.419  1.00  0.00     0.059 A 
ATOM     83  F   UNL A   1      43.727  33.951  25.155  1.00  0.00    -0.206 F 
ATOM     84  C   UNL A   1      47.066  34.776  26.079  1.00  0.00     0.060 A 
BRANCH  84  85
ATOM     85  S   UNL A   1      48.169  36.188  25.905  1.00  0.00     0.124 S 
ATOM     86  O   UNL A   1      48.855  36.174  27.192  1.00  0.00    -0.237 OA
ATOM     87  O   UNL A   1      48.970  35.810  24.745  1.00  0.00    -0.237 OA
ATOM     88  O   UNL A   1      47.251  37.302  25.687  1.00  0.00    -0.744 OA
ENDBRANCH  84  85
ENDBRANCH  63  77
BRANCH  64  89
ATOM     89  C   UNL A   1      48.859  27.048  31.707  1.00  0.00     0.058 A 
ATOM     90  C   UNL A   1      49.692  25.937  31.504  1.00  0.00     0.135 A 
ATOM     91  C   UNL A   1      49.415  28.120  32.438  1.00  0.00     0.135 A 
ATOM     92  F   UNL A   1      49.251  24.885  30.797  1.00  0.00    -0.206 F 
ATOM     93  C   UNL A   1      51.012  25.904  31.961  1.00  0.00     0.059 A 
ATOM     94  C   UNL A   1      50.720  28.103  32.921  1.00  0.00     0.059 A 
ATOM     95  F   UNL A   1      48.735  29.261  32.629  1.00  0.00    -0.206 F 
ATOM     96  C   UNL A   1      51.523  27.002  32.656  1.00  0.00     0.060 A 
BRANCH  96  97
ATOM     97  S   UNL A   1      53.272  27.034  33.107  1.00  0.00     0.124 S 
ATOM     98  O   UNL A   1      53.205  27.202  34.554  1.00  0.00    -0.237 OA
ATOM     99  O   UNL A   1      53.733  25.733  32.634  1.00  0.00    -0.237 OA
ATOM    100  O   UNL A   1      53.790  28.183  32.368  1.00  0.00    -0.744 OA
ENDBRANCH  96  97
ENDBRANCH  64  89
BRANCH  76 101
ATOM    101  C   UNL A   1      44.375  25.882  27.247  1.00  0.00     0.058 A 
ATOM    102  C   UNL A   1      43.456  25.611  28.271  1.00  0.00     0.135 A 
ATOM    103  C   UNL A   1      44.502  24.928  26.222  1.00  0.00     0.135 A 
ATOM    104  F   UNL A   1      43.220  26.511  29.238  1.00  0.00    -0.206 F 
ATOM    105  C   UNL A   1      42.712  24.430  28.290  1.00  0.00     0.059 A 
ATOM    106  C   UNL A   1      43.748  23.759  26.205  1.00  0.00     0.059 A 
ATOM    107  F   UNL A   1      45.329  25.157  25.189  1.00  0.00    -0.206 F 
ATOM    108  C   UNL A   1      42.860  23.513  27.249  1.00  0.00     0.060 A 
BRANCH 108 109
ATOM    109  S   UNL A   1      41.817  22.038  27.214  1.00  0.00     0.124 S 
ATOM    110  O   UNL A   1      41.447  21.891  28.617  1.00  0.00    -0.237 OA
ATOM    111  O   UNL A   1      40.740  22.431  26.310  1.00  0.00    -0.237 OA
ATOM    112  O   UNL A   1      42.707  21.004  26.691  1.00  0.00    -0.744 OA
ENDBRANCH 108 109
ENDBRANCH  76 101
ENDBRANCH  50  51
ENDBRANCH  43  45
ENDBRANCH  42  43
ENDBRANCH  41  42
ENDBRANCH  40  41
ENDBRANCH  39  40
ENDBRANCH  38  39
ENDBRANCH  37  38
ENDBRANCH  36  37
ENDBRANCH   1  36
TORSDOF 28
ENDMDL
MODEL 2
REMARK VINA RESULT:      -9.2      4.945     11.002
REMARK SMILES NS(=O)(=O)c1ccc(-n2nc(C(F)(F)F)cc2-c2ccc(C(=O)OCCOCCOCCOCCOC(=O)c3ccc(-c4c5nc(c(-c6c(F)cc(S(=O)(=O)[O-])cc6F)c6ccc([nH]6)c(-c6c(F)cc(S(=O)(=O)[O-])cc6F)c6nc(c(-c7c(F)cc(S(=O)(=O)[O-])cc7F)c7ccc4[nH]7)C=C6)C=C5)cc3)cc2)cc1
REMARK SMILES IDX 29 1 28 2 27 3 26 4 25 5 24 6 22 7 23 8 21 9 18 10 19 11
REMARK SMILES IDX 106 12 20 13 105 14 17 15 9 16 10 17 11 18 16 19 8 20 5 21
REMARK SMILES IDX 6 22 108 23 7 24 107 25 2 26 3 27 4 28 1 29 12 32 13 33
REMARK SMILES IDX 14 34 15 35 30 36 31 37 32 38 33 39 34 40 35 41 36 42 37 43
REMARK SMILES IDX 38 44 39 45 40 46 104 47 41 48 103 49 42 50 43 51 44 52
REMARK SMILES IDX 97 53 45 54 102 55 96 56 98 57 46 58 101 59 95 60 94 61
REMARK SMILES IDX 47 63 81 64 60 65 80 66 61 67 64 68 79 69 99 70 62 71 63 72
REMARK SMILES IDX 78 74 100 75 65 76 48 77 49 78 58 79 50 80 51 81 57 82 59 83
REMARK SMILES IDX 52 84 53 85 54 86 55 87 56 88 82 89 83 90 92 91 84 92 85 93
REMARK SMILES IDX 91 94 93 95 86 96 87 97 88 98 89 99 90 100 66 101 67 102
REMARK SMILES IDX 76 103 68 104 69 105 75 106 77 107 70 108 71 109 72 110
REMARK SMILES IDX 73 111 74 112
REMARK H PARENT 1 30 1 31 98 62 64 73
REMARK Flexibility Score: inf
ROOT
ATOM      1  C   UNL A   1      32.935  32.272  27.962  1.00  0.00     0.188 C 
ENDROOT
BRANCH   1   2
ATOM      2  C   UNL A   1      33.066  33.805  27.832  1.00  0.00     0.188 C 
BRANCH   2   3
ATOM      3  O   UNL A   1      34.226  34.523  28.240  1.00  0.00    -0.376 OA
BRANCH   3   4
ATOM      4  C   UNL A   1      35.451  33.872  28.527  1.00  0.00     0.202 C 
BRANCH   4   5
ATOM      5  C   UNL A   1      35.917  33.677  29.978  1.00  0.00     0.261 C 
BRANCH   5   6
ATOM      6  O   UNL A   1      35.355  34.568  30.942  1.00  0.00    -0.460 OA
BRANCH   6   7
ATOM      7  C   UNL A   1      34.801  33.974  32.021  1.00  0.00     0.338 C 
ATOM      8  O   UNL A   1      33.623  33.725  32.206  1.00  0.00    -0.246 OA
BRANCH   7   9
ATOM      9  C   UNL A   1      35.888  33.520  32.917  1.00  0.00     0.060 A 
ATOM     10  C   UNL A   1      38.031  32.763  34.546  1.00  0.00     0.000 A 
ATOM     11  C   UNL A   1      37.730  34.120  34.358  1.00  0.00     0.011 A 
ATOM     12  C   UNL A   1      37.209  31.787  33.968  1.00  0.00     0.011 A 
ATOM     13  C   UNL A   1      36.673  34.497  33.534  1.00  0.00     0.016 A 
ATOM     14  C   UNL A   1      36.128  32.163  33.164  1.00  0.00     0.016 A 
BRANCH  10  15
ATOM     15  C   UNL A   1      39.306  32.399  35.161  1.00  0.00     0.075 A 
ATOM     16  N   UNL A   1      39.677  32.592  36.485  1.00  0.00    -0.233 N 
ATOM     17  N   UNL A   1      41.030  32.671  36.614  1.00  0.00    -0.163 NA
ATOM     18  C   UNL A   1      41.518  32.289  35.418  1.00  0.00     0.167 A 
ATOM     19  C   UNL A   1      40.471  32.085  34.491  1.00  0.00     0.064 A 
BRANCH  16  20
ATOM     20  C   UNL A   1      38.838  32.719  37.626  1.00  0.00     0.065 A 
ATOM     21  C   UNL A   1      37.199  32.944  39.872  1.00  0.00     0.082 A 
ATOM     22  C   UNL A   1      38.220  33.876  39.663  1.00  0.00     0.024 A 
ATOM     23  C   UNL A   1      36.979  31.909  38.958  1.00  0.00     0.024 A 
ATOM     24  C   UNL A   1      39.048  33.758  38.544  1.00  0.00     0.030 A 
ATOM     25  C   UNL A   1      37.783  31.814  37.816  1.00  0.00     0.030 A 
BRANCH  21  26
ATOM     26  S   UNL A   1      36.233  33.053  41.352  1.00  0.00     0.238 S 
ATOM     27  O   UNL A   1      34.921  32.521  41.079  1.00  0.00    -0.207 OA
ATOM     28  O   UNL A   1      36.433  34.355  41.951  1.00  0.00    -0.207 OA
BRANCH  26  29
ATOM     29  N   UNL A   1      36.999  31.957  42.360  1.00  0.00    -0.225 NA
ATOM     30  H   UNL A   1      37.692  32.444  42.929  1.00  0.00     0.137 HD
ATOM     31  H   UNL A   1      37.463  31.243  41.798  1.00  0.00     0.137 HD
ENDBRANCH  26  29
ENDBRANCH  21  26
ENDBRANCH  16  20
BRANCH  18  32
ATOM     32  C   UNL A   1      42.987  32.182  35.114  1.00  0.00     0.435 C 
ATOM     33  F   UNL A   1      43.519  30.982  35.464  1.00  0.00    -0.164 F 
ATOM     34  F   UNL A   1      43.256  32.372  33.796  1.00  0.00    -0.164 F 
ATOM     35  F   UNL A   1      43.705  33.127  35.788  1.00  0.00    -0.164 F 
ENDBRANCH  18  32
ENDBRANCH  10  15
ENDBRANCH   7   9
ENDBRANCH   6   7
ENDBRANCH   5   6
ENDBRANCH   4   5
ENDBRANCH   3   4
ENDBRANCH   2   3
ENDBRANCH   1   2
BRANCH   1  36
ATOM     36  O   UNL A   1      32.252  31.636  26.891  1.00  0.00    -0.377 OA
BRANCH  36  37
ATOM     37  C   UNL A   1      32.307  30.211  26.918  1.00  0.00     0.188 C 
BRANCH  37  38
ATOM     38  C   UNL A   1      33.344  29.557  25.981  1.00  0.00     0.188 C 
BRANCH  38  39
ATOM     39  O   UNL A   1      34.690  29.705  26.434  1.00  0.00    -0.376 OA
BRANCH  39  40
ATOM     40  C   UNL A   1      35.010  29.240  27.737  1.00  0.00     0.202 C 
BRANCH  40  41
ATOM     41  C   UNL A   1      36.500  29.344  28.049  1.00  0.00     0.261 C 
BRANCH  41  42
ATOM     42  O   UNL A   1      36.812  30.342  29.013  1.00  0.00    -0.460 OA
BRANCH  42  43
ATOM     43  C   UNL A   1      36.613  29.999  30.302  1.00  0.00     0.338 C 
ATOM     44  O   UNL A   1      35.552  29.931  30.894  1.00  0.00    -0.246 OA
BRANCH  43  45
ATOM     45  C   UNL A   1      37.916  29.794  30.937  1.00  0.00     0.060 A 
ATOM     46  C   UNL A   1      38.893  30.751  30.658  1.00  0.00     0.016 A 
ATOM     47  C   UNL A   1      38.221  28.558  31.530  1.00  0.00     0.016 A 
ATOM     48  C   UNL A   1      40.209  30.366  30.731  1.00  0.00     0.010 A 
ATOM     49  C   UNL A   1      39.537  28.172  31.593  1.00  0.00     0.010 A 
ATOM     50  C   UNL A   1      40.496  29.047  31.092  1.00  0.00    -0.014 A 
BRANCH  50  51
ATOM     51  C   UNL A   1      41.840  28.580  30.846  1.00  0.00     0.031 A 
ATOM     52  C   UNL A   1      42.695  28.540  32.040  1.00  0.00     0.074 A 
ATOM     53  C   UNL A   1      42.218  28.163  29.624  1.00  0.00     0.049 A 
ATOM     54  N   UNL A   1      43.733  29.260  32.299  1.00  0.00    -0.248 NA
ATOM     55  C   UNL A   1      42.255  27.678  33.148  1.00  0.00     0.031 C 
ATOM     56  C   UNL A   1      41.339  27.875  28.483  1.00  0.00     0.029 A 
ATOM     57  N   UNL A   1      43.447  27.790  29.178  1.00  0.00    -0.354 N 
ATOM     58  C   UNL A   1      44.218  28.765  33.501  1.00  0.00     0.074 A 
ATOM     59  C   UNL A   1      43.176  27.953  34.070  1.00  0.00     0.031 C 
ATOM     60  C   UNL A   1      42.031  27.168  27.564  1.00  0.00     0.029 A 
ATOM     61  C   UNL A   1      43.417  27.072  27.993  1.00  0.00     0.049 A 
ATOM     62  H   UNL A   1      44.281  28.009  29.654  1.00  0.00     0.167 HD
ATOM     63  C   UNL A   1      45.544  28.808  33.789  1.00  0.00     0.037 A 
ATOM     64  C   UNL A   1      44.439  26.367  27.454  1.00  0.00     0.037 A 
ATOM     65  C   UNL A   1      46.249  29.730  32.939  1.00  0.00     0.049 A 
ATOM     66  C   UNL A   1      45.708  26.896  28.016  1.00  0.00     0.074 A 
ATOM     67  C   UNL A   1      46.281  31.098  32.784  1.00  0.00     0.029 A 
ATOM     68  N   UNL A   1      46.836  29.179  31.828  1.00  0.00    -0.354 N 
ATOM     69  N   UNL A   1      46.158  28.105  27.803  1.00  0.00    -0.248 NA
ATOM     70  C   UNL A   1      46.357  26.180  29.109  1.00  0.00     0.031 C 
ATOM     71  C   UNL A   1      46.678  31.332  31.436  1.00  0.00     0.029 A 
ATOM     72  C   UNL A   1      46.876  30.099  30.812  1.00  0.00     0.049 A 
ATOM     73  H   UNL A   1      47.178  28.257  31.770  1.00  0.00     0.167 HD
ATOM     74  C   UNL A   1      46.836  28.437  28.962  1.00  0.00     0.074 A 
ATOM     75  C   UNL A   1      47.068  27.174  29.646  1.00  0.00     0.031 C 
ATOM     76  C   UNL A   1      46.876  29.724  29.411  1.00  0.00     0.037 A 
BRANCH  63  77
ATOM     77  C   UNL A   1      46.260  27.707  34.529  1.00  0.00     0.058 A 
ATOM     78  C   UNL A   1      46.285  26.413  33.978  1.00  0.00     0.135 A 
ATOM     79  C   UNL A   1      46.657  27.809  35.881  1.00  0.00     0.135 A 
ATOM     80  F   UNL A   1      45.905  26.206  32.706  1.00  0.00    -0.206 F 
ATOM     81  C   UNL A   1      46.622  25.291  34.735  1.00  0.00     0.059 A 
ATOM     82  C   UNL A   1      47.056  26.716  36.636  1.00  0.00     0.059 A 
ATOM     83  F   UNL A   1      46.573  28.955  36.569  1.00  0.00    -0.206 F 
ATOM     84  C   UNL A   1      46.989  25.454  36.069  1.00  0.00     0.060 A 
BRANCH  84  85
ATOM     85  S   UNL A   1      47.302  24.006  37.091  1.00  0.00     0.124 S 
ATOM     86  O   UNL A   1      45.975  23.405  37.149  1.00  0.00    -0.237 OA
ATOM     87  O   UNL A   1      48.300  23.287  36.306  1.00  0.00    -0.237 OA
ATOM     88  O   UNL A   1      47.793  24.582  38.340  1.00  0.00    -0.744 OA
ENDBRANCH  84  85
ENDBRANCH  63  77
BRANCH  64  89
ATOM     89  C   UNL A   1      44.345  25.078  26.724  1.00  0.00     0.058 A 
ATOM     90  C   UNL A   1      44.802  24.955  25.402  1.00  0.00     0.135 A 
ATOM     91  C   UNL A   1      44.037  23.874  27.392  1.00  0.00     0.135 A 
ATOM     92  F   UNL A   1      45.142  26.048  24.703  1.00  0.00    -0.206 F 
ATOM     93  C   UNL A   1      44.982  23.711  24.791  1.00  0.00     0.059 A 
ATOM     94  C   UNL A   1      44.189  22.624  26.799  1.00  0.00     0.059 A 
ATOM     95  F   UNL A   1      43.662  23.868  28.681  1.00  0.00    -0.206 F 
ATOM     96  C   UNL A   1      44.688  22.549  25.506  1.00  0.00     0.060 A 
BRANCH  96  97
ATOM     97  S   UNL A   1      45.072  20.938  24.783  1.00  0.00     0.124 S 
ATOM     98  O   UNL A   1      44.123  20.068  25.468  1.00  0.00    -0.237 OA
ATOM     99  O   UNL A   1      44.818  21.172  23.365  1.00  0.00    -0.237 OA
ATOM    100  O   UNL A   1      46.475  20.735  25.137  1.00  0.00    -0.744 OA
ENDBRANCH  96  97
ENDBRANCH  64  89
BRANCH  76 101
ATOM    101  C   UNL A   1      46.698  30.822  28.404  1.00  0.00     0.058 A 
ATOM    102  C   UNL A   1      45.461  31.366  28.025  1.00  0.00     0.135 A 
ATOM    103  C   UNL A   1      47.857  31.437  27.900  1.00  0.00     0.135 A 
ATOM    104  F   UNL A   1      44.315  30.886  28.530  1.00  0.00    -0.206 F 
ATOM    105  C   UNL A   1      45.380  32.460  27.161  1.00  0.00     0.059 A 
ATOM    106  C   UNL A   1      47.799  32.546  27.063  1.00  0.00     0.059 A 
ATOM    107  F   UNL A   1      49.069  30.992  28.270  1.00  0.00    -0.206 F 
ATOM    108  C   UNL A   1      46.555  33.047  26.690  1.00  0.00     0.060 A 
BRANCH 108 109
ATOM    109  S   UNL A   1      46.452  34.530  25.663  1.00  0.00     0.124 S 
ATOM    110  O   UNL A   1      47.802  34.622  25.121  1.00  0.00    -0.237 OA
ATOM    111  O   UNL A   1      45.404  34.183  24.706  1.00  0.00    -0.237 OA
ATOM    112  O   UNL A   1      46.088  35.578  26.614  1.00  0.00    -0.744 OA
ENDBRANCH 108 109
ENDBRANCH  76 101
ENDBRANCH  50  51
ENDBRANCH  43  45
ENDBRANCH  42  43
ENDBRANCH  41  42
ENDBRANCH  40  41
ENDBRANCH  39  40
ENDBRANCH  38  39
ENDBRANCH  37  38
ENDBRANCH  36  37
ENDBRANCH   1  36
TORSDOF 28
ENDMDL
MODEL 3
REMARK VINA RESULT:      -9.2      8.177     15.160
REMARK SMILES NS(=O)(=O)c1ccc(-n2nc(C(F)(F)F)cc2-c2ccc(C(=O)OCCOCCOCCOCCOC(=O)c3ccc(-c4c5nc(c(-c6c(F)cc(S(=O)(=O)[O-])cc6F)c6ccc([nH]6)c(-c6c(F)cc(S(=O)(=O)[O-])cc6F)c6nc(c(-c7c(F)cc(S(=O)(=O)[O-])cc7F)c7ccc4[nH]7)C=C6)C=C5)cc3)cc2)cc1
REMARK SMILES IDX 29 1 28 2 27 3 26 4 25 5 24 6 22 7 23 8 21 9 18 10 19 11
REMARK SMILES IDX 106 12 20 13 105 14 17 15 9 16 10 17 11 18 16 19 8 20 5 21
REMARK SMILES IDX 6 22 108 23 7 24 107 25 2 26 3 27 4 28 1 29 12 32 13 33
REMARK SMILES IDX 14 34 15 35 30 36 31 37 32 38 33 39 34 40 35 41 36 42 37 43
REMARK SMILES IDX 38 44 39 45 40 46 104 47 41 48 103 49 42 50 43 51 44 52
REMARK SMILES IDX 97 53 45 54 102 55 96 56 98 57 46 58 101 59 95 60 94 61
REMARK SMILES IDX 47 63 81 64 60 65 80 66 61 67 64 68 79 69 99 70 62 71 63 72
REMARK SMILES IDX 78 74 100 75 65 76 48 77 49 78 58 79 50 80 51 81 57 82 59 83
REMARK SMILES IDX 52 84 53 85 54 86 55 87 56 88 82 89 83 90 92 91 84 92 85 93
REMARK SMILES IDX 91 94 93 95 86 96 87 97 88 98 89 99 90 100 66 101 67 102
REMARK SMILES IDX 76 103 68 104 69 105 75 106 77 107 70 108 71 109 72 110
REMARK SMILES IDX 73 111 74 112
REMARK H PARENT 1 30 1 31 98 62 64 73
REMARK Flexibility Score: inf
ROOT
ATOM      1  C   UNL A   1      50.830  21.777  34.778  1.00  0.00     0.188 C 
ENDROOT
BRANCH   1   2
ATOM      2  C   UNL A   1      50.907  21.315  36.250  1.00  0.00     0.188 C 
BRANCH   2   3
ATOM      3  O   UNL A   1      50.957  22.222  37.347  1.00  0.00    -0.376 OA
BRANCH   3   4
ATOM      4  C   UNL A   1      50.872  21.782  38.690  1.00  0.00     0.202 C 
BRANCH   4   5
ATOM      5  C   UNL A   1      49.522  21.380  39.303  1.00  0.00     0.261 C 
BRANCH   5   6
ATOM      6  O   UNL A   1      48.999  20.116  38.891  1.00  0.00    -0.460 OA
BRANCH   6   7
ATOM      7  C   UNL A   1      49.353  19.067  39.664  1.00  0.00     0.338 C 
ATOM      8  O   UNL A   1      50.452  18.830  40.133  1.00  0.00    -0.246 OA
BRANCH   7   9
ATOM      9  C   UNL A   1      48.134  18.294  39.995  1.00  0.00     0.060 A 
ATOM     10  C   UNL A   1      45.757  16.965  40.626  1.00  0.00     0.000 A 
ATOM     11  C   UNL A   1      45.766  17.972  39.650  1.00  0.00     0.011 A 
ATOM     12  C   UNL A   1      46.959  16.582  41.233  1.00  0.00     0.011 A 
ATOM     13  C   UNL A   1      46.947  18.645  39.347  1.00  0.00     0.016 A 
ATOM     14  C   UNL A   1      48.152  17.236  40.910  1.00  0.00     0.016 A 
BRANCH  10  15
ATOM     15  C   UNL A   1      44.474  16.486  41.136  1.00  0.00     0.075 A 
ATOM     16  N   UNL A   1      44.033  16.531  42.453  1.00  0.00    -0.233 N 
ATOM     17  N   UNL A   1      43.107  15.564  42.698  1.00  0.00    -0.163 NA
ATOM     18  C   UNL A   1      42.789  15.068  41.486  1.00  0.00     0.167 A 
ATOM     19  C   UNL A   1      43.603  15.638  40.481  1.00  0.00     0.064 A 
BRANCH  16  20
ATOM     20  C   UNL A   1      44.438  17.417  43.488  1.00  0.00     0.065 A 
ATOM     21  C   UNL A   1      45.258  19.144  45.519  1.00  0.00     0.082 A 
ATOM     22  C   UNL A   1      44.725  19.668  44.337  1.00  0.00     0.024 A 
ATOM     23  C   UNL A   1      45.369  17.762  45.701  1.00  0.00     0.024 A 
ATOM     24  C   UNL A   1      44.325  18.804  43.316  1.00  0.00     0.030 A 
ATOM     25  C   UNL A   1      44.931  16.896  44.694  1.00  0.00     0.030 A 
BRANCH  21  26
ATOM     26  S   UNL A   1      45.857  20.263  46.754  1.00  0.00     0.238 S 
ATOM     27  O   UNL A   1      46.889  21.082  46.164  1.00  0.00    -0.207 OA
ATOM     28  O   UNL A   1      46.053  19.540  47.991  1.00  0.00    -0.207 OA
BRANCH  26  29
ATOM     29  N   UNL A   1      44.534  21.259  47.005  1.00  0.00    -0.225 NA
ATOM     30  H   UNL A   1      44.117  21.048  47.911  1.00  0.00     0.137 HD
ATOM     31  H   UNL A   1      43.845  21.102  46.269  1.00  0.00     0.137 HD
ENDBRANCH  26  29
ENDBRANCH  21  26
ENDBRANCH  16  20
BRANCH  18  32
ATOM     32  C   UNL A   1      41.760  13.994  41.270  1.00  0.00     0.435 C 
ATOM     33  F   UNL A   1      42.276  12.861  40.724  1.00  0.00    -0.164 F 
ATOM     34  F   UNL A   1      41.136  13.636  42.423  1.00  0.00    -0.164 F 
ATOM     35  F   UNL A   1      40.777  14.410  40.420  1.00  0.00    -0.164 F 
ENDBRANCH  18  32
ENDBRANCH  10  15
ENDBRANCH   7   9
ENDBRANCH   6   7
ENDBRANCH   5   6
ENDBRANCH   4   5
ENDBRANCH   3   4
ENDBRANCH   2   3
ENDBRANCH   1   2
BRANCH   1  36
ATOM     36  O   UNL A   1      49.606  21.482  34.121  1.00  0.00    -0.377 OA
BRANCH  36  37
ATOM     37  C   UNL A   1      48.762  20.574  34.824  1.00  0.00     0.188 C 
BRANCH  37  38
ATOM     38  C   UNL A   1      47.428  20.219  34.135  1.00  0.00     0.188 C 
BRANCH  38  39
ATOM     39  O   UNL A   1      46.344  21.060  34.531  1.00  0.00    -0.376 OA
BRANCH  39  40
ATOM     40  C   UNL A   1      46.092  21.213  35.920  1.00  0.00     0.202 C 
BRANCH  40  41
ATOM     41  C   UNL A   1      46.642  22.524  36.477  1.00  0.00     0.261 C 
BRANCH  41  42
ATOM     42  O   UNL A   1      45.699  23.589  36.459  1.00  0.00    -0.460 OA
BRANCH  42  43
ATOM     43  C   UNL A   1      46.207  24.820  36.251  1.00  0.00     0.338 C 
ATOM     44  O   UNL A   1      47.301  25.236  36.587  1.00  0.00    -0.246 OA
BRANCH  43  45
ATOM     45  C   UNL A   1      45.181  25.647  35.614  1.00  0.00     0.060 A 
ATOM     46  C   UNL A   1      44.298  24.983  34.762  1.00  0.00     0.016 A 
ATOM     47  C   UNL A   1      45.293  27.047  35.638  1.00  0.00     0.016 A 
ATOM     48  C   UNL A   1      43.716  25.704  33.749  1.00  0.00     0.010 A 
ATOM     49  C   UNL A   1      44.719  27.766  34.619  1.00  0.00     0.010 A 
ATOM     50  C   UNL A   1      44.029  27.062  33.637  1.00  0.00    -0.014 A 
BRANCH  50  51
ATOM     51  C   UNL A   1      43.676  27.712  32.397  1.00  0.00     0.031 A 
ATOM     52  C   UNL A   1      42.257  28.079  32.287  1.00  0.00     0.074 A 
ATOM     53  C   UNL A   1      44.611  28.002  31.473  1.00  0.00     0.049 A 
ATOM     54  N   UNL A   1      41.372  27.596  31.484  1.00  0.00    -0.248 NA
ATOM     55  C   UNL A   1      41.727  29.007  33.298  1.00  0.00     0.031 C 
ATOM     56  C   UNL A   1      46.068  27.959  31.654  1.00  0.00     0.029 A 
ATOM     57  N   UNL A   1      44.462  28.512  30.221  1.00  0.00    -0.354 N 
ATOM     58  C   UNL A   1      40.227  28.341  31.727  1.00  0.00     0.074 A 
ATOM     59  C   UNL A   1      40.437  29.036  32.969  1.00  0.00     0.031 C 
ATOM     60  C   UNL A   1      46.655  28.630  30.640  1.00  0.00     0.029 A 
ATOM     61  C   UNL A   1      45.632  29.028  29.687  1.00  0.00     0.049 A 
ATOM     62  H   UNL A   1      43.603  28.513  29.739  1.00  0.00     0.167 HD
ATOM     63  C   UNL A   1      39.322  28.573  30.742  1.00  0.00     0.037 A 
ATOM     64  C   UNL A   1      45.737  29.810  28.587  1.00  0.00     0.037 A 
ATOM     65  C   UNL A   1      39.491  27.671  29.634  1.00  0.00     0.049 A 
ATOM     66  C   UNL A   1      44.524  29.600  27.757  1.00  0.00     0.074 A 
ATOM     67  C   UNL A   1      39.310  26.321  29.426  1.00  0.00     0.029 A 
ATOM     68  N   UNL A   1      40.259  28.143  28.599  1.00  0.00    -0.354 N 
ATOM     69  N   UNL A   1      44.219  28.470  27.175  1.00  0.00    -0.248 NA
ATOM     70  C   UNL A   1      43.438  30.572  27.820  1.00  0.00     0.031 C 
ATOM     71  C   UNL A   1      40.200  25.961  28.374  1.00  0.00     0.029 A 
ATOM     72  C   UNL A   1      40.896  27.102  27.973  1.00  0.00     0.049 A 
ATOM     73  H   UNL A   1      40.340  29.091  28.344  1.00  0.00     0.167 HD
ATOM     74  C   UNL A   1      42.836  28.437  27.171  1.00  0.00     0.074 A 
ATOM     75  C   UNL A   1      42.420  29.808  27.419  1.00  0.00     0.031 C 
ATOM     76  C   UNL A   1      42.158  27.258  27.276  1.00  0.00     0.037 A 
BRANCH  63  77
ATOM     77  C   UNL A   1      38.585  29.879  30.592  1.00  0.00     0.058 A 
ATOM     78  C   UNL A   1      37.184  29.896  30.721  1.00  0.00     0.135 A 
ATOM     79  C   UNL A   1      39.168  31.041  30.037  1.00  0.00     0.135 A 
ATOM     80  F   UNL A   1      36.532  28.832  31.217  1.00  0.00    -0.206 F 
ATOM     81  C   UNL A   1      36.412  30.969  30.274  1.00  0.00     0.059 A 
ATOM     82  C   UNL A   1      38.424  32.144  29.643  1.00  0.00     0.059 A 
ATOM     83  F   UNL A   1      40.473  31.121  29.749  1.00  0.00    -0.206 F 
ATOM     84  C   UNL A   1      37.043  32.079  29.720  1.00  0.00     0.060 A 
BRANCH  84  85
ATOM     85  S   UNL A   1      36.054  33.412  29.023  1.00  0.00     0.124 S 
ATOM     86  O   UNL A   1      34.845  33.323  29.833  1.00  0.00    -0.237 OA
ATOM     87  O   UNL A   1      36.902  34.577  29.258  1.00  0.00    -0.237 OA
ATOM     88  O   UNL A   1      35.911  33.023  27.623  1.00  0.00    -0.744 OA
ENDBRANCH  84  85
ENDBRANCH  63  77
BRANCH  64  89
ATOM     89  C   UNL A   1      46.678  30.940  28.384  1.00  0.00     0.058 A 
ATOM     90  C   UNL A   1      47.496  31.009  27.245  1.00  0.00     0.135 A 
ATOM     91  C   UNL A   1      46.614  32.105  29.178  1.00  0.00     0.135 A 
ATOM     92  F   UNL A   1      47.594  29.956  26.421  1.00  0.00    -0.206 F 
ATOM     93  C   UNL A   1      48.179  32.177  26.891  1.00  0.00     0.059 A 
ATOM     94  C   UNL A   1      47.299  33.273  28.857  1.00  0.00     0.059 A 
ATOM     95  F   UNL A   1      45.806  32.175  30.248  1.00  0.00    -0.206 F 
ATOM     96  C   UNL A   1      48.059  33.311  27.696  1.00  0.00     0.060 A 
BRANCH  96  97
ATOM     97  S   UNL A   1      48.804  34.866  27.159  1.00  0.00     0.124 S 
ATOM     98  O   UNL A   1      50.139  34.438  26.758  1.00  0.00    -0.237 OA
ATOM     99  O   UNL A   1      47.911  35.275  26.080  1.00  0.00    -0.237 OA
ATOM    100  O   UNL A   1      48.749  35.699  28.358  1.00  0.00    -0.744 OA
ENDBRANCH  96  97
ENDBRANCH  64  89
BRANCH  76 101
ATOM    101  C   UNL A   1      42.857  26.007  26.828  1.00  0.00     0.058 A 
ATOM    102  C   UNL A   1      43.551  25.132  27.676  1.00  0.00     0.135 A 
ATOM    103  C   UNL A   1      42.696  25.618  25.487  1.00  0.00     0.135 A 
ATOM    104  F   UNL A   1      43.673  25.396  28.986  1.00  0.00    -0.206 F 
ATOM    105  C   UNL A   1      44.085  23.931  27.205  1.00  0.00     0.059 A 
ATOM    106  C   UNL A   1      43.193  24.412  25.005  1.00  0.00     0.059 A 
ATOM    107  F   UNL A   1      41.996  26.392  24.641  1.00  0.00    -0.206 F 
ATOM    108  C   UNL A   1      43.896  23.576  25.869  1.00  0.00     0.060 A 
BRANCH 108 109
ATOM    109  S   UNL A   1      44.489  21.972  25.288  1.00  0.00     0.124 S 
ATOM    110  O   UNL A   1      44.346  22.098  23.842  1.00  0.00    -0.237 OA
ATOM    111  O   UNL A   1      45.860  21.938  25.790  1.00  0.00    -0.237 OA
ATOM    112  O   UNL A   1      43.581  21.022  25.925  1.00  0.00    -0.744 OA
ENDBRANCH 108 109
ENDBRANCH  76 101
ENDBRANCH  50  51
ENDBRANCH  43  45
ENDBRANCH  42  43
ENDBRANCH  41  42
ENDBRANCH  40  41
ENDBRANCH  39  40
ENDBRANCH  38  39
ENDBRANCH  37  38
ENDBRANCH  36  37
ENDBRANCH   1  36
TORSDOF 28
ENDMDL
