MODEL 1
REMARK VINA RESULT:      -9.3      0.000      0.000
REMARK SMILES O=C(OCCOCCOCCOCCOC(=O)c1ccc(OCc2sccc2Br)cn1)c1ccc(-c2c3nc(c(-c4c(F)cc(S(=O)(=O)[O-])cc4F)c4ccc([nH]4)c(-c4c(F)cc(S(=O)(=O)[O-])cc4F)c4nc(c(-c5c(F)cc(S(=O)(=O)[O-])cc5F)c5ccc2[nH]5)C=C4)C=C3)cc1
REMARK SMILES IDX 9 1 8 2 7 3 6 4 5 5 4 6 3 7 2 8 1 9 32 10 33 11 97 12 34 13
REMARK SMILES IDX 96 14 35 15 36 16 37 17 90 18 38 19 95 20 89 21 91 22 39 23
REMARK SMILES IDX 94 24 88 25 87 26 40 28 74 29 53 30 73 31 54 32 57 33 72 34
REMARK SMILES IDX 92 35 55 36 56 37 71 39 93 40 58 41 41 42 42 43 51 44 43 45
REMARK SMILES IDX 44 46 50 47 52 48 45 49 46 50 47 51 48 52 49 53 75 54 76 55
REMARK SMILES IDX 85 56 77 57 78 58 84 59 86 60 79 61 80 62 81 63 82 64 83 65
REMARK SMILES IDX 59 66 60 67 69 68 61 69 62 70 68 71 70 72 63 73 64 74 65 75
REMARK SMILES IDX 66 76 67 77 10 78 11 79 12 80 13 81 14 82 15 83 16 84 17 85
REMARK SMILES IDX 18 86 19 87 31 88 20 89 30 90 21 91 22 92 23 93 24 94 25 95
REMARK SMILES IDX 28 96 26 97 27 98 29 99
REMARK H PARENT 91 27 57 38
REMARK Flexibility Score: inf
ROOT
ATOM      1  O   UNL A   1      35.052  32.501  27.559  1.00  0.00    -0.377 OA
ENDROOT
BRANCH   1   2
ATOM      2  C   UNL A   1      34.242  33.399  28.320  1.00  0.00     0.188 C 
BRANCH   2   3
ATOM      3  C   UNL A   1      34.495  34.884  28.058  1.00  0.00     0.188 C 
BRANCH   3   4
ATOM      4  O   UNL A   1      33.332  35.654  28.367  1.00  0.00    -0.376 OA
BRANCH   4   5
ATOM      5  C   UNL A   1      33.575  36.997  28.785  1.00  0.00     0.202 C 
BRANCH   5   6
ATOM      6  C   UNL A   1      33.316  37.252  30.272  1.00  0.00     0.261 C 
BRANCH   6   7
ATOM      7  O   UNL A   1      32.415  36.289  30.841  1.00  0.00    -0.460 OA
BRANCH   7   8
ATOM      8  C   UNL A   1      32.611  35.534  31.952  1.00  0.00     0.338 C 
ATOM      9  O   UNL A   1      31.742  35.542  32.824  1.00  0.00    -0.246 OA
BRANCH   8  10
ATOM     10  C   UNL A   1      33.809  34.663  32.167  1.00  0.00     0.060 A 
ATOM     11  C   UNL A   1      33.810  33.444  32.847  1.00  0.00     0.016 A 
ATOM     12  C   UNL A   1      35.017  35.086  31.585  1.00  0.00     0.016 A 
ATOM     13  C   UNL A   1      34.975  32.721  33.047  1.00  0.00     0.010 A 
ATOM     14  C   UNL A   1      36.191  34.343  31.743  1.00  0.00     0.010 A 
ATOM     15  C   UNL A   1      36.176  33.177  32.515  1.00  0.00    -0.014 A 
BRANCH  15  16
ATOM     16  C   UNL A   1      37.414  32.507  32.953  1.00  0.00     0.031 A 
ATOM     17  C   UNL A   1      37.957  32.867  34.304  1.00  0.00     0.074 A 
ATOM     18  C   UNL A   1      37.927  31.496  32.228  1.00  0.00     0.049 A 
ATOM     19  N   UNL A   1      39.043  32.460  34.897  1.00  0.00    -0.248 NA
ATOM     20  C   UNL A   1      37.152  33.809  35.105  1.00  0.00     0.031 C 
ATOM     21  C   UNL A   1      37.365  30.990  30.972  1.00  0.00     0.029 A 
ATOM     22  N   UNL A   1      39.009  30.691  32.457  1.00  0.00    -0.354 N 
ATOM     23  C   UNL A   1      39.074  33.122  36.119  1.00  0.00     0.074 A 
ATOM     24  C   UNL A   1      37.899  33.959  36.187  1.00  0.00     0.031 C 
ATOM     25  C   UNL A   1      38.099  29.945  30.554  1.00  0.00     0.029 A 
ATOM     26  C   UNL A   1      39.217  29.757  31.470  1.00  0.00     0.049 A 
ATOM     27  H   UNL A   1      39.583  30.773  33.252  1.00  0.00     0.167 HD
ATOM     28  C   UNL A   1      40.011  33.036  37.090  1.00  0.00     0.037 A 
ATOM     29  C   UNL A   1      40.227  28.878  31.315  1.00  0.00     0.037 A 
ATOM     30  C   UNL A   1      41.161  32.181  36.987  1.00  0.00     0.049 A 
ATOM     31  C   UNL A   1      41.307  28.866  32.366  1.00  0.00     0.074 A 
ATOM     32  C   UNL A   1      42.226  32.051  37.856  1.00  0.00     0.029 A 
ATOM     33  N   UNL A   1      41.385  31.298  35.937  1.00  0.00    -0.354 N 
ATOM     34  N   UNL A   1      41.383  29.566  33.476  1.00  0.00    -0.248 NA
ATOM     35  C   UNL A   1      42.443  27.964  32.142  1.00  0.00     0.031 C 
ATOM     36  C   UNL A   1      43.114  31.117  37.311  1.00  0.00     0.029 A 
ATOM     37  C   UNL A   1      42.578  30.628  36.127  1.00  0.00     0.049 A 
ATOM     38  H   UNL A   1      40.782  31.169  35.169  1.00  0.00     0.167 HD
ATOM     39  C   UNL A   1      42.569  29.182  34.090  1.00  0.00     0.074 A 
ATOM     40  C   UNL A   1      43.165  28.173  33.235  1.00  0.00     0.031 C 
ATOM     41  C   UNL A   1      43.123  29.622  35.247  1.00  0.00     0.037 A 
BRANCH  28  42
ATOM     42  C   UNL A   1      39.854  33.944  38.277  1.00  0.00     0.058 A 
ATOM     43  C   UNL A   1      40.509  35.182  38.364  1.00  0.00     0.135 A 
ATOM     44  C   UNL A   1      39.069  33.542  39.370  1.00  0.00     0.135 A 
ATOM     45  F   UNL A   1      41.301  35.601  37.365  1.00  0.00    -0.206 F 
ATOM     46  C   UNL A   1      40.418  35.976  39.506  1.00  0.00     0.059 A 
ATOM     47  C   UNL A   1      38.944  34.329  40.511  1.00  0.00     0.059 A 
ATOM     48  F   UNL A   1      38.434  32.360  39.346  1.00  0.00    -0.206 F 
ATOM     49  C   UNL A   1      39.637  35.537  40.577  1.00  0.00     0.060 A 
BRANCH  49  50
ATOM     50  S   UNL A   1      39.547  36.561  42.061  1.00  0.00     0.124 S 
ATOM     51  O   UNL A   1      39.179  37.857  41.499  1.00  0.00    -0.237 OA
ATOM     52  O   UNL A   1      38.512  35.892  42.841  1.00  0.00    -0.237 OA
ATOM     53  O   UNL A   1      40.896  36.479  42.614  1.00  0.00    -0.744 OA
ENDBRANCH  49  50
ENDBRANCH  28  42
BRANCH  29  54
ATOM     54  C   UNL A   1      40.293  28.005  30.110  1.00  0.00     0.058 A 
ATOM     55  C   UNL A   1      41.170  28.277  29.050  1.00  0.00     0.135 A 
ATOM     56  C   UNL A   1      39.472  26.869  29.995  1.00  0.00     0.135 A 
ATOM     57  F   UNL A   1      41.971  29.353  29.102  1.00  0.00    -0.206 F 
ATOM     58  C   UNL A   1      41.223  27.466  27.917  1.00  0.00     0.059 A 
ATOM     59  C   UNL A   1      39.527  26.029  28.887  1.00  0.00     0.059 A 
ATOM     60  F   UNL A   1      38.618  26.554  30.980  1.00  0.00    -0.206 F 
ATOM     61  C   UNL A   1      40.396  26.344  27.845  1.00  0.00     0.060 A 
BRANCH  61  62
ATOM     62  S   UNL A   1      40.488  25.281  26.386  1.00  0.00     0.124 S 
ATOM     63  O   UNL A   1      39.111  24.819  26.273  1.00  0.00    -0.237 OA
ATOM     64  O   UNL A   1      40.936  26.212  25.355  1.00  0.00    -0.237 OA
ATOM     65  O   UNL A   1      41.465  24.267  26.771  1.00  0.00    -0.744 OA
ENDBRANCH  61  62
ENDBRANCH  29  54
BRANCH  41  66
ATOM     66  C   UNL A   1      44.416  28.987  35.663  1.00  0.00     0.058 A 
ATOM     67  C   UNL A   1      44.445  27.841  36.471  1.00  0.00     0.135 A 
ATOM     68  C   UNL A   1      45.635  29.497  35.189  1.00  0.00     0.135 A 
ATOM     69  F   UNL A   1      43.303  27.322  36.951  1.00  0.00    -0.206 F 
ATOM     70  C   UNL A   1      45.644  27.230  36.813  1.00  0.00     0.059 A 
ATOM     71  C   UNL A   1      46.844  28.886  35.497  1.00  0.00     0.059 A 
ATOM     72  F   UNL A   1      45.654  30.584  34.402  1.00  0.00    -0.206 F 
ATOM     73  C   UNL A   1      46.839  27.759  36.318  1.00  0.00     0.060 A 
BRANCH  73  74
ATOM     74  S   UNL A   1      48.387  26.932  36.732  1.00  0.00     0.124 S 
ATOM     75  O   UNL A   1      48.807  26.426  35.429  1.00  0.00    -0.237 OA
ATOM     76  O   UNL A   1      49.189  28.023  37.279  1.00  0.00    -0.237 OA
ATOM     77  O   UNL A   1      47.980  25.917  37.699  1.00  0.00    -0.744 OA
ENDBRANCH  73  74
ENDBRANCH  41  66
ENDBRANCH  15  16
ENDBRANCH   8  10
ENDBRANCH   7   8
ENDBRANCH   6   7
ENDBRANCH   5   6
ENDBRANCH   4   5
ENDBRANCH   3   4
ENDBRANCH   2   3
ENDBRANCH   1   2
BRANCH   1  78
ATOM     78  C   UNL A   1      35.094  31.148  28.005  1.00  0.00     0.188 C 
BRANCH  78  79
ATOM     79  C   UNL A   1      34.116  30.126  27.384  1.00  0.00     0.188 C 
BRANCH  79  80
ATOM     80  O   UNL A   1      32.826  30.650  27.102  1.00  0.00    -0.376 OA
BRANCH  80  81
ATOM     81  C   UNL A   1      31.761  29.704  27.140  1.00  0.00     0.202 C 
BRANCH  81  82
ATOM     82  C   UNL A   1      32.201  28.235  27.218  1.00  0.00     0.261 C 
BRANCH  82  83
ATOM     83  O   UNL A   1      31.165  27.275  26.954  1.00  0.00    -0.459 OA
BRANCH  83  84
ATOM     84  C   UNL A   1      31.202  26.595  25.772  1.00  0.00     0.357 C 
ATOM     85  O   UNL A   1      31.055  27.045  24.668  1.00  0.00    -0.244 OA
BRANCH  84  86
ATOM     86  C   UNL A   1      31.617  25.199  26.130  1.00  0.00     0.148 A 
ATOM     87  C   UNL A   1      32.943  24.944  26.449  1.00  0.00     0.040 A 
ATOM     88  N   UNL A   1      30.703  24.216  25.904  1.00  0.00    -0.245 NA
ATOM     89  C   UNL A   1      33.370  23.618  26.508  1.00  0.00     0.050 A 
ATOM     90  C   UNL A   1      31.166  22.939  25.945  1.00  0.00     0.158 A 
ATOM     91  C   UNL A   1      32.480  22.584  26.236  1.00  0.00     0.138 A 
BRANCH  91  92
ATOM     92  O   UNL A   1      32.806  21.263  26.122  1.00  0.00    -0.486 OA
BRANCH  92  93
ATOM     93  C   UNL A   1      32.396  20.572  24.931  1.00  0.00     0.277 C 
BRANCH  93  94
ATOM     94  C   UNL A   1      33.199  19.319  24.730  1.00  0.00     0.056 A 
ATOM     95  S   UNL A   1      32.415  17.805  24.496  1.00  0.00    -0.144 S 
ATOM     96  C   UNL A   1      34.569  19.158  24.697  1.00  0.00     0.035 A 
ATOM     97  C   UNL A   1      33.900  17.003  24.213  1.00  0.00     0.066 A 
ATOM     98  C   UNL A   1      34.980  17.844  24.360  1.00  0.00     0.028 A 
ATOM     99  Br  UNL A   1      35.856  20.521  24.967  1.00  0.00    -0.049 Br
ENDBRANCH  93  94
ENDBRANCH  92  93
ENDBRANCH  91  92
ENDBRANCH  84  86
ENDBRANCH  83  84
ENDBRANCH  82  83
ENDBRANCH  81  82
ENDBRANCH  80  81
ENDBRANCH  79  80
ENDBRANCH  78  79
ENDBRANCH   1  78
TORSDOF 26
ENDMDL
MODEL 2
REMARK VINA RESULT:      -8.6      4.338     11.567
REMARK SMILES O=C(OCCOCCOCCOCCOC(=O)c1ccc(OCc2sccc2Br)cn1)c1ccc(-c2c3nc(c(-c4c(F)cc(S(=O)(=O)[O-])cc4F)c4ccc([nH]4)c(-c4c(F)cc(S(=O)(=O)[O-])cc4F)c4nc(c(-c5c(F)cc(S(=O)(=O)[O-])cc5F)c5ccc2[nH]5)C=C4)C=C3)cc1
REMARK SMILES IDX 9 1 8 2 7 3 6 4 5 5 4 6 3 7 2 8 1 9 32 10 33 11 97 12 34 13
REMARK SMILES IDX 96 14 35 15 36 16 37 17 90 18 38 19 95 20 89 21 91 22 39 23
REMARK SMILES IDX 94 24 88 25 87 26 40 28 74 29 53 30 73 31 54 32 57 33 72 34
REMARK SMILES IDX 92 35 55 36 56 37 71 39 93 40 58 41 41 42 42 43 51 44 43 45
REMARK SMILES IDX 44 46 50 47 52 48 45 49 46 50 47 51 48 52 49 53 75 54 76 55
REMARK SMILES IDX 85 56 77 57 78 58 84 59 86 60 79 61 80 62 81 63 82 64 83 65
REMARK SMILES IDX 59 66 60 67 69 68 61 69 62 70 68 71 70 72 63 73 64 74 65 75
REMARK SMILES IDX 66 76 67 77 10 78 11 79 12 80 13 81 14 82 15 83 16 84 17 85
REMARK SMILES IDX 18 86 19 87 31 88 20 89 30 90 21 91 22 92 23 93 24 94 25 95
REMARK SMILES IDX 28 96 26 97 27 98 29 99
REMARK H PARENT 91 27 57 38
REMARK Flexibility Score: inf
ROOT
ATOM      1  O   UNL A   1      42.998  18.759  25.287  1.00  0.00    -0.377 OA
ENDROOT
BRANCH   1   2
ATOM      2  C   UNL A   1      42.365  19.452  26.365  1.00  0.00     0.188 C 
BRANCH   2   3
ATOM      3  C   UNL A   1      40.861  19.678  26.198  1.00  0.00     0.188 C 
BRANCH   3   4
ATOM      4  O   UNL A   1      40.565  21.075  26.151  1.00  0.00    -0.376 OA
BRANCH   4   5
ATOM      5  C   UNL A   1      39.179  21.412  26.157  1.00  0.00     0.202 C 
BRANCH   5   6
ATOM      6  C   UNL A   1      38.879  22.855  25.744  1.00  0.00     0.261 C 
BRANCH   6   7
ATOM      7  O   UNL A   1      38.989  23.771  26.844  1.00  0.00    -0.460 OA
BRANCH   7   8
ATOM      8  C   UNL A   1      39.800  24.858  26.933  1.00  0.00     0.338 C 
ATOM      9  O   UNL A   1      40.504  25.140  25.964  1.00  0.00    -0.246 OA
BRANCH   8  10
ATOM     10  C   UNL A   1      39.864  25.752  28.131  1.00  0.00     0.060 A 
ATOM     11  C   UNL A   1      38.971  25.730  29.204  1.00  0.00     0.016 A 
ATOM     12  C   UNL A   1      40.947  26.645  28.202  1.00  0.00     0.016 A 
ATOM     13  C   UNL A   1      39.071  26.629  30.254  1.00  0.00     0.010 A 
ATOM     14  C   UNL A   1      41.084  27.528  29.278  1.00  0.00     0.010 A 
ATOM     15  C   UNL A   1      40.114  27.547  30.287  1.00  0.00    -0.014 A 
BRANCH  15  16
ATOM     16  C   UNL A   1      40.042  28.627  31.288  1.00  0.00     0.031 A 
ATOM     17  C   UNL A   1      41.057  28.616  32.393  1.00  0.00     0.074 A 
ATOM     18  C   UNL A   1      39.201  29.661  31.106  1.00  0.00     0.049 A 
ATOM     19  N   UNL A   1      41.180  29.418  33.413  1.00  0.00    -0.248 NA
ATOM     20  C   UNL A   1      42.085  27.561  32.330  1.00  0.00     0.031 C 
ATOM     21  C   UNL A   1      38.285  29.813  29.972  1.00  0.00     0.029 A 
ATOM     22  N   UNL A   1      39.003  30.793  31.847  1.00  0.00    -0.354 N 
ATOM     23  C   UNL A   1      42.271  28.943  34.132  1.00  0.00     0.074 A 
ATOM     24  C   UNL A   1      42.777  27.784  33.436  1.00  0.00     0.031 C 
ATOM     25  C   UNL A   1      37.638  30.985  30.085  1.00  0.00     0.029 A 
ATOM     26  C   UNL A   1      38.039  31.627  31.330  1.00  0.00     0.049 A 
ATOM     27  H   UNL A   1      39.502  30.992  32.672  1.00  0.00     0.167 HD
ATOM     28  C   UNL A   1      42.793  29.437  35.277  1.00  0.00     0.037 A 
ATOM     29  C   UNL A   1      37.521  32.762  31.838  1.00  0.00     0.037 A 
ATOM     30  C   UNL A   1      42.265  30.601  35.934  1.00  0.00     0.049 A 
ATOM     31  C   UNL A   1      38.056  33.242  33.162  1.00  0.00     0.074 A 
ATOM     32  C   UNL A   1      42.643  31.167  37.136  1.00  0.00     0.029 A 
ATOM     33  N   UNL A   1      41.236  31.385  35.424  1.00  0.00    -0.354 N 
ATOM     34  N   UNL A   1      39.026  32.734  33.891  1.00  0.00    -0.248 NA
ATOM     35  C   UNL A   1      37.424  34.432  33.744  1.00  0.00     0.031 C 
ATOM     36  C   UNL A   1      41.815  32.270  37.371  1.00  0.00     0.029 A 
ATOM     37  C   UNL A   1      40.955  32.422  36.291  1.00  0.00     0.049 A 
ATOM     38  H   UNL A   1      40.775  31.224  34.568  1.00  0.00     0.167 HD
ATOM     39  C   UNL A   1      39.129  33.548  35.012  1.00  0.00     0.074 A 
ATOM     40  C   UNL A   1      38.135  34.593  34.853  1.00  0.00     0.031 C 
ATOM     41  C   UNL A   1      39.959  33.445  36.079  1.00  0.00     0.037 A 
BRANCH  28  42
ATOM     42  C   UNL A   1      43.919  28.667  35.907  1.00  0.00     0.058 A 
ATOM     43  C   UNL A   1      43.696  27.591  36.780  1.00  0.00     0.135 A 
ATOM     44  C   UNL A   1      45.250  29.047  35.667  1.00  0.00     0.135 A 
ATOM     45  F   UNL A   1      42.444  27.207  37.074  1.00  0.00    -0.206 F 
ATOM     46  C   UNL A   1      44.749  26.939  37.417  1.00  0.00     0.059 A 
ATOM     47  C   UNL A   1      46.319  28.395  36.274  1.00  0.00     0.059 A 
ATOM     48  F   UNL A   1      45.520  30.080  34.853  1.00  0.00    -0.206 F 
ATOM     49  C   UNL A   1      46.058  27.354  37.162  1.00  0.00     0.060 A 
BRANCH  49  50
ATOM     50  S   UNL A   1      47.413  26.519  38.014  1.00  0.00     0.124 S 
ATOM     51  O   UNL A   1      46.841  25.195  38.244  1.00  0.00    -0.237 OA
ATOM     52  O   UNL A   1      48.488  26.582  37.030  1.00  0.00    -0.237 OA
ATOM     53  O   UNL A   1      47.614  27.330  39.211  1.00  0.00    -0.744 OA
ENDBRANCH  49  50
ENDBRANCH  28  42
BRANCH  29  54
ATOM     54  C   UNL A   1      36.413  33.468  31.136  1.00  0.00     0.058 A 
ATOM     55  C   UNL A   1      35.089  33.403  31.596  1.00  0.00     0.135 A 
ATOM     56  C   UNL A   1      36.658  34.230  29.981  1.00  0.00     0.135 A 
ATOM     57  F   UNL A   1      34.794  32.683  32.690  1.00  0.00    -0.206 F 
ATOM     58  C   UNL A   1      34.050  34.054  30.932  1.00  0.00     0.059 A 
ATOM     59  C   UNL A   1      35.643  34.912  29.317  1.00  0.00     0.059 A 
ATOM     60  F   UNL A   1      37.905  34.336  29.497  1.00  0.00    -0.206 F 
ATOM     61  C   UNL A   1      34.338  34.806  29.792  1.00  0.00     0.060 A 
BRANCH  61  62
ATOM     62  S   UNL A   1      32.992  35.670  28.951  1.00  0.00     0.124 S 
ATOM     63  O   UNL A   1      32.389  34.592  28.178  1.00  0.00    -0.237 OA
ATOM     64  O   UNL A   1      32.201  36.173  30.071  1.00  0.00    -0.237 OA
ATOM     65  O   UNL A   1      33.684  36.694  28.174  1.00  0.00    -0.744 OA
ENDBRANCH  61  62
ENDBRANCH  29  54
BRANCH  41  66
ATOM     66  C   UNL A   1      39.844  34.507  37.132  1.00  0.00     0.058 A 
ATOM     67  C   UNL A   1      38.999  34.353  38.241  1.00  0.00     0.135 A 
ATOM     68  C   UNL A   1      40.641  35.660  37.058  1.00  0.00     0.135 A 
ATOM     69  F   UNL A   1      38.215  33.269  38.349  1.00  0.00    -0.206 F 
ATOM     70  C   UNL A   1      38.933  35.319  39.236  1.00  0.00     0.059 A 
ATOM     71  C   UNL A   1      40.611  36.626  38.056  1.00  0.00     0.059 A 
ATOM     72  F   UNL A   1      41.474  35.843  36.022  1.00  0.00    -0.206 F 
ATOM     73  C   UNL A   1      39.746  36.452  39.136  1.00  0.00     0.060 A 
BRANCH  73  74
ATOM     74  S   UNL A   1      39.684  37.679  40.456  1.00  0.00     0.124 S 
ATOM     75  O   UNL A   1      41.057  38.176  40.458  1.00  0.00    -0.237 OA
ATOM     76  O   UNL A   1      38.672  38.612  39.970  1.00  0.00    -0.237 OA
ATOM     77  O   UNL A   1      39.297  36.897  41.627  1.00  0.00    -0.744 OA
ENDBRANCH  73  74
ENDBRANCH  41  66
ENDBRANCH  15  16
ENDBRANCH   8  10
ENDBRANCH   7   8
ENDBRANCH   6   7
ENDBRANCH   5   6
ENDBRANCH   4   5
ENDBRANCH   3   4
ENDBRANCH   2   3
ENDBRANCH   1   2
BRANCH   1  78
ATOM     78  C   UNL A   1      44.253  19.274  24.850  1.00  0.00     0.188 C 
BRANCH  78  79
ATOM     79  C   UNL A   1      44.653  20.709  25.257  1.00  0.00     0.188 C 
BRANCH  79  80
ATOM     80  O   UNL A   1      44.252  21.712  24.333  1.00  0.00    -0.376 OA
BRANCH  80  81
ATOM     81  C   UNL A   1      43.315  22.661  24.833  1.00  0.00     0.202 C 
BRANCH  81  82
ATOM     82  C   UNL A   1      43.779  24.123  24.777  1.00  0.00     0.261 C 
BRANCH  82  83
ATOM     83  O   UNL A   1      45.192  24.306  24.592  1.00  0.00    -0.459 OA
BRANCH  83  84
ATOM     84  C   UNL A   1      45.966  24.516  25.696  1.00  0.00     0.357 C 
ATOM     85  O   UNL A   1      46.817  23.792  26.136  1.00  0.00    -0.244 OA
BRANCH  84  86
ATOM     86  C   UNL A   1      45.638  25.906  26.153  1.00  0.00     0.148 A 
ATOM     87  C   UNL A   1      44.323  26.231  26.453  1.00  0.00     0.040 A 
ATOM     88  N   UNL A   1      46.626  26.834  26.032  1.00  0.00    -0.245 NA
ATOM     89  C   UNL A   1      43.989  27.576  26.605  1.00  0.00     0.050 A 
ATOM     90  C   UNL A   1      46.252  28.135  26.161  1.00  0.00     0.158 A 
ATOM     91  C   UNL A   1      44.958  28.561  26.442  1.00  0.00     0.138 A 
BRANCH  91  92
ATOM     92  O   UNL A   1      44.729  29.907  26.425  1.00  0.00    -0.486 OA
BRANCH  92  93
ATOM     93  C   UNL A   1      44.548  30.572  27.685  1.00  0.00     0.277 C 
BRANCH  93  94
ATOM     94  C   UNL A   1      44.361  32.050  27.494  1.00  0.00     0.056 A 
ATOM     95  S   UNL A   1      44.689  32.785  25.974  1.00  0.00    -0.144 S 
ATOM     96  C   UNL A   1      43.934  32.998  28.402  1.00  0.00     0.035 A 
ATOM     97  C   UNL A   1      44.122  34.308  26.511  1.00  0.00     0.066 A 
ATOM     98  C   UNL A   1      43.755  34.286  27.838  1.00  0.00     0.028 A 
ATOM     99  Br  UNL A   1      43.513  32.686  30.221  1.00  0.00    -0.049 Br
ENDBRANCH  93  94
ENDBRANCH  92  93
ENDBRANCH  91  92
ENDBRANCH  84  86
ENDBRANCH  83  84
ENDBRANCH  82  83
ENDBRANCH  81  82
ENDBRANCH  80  81
ENDBRANCH  79  80
ENDBRANCH  78  79
ENDBRANCH   1  78
TORSDOF 26
ENDMDL
MODEL 3
REMARK VINA RESULT:      -8.3      7.638     12.267
REMARK SMILES O=C(OCCOCCOCCOCCOC(=O)c1ccc(OCc2sccc2Br)cn1)c1ccc(-c2c3nc(c(-c4c(F)cc(S(=O)(=O)[O-])cc4F)c4ccc([nH]4)c(-c4c(F)cc(S(=O)(=O)[O-])cc4F)c4nc(c(-c5c(F)cc(S(=O)(=O)[O-])cc5F)c5ccc2[nH]5)C=C4)C=C3)cc1
REMARK SMILES IDX 9 1 8 2 7 3 6 4 5 5 4 6 3 7 2 8 1 9 32 10 33 11 97 12 34 13
REMARK SMILES IDX 96 14 35 15 36 16 37 17 90 18 38 19 95 20 89 21 91 22 39 23
REMARK SMILES IDX 94 24 88 25 87 26 40 28 74 29 53 30 73 31 54 32 57 33 72 34
REMARK SMILES IDX 92 35 55 36 56 37 71 39 93 40 58 41 41 42 42 43 51 44 43 45
REMARK SMILES IDX 44 46 50 47 52 48 45 49 46 50 47 51 48 52 49 53 75 54 76 55
REMARK SMILES IDX 85 56 77 57 78 58 84 59 86 60 79 61 80 62 81 63 82 64 83 65
REMARK SMILES IDX 59 66 60 67 69 68 61 69 62 70 68 71 70 72 63 73 64 74 65 75
REMARK SMILES IDX 66 76 67 77 10 78 11 79 12 80 13 81 14 82 15 83 16 84 17 85
REMARK SMILES IDX 18 86 19 87 31 88 20 89 30 90 21 91 22 92 23 93 24 94 25 95
REMARK SMILES IDX 28 96 26 97 27 98 29 99
REMARK H PARENT 91 27 57 38
REMARK Flexibility Score: inf
ROOT
ATOM      1  O   UNL A   1      43.632  18.196  25.291  1.00  0.00    -0.377 OA
ENDROOT
BRANCH   1   2
ATOM      2  C   UNL A   1      44.377  19.365  24.943  1.00  0.00     0.188 C 
BRANCH   2   3
ATOM      3  C   UNL A   1      45.879  19.284  25.216  1.00  0.00     0.188 C 
BRANCH   3   4
ATOM      4  O   UNL A   1      46.481  20.576  25.104  1.00  0.00    -0.376 OA
BRANCH   4   5
ATOM      5  C   UNL A   1      45.708  21.557  24.415  1.00  0.00     0.202 C 
BRANCH   5   6
ATOM      6  C   UNL A   1      46.301  22.968  24.455  1.00  0.00     0.261 C 
BRANCH   6   7
ATOM      7  O   UNL A   1      46.891  23.276  25.728  1.00  0.00    -0.460 OA
BRANCH   7   8
ATOM      8  C   UNL A   1      46.294  23.877  26.789  1.00  0.00     0.338 C 
ATOM      9  O   UNL A   1      45.693  23.170  27.598  1.00  0.00    -0.246 OA
BRANCH   8  10
ATOM     10  C   UNL A   1      46.351  25.349  27.053  1.00  0.00     0.060 A 
ATOM     11  C   UNL A   1      46.936  25.947  28.171  1.00  0.00     0.016 A 
ATOM     12  C   UNL A   1      45.821  26.194  26.063  1.00  0.00     0.016 A 
ATOM     13  C   UNL A   1      46.902  27.319  28.366  1.00  0.00     0.010 A 
ATOM     14  C   UNL A   1      45.820  27.583  26.227  1.00  0.00     0.010 A 
ATOM     15  C   UNL A   1      46.325  28.143  27.406  1.00  0.00    -0.014 A 
BRANCH  15  16
ATOM     16  C   UNL A   1      46.102  29.555  27.765  1.00  0.00     0.031 A 
ATOM     17  C   UNL A   1      44.861  29.885  28.543  1.00  0.00     0.074 A 
ATOM     18  C   UNL A   1      47.064  30.469  27.542  1.00  0.00     0.049 A 
ATOM     19  N   UNL A   1      44.414  31.043  28.938  1.00  0.00    -0.248 NA
ATOM     20  C   UNL A   1      44.015  28.745  28.942  1.00  0.00     0.031 C 
ATOM     21  C   UNL A   1      48.362  30.191  26.921  1.00  0.00     0.029 A 
ATOM     22  N   UNL A   1      47.117  31.803  27.841  1.00  0.00    -0.354 N 
ATOM     23  C   UNL A   1      43.219  30.778  29.596  1.00  0.00     0.074 A 
ATOM     24  C   UNL A   1      43.007  29.351  29.549  1.00  0.00     0.031 C 
ATOM     25  C   UNL A   1      49.091  31.319  26.906  1.00  0.00     0.029 A 
ATOM     26  C   UNL A   1      48.287  32.408  27.447  1.00  0.00     0.049 A 
ATOM     27  H   UNL A   1      46.387  32.283  28.294  1.00  0.00     0.167 HD
ATOM     28  C   UNL A   1      42.376  31.659  30.179  1.00  0.00     0.037 A 
ATOM     29  C   UNL A   1      48.640  33.707  27.489  1.00  0.00     0.037 A 
ATOM     30  C   UNL A   1      42.630  33.073  30.213  1.00  0.00     0.049 A 
ATOM     31  C   UNL A   1      47.645  34.682  28.061  1.00  0.00     0.074 A 
ATOM     32  C   UNL A   1      41.830  34.087  30.701  1.00  0.00     0.029 A 
ATOM     33  N   UNL A   1      43.793  33.668  29.737  1.00  0.00    -0.354 N 
ATOM     34  N   UNL A   1      46.469  34.439  28.596  1.00  0.00    -0.248 NA
ATOM     35  C   UNL A   1      48.007  36.103  28.023  1.00  0.00     0.031 C 
ATOM     36  C   UNL A   1      42.493  35.300  30.483  1.00  0.00     0.029 A 
ATOM     37  C   UNL A   1      43.728  35.037  29.907  1.00  0.00     0.049 A 
ATOM     38  H   UNL A   1      44.552  33.184  29.338  1.00  0.00     0.167 HD
ATOM     39  C   UNL A   1      45.955  35.674  28.970  1.00  0.00     0.074 A 
ATOM     40  C   UNL A   1      46.959  36.660  28.617  1.00  0.00     0.031 C 
ATOM     41  C   UNL A   1      44.764  35.976  29.545  1.00  0.00     0.037 A 
BRANCH  28  42
ATOM     42  C   UNL A   1      41.091  31.114  30.736  1.00  0.00     0.058 A 
ATOM     43  C   UNL A   1      40.037  30.691  29.912  1.00  0.00     0.135 A 
ATOM     44  C   UNL A   1      40.895  31.060  32.126  1.00  0.00     0.135 A 
ATOM     45  F   UNL A   1      40.154  30.755  28.576  1.00  0.00    -0.206 F 
ATOM     46  C   UNL A   1      38.822  30.264  30.443  1.00  0.00     0.059 A 
ATOM     47  C   UNL A   1      39.698  30.614  32.680  1.00  0.00     0.059 A 
ATOM     48  F   UNL A   1      41.864  31.467  32.961  1.00  0.00    -0.206 F 
ATOM     49  C   UNL A   1      38.661  30.235  31.830  1.00  0.00     0.060 A 
BRANCH  49  50
ATOM     50  S   UNL A   1      37.074  29.705  32.507  1.00  0.00     0.124 S 
ATOM     51  O   UNL A   1      36.785  30.781  33.451  1.00  0.00    -0.237 OA
ATOM     52  O   UNL A   1      36.226  29.659  31.321  1.00  0.00    -0.237 OA
ATOM     53  O   UNL A   1      37.375  28.409  33.109  1.00  0.00    -0.744 OA
ENDBRANCH  49  50
ENDBRANCH  28  42
BRANCH  29  54
ATOM     54  C   UNL A   1      49.944  34.156  26.924  1.00  0.00     0.058 A 
ATOM     55  C   UNL A   1      50.049  34.651  25.616  1.00  0.00     0.135 A 
ATOM     56  C   UNL A   1      51.121  34.099  27.690  1.00  0.00     0.135 A 
ATOM     57  F   UNL A   1      48.960  34.719  24.836  1.00  0.00    -0.206 F 
ATOM     58  C   UNL A   1      51.271  35.059  25.084  1.00  0.00     0.059 A 
ATOM     59  C   UNL A   1      52.348  34.527  27.191  1.00  0.00     0.059 A 
ATOM     60  F   UNL A   1      51.082  33.641  28.951  1.00  0.00    -0.206 F 
ATOM     61  C   UNL A   1      52.416  34.992  25.880  1.00  0.00     0.060 A 
BRANCH  61  62
ATOM     62  S   UNL A   1      53.993  35.549  25.195  1.00  0.00     0.124 S 
ATOM     63  O   UNL A   1      54.506  36.380  26.277  1.00  0.00    -0.237 OA
ATOM     64  O   UNL A   1      54.693  34.287  24.972  1.00  0.00    -0.237 OA
ATOM     65  O   UNL A   1      53.600  36.261  23.983  1.00  0.00    -0.744 OA
ENDBRANCH  61  62
ENDBRANCH  29  54
BRANCH  41  66
ATOM     66  C   UNL A   1      44.507  37.420  29.854  1.00  0.00     0.058 A 
ATOM     67  C   UNL A   1      44.923  37.998  31.062  1.00  0.00     0.135 A 
ATOM     68  C   UNL A   1      43.897  38.246  28.897  1.00  0.00     0.135 A 
ATOM     69  F   UNL A   1      45.506  37.244  32.007  1.00  0.00    -0.206 F 
ATOM     70  C   UNL A   1      44.724  39.348  31.321  1.00  0.00     0.059 A 
ATOM     71  C   UNL A   1      43.712  39.605  29.125  1.00  0.00     0.059 A 
ATOM     72  F   UNL A   1      43.494  37.739  27.722  1.00  0.00    -0.206 F 
ATOM     73  C   UNL A   1      44.120  40.144  30.344  1.00  0.00     0.060 A 
BRANCH  73  74
ATOM     74  S   UNL A   1      43.907  41.903  30.674  1.00  0.00     0.124 S 
ATOM     75  O   UNL A   1      44.751  42.085  31.851  1.00  0.00    -0.237 OA
ATOM     76  O   UNL A   1      44.395  42.516  29.442  1.00  0.00    -0.237 OA
ATOM     77  O   UNL A   1      42.471  42.034  30.905  1.00  0.00    -0.744 OA
ENDBRANCH  73  74
ENDBRANCH  41  66
ENDBRANCH  15  16
ENDBRANCH   8  10
ENDBRANCH   7   8
ENDBRANCH   6   7
ENDBRANCH   5   6
ENDBRANCH   4   5
ENDBRANCH   3   4
ENDBRANCH   2   3
ENDBRANCH   1   2
BRANCH   1  78
ATOM     78  C   UNL A   1      42.445  18.402  26.053  1.00  0.00     0.188 C 
BRANCH  78  79
ATOM     79  C   UNL A   1      42.180  19.797  26.660  1.00  0.00     0.188 C 
BRANCH  79  80
ATOM     80  O   UNL A   1      40.810  20.172  26.685  1.00  0.00    -0.376 OA
BRANCH  80  81
ATOM     81  C   UNL A   1      40.562  21.570  26.813  1.00  0.00     0.202 C 
BRANCH  81  82
ATOM     82  C   UNL A   1      39.141  22.014  26.442  1.00  0.00     0.261 C 
BRANCH  82  83
ATOM     83  O   UNL A   1      38.738  21.703  25.098  1.00  0.00    -0.459 OA
BRANCH  83  84
ATOM     84  C   UNL A   1      37.809  20.720  24.914  1.00  0.00     0.357 C 
ATOM     85  O   UNL A   1      37.944  19.545  25.120  1.00  0.00    -0.244 OA
BRANCH  84  86
ATOM     86  C   UNL A   1      36.542  21.434  24.548  1.00  0.00     0.148 A 
ATOM     87  C   UNL A   1      36.610  22.721  24.033  1.00  0.00     0.040 A 
ATOM     88  N   UNL A   1      35.380  20.855  24.953  1.00  0.00    -0.245 NA
ATOM     89  C   UNL A   1      35.437  23.470  23.959  1.00  0.00     0.050 A 
ATOM     90  C   UNL A   1      34.264  21.628  24.889  1.00  0.00     0.158 A 
ATOM     91  C   UNL A   1      34.234  22.933  24.407  1.00  0.00     0.138 A 
BRANCH  91  92
ATOM     92  O   UNL A   1      33.054  23.610  24.519  1.00  0.00    -0.486 OA
BRANCH  92  93
ATOM     93  C   UNL A   1      33.074  24.889  25.173  1.00  0.00     0.277 C 
BRANCH  93  94
ATOM     94  C   UNL A   1      32.142  25.855  24.499  1.00  0.00     0.056 A 
ATOM     95  S   UNL A   1      31.738  25.668  22.837  1.00  0.00    -0.144 S 
ATOM     96  C   UNL A   1      31.498  26.956  25.026  1.00  0.00     0.035 A 
ATOM     97  C   UNL A   1      30.615  26.958  22.895  1.00  0.00     0.066 A 
ATOM     98  C   UNL A   1      30.590  27.570  24.128  1.00  0.00     0.028 A 
ATOM     99  Br  UNL A   1      31.675  27.605  26.797  1.00  0.00    -0.049 Br
ENDBRANCH  93  94
ENDBRANCH  92  93
ENDBRANCH  91  92
ENDBRANCH  84  86
ENDBRANCH  83  84
ENDBRANCH  82  83
ENDBRANCH  81  82
ENDBRANCH  80  81
ENDBRANCH  79  80
ENDBRANCH  78  79
ENDBRANCH   1  78
TORSDOF 26
ENDMDL
