MODEL 1
REMARK VINA RESULT:      -9.8      0.000      0.000
REMARK SMILES COc1ccc(Br)c([C@H]2[NH2+][C@H](C(=O)OCCOCCOCCOCCOC(=O)c3ccc(-c4c5nc(c(-c6c(F)cc(S(=O)(=O)[O-])cc6F)c6ccc([nH]6)c(-c6c(F)cc(S(=O)(=O)[O-])cc6F)c6nc(c(-c7c(F)cc(S(=O)(=O)[O-])cc7F)c7ccc4[nH]7)C=C6)C=C5)cc3)CS2)c1O
REMARK SMILES IDX 21 1 20 2 19 3 18 4 17 5 16 6 15 7 14 8 12 9 13 10 11 11
REMARK SMILES IDX 9 12 10 13 96 14 95 17 8 18 3 19 4 20 97 21 5 22 6 23 7 24
REMARK SMILES IDX 2 25 1 26 98 27 22 29 23 30 24 31 25 32 26 33 27 34 28 35
REMARK SMILES IDX 29 36 30 37 94 38 31 39 93 40 32 41 33 42 34 43 87 44 35 45
REMARK SMILES IDX 92 46 86 47 88 48 36 49 91 50 85 51 84 52 37 54 71 55 50 56
REMARK SMILES IDX 70 57 51 58 54 59 69 60 89 61 52 62 53 63 68 65 90 66 55 67
REMARK SMILES IDX 38 68 39 69 48 70 40 71 41 72 47 73 49 74 42 75 43 76 44 77
REMARK SMILES IDX 45 78 46 79 72 80 73 81 82 82 74 83 75 84 81 85 83 86 76 87
REMARK SMILES IDX 77 88 78 89 79 90 80 91 56 92 57 93 66 94 58 95 59 96 65 97
REMARK SMILES IDX 67 98 60 99 61 100 62 101 63 102 64 103
REMARK H PARENT 10 15 10 16 98 28 88 53 54 64
REMARK Flexibility Score: inf
ROOT
ATOM      1  C   UNL A   1      35.771  23.681  24.675  1.00  0.00     0.188 C 
ENDROOT
BRANCH   1   2
ATOM      2  O   UNL A   1      34.710  24.485  24.190  1.00  0.00    -0.377 OA
BRANCH   2   3
ATOM      3  C   UNL A   1      34.387  25.641  24.935  1.00  0.00     0.188 C 
BRANCH   3   4
ATOM      4  C   UNL A   1      33.571  26.691  24.162  1.00  0.00     0.188 C 
BRANCH   4   5
ATOM      5  O   UNL A   1      32.147  26.680  24.157  1.00  0.00    -0.376 OA
BRANCH   5   6
ATOM      6  C   UNL A   1      31.432  25.753  23.354  1.00  0.00     0.202 C 
BRANCH   6   7
ATOM      7  C   UNL A   1      30.904  24.436  23.956  1.00  0.00     0.261 C 
BRANCH   7   8
ATOM      8  O   UNL A   1      30.187  24.522  25.207  1.00  0.00    -0.459 OA
BRANCH   8   9
ATOM      9  C   UNL A   1      30.932  24.331  26.319  1.00  0.00     0.365 C 
ATOM     10  O   UNL A   1      31.486  25.243  26.935  1.00  0.00    -0.245 OA
BRANCH   9  11
ATOM     11  C   UNL A   1      31.118  22.878  26.771  1.00  0.00     0.304 C 
ATOM     12  C   UNL A   1      32.466  21.430  25.365  1.00  0.00     0.279 C 
ATOM     13  N   UNL A   1      31.092  21.782  25.765  1.00  0.00    -0.319 N 
ATOM     14  S   UNL A   1      33.553  21.785  26.773  1.00  0.00    -0.087 SA
ATOM     15  H   UNL A   1      30.638  20.963  26.169  1.00  0.00     0.348 HD
ATOM     16  H   UNL A   1      30.574  22.095  24.943  1.00  0.00     0.348 HD
ATOM     17  C   UNL A   1      32.335  22.773  27.669  1.00  0.00     0.153 C 
BRANCH  12  18
ATOM     18  C   UNL A   1      32.520  20.012  24.766  1.00  0.00     0.080 A 
ATOM     19  C   UNL A   1      32.738  17.550  24.936  1.00  0.00     0.161 A 
ATOM     20  C   UNL A   1      32.453  17.385  23.590  1.00  0.00     0.051 A 
ATOM     21  C   UNL A   1      32.742  18.836  25.519  1.00  0.00     0.169 A 
ATOM     22  C   UNL A   1      32.225  18.512  22.815  1.00  0.00     0.020 A 
ATOM     23  C   UNL A   1      32.302  19.799  23.383  1.00  0.00     0.032 A 
ATOM     24  Br  UNL A   1      32.225  21.202  22.110  1.00  0.00    -0.050 Br
BRANCH  19  25
ATOM     25  O   UNL A   1      33.173  16.440  25.617  1.00  0.00    -0.493 OA
ATOM     26  C   UNL A   1      34.489  16.039  25.247  1.00  0.00     0.278 C 
ENDBRANCH  19  25
BRANCH  21  27
ATOM     27  O   UNL A   1      33.029  18.908  26.855  1.00  0.00    -0.504 OA
ATOM     28  H   UNL A   1      33.482  18.203  27.275  1.00  0.00     0.293 HD
ENDBRANCH  21  27
ENDBRANCH  12  18
ENDBRANCH   9  11
ENDBRANCH   8   9
ENDBRANCH   7   8
ENDBRANCH   6   7
ENDBRANCH   5   6
ENDBRANCH   4   5
ENDBRANCH   3   4
ENDBRANCH   2   3
ENDBRANCH   1   2
BRANCH   1  29
ATOM     29  C   UNL A   1      36.656  22.983  23.632  1.00  0.00     0.188 C 
BRANCH  29  30
ATOM     30  O   UNL A   1      37.178  21.736  24.079  1.00  0.00    -0.376 OA
BRANCH  30  31
ATOM     31  C   UNL A   1      37.963  21.715  25.262  1.00  0.00     0.202 C 
BRANCH  31  32
ATOM     32  C   UNL A   1      38.862  20.493  25.534  1.00  0.00     0.261 C 
BRANCH  32  33
ATOM     33  O   UNL A   1      39.817  20.594  26.602  1.00  0.00    -0.460 OA
BRANCH  33  34
ATOM     34  C   UNL A   1      41.081  20.186  26.376  1.00  0.00     0.338 C 
ATOM     35  O   UNL A   1      41.429  19.109  25.917  1.00  0.00    -0.246 OA
BRANCH  34  36
ATOM     36  C   UNL A   1      41.981  21.343  26.589  1.00  0.00     0.060 A 
ATOM     37  C   UNL A   1      42.340  21.689  27.899  1.00  0.00     0.016 A 
ATOM     38  C   UNL A   1      42.475  22.078  25.508  1.00  0.00     0.016 A 
ATOM     39  C   UNL A   1      43.157  22.796  28.134  1.00  0.00     0.010 A 
ATOM     40  C   UNL A   1      43.275  23.202  25.747  1.00  0.00     0.010 A 
ATOM     41  C   UNL A   1      43.589  23.588  27.063  1.00  0.00    -0.014 A 
BRANCH  41  42
ATOM     42  C   UNL A   1      44.188  24.923  27.327  1.00  0.00     0.031 A 
ATOM     43  C   UNL A   1      43.276  26.036  27.773  1.00  0.00     0.074 A 
ATOM     44  C   UNL A   1      45.511  25.143  27.203  1.00  0.00     0.049 A 
ATOM     45  N   UNL A   1      43.550  27.291  28.015  1.00  0.00    -0.248 NA
ATOM     46  C   UNL A   1      41.859  25.683  27.970  1.00  0.00     0.031 C 
ATOM     47  C   UNL A   1      46.505  24.140  26.826  1.00  0.00     0.029 A 
ATOM     48  N   UNL A   1      46.244  26.292  27.378  1.00  0.00    -0.354 N 
ATOM     49  C   UNL A   1      42.344  27.879  28.378  1.00  0.00     0.074 A 
ATOM     50  C   UNL A   1      41.330  26.852  28.301  1.00  0.00     0.031 C 
ATOM     51  C   UNL A   1      47.717  24.721  26.786  1.00  0.00     0.029 A 
ATOM     52  C   UNL A   1      47.582  26.144  27.098  1.00  0.00     0.049 A 
ATOM     53  H   UNL A   1      45.848  27.143  27.676  1.00  0.00     0.167 HD
ATOM     54  C   UNL A   1      42.104  29.159  28.749  1.00  0.00     0.037 A 
ATOM     55  C   UNL A   1      48.575  27.057  27.073  1.00  0.00     0.037 A 
ATOM     56  C   UNL A   1      43.119  30.177  28.835  1.00  0.00     0.049 A 
ATOM     57  C   UNL A   1      48.267  28.494  27.420  1.00  0.00     0.074 A 
ATOM     58  C   UNL A   1      42.979  31.496  29.227  1.00  0.00     0.029 A 
ATOM     59  N   UNL A   1      44.455  29.994  28.516  1.00  0.00    -0.354 N 
ATOM     60  N   UNL A   1      47.128  29.030  27.791  1.00  0.00    -0.248 NA
ATOM     61  C   UNL A   1      49.382  29.452  27.348  1.00  0.00     0.031 C 
ATOM     62  C   UNL A   1      44.218  32.128  29.085  1.00  0.00     0.029 A 
ATOM     63  C   UNL A   1      45.145  31.185  28.671  1.00  0.00     0.049 A 
ATOM     64  H   UNL A   1      44.855  29.144  28.222  1.00  0.00     0.167 HD
ATOM     65  C   UNL A   1      47.398  30.376  28.032  1.00  0.00     0.074 A 
ATOM     66  C   UNL A   1      48.809  30.569  27.775  1.00  0.00     0.031 C 
ATOM     67  C   UNL A   1      46.556  31.361  28.432  1.00  0.00     0.037 A 
BRANCH  54  68
ATOM     68  C   UNL A   1      40.686  29.548  29.066  1.00  0.00     0.058 A 
ATOM     69  C   UNL A   1      39.691  29.601  28.078  1.00  0.00     0.135 A 
ATOM     70  C   UNL A   1      40.305  29.808  30.393  1.00  0.00     0.135 A 
ATOM     71  F   UNL A   1      40.002  29.382  26.790  1.00  0.00    -0.206 F 
ATOM     72  C   UNL A   1      38.370  29.909  28.392  1.00  0.00     0.059 A 
ATOM     73  C   UNL A   1      38.987  30.091  30.734  1.00  0.00     0.059 A 
ATOM     74  F   UNL A   1      41.219  29.779  31.376  1.00  0.00    -0.206 F 
ATOM     75  C   UNL A   1      38.027  30.145  29.725  1.00  0.00     0.060 A 
BRANCH  75  76
ATOM     76  S   UNL A   1      36.304  30.509  30.119  1.00  0.00     0.124 S 
ATOM     77  O   UNL A   1      36.407  31.862  30.659  1.00  0.00    -0.237 OA
ATOM     78  O   UNL A   1      35.658  30.395  28.816  1.00  0.00    -0.237 OA
ATOM     79  O   UNL A   1      35.949  29.475  31.085  1.00  0.00    -0.744 OA
ENDBRANCH  75  76
ENDBRANCH  54  68
BRANCH  55  80
ATOM     80  C   UNL A   1      49.958  26.658  26.685  1.00  0.00     0.058 A 
ATOM     81  C   UNL A   1      50.357  26.631  25.339  1.00  0.00     0.135 A 
ATOM     82  C   UNL A   1      50.896  26.254  27.648  1.00  0.00     0.135 A 
ATOM     83  F   UNL A   1      49.495  26.993  24.377  1.00  0.00    -0.206 F 
ATOM     84  C   UNL A   1      51.622  26.190  24.960  1.00  0.00     0.059 A 
ATOM     85  C   UNL A   1      52.178  25.840  27.297  1.00  0.00     0.059 A 
ATOM     86  F   UNL A   1      50.571  26.265  28.950  1.00  0.00    -0.206 F 
ATOM     87  C   UNL A   1      52.526  25.797  25.947  1.00  0.00     0.060 A 
BRANCH  87  88
ATOM     88  S   UNL A   1      54.171  25.246  25.445  1.00  0.00     0.124 S 
ATOM     89  O   UNL A   1      53.856  24.350  24.338  1.00  0.00    -0.237 OA
ATOM     90  O   UNL A   1      54.817  26.503  25.085  1.00  0.00    -0.237 OA
ATOM     91  O   UNL A   1      54.692  24.602  26.648  1.00  0.00    -0.744 OA
ENDBRANCH  87  88
ENDBRANCH  55  80
BRANCH  67  92
ATOM     92  C   UNL A   1      47.139  32.729  28.673  1.00  0.00     0.058 A 
ATOM     93  C   UNL A   1      47.649  33.113  29.922  1.00  0.00     0.135 A 
ATOM     94  C   UNL A   1      47.243  33.650  27.615  1.00  0.00     0.135 A 
ATOM     95  F   UNL A   1      47.574  32.275  30.969  1.00  0.00    -0.206 F 
ATOM     96  C   UNL A   1      48.216  34.367  30.123  1.00  0.00     0.059 A 
ATOM     97  C   UNL A   1      47.836  34.896  27.783  1.00  0.00     0.059 A 
ATOM     98  F   UNL A   1      46.784  33.332  26.394  1.00  0.00    -0.206 F 
ATOM     99  C   UNL A   1      48.309  35.251  29.045  1.00  0.00     0.060 A 
BRANCH  99 100
ATOM    100  S   UNL A   1      49.079  36.863  29.312  1.00  0.00     0.124 S 
ATOM    101  O   UNL A   1      47.917  37.706  29.571  1.00  0.00    -0.237 OA
ATOM    102  O   UNL A   1      49.946  36.608  30.458  1.00  0.00    -0.237 OA
ATOM    103  O   UNL A   1      49.773  37.122  28.054  1.00  0.00    -0.744 OA
ENDBRANCH  99 100
ENDBRANCH  67  92
ENDBRANCH  41  42
ENDBRANCH  34  36
ENDBRANCH  33  34
ENDBRANCH  32  33
ENDBRANCH  31  32
ENDBRANCH  30  31
ENDBRANCH  29  30
ENDBRANCH   1  29
TORSDOF 26
ENDMDL
MODEL 2
REMARK VINA RESULT:      -9.7      6.129      9.116
REMARK SMILES COc1ccc(Br)c([C@H]2[NH2+][C@H](C(=O)OCCOCCOCCOCCOC(=O)c3ccc(-c4c5nc(c(-c6c(F)cc(S(=O)(=O)[O-])cc6F)c6ccc([nH]6)c(-c6c(F)cc(S(=O)(=O)[O-])cc6F)c6nc(c(-c7c(F)cc(S(=O)(=O)[O-])cc7F)c7ccc4[nH]7)C=C6)C=C5)cc3)CS2)c1O
REMARK SMILES IDX 21 1 20 2 19 3 18 4 17 5 16 6 15 7 14 8 12 9 13 10 11 11
REMARK SMILES IDX 9 12 10 13 96 14 95 17 8 18 3 19 4 20 97 21 5 22 6 23 7 24
REMARK SMILES IDX 2 25 1 26 98 27 22 29 23 30 24 31 25 32 26 33 27 34 28 35
REMARK SMILES IDX 29 36 30 37 94 38 31 39 93 40 32 41 33 42 34 43 87 44 35 45
REMARK SMILES IDX 92 46 86 47 88 48 36 49 91 50 85 51 84 52 37 54 71 55 50 56
REMARK SMILES IDX 70 57 51 58 54 59 69 60 89 61 52 62 53 63 68 65 90 66 55 67
REMARK SMILES IDX 38 68 39 69 48 70 40 71 41 72 47 73 49 74 42 75 43 76 44 77
REMARK SMILES IDX 45 78 46 79 72 80 73 81 82 82 74 83 75 84 81 85 83 86 76 87
REMARK SMILES IDX 77 88 78 89 79 90 80 91 56 92 57 93 66 94 58 95 59 96 65 97
REMARK SMILES IDX 67 98 60 99 61 100 62 101 63 102 64 103
REMARK H PARENT 10 15 10 16 98 28 88 53 54 64
REMARK Flexibility Score: inf
ROOT
ATOM      1  C   UNL A   1      38.203  21.674  25.305  1.00  0.00     0.188 C 
ENDROOT
BRANCH   1   2
ATOM      2  O   UNL A   1      36.790  21.678  25.399  1.00  0.00    -0.377 OA
BRANCH   2   3
ATOM      3  C   UNL A   1      36.122  20.473  25.088  1.00  0.00     0.188 C 
BRANCH   3   4
ATOM      4  C   UNL A   1      34.631  20.640  24.744  1.00  0.00     0.188 C 
BRANCH   4   5
ATOM      5  O   UNL A   1      34.101  21.881  24.289  1.00  0.00    -0.376 OA
BRANCH   5   6
ATOM      6  C   UNL A   1      32.866  21.928  23.589  1.00  0.00     0.202 C 
BRANCH   6   7
ATOM      7  C   UNL A   1      32.159  23.274  23.333  1.00  0.00     0.261 C 
BRANCH   7   8
ATOM      8  O   UNL A   1      32.512  23.988  22.129  1.00  0.00    -0.459 OA
BRANCH   8   9
ATOM      9  C   UNL A   1      33.428  24.971  22.282  1.00  0.00     0.365 C 
ATOM     10  O   UNL A   1      34.508  24.814  22.854  1.00  0.00    -0.245 OA
BRANCH   9  11
ATOM     11  C   UNL A   1      33.036  26.354  21.748  1.00  0.00     0.304 C 
ATOM     12  C   UNL A   1      31.290  27.557  22.928  1.00  0.00     0.279 C 
ATOM     13  N   UNL A   1      31.604  26.759  21.728  1.00  0.00    -0.319 N 
ATOM     14  S   UNL A   1      32.808  28.414  23.430  1.00  0.00    -0.087 SA
ATOM     15  H   UNL A   1      31.423  27.318  20.895  1.00  0.00     0.348 HD
ATOM     16  H   UNL A   1      31.020  25.923  21.720  1.00  0.00     0.348 HD
ATOM     17  C   UNL A   1      33.902  27.416  22.395  1.00  0.00     0.153 C 
BRANCH  12  18
ATOM     18  C   UNL A   1      30.030  28.415  22.704  1.00  0.00     0.080 A 
ATOM     19  C   UNL A   1      28.830  30.378  21.785  1.00  0.00     0.161 A 
ATOM     20  C   UNL A   1      27.604  29.881  22.197  1.00  0.00     0.051 A 
ATOM     21  C   UNL A   1      30.017  29.645  22.008  1.00  0.00     0.169 A 
ATOM     22  C   UNL A   1      27.572  28.675  22.879  1.00  0.00     0.020 A 
ATOM     23  C   UNL A   1      28.763  27.980  23.165  1.00  0.00     0.032 A 
ATOM     24  Br  UNL A   1      28.528  26.504  24.330  1.00  0.00    -0.050 Br
BRANCH  19  25
ATOM     25  O   UNL A   1      28.849  31.668  21.314  1.00  0.00    -0.493 OA
ATOM     26  C   UNL A   1      27.758  31.962  20.447  1.00  0.00     0.278 C 
ENDBRANCH  19  25
BRANCH  21  27
ATOM     27  O   UNL A   1      31.183  30.208  21.565  1.00  0.00    -0.504 OA
ATOM     28  H   UNL A   1      31.271  30.456  20.665  1.00  0.00     0.293 HD
ENDBRANCH  21  27
ENDBRANCH  12  18
ENDBRANCH   9  11
ENDBRANCH   8   9
ENDBRANCH   7   8
ENDBRANCH   6   7
ENDBRANCH   5   6
ENDBRANCH   4   5
ENDBRANCH   3   4
ENDBRANCH   2   3
ENDBRANCH   1   2
BRANCH   1  29
ATOM     29  C   UNL A   1      38.930  20.383  25.707  1.00  0.00     0.188 C 
BRANCH  29  30
ATOM     30  O   UNL A   1      40.235  20.607  26.229  1.00  0.00    -0.376 OA
BRANCH  30  31
ATOM     31  C   UNL A   1      40.596  21.930  26.601  1.00  0.00     0.202 C 
BRANCH  31  32
ATOM     32  C   UNL A   1      42.011  22.436  26.256  1.00  0.00     0.261 C 
BRANCH  32  33
ATOM     33  O   UNL A   1      42.506  23.573  26.980  1.00  0.00    -0.460 OA
BRANCH  33  34
ATOM     34  C   UNL A   1      42.440  24.786  26.398  1.00  0.00     0.338 C 
ATOM     35  O   UNL A   1      42.530  25.028  25.204  1.00  0.00    -0.246 OA
BRANCH  34  36
ATOM     36  C   UNL A   1      42.036  25.769  27.430  1.00  0.00     0.060 A 
ATOM     37  C   UNL A   1      42.749  26.970  27.536  1.00  0.00     0.016 A 
ATOM     38  C   UNL A   1      40.959  25.514  28.282  1.00  0.00     0.016 A 
ATOM     39  C   UNL A   1      42.416  27.900  28.523  1.00  0.00     0.010 A 
ATOM     40  C   UNL A   1      40.640  26.436  29.286  1.00  0.00     0.010 A 
ATOM     41  C   UNL A   1      41.391  27.617  29.435  1.00  0.00    -0.014 A 
BRANCH  41  42
ATOM     42  C   UNL A   1      41.242  28.448  30.659  1.00  0.00     0.031 A 
ATOM     43  C   UNL A   1      40.156  29.492  30.681  1.00  0.00     0.074 A 
ATOM     44  C   UNL A   1      42.028  28.268  31.736  1.00  0.00     0.049 A 
ATOM     45  N   UNL A   1      39.861  30.367  31.607  1.00  0.00    -0.248 NA
ATOM     46  C   UNL A   1      39.285  29.558  29.495  1.00  0.00     0.031 C 
ATOM     47  C   UNL A   1      43.082  27.262  31.859  1.00  0.00     0.029 A 
ATOM     48  N   UNL A   1      42.062  28.937  32.937  1.00  0.00    -0.354 N 
ATOM     49  C   UNL A   1      38.785  31.094  31.112  1.00  0.00     0.074 A 
ATOM     50  C   UNL A   1      38.491  30.576  29.794  1.00  0.00     0.031 C 
ATOM     51  C   UNL A   1      43.668  27.389  33.063  1.00  0.00     0.029 A 
ATOM     52  C   UNL A   1      43.057  28.506  33.783  1.00  0.00     0.049 A 
ATOM     53  H   UNL A   1      41.433  29.658  33.169  1.00  0.00     0.167 HD
ATOM     54  C   UNL A   1      38.097  32.098  31.705  1.00  0.00     0.037 A 
ATOM     55  C   UNL A   1      43.444  28.977  34.987  1.00  0.00     0.037 A 
ATOM     56  C   UNL A   1      38.385  32.604  33.022  1.00  0.00     0.049 A 
ATOM     57  C   UNL A   1      42.707  30.147  35.594  1.00  0.00     0.074 A 
ATOM     58  C   UNL A   1      37.727  33.601  33.720  1.00  0.00     0.029 A 
ATOM     59  N   UNL A   1      39.417  32.161  33.834  1.00  0.00    -0.354 N 
ATOM     60  N   UNL A   1      41.671  30.805  35.129  1.00  0.00    -0.248 NA
ATOM     61  C   UNL A   1      43.189  30.637  36.895  1.00  0.00     0.031 C 
ATOM     62  C   UNL A   1      38.401  33.805  34.928  1.00  0.00     0.029 A 
ATOM     63  C   UNL A   1      39.436  32.887  35.013  1.00  0.00     0.049 A 
ATOM     64  H   UNL A   1      40.045  31.438  33.606  1.00  0.00     0.167 HD
ATOM     65  C   UNL A   1      41.357  31.758  36.095  1.00  0.00     0.074 A 
ATOM     66  C   UNL A   1      42.305  31.585  37.174  1.00  0.00     0.031 C 
ATOM     67  C   UNL A   1      40.373  32.692  36.091  1.00  0.00     0.037 A 
BRANCH  54  68
ATOM     68  C   UNL A   1      36.981  32.743  30.929  1.00  0.00     0.058 A 
ATOM     69  C   UNL A   1      37.219  33.741  29.972  1.00  0.00     0.135 A 
ATOM     70  C   UNL A   1      35.657  32.305  31.104  1.00  0.00     0.135 A 
ATOM     71  F   UNL A   1      38.462  34.211  29.780  1.00  0.00    -0.206 F 
ATOM     72  C   UNL A   1      36.183  34.292  29.223  1.00  0.00     0.059 A 
ATOM     73  C   UNL A   1      34.610  32.821  30.346  1.00  0.00     0.059 A 
ATOM     74  F   UNL A   1      35.372  31.359  32.012  1.00  0.00    -0.206 F 
ATOM     75  C   UNL A   1      34.883  33.819  29.412  1.00  0.00     0.060 A 
BRANCH  75  76
ATOM     76  S   UNL A   1      33.557  34.519  28.407  1.00  0.00     0.124 S 
ATOM     77  O   UNL A   1      33.046  33.331  27.729  1.00  0.00    -0.237 OA
ATOM     78  O   UNL A   1      32.678  35.101  29.417  1.00  0.00    -0.237 OA
ATOM     79  O   UNL A   1      34.247  35.479  27.553  1.00  0.00    -0.744 OA
ENDBRANCH  75  76
ENDBRANCH  54  68
BRANCH  55  80
ATOM     80  C   UNL A   1      44.601  28.365  35.701  1.00  0.00     0.058 A 
ATOM     81  C   UNL A   1      45.900  28.879  35.556  1.00  0.00     0.135 A 
ATOM     82  C   UNL A   1      44.439  27.229  36.508  1.00  0.00     0.135 A 
ATOM     83  F   UNL A   1      46.112  29.955  34.783  1.00  0.00    -0.206 F 
ATOM     84  C   UNL A   1      46.997  28.272  36.159  1.00  0.00     0.059 A 
ATOM     85  C   UNL A   1      45.516  26.623  37.149  1.00  0.00     0.059 A 
ATOM     86  F   UNL A   1      43.219  26.699  36.688  1.00  0.00    -0.206 F 
ATOM     87  C   UNL A   1      46.795  27.143  36.955  1.00  0.00     0.060 A 
BRANCH  87  88
ATOM     88  S   UNL A   1      48.225  26.376  37.748  1.00  0.00     0.124 S 
ATOM     89  O   UNL A   1      48.482  25.247  36.862  1.00  0.00    -0.237 OA
ATOM     90  O   UNL A   1      49.208  27.453  37.713  1.00  0.00    -0.237 OA
ATOM     91  O   UNL A   1      47.727  26.033  39.077  1.00  0.00    -0.744 OA
ENDBRANCH  87  88
ENDBRANCH  55  80
BRANCH  67  92
ATOM     92  C   UNL A   1      40.227  33.566  37.309  1.00  0.00     0.058 A 
ATOM     93  C   UNL A   1      39.341  33.251  38.351  1.00  0.00     0.135 A 
ATOM     94  C   UNL A   1      41.035  34.706  37.462  1.00  0.00     0.135 A 
ATOM     95  F   UNL A   1      38.543  32.175  38.258  1.00  0.00    -0.206 F 
ATOM     96  C   UNL A   1      39.241  34.048  39.487  1.00  0.00     0.059 A 
ATOM     97  C   UNL A   1      40.976  35.499  38.603  1.00  0.00     0.059 A 
ATOM     98  F   UNL A   1      41.910  35.048  36.503  1.00  0.00    -0.206 F 
ATOM     99  C   UNL A   1      40.066  35.169  39.606  1.00  0.00     0.060 A 
BRANCH  99 100
ATOM    100  S   UNL A   1      39.950  36.174  41.101  1.00  0.00     0.124 S 
ATOM    101  O   UNL A   1      40.961  37.194  40.850  1.00  0.00    -0.237 OA
ATOM    102  O   UNL A   1      38.564  36.631  41.063  1.00  0.00    -0.237 OA
ATOM    103  O   UNL A   1      40.263  35.231  42.171  1.00  0.00    -0.744 OA
ENDBRANCH  99 100
ENDBRANCH  67  92
ENDBRANCH  41  42
ENDBRANCH  34  36
ENDBRANCH  33  34
ENDBRANCH  32  33
ENDBRANCH  31  32
ENDBRANCH  30  31
ENDBRANCH  29  30
ENDBRANCH   1  29
TORSDOF 26
ENDMDL
MODEL 3
REMARK VINA RESULT:      -9.7      2.103      9.101
REMARK SMILES COc1ccc(Br)c([C@H]2[NH2+][C@H](C(=O)OCCOCCOCCOCCOC(=O)c3ccc(-c4c5nc(c(-c6c(F)cc(S(=O)(=O)[O-])cc6F)c6ccc([nH]6)c(-c6c(F)cc(S(=O)(=O)[O-])cc6F)c6nc(c(-c7c(F)cc(S(=O)(=O)[O-])cc7F)c7ccc4[nH]7)C=C6)C=C5)cc3)CS2)c1O
REMARK SMILES IDX 21 1 20 2 19 3 18 4 17 5 16 6 15 7 14 8 12 9 13 10 11 11
REMARK SMILES IDX 9 12 10 13 96 14 95 17 8 18 3 19 4 20 97 21 5 22 6 23 7 24
REMARK SMILES IDX 2 25 1 26 98 27 22 29 23 30 24 31 25 32 26 33 27 34 28 35
REMARK SMILES IDX 29 36 30 37 94 38 31 39 93 40 32 41 33 42 34 43 87 44 35 45
REMARK SMILES IDX 92 46 86 47 88 48 36 49 91 50 85 51 84 52 37 54 71 55 50 56
REMARK SMILES IDX 70 57 51 58 54 59 69 60 89 61 52 62 53 63 68 65 90 66 55 67
REMARK SMILES IDX 38 68 39 69 48 70 40 71 41 72 47 73 49 74 42 75 43 76 44 77
REMARK SMILES IDX 45 78 46 79 72 80 73 81 82 82 74 83 75 84 81 85 83 86 76 87
REMARK SMILES IDX 77 88 78 89 79 90 80 91 56 92 57 93 66 94 58 95 59 96 65 97
REMARK SMILES IDX 67 98 60 99 61 100 62 101 63 102 64 103
REMARK H PARENT 10 15 10 16 98 28 88 53 54 64
REMARK Flexibility Score: inf
ROOT
ATOM      1  C   UNL A   1      35.925  23.034  25.459  1.00  0.00     0.188 C 
ENDROOT
BRANCH   1   2
ATOM      2  O   UNL A   1      34.596  22.582  25.653  1.00  0.00    -0.377 OA
BRANCH   2   3
ATOM      3  C   UNL A   1      34.248  21.341  25.075  1.00  0.00     0.188 C 
BRANCH   3   4
ATOM      4  C   UNL A   1      33.003  20.678  25.690  1.00  0.00     0.188 C 
BRANCH   4   5
ATOM      5  O   UNL A   1      31.685  21.107  25.361  1.00  0.00    -0.376 OA
BRANCH   5   6
ATOM      6  C   UNL A   1      31.194  22.356  25.825  1.00  0.00     0.202 C 
BRANCH   6   7
ATOM      7  C   UNL A   1      31.087  23.561  24.870  1.00  0.00     0.261 C 
BRANCH   7   8
ATOM      8  O   UNL A   1      31.176  23.292  23.454  1.00  0.00    -0.459 OA
BRANCH   8   9
ATOM      9  C   UNL A   1      32.164  23.943  22.798  1.00  0.00     0.365 C 
ATOM     10  O   UNL A   1      33.320  23.524  22.716  1.00  0.00    -0.245 OA
BRANCH   9  11
ATOM     11  C   UNL A   1      31.794  25.299  22.186  1.00  0.00     0.304 C 
ATOM     12  C   UNL A   1      32.179  27.280  23.534  1.00  0.00     0.279 C 
ATOM     13  N   UNL A   1      31.157  26.343  23.034  1.00  0.00    -0.319 N 
ATOM     14  S   UNL A   1      33.519  27.331  22.313  1.00  0.00    -0.087 SA
ATOM     15  H   UNL A   1      30.472  26.856  22.480  1.00  0.00     0.348 HD
ATOM     16  H   UNL A   1      30.697  25.895  23.826  1.00  0.00     0.348 HD
ATOM     17  C   UNL A   1      32.979  25.856  21.422  1.00  0.00     0.153 C 
BRANCH  12  18
ATOM     18  C   UNL A   1      31.543  28.620  23.948  1.00  0.00     0.080 A 
ATOM     19  C   UNL A   1      29.859  30.425  23.733  1.00  0.00     0.161 A 
ATOM     20  C   UNL A   1      30.316  31.052  24.881  1.00  0.00     0.051 A 
ATOM     21  C   UNL A   1      30.442  29.217  23.292  1.00  0.00     0.169 A 
ATOM     22  C   UNL A   1      31.390  30.498  25.559  1.00  0.00     0.020 A 
ATOM     23  C   UNL A   1      32.018  29.332  25.077  1.00  0.00     0.032 A 
ATOM     24  Br  UNL A   1      33.621  28.894  25.988  1.00  0.00    -0.050 Br
BRANCH  19  25
ATOM     25  O   UNL A   1      28.948  31.115  22.972  1.00  0.00    -0.493 OA
ATOM     26  C   UNL A   1      27.642  31.129  23.541  1.00  0.00     0.278 C 
ENDBRANCH  19  25
BRANCH  21  27
ATOM     27  O   UNL A   1      29.928  28.663  22.151  1.00  0.00    -0.504 OA
ATOM     28  H   UNL A   1      29.079  28.265  22.165  1.00  0.00     0.293 HD
ENDBRANCH  21  27
ENDBRANCH  12  18
ENDBRANCH   9  11
ENDBRANCH   8   9
ENDBRANCH   7   8
ENDBRANCH   6   7
ENDBRANCH   5   6
ENDBRANCH   4   5
ENDBRANCH   3   4
ENDBRANCH   2   3
ENDBRANCH   1   2
BRANCH   1  29
ATOM     29  C   UNL A   1      36.619  22.629  24.151  1.00  0.00     0.188 C 
BRANCH  29  30
ATOM     30  O   UNL A   1      37.395  21.441  24.267  1.00  0.00    -0.376 OA
BRANCH  30  31
ATOM     31  C   UNL A   1      38.267  21.308  25.380  1.00  0.00     0.202 C 
BRANCH  31  32
ATOM     32  C   UNL A   1      39.167  20.060  25.472  1.00  0.00     0.261 C 
BRANCH  32  33
ATOM     33  O   UNL A   1      40.089  19.983  26.570  1.00  0.00    -0.460 OA
BRANCH  33  34
ATOM     34  C   UNL A   1      41.391  19.762  26.303  1.00  0.00     0.338 C 
ATOM     35  O   UNL A   1      41.876  18.746  25.829  1.00  0.00    -0.246 OA
BRANCH  34  36
ATOM     36  C   UNL A   1      42.121  21.037  26.494  1.00  0.00     0.060 A 
ATOM     37  C   UNL A   1      42.409  21.463  27.797  1.00  0.00     0.016 A 
ATOM     38  C   UNL A   1      42.525  21.804  25.399  1.00  0.00     0.016 A 
ATOM     39  C   UNL A   1      43.063  22.678  28.011  1.00  0.00     0.010 A 
ATOM     40  C   UNL A   1      43.161  23.033  25.615  1.00  0.00     0.010 A 
ATOM     41  C   UNL A   1      43.399  23.493  26.923  1.00  0.00    -0.014 A 
BRANCH  41  42
ATOM     42  C   UNL A   1      43.806  24.904  27.156  1.00  0.00     0.031 A 
ATOM     43  C   UNL A   1      45.230  25.292  26.854  1.00  0.00     0.074 A 
ATOM     44  C   UNL A   1      42.932  25.829  27.597  1.00  0.00     0.049 A 
ATOM     45  N   UNL A   1      45.833  26.441  27.021  1.00  0.00    -0.248 NA
ATOM     46  C   UNL A   1      46.091  24.239  26.288  1.00  0.00     0.031 C 
ATOM     47  C   UNL A   1      41.518  25.592  27.880  1.00  0.00     0.029 A 
ATOM     48  N   UNL A   1      43.115  27.159  27.891  1.00  0.00    -0.354 N 
ATOM     49  C   UNL A   1      47.142  26.246  26.596  1.00  0.00     0.074 A 
ATOM     50  C   UNL A   1      47.255  24.864  26.186  1.00  0.00     0.031 C 
ATOM     51  C   UNL A   1      40.964  26.737  28.319  1.00  0.00     0.029 A 
ATOM     52  C   UNL A   1      41.989  27.777  28.383  1.00  0.00     0.049 A 
ATOM     53  H   UNL A   1      43.972  27.626  27.761  1.00  0.00     0.167 HD
ATOM     54  C   UNL A   1      48.157  27.140  26.545  1.00  0.00     0.037 A 
ATOM     55  C   UNL A   1      41.817  29.031  28.853  1.00  0.00     0.037 A 
ATOM     56  C   UNL A   1      48.038  28.519  26.944  1.00  0.00     0.049 A 
ATOM     57  C   UNL A   1      42.985  29.987  28.854  1.00  0.00     0.074 A 
ATOM     58  C   UNL A   1      49.003  29.509  26.903  1.00  0.00     0.029 A 
ATOM     59  N   UNL A   1      46.890  29.098  27.463  1.00  0.00    -0.354 N 
ATOM     60  N   UNL A   1      44.210  29.799  28.421  1.00  0.00    -0.248 NA
ATOM     61  C   UNL A   1      42.747  31.331  29.405  1.00  0.00     0.031 C 
ATOM     62  C   UNL A   1      48.458  30.672  27.457  1.00  0.00     0.029 A 
ATOM     63  C   UNL A   1      47.132  30.424  27.778  1.00  0.00     0.049 A 
ATOM     64  H   UNL A   1      46.031  28.635  27.590  1.00  0.00     0.167 HD
ATOM     65  C   UNL A   1      44.874  31.009  28.612  1.00  0.00     0.074 A 
ATOM     66  C   UNL A   1      43.913  31.924  29.190  1.00  0.00     0.031 C 
ATOM     67  C   UNL A   1      46.161  31.334  28.334  1.00  0.00     0.037 A 
BRANCH  54  68
ATOM     68  C   UNL A   1      49.499  26.657  26.067  1.00  0.00     0.058 A 
ATOM     69  C   UNL A   1      49.923  26.828  24.740  1.00  0.00     0.135 A 
ATOM     70  C   UNL A   1      50.401  26.072  26.971  1.00  0.00     0.135 A 
ATOM     71  F   UNL A   1      49.094  27.363  23.829  1.00  0.00    -0.206 F 
ATOM     72  C   UNL A   1      51.188  26.426  24.323  1.00  0.00     0.059 A 
ATOM     73  C   UNL A   1      51.680  25.687  26.584  1.00  0.00     0.059 A 
ATOM     74  F   UNL A   1      50.044  25.877  28.251  1.00  0.00    -0.206 F 
ATOM     75  C   UNL A   1      52.063  25.863  25.255  1.00  0.00     0.060 A 
BRANCH  75  76
ATOM     76  S   UNL A   1      53.712  25.378  24.705  1.00  0.00     0.124 S 
ATOM     77  O   UNL A   1      54.558  26.086  25.661  1.00  0.00    -0.237 OA
ATOM     78  O   UNL A   1      53.672  23.927  24.847  1.00  0.00    -0.237 OA
ATOM     79  O   UNL A   1      53.772  25.869  23.333  1.00  0.00    -0.744 OA
ENDBRANCH  75  76
ENDBRANCH  54  68
BRANCH  55  80
ATOM     80  C   UNL A   1      40.494  29.461  29.388  1.00  0.00     0.058 A 
ATOM     81  C   UNL A   1      39.424  29.762  28.529  1.00  0.00     0.135 A 
ATOM     82  C   UNL A   1      40.284  29.622  30.767  1.00  0.00     0.135 A 
ATOM     83  F   UNL A   1      39.576  29.639  27.202  1.00  0.00    -0.206 F 
ATOM     84  C   UNL A   1      38.208  30.234  29.014  1.00  0.00     0.059 A 
ATOM     85  C   UNL A   1      39.066  30.061  31.278  1.00  0.00     0.059 A 
ATOM     86  F   UNL A   1      41.269  29.344  31.635  1.00  0.00    -0.206 F 
ATOM     87  C   UNL A   1      38.038  30.381  30.391  1.00  0.00     0.060 A 
BRANCH  87  88
ATOM     88  S   UNL A   1      36.449  30.976  31.009  1.00  0.00     0.124 S 
ATOM     89  O   UNL A   1      36.866  32.046  31.909  1.00  0.00    -0.237 OA
ATOM     90  O   UNL A   1      35.782  31.396  29.782  1.00  0.00    -0.237 OA
ATOM     91  O   UNL A   1      35.877  29.798  31.654  1.00  0.00    -0.744 OA
ENDBRANCH  87  88
ENDBRANCH  55  80
BRANCH  67  92
ATOM     92  C   UNL A   1      46.601  32.751  28.594  1.00  0.00     0.058 A 
ATOM     93  C   UNL A   1      46.551  33.741  27.602  1.00  0.00     0.135 A 
ATOM     94  C   UNL A   1      47.023  33.135  29.880  1.00  0.00     0.135 A 
ATOM     95  F   UNL A   1      46.159  33.431  26.356  1.00  0.00    -0.206 F 
ATOM     96  C   UNL A   1      46.927  35.055  27.865  1.00  0.00     0.059 A 
ATOM     97  C   UNL A   1      47.371  34.449  30.174  1.00  0.00     0.059 A 
ATOM     98  F   UNL A   1      47.078  32.232  30.871  1.00  0.00    -0.206 F 
ATOM     99  C   UNL A   1      47.333  35.400  29.156  1.00  0.00     0.060 A 
BRANCH  99 100
ATOM    100  S   UNL A   1      47.785  37.116  29.491  1.00  0.00     0.124 S 
ATOM    101  O   UNL A   1      49.038  36.953  30.220  1.00  0.00    -0.237 OA
ATOM    102  O   UNL A   1      47.900  37.676  28.149  1.00  0.00    -0.237 OA
ATOM    103  O   UNL A   1      46.662  37.617  30.279  1.00  0.00    -0.744 OA
ENDBRANCH  99 100
ENDBRANCH  67  92
ENDBRANCH  41  42
ENDBRANCH  34  36
ENDBRANCH  33  34
ENDBRANCH  32  33
ENDBRANCH  31  32
ENDBRANCH  30  31
ENDBRANCH  29  30
ENDBRANCH   1  29
TORSDOF 26
ENDMDL
