MODEL 1
REMARK VINA RESULT:      -9.8      0.000      0.000
REMARK SMILES Cc1nc2ccccc2c2c1C(=O)N(c1cccc(C(=O)OCCOCCOCCOCCOC(=O)c3ccc(-c4c5nc(c(-c6c(F)cc(S(=O)(=O)[O-])cc6F)c6ccc([nH]6)c(-c6c(F)cc(S(=O)(=O)[O-])cc6F)c6nc(c(-c7c(F)cc(S(=O)(=O)[O-])cc7F)c7ccc4[nH]7)C=C6)C=C5)cc3)c1)C2=O
REMARK SMILES IDX 29 1 28 2 27 3 26 4 25 5 24 6 23 7 22 8 20 9 21 10 19 11
REMARK SMILES IDX 15 12 16 13 103 14 17 15 18 16 14 17 1 18 2 19 3 20 11 21
REMARK SMILES IDX 4 22 10 23 12 24 5 25 9 26 104 27 13 28 6 29 8 30 105 31
REMARK SMILES IDX 7 32 30 33 31 34 32 35 33 36 34 37 35 38 36 39 37 40 38 41
REMARK SMILES IDX 102 42 39 43 101 44 40 45 41 46 42 47 95 48 43 49 100 50
REMARK SMILES IDX 94 51 96 52 44 53 99 54 93 55 92 56 45 58 79 59 58 60 78 61
REMARK SMILES IDX 59 62 62 63 77 64 97 65 60 66 61 67 76 69 98 70 63 71 46 72
REMARK SMILES IDX 47 73 56 74 48 75 49 76 55 77 57 78 50 79 51 80 52 81 53 82
REMARK SMILES IDX 54 83 80 84 81 85 90 86 82 87 83 88 89 89 91 90 84 91 85 92
REMARK SMILES IDX 86 93 87 94 88 95 64 96 65 97 74 98 66 99 67 100 73 101
REMARK SMILES IDX 75 102 68 103 69 104 70 105 71 106 72 107
REMARK H PARENT 96 57 62 68
REMARK Flexibility Score: inf
ROOT
ATOM      1  C   UNL A   1      33.994  34.207  32.651  1.00  0.00     0.188 C 
ENDROOT
BRANCH   1   2
ATOM      2  O   UNL A   1      34.047  32.948  31.998  1.00  0.00    -0.377 OA
BRANCH   2   3
ATOM      3  C   UNL A   1      35.077  32.678  31.066  1.00  0.00     0.188 C 
BRANCH   3   4
ATOM      4  C   UNL A   1      34.728  32.590  29.571  1.00  0.00     0.188 C 
BRANCH   4   5
ATOM      5  O   UNL A   1      34.755  31.282  29.012  1.00  0.00    -0.376 OA
BRANCH   5   6
ATOM      6  C   UNL A   1      34.610  31.213  27.595  1.00  0.00     0.202 C 
BRANCH   6   7
ATOM      7  C   UNL A   1      33.333  30.505  27.109  1.00  0.00     0.261 C 
BRANCH   7   8
ATOM      8  O   UNL A   1      33.542  29.670  25.953  1.00  0.00    -0.460 OA
BRANCH   8   9
ATOM      9  C   UNL A   1      33.364  28.363  26.210  1.00  0.00     0.338 C 
ATOM     10  O   UNL A   1      33.215  27.886  27.329  1.00  0.00    -0.246 OA
BRANCH   9  11
ATOM     11  C   UNL A   1      33.233  27.528  24.988  1.00  0.00     0.062 A 
ATOM     12  C   UNL A   1      32.567  25.631  23.619  1.00  0.00     0.053 A 
ATOM     13  C   UNL A   1      32.914  26.434  22.497  1.00  0.00     0.027 A 
ATOM     14  C   UNL A   1      32.660  26.229  24.887  1.00  0.00     0.042 A 
ATOM     15  C   UNL A   1      33.591  27.634  22.606  1.00  0.00     0.003 A 
ATOM     16  C   UNL A   1      33.780  28.161  23.857  1.00  0.00     0.016 A 
BRANCH  12  17
ATOM     17  N   UNL A   1      32.448  24.220  23.356  1.00  0.00    -0.242 N 
ATOM     18  C   UNL A   1      32.332  19.521  23.989  1.00  0.00     0.067 C 
ATOM     19  C   UNL A   1      33.130  20.760  24.306  1.00  0.00     0.052 A 
ATOM     20  N   UNL A   1      34.410  20.509  24.733  1.00  0.00    -0.252 NA
ATOM     21  C   UNL A   1      32.821  21.928  23.640  1.00  0.00     0.075 A 
ATOM     22  C   UNL A   1      35.291  21.526  24.723  1.00  0.00     0.071 A 
ATOM     23  C   UNL A   1      33.908  22.580  23.140  1.00  0.00     0.064 A 
ATOM     24  C   UNL A   1      32.007  23.147  24.118  1.00  0.00     0.268 C 
ATOM     25  C   UNL A   1      36.423  21.510  25.528  1.00  0.00     0.029 A 
ATOM     26  C   UNL A   1      35.020  22.678  23.987  1.00  0.00     0.014 A 
ATOM     27  C   UNL A   1      33.310  23.685  22.456  1.00  0.00     0.266 C 
ATOM     28  O   UNL A   1      31.263  23.118  25.078  1.00  0.00    -0.268 OA
ATOM     29  C   UNL A   1      37.123  22.686  25.817  1.00  0.00     0.002 A 
ATOM     30  C   UNL A   1      35.715  23.876  24.290  1.00  0.00     0.011 A 
ATOM     31  O   UNL A   1      33.473  23.854  21.259  1.00  0.00    -0.268 OA
ATOM     32  C   UNL A   1      36.717  23.887  25.253  1.00  0.00     0.001 A 
ENDBRANCH  12  17
ENDBRANCH   9  11
ENDBRANCH   8   9
ENDBRANCH   7   8
ENDBRANCH   6   7
ENDBRANCH   5   6
ENDBRANCH   4   5
ENDBRANCH   3   4
ENDBRANCH   2   3
ENDBRANCH   1   2
BRANCH   1  33
ATOM     33  C   UNL A   1      35.222  35.133  32.712  1.00  0.00     0.188 C 
BRANCH  33  34
ATOM     34  O   UNL A   1      35.950  35.092  33.935  1.00  0.00    -0.376 OA
BRANCH  34  35
ATOM     35  C   UNL A   1      37.033  34.171  33.965  1.00  0.00     0.202 C 
BRANCH  35  36
ATOM     36  C   UNL A   1      36.737  32.901  34.767  1.00  0.00     0.261 C 
BRANCH  36  37
ATOM     37  O   UNL A   1      37.175  31.678  34.157  1.00  0.00    -0.460 OA
BRANCH  37  38
ATOM     38  C   UNL A   1      38.272  31.073  34.668  1.00  0.00     0.338 C 
ATOM     39  O   UNL A   1      38.313  30.295  35.603  1.00  0.00    -0.246 OA
BRANCH  38  40
ATOM     40  C   UNL A   1      39.404  31.383  33.767  1.00  0.00     0.060 A 
ATOM     41  C   UNL A   1      39.182  31.588  32.403  1.00  0.00     0.016 A 
ATOM     42  C   UNL A   1      40.704  31.409  34.288  1.00  0.00     0.016 A 
ATOM     43  C   UNL A   1      40.262  31.848  31.560  1.00  0.00     0.010 A 
ATOM     44  C   UNL A   1      41.787  31.659  33.439  1.00  0.00     0.010 A 
ATOM     45  C   UNL A   1      41.569  31.904  32.074  1.00  0.00    -0.014 A 
BRANCH  45  46
ATOM     46  C   UNL A   1      42.661  32.422  31.217  1.00  0.00     0.031 A 
ATOM     47  C   UNL A   1      42.997  33.879  31.134  1.00  0.00     0.074 A 
ATOM     48  C   UNL A   1      43.375  31.518  30.519  1.00  0.00     0.049 A 
ATOM     49  N   UNL A   1      43.996  34.452  30.514  1.00  0.00    -0.248 NA
ATOM     50  C   UNL A   1      42.099  34.815  31.826  1.00  0.00     0.031 C 
ATOM     51  C   UNL A   1      43.117  30.075  30.514  1.00  0.00     0.029 A 
ATOM     52  N   UNL A   1      44.460  31.667  29.698  1.00  0.00    -0.354 N 
ATOM     53  C   UNL A   1      43.870  35.813  30.758  1.00  0.00     0.074 A 
ATOM     54  C   UNL A   1      42.667  35.985  31.548  1.00  0.00     0.031 C 
ATOM     55  C   UNL A   1      44.033  29.469  29.745  1.00  0.00     0.029 A 
ATOM     56  C   UNL A   1      44.932  30.479  29.195  1.00  0.00     0.049 A 
ATOM     57  H   UNL A   1      44.863  32.541  29.487  1.00  0.00     0.167 HD
ATOM     58  C   UNL A   1      44.696  36.816  30.371  1.00  0.00     0.037 A 
ATOM     59  C   UNL A   1      45.981  30.225  28.391  1.00  0.00     0.037 A 
ATOM     60  C   UNL A   1      45.884  36.630  29.572  1.00  0.00     0.049 A 
ATOM     61  C   UNL A   1      46.860  31.358  27.951  1.00  0.00     0.074 A 
ATOM     62  C   UNL A   1      46.804  37.582  29.165  1.00  0.00     0.029 A 
ATOM     63  N   UNL A   1      46.312  35.418  29.049  1.00  0.00    -0.354 N 
ATOM     64  N   UNL A   1      46.769  32.632  28.251  1.00  0.00    -0.248 NA
ATOM     65  C   UNL A   1      47.988  31.024  27.072  1.00  0.00     0.031 C 
ATOM     66  C   UNL A   1      47.761  36.953  28.360  1.00  0.00     0.029 A 
ATOM     67  C   UNL A   1      47.465  35.602  28.302  1.00  0.00     0.049 A 
ATOM     68  H   UNL A   1      45.862  34.552  29.188  1.00  0.00     0.167 HD
ATOM     69  C   UNL A   1      47.839  33.248  27.615  1.00  0.00     0.074 A 
ATOM     70  C   UNL A   1      48.570  32.206  26.922  1.00  0.00     0.031 C 
ATOM     71  C   UNL A   1      48.183  34.559  27.610  1.00  0.00     0.037 A 
BRANCH  58  72
ATOM     72  C   UNL A   1      44.365  38.216  30.813  1.00  0.00     0.058 A 
ATOM     73  C   UNL A   1      43.630  39.083  29.989  1.00  0.00     0.135 A 
ATOM     74  C   UNL A   1      44.696  38.662  32.103  1.00  0.00     0.135 A 
ATOM     75  F   UNL A   1      43.291  38.709  28.745  1.00  0.00    -0.206 F 
ATOM     76  C   UNL A   1      43.245  40.348  30.423  1.00  0.00     0.059 A 
ATOM     77  C   UNL A   1      44.303  39.916  32.566  1.00  0.00     0.059 A 
ATOM     78  F   UNL A   1      45.393  37.872  32.933  1.00  0.00    -0.206 F 
ATOM     79  C   UNL A   1      43.583  40.754  31.716  1.00  0.00     0.060 A 
BRANCH  79  80
ATOM     80  S   UNL A   1      43.051  42.389  32.270  1.00  0.00     0.124 S 
ATOM     81  O   UNL A   1      44.331  43.029  32.558  1.00  0.00    -0.237 OA
ATOM     82  O   UNL A   1      42.337  42.897  31.104  1.00  0.00    -0.237 OA
ATOM     83  O   UNL A   1      42.220  42.101  33.435  1.00  0.00    -0.744 OA
ENDBRANCH  79  80
ENDBRANCH  58  72
BRANCH  59  84
ATOM     84  C   UNL A   1      46.272  28.824  27.997  1.00  0.00     0.058 A 
ATOM     85  C   UNL A   1      45.631  28.240  26.895  1.00  0.00     0.135 A 
ATOM     86  C   UNL A   1      47.234  28.063  28.679  1.00  0.00     0.135 A 
ATOM     87  F   UNL A   1      44.705  28.930  26.214  1.00  0.00    -0.206 F 
ATOM     88  C   UNL A   1      45.929  26.945  26.486  1.00  0.00     0.059 A 
ATOM     89  C   UNL A   1      47.565  26.774  28.276  1.00  0.00     0.059 A 
ATOM     90  F   UNL A   1      47.889  28.589  29.726  1.00  0.00    -0.206 F 
ATOM     91  C   UNL A   1      46.901  26.221  27.180  1.00  0.00     0.060 A 
BRANCH  91  92
ATOM     92  S   UNL A   1      47.320  24.564  26.602  1.00  0.00     0.124 S 
ATOM     93  O   UNL A   1      46.167  23.795  27.054  1.00  0.00    -0.237 OA
ATOM     94  O   UNL A   1      47.431  24.761  25.160  1.00  0.00    -0.237 OA
ATOM     95  O   UNL A   1      48.578  24.278  27.286  1.00  0.00    -0.744 OA
ENDBRANCH  91  92
ENDBRANCH  59  84
BRANCH  71  96
ATOM     96  C   UNL A   1      49.411  34.949  26.835  1.00  0.00     0.058 A 
ATOM     97  C   UNL A   1      50.670  35.028  27.449  1.00  0.00     0.135 A 
ATOM     98  C   UNL A   1      49.339  35.181  25.451  1.00  0.00     0.135 A 
ATOM     99  F   UNL A   1      50.790  34.826  28.771  1.00  0.00    -0.206 F 
ATOM    100  C   UNL A   1      51.815  35.333  26.721  1.00  0.00     0.059 A 
ATOM    101  C   UNL A   1      50.475  35.464  24.700  1.00  0.00     0.059 A 
ATOM    102  F   UNL A   1      48.159  35.113  24.815  1.00  0.00    -0.206 F 
ATOM    103  C   UNL A   1      51.708  35.543  25.345  1.00  0.00     0.060 A 
BRANCH 103 104
ATOM    104  S   UNL A   1      53.213  35.882  24.405  1.00  0.00     0.124 S 
ATOM    105  O   UNL A   1      52.904  35.262  23.120  1.00  0.00    -0.237 OA
ATOM    106  O   UNL A   1      53.261  37.341  24.409  1.00  0.00    -0.237 OA
ATOM    107  O   UNL A   1      54.257  35.225  25.185  1.00  0.00    -0.744 OA
ENDBRANCH 103 104
ENDBRANCH  71  96
ENDBRANCH  45  46
ENDBRANCH  38  40
ENDBRANCH  37  38
ENDBRANCH  36  37
ENDBRANCH  35  36
ENDBRANCH  34  35
ENDBRANCH  33  34
ENDBRANCH   1  33
TORSDOF 24
ENDMDL
MODEL 2
REMARK VINA RESULT:      -9.8      6.262     14.003
REMARK SMILES Cc1nc2ccccc2c2c1C(=O)N(c1cccc(C(=O)OCCOCCOCCOCCOC(=O)c3ccc(-c4c5nc(c(-c6c(F)cc(S(=O)(=O)[O-])cc6F)c6ccc([nH]6)c(-c6c(F)cc(S(=O)(=O)[O-])cc6F)c6nc(c(-c7c(F)cc(S(=O)(=O)[O-])cc7F)c7ccc4[nH]7)C=C6)C=C5)cc3)c1)C2=O
REMARK SMILES IDX 29 1 28 2 27 3 26 4 25 5 24 6 23 7 22 8 20 9 21 10 19 11
REMARK SMILES IDX 15 12 16 13 103 14 17 15 18 16 14 17 1 18 2 19 3 20 11 21
REMARK SMILES IDX 4 22 10 23 12 24 5 25 9 26 104 27 13 28 6 29 8 30 105 31
REMARK SMILES IDX 7 32 30 33 31 34 32 35 33 36 34 37 35 38 36 39 37 40 38 41
REMARK SMILES IDX 102 42 39 43 101 44 40 45 41 46 42 47 95 48 43 49 100 50
REMARK SMILES IDX 94 51 96 52 44 53 99 54 93 55 92 56 45 58 79 59 58 60 78 61
REMARK SMILES IDX 59 62 62 63 77 64 97 65 60 66 61 67 76 69 98 70 63 71 46 72
REMARK SMILES IDX 47 73 56 74 48 75 49 76 55 77 57 78 50 79 51 80 52 81 53 82
REMARK SMILES IDX 54 83 80 84 81 85 90 86 82 87 83 88 89 89 91 90 84 91 85 92
REMARK SMILES IDX 86 93 87 94 88 95 64 96 65 97 74 98 66 99 67 100 73 101
REMARK SMILES IDX 75 102 68 103 69 104 70 105 71 106 72 107
REMARK H PARENT 96 57 62 68
REMARK Flexibility Score: inf
ROOT
ATOM      1  C   UNL A   1      46.702  23.172  24.979  1.00  0.00     0.188 C 
ENDROOT
BRANCH   1   2
ATOM      2  O   UNL A   1      47.098  23.942  26.105  1.00  0.00    -0.377 OA
BRANCH   2   3
ATOM      3  C   UNL A   1      46.910  25.344  26.104  1.00  0.00     0.188 C 
BRANCH   3   4
ATOM      4  C   UNL A   1      48.118  26.261  26.354  1.00  0.00     0.188 C 
BRANCH   4   5
ATOM      5  O   UNL A   1      49.235  25.645  26.985  1.00  0.00    -0.376 OA
BRANCH   5   6
ATOM      6  C   UNL A   1      49.064  25.323  28.364  1.00  0.00     0.202 C 
BRANCH   6   7
ATOM      7  C   UNL A   1      49.039  26.533  29.313  1.00  0.00     0.261 C 
BRANCH   7   8
ATOM      8  O   UNL A   1      48.326  26.287  30.541  1.00  0.00    -0.460 OA
BRANCH   8   9
ATOM      9  C   UNL A   1      46.995  26.409  30.409  1.00  0.00     0.338 C 
ATOM     10  O   UNL A   1      46.202  25.475  30.443  1.00  0.00    -0.246 OA
BRANCH   9  11
ATOM     11  C   UNL A   1      46.529  27.818  30.342  1.00  0.00     0.062 A 
ATOM     12  C   UNL A   1      45.714  29.874  29.329  1.00  0.00     0.053 A 
ATOM     13  C   UNL A   1      45.424  30.306  30.653  1.00  0.00     0.027 A 
ATOM     14  C   UNL A   1      46.206  28.567  29.175  1.00  0.00     0.042 A 
ATOM     15  C   UNL A   1      45.862  29.636  31.780  1.00  0.00     0.003 A 
ATOM     16  C   UNL A   1      46.446  28.406  31.617  1.00  0.00     0.016 A 
BRANCH  12  17
ATOM     17  N   UNL A   1      45.752  30.915  28.333  1.00  0.00    -0.242 N 
ATOM     18  C   UNL A   1      45.948  35.202  26.314  1.00  0.00     0.067 C 
ATOM     19  C   UNL A   1      45.259  34.410  27.395  1.00  0.00     0.052 A 
ATOM     20  N   UNL A   1      44.106  34.988  27.864  1.00  0.00    -0.252 NA
ATOM     21  C   UNL A   1      45.424  33.041  27.413  1.00  0.00     0.075 A 
ATOM     22  C   UNL A   1      43.257  34.221  28.574  1.00  0.00     0.071 A 
ATOM     23  C   UNL A   1      44.260  32.348  27.566  1.00  0.00     0.064 A 
ATOM     24  C   UNL A   1      46.340  32.172  28.298  1.00  0.00     0.268 C 
ATOM     25  C   UNL A   1      42.337  34.781  29.450  1.00  0.00     0.029 A 
ATOM     26  C   UNL A   1      43.370  32.832  28.534  1.00  0.00     0.014 A 
ATOM     27  C   UNL A   1      44.704  30.990  27.479  1.00  0.00     0.266 C 
ATOM     28  O   UNL A   1      47.282  32.617  28.924  1.00  0.00    -0.268 OA
ATOM     29  C   UNL A   1      41.735  34.017  30.456  1.00  0.00     0.002 A 
ATOM     30  C   UNL A   1      42.777  32.056  29.562  1.00  0.00     0.011 A 
ATOM     31  O   UNL A   1      44.276  30.238  26.619  1.00  0.00    -0.268 OA
ATOM     32  C   UNL A   1      42.019  32.663  30.556  1.00  0.00     0.001 A 
ENDBRANCH  12  17
ENDBRANCH   9  11
ENDBRANCH   8   9
ENDBRANCH   7   8
ENDBRANCH   6   7
ENDBRANCH   5   6
ENDBRANCH   4   5
ENDBRANCH   3   4
ENDBRANCH   2   3
ENDBRANCH   1   2
BRANCH   1  33
ATOM     33  C   UNL A   1      45.651  22.053  25.102  1.00  0.00     0.188 C 
BRANCH  33  34
ATOM     34  O   UNL A   1      44.451  22.268  24.367  1.00  0.00    -0.376 OA
BRANCH  34  35
ATOM     35  C   UNL A   1      43.822  23.524  24.586  1.00  0.00     0.202 C 
BRANCH  35  36
ATOM     36  C   UNL A   1      42.459  23.416  25.276  1.00  0.00     0.261 C 
BRANCH  36  37
ATOM     37  O   UNL A   1      42.247  24.336  26.356  1.00  0.00    -0.460 OA
BRANCH  37  38
ATOM     38  C   UNL A   1      41.880  25.601  26.049  1.00  0.00     0.338 C 
ATOM     39  O   UNL A   1      41.586  26.034  24.950  1.00  0.00    -0.246 OA
BRANCH  38  40
ATOM     40  C   UNL A   1      41.720  26.334  27.324  1.00  0.00     0.060 A 
ATOM     41  C   UNL A   1      42.626  27.336  27.678  1.00  0.00     0.016 A 
ATOM     42  C   UNL A   1      40.685  25.970  28.195  1.00  0.00     0.016 A 
ATOM     43  C   UNL A   1      42.481  27.998  28.898  1.00  0.00     0.010 A 
ATOM     44  C   UNL A   1      40.548  26.628  29.422  1.00  0.00     0.010 A 
ATOM     45  C   UNL A   1      41.431  27.662  29.769  1.00  0.00    -0.014 A 
BRANCH  45  46
ATOM     46  C   UNL A   1      41.151  28.535  30.932  1.00  0.00     0.031 A 
ATOM     47  C   UNL A   1      41.951  28.474  32.196  1.00  0.00     0.074 A 
ATOM     48  C   UNL A   1      40.147  29.425  30.805  1.00  0.00     0.049 A 
ATOM     49  N   UNL A   1      41.885  29.256  33.243  1.00  0.00    -0.248 NA
ATOM     50  C   UNL A   1      42.948  27.400  32.307  1.00  0.00     0.031 C 
ATOM     51  C   UNL A   1      39.291  29.553  29.622  1.00  0.00     0.029 A 
ATOM     52  N   UNL A   1      39.684  30.390  31.659  1.00  0.00    -0.354 N 
ATOM     53  C   UNL A   1      42.846  28.792  34.131  1.00  0.00     0.074 A 
ATOM     54  C   UNL A   1      43.452  27.627  33.517  1.00  0.00     0.031 C 
ATOM     55  C   UNL A   1      38.422  30.555  29.816  1.00  0.00     0.029 A 
ATOM     56  C   UNL A   1      38.650  31.130  31.139  1.00  0.00     0.049 A 
ATOM     57  H   UNL A   1      40.056  30.539  32.558  1.00  0.00     0.167 HD
ATOM     58  C   UNL A   1      43.195  29.306  35.336  1.00  0.00     0.037 A 
ATOM     59  C   UNL A   1      37.968  32.166  31.660  1.00  0.00     0.037 A 
ATOM     60  C   UNL A   1      42.571  30.459  35.941  1.00  0.00     0.049 A 
ATOM     61  C   UNL A   1      38.355  32.695  33.009  1.00  0.00     0.074 A 
ATOM     62  C   UNL A   1      42.886  31.076  37.140  1.00  0.00     0.029 A 
ATOM     63  N   UNL A   1      41.502  31.162  35.403  1.00  0.00    -0.354 N 
ATOM     64  N   UNL A   1      39.315  32.290  33.806  1.00  0.00    -0.248 NA
ATOM     65  C   UNL A   1      37.575  33.824  33.531  1.00  0.00     0.031 C 
ATOM     66  C   UNL A   1      41.979  32.122  37.348  1.00  0.00     0.029 A 
ATOM     67  C   UNL A   1      41.128  32.187  36.257  1.00  0.00     0.049 A 
ATOM     68  H   UNL A   1      41.072  30.961  34.540  1.00  0.00     0.167 HD
ATOM     69  C   UNL A   1      39.268  33.128  34.912  1.00  0.00     0.074 A 
ATOM     70  C   UNL A   1      38.192  34.069  34.679  1.00  0.00     0.031 C 
ATOM     71  C   UNL A   1      40.050  33.116  36.019  1.00  0.00     0.037 A 
BRANCH  58  72
ATOM     72  C   UNL A   1      44.316  28.643  36.090  1.00  0.00     0.058 A 
ATOM     73  C   UNL A   1      44.073  27.559  36.948  1.00  0.00     0.135 A 
ATOM     74  C   UNL A   1      45.651  29.027  35.882  1.00  0.00     0.135 A 
ATOM     75  F   UNL A   1      42.816  27.153  37.186  1.00  0.00    -0.206 F 
ATOM     76  C   UNL A   1      45.113  26.885  37.582  1.00  0.00     0.059 A 
ATOM     77  C   UNL A   1      46.708  28.354  36.490  1.00  0.00     0.059 A 
ATOM     78  F   UNL A   1      45.939  30.054  35.068  1.00  0.00    -0.206 F 
ATOM     79  C   UNL A   1      46.429  27.287  37.343  1.00  0.00     0.060 A 
BRANCH  79  80
ATOM     80  S   UNL A   1      47.765  26.384  38.155  1.00  0.00     0.124 S 
ATOM     81  O   UNL A   1      48.154  25.440  37.112  1.00  0.00    -0.237 OA
ATOM     82  O   UNL A   1      48.728  27.442  38.443  1.00  0.00    -0.237 OA
ATOM     83  O   UNL A   1      47.118  25.794  39.323  1.00  0.00    -0.744 OA
ENDBRANCH  79  80
ENDBRANCH  58  72
BRANCH  59  84
ATOM     84  C   UNL A   1      36.881  32.793  30.867  1.00  0.00     0.058 A 
ATOM     85  C   UNL A   1      35.541  32.441  31.082  1.00  0.00     0.135 A 
ATOM     86  C   UNL A   1      37.157  33.792  29.921  1.00  0.00     0.135 A 
ATOM     87  F   UNL A   1      35.232  31.491  31.976  1.00  0.00    -0.206 F 
ATOM     88  C   UNL A   1      34.509  33.054  30.381  1.00  0.00     0.059 A 
ATOM     89  C   UNL A   1      36.140  34.435  29.223  1.00  0.00     0.059 A 
ATOM     90  F   UNL A   1      38.422  34.177  29.698  1.00  0.00    -0.206 F 
ATOM     91  C   UNL A   1      34.818  34.054  29.455  1.00  0.00     0.060 A 
BRANCH  91  92
ATOM     92  S   UNL A   1      33.466  34.882  28.595  1.00  0.00     0.124 S 
ATOM     93  O   UNL A   1      32.830  33.767  27.906  1.00  0.00    -0.237 OA
ATOM     94  O   UNL A   1      32.710  35.464  29.702  1.00  0.00    -0.237 OA
ATOM     95  O   UNL A   1      34.151  35.846  27.740  1.00  0.00    -0.744 OA
ENDBRANCH  91  92
ENDBRANCH  59  84
BRANCH  71  96
ATOM     96  C   UNL A   1      39.779  34.158  37.069  1.00  0.00     0.058 A 
ATOM     97  C   UNL A   1      39.060  33.852  38.235  1.00  0.00     0.135 A 
ATOM     98  C   UNL A   1      40.301  35.455  36.940  1.00  0.00     0.135 A 
ATOM     99  F   UNL A   1      38.531  32.630  38.401  1.00  0.00    -0.206 F 
ATOM    100  C   UNL A   1      38.859  34.799  39.232  1.00  0.00     0.059 A 
ATOM    101  C   UNL A   1      40.131  36.412  37.937  1.00  0.00     0.059 A 
ATOM    102  F   UNL A   1      41.000  35.797  35.846  1.00  0.00    -0.206 F 
ATOM    103  C   UNL A   1      39.404  36.075  39.078  1.00  0.00     0.060 A 
BRANCH 103 104
ATOM    104  S   UNL A   1      39.182  37.277  40.407  1.00  0.00     0.124 S 
ATOM    105  O   UNL A   1      38.528  36.467  41.430  1.00  0.00    -0.237 OA
ATOM    106  O   UNL A   1      40.555  37.677  40.699  1.00  0.00    -0.237 OA
ATOM    107  O   UNL A   1      38.351  38.310  39.798  1.00  0.00    -0.744 OA
ENDBRANCH 103 104
ENDBRANCH  71  96
ENDBRANCH  45  46
ENDBRANCH  38  40
ENDBRANCH  37  38
ENDBRANCH  36  37
ENDBRANCH  35  36
ENDBRANCH  34  35
ENDBRANCH  33  34
ENDBRANCH   1  33
TORSDOF 24
ENDMDL
MODEL 3
REMARK VINA RESULT:      -9.4      4.913      6.976
REMARK SMILES Cc1nc2ccccc2c2c1C(=O)N(c1cccc(C(=O)OCCOCCOCCOCCOC(=O)c3ccc(-c4c5nc(c(-c6c(F)cc(S(=O)(=O)[O-])cc6F)c6ccc([nH]6)c(-c6c(F)cc(S(=O)(=O)[O-])cc6F)c6nc(c(-c7c(F)cc(S(=O)(=O)[O-])cc7F)c7ccc4[nH]7)C=C6)C=C5)cc3)c1)C2=O
REMARK SMILES IDX 29 1 28 2 27 3 26 4 25 5 24 6 23 7 22 8 20 9 21 10 19 11
REMARK SMILES IDX 15 12 16 13 103 14 17 15 18 16 14 17 1 18 2 19 3 20 11 21
REMARK SMILES IDX 4 22 10 23 12 24 5 25 9 26 104 27 13 28 6 29 8 30 105 31
REMARK SMILES IDX 7 32 30 33 31 34 32 35 33 36 34 37 35 38 36 39 37 40 38 41
REMARK SMILES IDX 102 42 39 43 101 44 40 45 41 46 42 47 95 48 43 49 100 50
REMARK SMILES IDX 94 51 96 52 44 53 99 54 93 55 92 56 45 58 79 59 58 60 78 61
REMARK SMILES IDX 59 62 62 63 77 64 97 65 60 66 61 67 76 69 98 70 63 71 46 72
REMARK SMILES IDX 47 73 56 74 48 75 49 76 55 77 57 78 50 79 51 80 52 81 53 82
REMARK SMILES IDX 54 83 80 84 81 85 90 86 82 87 83 88 89 89 91 90 84 91 85 92
REMARK SMILES IDX 86 93 87 94 88 95 64 96 65 97 74 98 66 99 67 100 73 101
REMARK SMILES IDX 75 102 68 103 69 104 70 105 71 106 72 107
REMARK H PARENT 96 57 62 68
REMARK Flexibility Score: inf
ROOT
ATOM      1  C   UNL A   1      34.731  33.552  32.990  1.00  0.00     0.188 C 
ENDROOT
BRANCH   1   2
ATOM      2  O   UNL A   1      35.544  32.540  32.415  1.00  0.00    -0.377 OA
BRANCH   2   3
ATOM      3  C   UNL A   1      35.326  32.134  31.077  1.00  0.00     0.188 C 
BRANCH   3   4
ATOM      4  C   UNL A   1      35.752  33.068  29.933  1.00  0.00     0.188 C 
BRANCH   4   5
ATOM      5  O   UNL A   1      36.827  33.951  30.231  1.00  0.00    -0.376 OA
BRANCH   5   6
ATOM      6  C   UNL A   1      38.119  33.512  29.817  1.00  0.00     0.202 C 
BRANCH   6   7
ATOM      7  C   UNL A   1      38.625  32.238  30.518  1.00  0.00     0.261 C 
BRANCH   7   8
ATOM      8  O   UNL A   1      39.799  31.671  29.904  1.00  0.00    -0.460 OA
BRANCH   8   9
ATOM      9  C   UNL A   1      40.003  30.388  30.246  1.00  0.00     0.338 C 
ATOM     10  O   UNL A   1      39.621  29.875  31.292  1.00  0.00    -0.246 OA
BRANCH   9  11
ATOM     11  C   UNL A   1      40.638  29.579  29.173  1.00  0.00     0.062 A 
ATOM     12  C   UNL A   1      40.802  27.909  27.412  1.00  0.00     0.053 A 
ATOM     13  C   UNL A   1      42.038  28.525  27.068  1.00  0.00     0.027 A 
ATOM     14  C   UNL A   1      40.055  28.506  28.442  1.00  0.00     0.042 A 
ATOM     15  C   UNL A   1      42.657  29.472  27.861  1.00  0.00     0.003 A 
ATOM     16  C   UNL A   1      41.967  29.972  28.934  1.00  0.00     0.016 A 
BRANCH  12  17
ATOM     17  N   UNL A   1      40.600  26.587  26.877  1.00  0.00    -0.242 N 
ATOM     18  C   UNL A   1      40.008  21.890  26.598  1.00  0.00     0.067 C 
ATOM     19  C   UNL A   1      40.859  22.961  27.229  1.00  0.00     0.052 A 
ATOM     20  N   UNL A   1      42.048  22.504  27.741  1.00  0.00    -0.252 NA
ATOM     21  C   UNL A   1      40.738  24.254  26.765  1.00  0.00     0.075 A 
ATOM     22  C   UNL A   1      43.006  23.407  28.020  1.00  0.00     0.071 A 
ATOM     23  C   UNL A   1      41.932  24.865  26.520  1.00  0.00     0.064 A 
ATOM     24  C   UNL A   1      39.976  25.450  27.370  1.00  0.00     0.268 C 
ATOM     25  C   UNL A   1      44.019  23.129  28.928  1.00  0.00     0.029 A 
ATOM     26  C   UNL A   1      42.930  24.693  27.488  1.00  0.00     0.014 A 
ATOM     27  C   UNL A   1      41.522  26.132  25.995  1.00  0.00     0.266 C 
ATOM     28  O   UNL A   1      39.114  25.332  28.219  1.00  0.00    -0.268 OA
ATOM     29  C   UNL A   1      44.773  24.155  29.509  1.00  0.00     0.002 A 
ATOM     30  C   UNL A   1      43.678  25.739  28.087  1.00  0.00     0.011 A 
ATOM     31  O   UNL A   1      41.851  26.490  24.876  1.00  0.00    -0.268 OA
ATOM     32  C   UNL A   1      44.545  25.472  29.140  1.00  0.00     0.001 A 
ENDBRANCH  12  17
ENDBRANCH   9  11
ENDBRANCH   8   9
ENDBRANCH   7   8
ENDBRANCH   6   7
ENDBRANCH   5   6
ENDBRANCH   4   5
ENDBRANCH   3   4
ENDBRANCH   2   3
ENDBRANCH   1   2
BRANCH   1  33
ATOM     33  C   UNL A   1      35.280  34.965  33.260  1.00  0.00     0.188 C 
BRANCH  33  34
ATOM     34  O   UNL A   1      36.450  35.016  34.068  1.00  0.00    -0.376 OA
BRANCH  34  35
ATOM     35  C   UNL A   1      36.939  33.754  34.506  1.00  0.00     0.202 C 
BRANCH  35  36
ATOM     36  C   UNL A   1      36.852  33.555  36.022  1.00  0.00     0.261 C 
BRANCH  36  37
ATOM     37  O   UNL A   1      37.239  32.254  36.489  1.00  0.00    -0.460 OA
BRANCH  37  38
ATOM     38  C   UNL A   1      38.361  32.158  37.239  1.00  0.00     0.338 C 
ATOM     39  O   UNL A   1      38.463  32.343  38.437  1.00  0.00    -0.246 OA
BRANCH  38  40
ATOM     40  C   UNL A   1      39.423  31.604  36.370  1.00  0.00     0.060 A 
ATOM     41  C   UNL A   1      39.093  30.763  35.304  1.00  0.00     0.016 A 
ATOM     42  C   UNL A   1      40.763  31.885  36.665  1.00  0.00     0.016 A 
ATOM     43  C   UNL A   1      40.106  30.223  34.512  1.00  0.00     0.010 A 
ATOM     44  C   UNL A   1      41.778  31.333  35.877  1.00  0.00     0.010 A 
ATOM     45  C   UNL A   1      41.453  30.519  34.781  1.00  0.00    -0.014 A 
BRANCH  45  46
ATOM     46  C   UNL A   1      42.487  30.141  33.789  1.00  0.00     0.031 A 
ATOM     47  C   UNL A   1      42.920  31.059  32.688  1.00  0.00     0.074 A 
ATOM     48  C   UNL A   1      43.057  28.928  33.928  1.00  0.00     0.049 A 
ATOM     49  N   UNL A   1      43.891  30.898  31.826  1.00  0.00    -0.248 NA
ATOM     50  C   UNL A   1      42.170  32.313  32.527  1.00  0.00     0.031 C 
ATOM     51  C   UNL A   1      42.694  27.948  34.956  1.00  0.00     0.029 A 
ATOM     52  N   UNL A   1      44.061  28.318  33.224  1.00  0.00    -0.354 N 
ATOM     53  C   UNL A   1      43.892  32.038  31.032  1.00  0.00     0.074 A 
ATOM     54  C   UNL A   1      42.792  32.864  31.488  1.00  0.00     0.031 C 
ATOM     55  C   UNL A   1      43.478  26.869  34.828  1.00  0.00     0.029 A 
ATOM     56  C   UNL A   1      44.389  27.075  33.706  1.00  0.00     0.049 A 
ATOM     57  H   UNL A   1      44.504  28.731  32.447  1.00  0.00     0.167 HD
ATOM     58  C   UNL A   1      44.746  32.363  30.031  1.00  0.00     0.037 A 
ATOM     59  C   UNL A   1      45.329  26.200  33.302  1.00  0.00     0.037 A 
ATOM     60  C   UNL A   1      45.829  31.522  29.579  1.00  0.00     0.049 A 
ATOM     61  C   UNL A   1      46.240  26.573  32.170  1.00  0.00     0.074 A 
ATOM     62  C   UNL A   1      46.771  31.786  28.599  1.00  0.00     0.029 A 
ATOM     63  N   UNL A   1      46.110  30.253  30.065  1.00  0.00    -0.354 N 
ATOM     64  N   UNL A   1      46.275  27.686  31.477  1.00  0.00    -0.248 NA
ATOM     65  C   UNL A   1      47.244  25.580  31.768  1.00  0.00     0.031 C 
ATOM     66  C   UNL A   1      47.591  30.661  28.462  1.00  0.00     0.029 A 
ATOM     67  C   UNL A   1      47.191  29.712  29.388  1.00  0.00     0.049 A 
ATOM     68  H   UNL A   1      45.614  29.802  30.787  1.00  0.00     0.167 HD
ATOM     69  C   UNL A   1      47.317  27.536  30.572  1.00  0.00     0.074 A 
ATOM     70  C   UNL A   1      47.894  26.228  30.811  1.00  0.00     0.031 C 
ATOM     71  C   UNL A   1      47.755  28.405  29.629  1.00  0.00     0.037 A 
BRANCH  58  72
ATOM     72  C   UNL A   1      44.567  33.694  29.352  1.00  0.00     0.058 A 
ATOM     73  C   UNL A   1      43.732  33.832  28.232  1.00  0.00     0.135 A 
ATOM     74  C   UNL A   1      45.152  34.857  29.880  1.00  0.00     0.135 A 
ATOM     75  F   UNL A   1      43.151  32.753  27.685  1.00  0.00    -0.206 F 
ATOM     76  C   UNL A   1      43.493  35.073  27.652  1.00  0.00     0.059 A 
ATOM     77  C   UNL A   1      44.909  36.113  29.327  1.00  0.00     0.059 A 
ATOM     78  F   UNL A   1      45.954  34.782  30.953  1.00  0.00    -0.206 F 
ATOM     79  C   UNL A   1      44.083  36.210  28.209  1.00  0.00     0.060 A 
BRANCH  79  80
ATOM     80  S   UNL A   1      43.738  37.815  27.457  1.00  0.00     0.124 S 
ATOM     81  O   UNL A   1      42.664  37.477  26.529  1.00  0.00    -0.237 OA
ATOM     82  O   UNL A   1      43.350  38.623  28.608  1.00  0.00    -0.237 OA
ATOM     83  O   UNL A   1      45.008  38.181  26.837  1.00  0.00    -0.744 OA
ENDBRANCH  79  80
ENDBRANCH  58  72
BRANCH  59  84
ATOM     84  C   UNL A   1      45.473  24.907  34.015  1.00  0.00     0.058 A 
ATOM     85  C   UNL A   1      44.810  23.759  33.561  1.00  0.00     0.135 A 
ATOM     86  C   UNL A   1      46.318  24.784  35.130  1.00  0.00     0.135 A 
ATOM     87  F   UNL A   1      43.993  23.830  32.500  1.00  0.00    -0.206 F 
ATOM     88  C   UNL A   1      44.973  22.530  34.192  1.00  0.00     0.059 A 
ATOM     89  C   UNL A   1      46.514  23.561  35.764  1.00  0.00     0.059 A 
ATOM     90  F   UNL A   1      46.989  25.852  35.587  1.00  0.00    -0.206 F 
ATOM     91  C   UNL A   1      45.832  22.441  35.291  1.00  0.00     0.060 A 
BRANCH  91  92
ATOM     92  S   UNL A   1      46.081  20.829  36.062  1.00  0.00     0.124 S 
ATOM     93  O   UNL A   1      45.616  21.079  37.421  1.00  0.00    -0.237 OA
ATOM     94  O   UNL A   1      45.232  19.964  35.246  1.00  0.00    -0.237 OA
ATOM     95  O   UNL A   1      47.515  20.604  35.916  1.00  0.00    -0.744 OA
ENDBRANCH  91  92
ENDBRANCH  59  84
BRANCH  71  96
ATOM     96  C   UNL A   1      48.923  27.980  28.783  1.00  0.00     0.058 A 
ATOM     97  C   UNL A   1      48.737  27.320  27.558  1.00  0.00     0.135 A 
ATOM     98  C   UNL A   1      50.237  28.293  29.168  1.00  0.00     0.135 A 
ATOM     99  F   UNL A   1      47.502  26.988  27.150  1.00  0.00    -0.206 F 
ATOM    100  C   UNL A   1      49.814  26.978  26.747  1.00  0.00     0.059 A 
ATOM    101  C   UNL A   1      51.327  27.981  28.361  1.00  0.00     0.059 A 
ATOM    102  F   UNL A   1      50.468  28.927  30.328  1.00  0.00    -0.206 F 
ATOM    103  C   UNL A   1      51.105  27.319  27.155  1.00  0.00     0.060 A 
BRANCH 103 104
ATOM    104  S   UNL A   1      52.488  26.917  26.064  1.00  0.00     0.124 S 
ATOM    105  O   UNL A   1      53.401  26.244  26.982  1.00  0.00    -0.237 OA
ATOM    106  O   UNL A   1      51.857  26.064  25.061  1.00  0.00    -0.237 OA
ATOM    107  O   UNL A   1      52.931  28.221  25.580  1.00  0.00    -0.744 OA
ENDBRANCH 103 104
ENDBRANCH  71  96
ENDBRANCH  45  46
ENDBRANCH  38  40
ENDBRANCH  37  38
ENDBRANCH  36  37
ENDBRANCH  35  36
ENDBRANCH  34  35
ENDBRANCH  33  34
ENDBRANCH   1  33
TORSDOF 24
ENDMDL
