MODEL 1
REMARK VINA RESULT:      -8.7      0.000      0.000
REMARK SMILES C[N@H+]1CCO[C@@H](CN2C[C@H](C(=O)OCCOCCOCCOCCOC(=O)c3ccc(-c4c5nc(c(-c6c(F)cc(S(=O)(=O)[O-])cc6F)c6ccc([nH]6)c(-c6c(F)cc(S(=O)(=O)[O-])cc6F)c6nc(c(-c7c(F)cc(S(=O)(=O)[O-])cc7F)c7ccc4[nH]7)C=C6)C=C5)cc3)CC2=O)C1
REMARK SMILES IDX 20 1 19 2 18 3 17 4 16 5 15 6 14 7 13 8 11 9 12 10 10 11
REMARK SMILES IDX 8 12 9 13 95 14 94 15 96 16 7 17 6 18 1 19 2 20 3 21 97 22
REMARK SMILES IDX 4 24 5 25 21 26 22 27 23 28 24 29 25 30 26 31 27 32 28 33
REMARK SMILES IDX 29 34 93 35 30 36 92 37 31 38 32 39 33 40 86 41 34 42 91 43
REMARK SMILES IDX 85 44 87 45 35 46 90 47 84 48 83 49 36 51 70 52 49 53 69 54
REMARK SMILES IDX 50 55 53 56 68 57 88 58 51 59 52 60 67 62 89 63 54 64 37 65
REMARK SMILES IDX 38 66 47 67 39 68 40 69 46 70 48 71 41 72 42 73 43 74 44 75
REMARK SMILES IDX 45 76 71 77 72 78 81 79 73 80 74 81 80 82 82 83 75 84 76 85
REMARK SMILES IDX 77 86 78 87 79 88 55 89 56 90 65 91 57 92 58 93 64 94 66 95
REMARK SMILES IDX 59 96 60 97 61 98 62 99 63 100
REMARK H PARENT 2 23 87 50 53 61
REMARK Flexibility Score: inf
ROOT
ATOM      1  C   UNL A   1      45.283  39.055  26.471  1.00  0.00     0.188 C 
ENDROOT
BRANCH   1   2
ATOM      2  O   UNL A   1      45.012  37.866  27.210  1.00  0.00    -0.377 OA
BRANCH   2   3
ATOM      3  C   UNL A   1      43.649  37.547  27.425  1.00  0.00     0.188 C 
BRANCH   3   4
ATOM      4  C   UNL A   1      42.691  38.481  26.655  1.00  0.00     0.188 C 
BRANCH   4   5
ATOM      5  O   UNL A   1      42.020  39.444  27.450  1.00  0.00    -0.376 OA
BRANCH   5   6
ATOM      6  C   UNL A   1      41.430  40.622  26.918  1.00  0.00     0.202 C 
BRANCH   6   7
ATOM      7  C   UNL A   1      41.664  41.166  25.499  1.00  0.00     0.261 C 
BRANCH   7   8
ATOM      8  O   UNL A   1      42.995  41.064  24.997  1.00  0.00    -0.463 OA
BRANCH   8   9
ATOM      9  C   UNL A   1      43.621  42.217  24.668  1.00  0.00     0.311 C 
ATOM     10  O   UNL A   1      44.811  42.441  24.812  1.00  0.00    -0.252 OA
BRANCH   9  11
ATOM     11  C   UNL A   1      42.626  43.108  23.950  1.00  0.00     0.128 C 
ATOM     12  N   UNL A   1      43.693  43.495  21.986  1.00  0.00    -0.339 N 
ATOM     13  C   UNL A   1      43.372  44.180  23.207  1.00  0.00     0.135 C 
ATOM     14  C   UNL A   1      42.825  42.445  21.718  1.00  0.00     0.223 C 
ATOM     15  C   UNL A   1      41.864  42.356  22.871  1.00  0.00     0.117 C 
ATOM     16  O   UNL A   1      42.790  41.761  20.712  1.00  0.00    -0.275 OA
BRANCH  12  17
ATOM     17  C   UNL A   1      44.791  43.896  21.141  1.00  0.00     0.157 C 
BRANCH  17  18
ATOM     18  C   UNL A   1      45.824  42.787  20.922  1.00  0.00     0.192 C 
ATOM     19  C   UNL A   1      47.833  45.319  20.136  1.00  0.00     0.332 C 
ATOM     20  N   UNL A   1      48.059  43.883  20.207  1.00  0.00    -0.333 N 
ATOM     21  C   UNL A   1      48.540  43.454  21.531  1.00  0.00     0.290 C 
ATOM     22  C   UNL A   1      46.889  43.070  19.827  1.00  0.00     0.296 C 
ATOM     23  H   UNL A   1      48.788  43.715  19.513  1.00  0.00     0.348 HD
ATOM     24  C   UNL A   1      47.436  43.344  22.589  1.00  0.00     0.222 C 
ATOM     25  O   UNL A   1      46.427  42.416  22.176  1.00  0.00    -0.365 OA
ENDBRANCH  17  18
ENDBRANCH  12  17
ENDBRANCH   9  11
ENDBRANCH   8   9
ENDBRANCH   7   8
ENDBRANCH   6   7
ENDBRANCH   5   6
ENDBRANCH   4   5
ENDBRANCH   3   4
ENDBRANCH   2   3
ENDBRANCH   1   2
BRANCH   1  26
ATOM     26  C   UNL A   1      46.548  39.158  25.581  1.00  0.00     0.188 C 
BRANCH  26  27
ATOM     27  O   UNL A   1      47.709  39.629  26.255  1.00  0.00    -0.376 OA
BRANCH  27  28
ATOM     28  C   UNL A   1      48.647  38.703  26.768  1.00  0.00     0.202 C 
BRANCH  28  29
ATOM     29  C   UNL A   1      48.725  38.577  28.296  1.00  0.00     0.261 C 
BRANCH  29  30
ATOM     30  O   UNL A   1      48.719  37.238  28.807  1.00  0.00    -0.460 OA
BRANCH  30  31
ATOM     31  C   UNL A   1      47.572  36.821  29.384  1.00  0.00     0.338 C 
ATOM     32  O   UNL A   1      46.725  37.521  29.919  1.00  0.00    -0.246 OA
BRANCH  31  33
ATOM     33  C   UNL A   1      47.403  35.387  29.079  1.00  0.00     0.060 A 
ATOM     34  C   UNL A   1      47.006  35.015  27.789  1.00  0.00     0.016 A 
ATOM     35  C   UNL A   1      47.638  34.417  30.057  1.00  0.00     0.016 A 
ATOM     36  C   UNL A   1      46.794  33.673  27.485  1.00  0.00     0.010 A 
ATOM     37  C   UNL A   1      47.400  33.074  29.759  1.00  0.00     0.010 A 
ATOM     38  C   UNL A   1      46.935  32.703  28.484  1.00  0.00    -0.014 A 
BRANCH  38  39
ATOM     39  C   UNL A   1      46.373  31.351  28.257  1.00  0.00     0.031 A 
ATOM     40  C   UNL A   1      47.295  30.280  27.737  1.00  0.00     0.074 A 
ATOM     41  C   UNL A   1      45.093  31.065  28.554  1.00  0.00     0.049 A 
ATOM     42  N   UNL A   1      47.040  29.031  27.454  1.00  0.00    -0.248 NA
ATOM     43  C   UNL A   1      48.694  30.676  27.506  1.00  0.00     0.031 C 
ATOM     44  C   UNL A   1      44.121  32.008  29.106  1.00  0.00     0.029 A 
ATOM     45  N   UNL A   1      44.394  29.891  28.431  1.00  0.00    -0.354 N 
ATOM     46  C   UNL A   1      48.242  28.493  27.006  1.00  0.00     0.074 A 
ATOM     47  C   UNL A   1      49.217  29.561  27.021  1.00  0.00     0.031 C 
ATOM     48  C   UNL A   1      42.945  31.376  29.264  1.00  0.00     0.029 A 
ATOM     49  C   UNL A   1      43.073  29.995  28.798  1.00  0.00     0.049 A 
ATOM     50  H   UNL A   1      44.799  29.054  28.111  1.00  0.00     0.167 HD
ATOM     51  C   UNL A   1      48.511  27.221  26.628  1.00  0.00     0.037 A 
ATOM     52  C   UNL A   1      42.081  29.085  28.742  1.00  0.00     0.037 A 
ATOM     53  C   UNL A   1      47.532  26.166  26.615  1.00  0.00     0.049 A 
ATOM     54  C   UNL A   1      42.387  27.692  28.250  1.00  0.00     0.074 A 
ATOM     55  C   UNL A   1      47.705  24.839  26.263  1.00  0.00     0.029 A 
ATOM     56  N   UNL A   1      46.198  26.318  26.960  1.00  0.00    -0.354 N 
ATOM     57  N   UNL A   1      43.532  27.189  27.851  1.00  0.00    -0.248 NA
ATOM     58  C   UNL A   1      41.268  26.740  28.207  1.00  0.00     0.031 C 
ATOM     59  C   UNL A   1      46.462  24.204  26.335  1.00  0.00     0.029 A 
ATOM     60  C   UNL A   1      45.527  25.116  26.801  1.00  0.00     0.049 A 
ATOM     61  H   UNL A   1      45.787  27.157  27.273  1.00  0.00     0.167 HD
ATOM     62  C   UNL A   1      43.278  25.855  27.542  1.00  0.00     0.074 A 
ATOM     63  C   UNL A   1      41.873  25.629  27.813  1.00  0.00     0.031 C 
ATOM     64  C   UNL A   1      44.128  24.904  27.080  1.00  0.00     0.037 A 
BRANCH  51  65
ATOM     65  C   UNL A   1      49.908  26.911  26.166  1.00  0.00     0.058 A 
ATOM     66  C   UNL A   1      50.900  26.452  27.048  1.00  0.00     0.135 A 
ATOM     67  C   UNL A   1      50.253  27.049  24.811  1.00  0.00     0.135 A 
ATOM     68  F   UNL A   1      50.633  26.324  28.358  1.00  0.00    -0.206 F 
ATOM     69  C   UNL A   1      52.187  26.162  26.608  1.00  0.00     0.059 A 
ATOM     70  C   UNL A   1      51.525  26.735  24.344  1.00  0.00     0.059 A 
ATOM     71  F   UNL A   1      49.346  27.491  23.925  1.00  0.00    -0.206 F 
ATOM     72  C   UNL A   1      52.490  26.304  25.252  1.00  0.00     0.060 A 
BRANCH  72  73
ATOM     73  S   UNL A   1      54.161  25.913  24.697  1.00  0.00     0.124 S 
ATOM     74  O   UNL A   1      54.113  26.340  23.302  1.00  0.00    -0.237 OA
ATOM     75  O   UNL A   1      54.982  26.732  25.583  1.00  0.00    -0.237 OA
ATOM     76  O   UNL A   1      54.262  24.472  24.907  1.00  0.00    -0.744 OA
ENDBRANCH  72  73
ENDBRANCH  51  65
BRANCH  52  77
ATOM     77  C   UNL A   1      40.700  29.461  29.150  1.00  0.00     0.058 A 
ATOM     78  C   UNL A   1      39.686  29.662  28.201  1.00  0.00     0.135 A 
ATOM     79  C   UNL A   1      40.368  29.633  30.504  1.00  0.00     0.135 A 
ATOM     80  F   UNL A   1      39.954  29.522  26.894  1.00  0.00    -0.206 F 
ATOM     81  C   UNL A   1      38.399  30.035  28.577  1.00  0.00     0.059 A 
ATOM     82  C   UNL A   1      39.081  29.976  30.905  1.00  0.00     0.059 A 
ATOM     83  F   UNL A   1      41.297  29.445  31.454  1.00  0.00    -0.206 F 
ATOM     84  C   UNL A   1      38.105  30.185  29.934  1.00  0.00     0.060 A 
BRANCH  84  85
ATOM     85  S   UNL A   1      36.418  30.617  30.412  1.00  0.00     0.124 S 
ATOM     86  O   UNL A   1      36.555  32.034  30.724  1.00  0.00    -0.237 OA
ATOM     87  O   UNL A   1      35.668  30.296  29.203  1.00  0.00    -0.237 OA
ATOM     88  O   UNL A   1      36.160  29.741  31.552  1.00  0.00    -0.744 OA
ENDBRANCH  84  85
ENDBRANCH  52  77
BRANCH  64  89
ATOM     89  C   UNL A   1      43.578  23.517  26.878  1.00  0.00     0.058 A 
ATOM     90  C   UNL A   1      43.302  23.004  25.601  1.00  0.00     0.135 A 
ATOM     91  C   UNL A   1      43.367  22.671  27.980  1.00  0.00     0.135 A 
ATOM     92  F   UNL A   1      43.483  23.767  24.511  1.00  0.00    -0.206 F 
ATOM     93  C   UNL A   1      42.804  21.716  25.425  1.00  0.00     0.059 A 
ATOM     94  C   UNL A   1      42.903  21.368  27.826  1.00  0.00     0.059 A 
ATOM     95  F   UNL A   1      43.627  23.104  29.224  1.00  0.00    -0.206 F 
ATOM     96  C   UNL A   1      42.610  20.905  26.545  1.00  0.00     0.060 A 
BRANCH  96  97
ATOM     97  S   UNL A   1      41.981  19.230  26.302  1.00  0.00     0.124 S 
ATOM     98  O   UNL A   1      42.887  18.721  25.278  1.00  0.00    -0.237 OA
ATOM     99  O   UNL A   1      42.133  18.645  27.631  1.00  0.00    -0.237 OA
ATOM    100  O   UNL A   1      40.602  19.442  25.872  1.00  0.00    -0.744 OA
ENDBRANCH  96  97
ENDBRANCH  64  89
ENDBRANCH  38  39
ENDBRANCH  31  33
ENDBRANCH  30  31
ENDBRANCH  29  30
ENDBRANCH  28  29
ENDBRANCH  27  28
ENDBRANCH  26  27
ENDBRANCH   1  26
TORSDOF 25
ENDMDL
MODEL 2
REMARK VINA RESULT:      -8.4      9.985     19.223
REMARK SMILES C[N@H+]1CCO[C@@H](CN2C[C@H](C(=O)OCCOCCOCCOCCOC(=O)c3ccc(-c4c5nc(c(-c6c(F)cc(S(=O)(=O)[O-])cc6F)c6ccc([nH]6)c(-c6c(F)cc(S(=O)(=O)[O-])cc6F)c6nc(c(-c7c(F)cc(S(=O)(=O)[O-])cc7F)c7ccc4[nH]7)C=C6)C=C5)cc3)CC2=O)C1
REMARK SMILES IDX 20 1 19 2 18 3 17 4 16 5 15 6 14 7 13 8 11 9 12 10 10 11
REMARK SMILES IDX 8 12 9 13 95 14 94 15 96 16 7 17 6 18 1 19 2 20 3 21 97 22
REMARK SMILES IDX 4 24 5 25 21 26 22 27 23 28 24 29 25 30 26 31 27 32 28 33
REMARK SMILES IDX 29 34 93 35 30 36 92 37 31 38 32 39 33 40 86 41 34 42 91 43
REMARK SMILES IDX 85 44 87 45 35 46 90 47 84 48 83 49 36 51 70 52 49 53 69 54
REMARK SMILES IDX 50 55 53 56 68 57 88 58 51 59 52 60 67 62 89 63 54 64 37 65
REMARK SMILES IDX 38 66 47 67 39 68 40 69 46 70 48 71 41 72 42 73 43 74 44 75
REMARK SMILES IDX 45 76 71 77 72 78 81 79 73 80 74 81 80 82 82 83 75 84 76 85
REMARK SMILES IDX 77 86 78 87 79 88 55 89 56 90 65 91 57 92 58 93 64 94 66 95
REMARK SMILES IDX 59 96 60 97 61 98 62 99 63 100
REMARK H PARENT 2 23 87 50 53 61
REMARK Flexibility Score: inf
ROOT
ATOM      1  C   UNL A   1      49.867  20.523  38.826  1.00  0.00     0.188 C 
ENDROOT
BRANCH   1   2
ATOM      2  O   UNL A   1      48.864  19.733  39.459  1.00  0.00    -0.377 OA
BRANCH   2   3
ATOM      3  C   UNL A   1      47.576  19.748  38.871  1.00  0.00     0.188 C 
BRANCH   3   4
ATOM      4  C   UNL A   1      46.868  18.378  38.954  1.00  0.00     0.188 C 
BRANCH   4   5
ATOM      5  O   UNL A   1      45.487  18.395  38.635  1.00  0.00    -0.376 OA
BRANCH   5   6
ATOM      6  C   UNL A   1      44.662  17.238  38.676  1.00  0.00     0.202 C 
BRANCH   6   7
ATOM      7  C   UNL A   1      44.505  16.306  39.889  1.00  0.00     0.261 C 
BRANCH   7   8
ATOM      8  O   UNL A   1      44.737  16.891  41.168  1.00  0.00    -0.463 OA
BRANCH   8   9
ATOM      9  C   UNL A   1      45.861  16.518  41.822  1.00  0.00     0.311 C 
ATOM     10  O   UNL A   1      46.826  15.971  41.314  1.00  0.00    -0.252 OA
BRANCH   9  11
ATOM     11  C   UNL A   1      45.775  17.036  43.244  1.00  0.00     0.128 C 
ATOM     12  N   UNL A   1      44.515  15.434  44.239  1.00  0.00    -0.339 N 
ATOM     13  C   UNL A   1      44.391  16.787  43.776  1.00  0.00     0.135 C 
ATOM     14  C   UNL A   1      45.827  15.087  44.531  1.00  0.00     0.223 C 
ATOM     15  C   UNL A   1      46.688  16.270  44.186  1.00  0.00     0.117 C 
ATOM     16  O   UNL A   1      46.216  14.050  45.037  1.00  0.00    -0.275 OA
BRANCH  12  17
ATOM     17  C   UNL A   1      43.374  14.564  44.398  1.00  0.00     0.157 C 
BRANCH  17  18
ATOM     18  C   UNL A   1      42.420  14.593  43.200  1.00  0.00     0.192 C 
ATOM     19  C   UNL A   1      42.895  11.300  43.213  1.00  0.00     0.332 C 
ATOM     20  N   UNL A   1      42.074  12.162  42.375  1.00  0.00    -0.333 N 
ATOM     21  C   UNL A   1      40.707  12.320  42.898  1.00  0.00     0.290 C 
ATOM     22  C   UNL A   1      42.657  13.495  42.128  1.00  0.00     0.296 C 
ATOM     23  H   UNL A   1      42.038  11.673  41.480  1.00  0.00     0.348 HD
ATOM     24  C   UNL A   1      40.594  13.319  44.055  1.00  0.00     0.222 C 
ATOM     25  O   UNL A   1      41.054  14.614  43.655  1.00  0.00    -0.365 OA
ENDBRANCH  17  18
ENDBRANCH  12  17
ENDBRANCH   9  11
ENDBRANCH   8   9
ENDBRANCH   7   8
ENDBRANCH   6   7
ENDBRANCH   5   6
ENDBRANCH   4   5
ENDBRANCH   3   4
ENDBRANCH   2   3
ENDBRANCH   1   2
BRANCH   1  26
ATOM     26  C   UNL A   1      49.497  21.863  38.139  1.00  0.00     0.188 C 
BRANCH  26  27
ATOM     27  O   UNL A   1      49.545  21.832  36.718  1.00  0.00    -0.376 OA
BRANCH  27  28
ATOM     28  C   UNL A   1      48.816  22.786  35.970  1.00  0.00     0.202 C 
BRANCH  28  29
ATOM     29  C   UNL A   1      47.958  23.777  36.768  1.00  0.00     0.261 C 
BRANCH  29  30
ATOM     30  O   UNL A   1      47.578  24.969  36.069  1.00  0.00    -0.460 OA
BRANCH  30  31
ATOM     31  C   UNL A   1      47.800  26.137  36.707  1.00  0.00     0.338 C 
ATOM     32  O   UNL A   1      48.815  26.462  37.307  1.00  0.00    -0.246 OA
BRANCH  31  33
ATOM     33  C   UNL A   1      46.689  27.053  36.385  1.00  0.00     0.060 A 
ATOM     34  C   UNL A   1      45.379  26.650  36.674  1.00  0.00     0.016 A 
ATOM     35  C   UNL A   1      46.937  28.301  35.809  1.00  0.00     0.016 A 
ATOM     36  C   UNL A   1      44.307  27.473  36.339  1.00  0.00     0.010 A 
ATOM     37  C   UNL A   1      45.861  29.115  35.450  1.00  0.00     0.010 A 
ATOM     38  C   UNL A   1      44.541  28.683  35.675  1.00  0.00    -0.014 A 
BRANCH  38  39
ATOM     39  C   UNL A   1      43.406  29.371  35.016  1.00  0.00     0.031 A 
ATOM     40  C   UNL A   1      43.061  28.974  33.604  1.00  0.00     0.074 A 
ATOM     41  C   UNL A   1      42.665  30.284  35.668  1.00  0.00     0.049 A 
ATOM     42  N   UNL A   1      42.124  29.432  32.818  1.00  0.00    -0.248 NA
ATOM     43  C   UNL A   1      43.891  27.917  33.001  1.00  0.00     0.031 C 
ATOM     44  C   UNL A   1      42.875  30.713  37.050  1.00  0.00     0.029 A 
ATOM     45  N   UNL A   1      41.583  31.014  35.248  1.00  0.00    -0.354 N 
ATOM     46  C   UNL A   1      42.253  28.726  31.627  1.00  0.00     0.074 A 
ATOM     47  C   UNL A   1      43.382  27.835  31.781  1.00  0.00     0.031 C 
ATOM     48  C   UNL A   1      41.955  31.642  37.360  1.00  0.00     0.029 A 
ATOM     49  C   UNL A   1      41.111  31.894  36.192  1.00  0.00     0.049 A 
ATOM     50  H   UNL A   1      41.182  30.917  34.354  1.00  0.00     0.167 HD
ATOM     51  C   UNL A   1      41.492  28.805  30.511  1.00  0.00     0.037 A 
ATOM     52  C   UNL A   1      40.126  32.811  36.111  1.00  0.00     0.037 A 
ATOM     53  C   UNL A   1      40.371  29.696  30.367  1.00  0.00     0.049 A 
ATOM     54  C   UNL A   1      39.336  32.931  34.832  1.00  0.00     0.074 A 
ATOM     55  C   UNL A   1      39.525  29.844  29.282  1.00  0.00     0.029 A 
ATOM     56  N   UNL A   1      39.946  30.596  31.332  1.00  0.00    -0.354 N 
ATOM     57  N   UNL A   1      39.452  32.243  33.720  1.00  0.00    -0.248 NA
ATOM     58  C   UNL A   1      38.275  33.948  34.798  1.00  0.00     0.031 C 
ATOM     59  C   UNL A   1      38.627  30.877  29.567  1.00  0.00     0.029 A 
ATOM     60  C   UNL A   1      38.867  31.325  30.858  1.00  0.00     0.049 A 
ATOM     61  H   UNL A   1      40.350  30.703  32.224  1.00  0.00     0.167 HD
ATOM     62  C   UNL A   1      38.459  32.720  32.869  1.00  0.00     0.074 A 
ATOM     63  C   UNL A   1      37.746  33.746  33.600  1.00  0.00     0.031 C 
ATOM     64  C   UNL A   1      38.163  32.342  31.600  1.00  0.00     0.037 A 
BRANCH  51  65
ATOM     65  C   UNL A   1      41.867  27.929  29.347  1.00  0.00     0.058 A 
ATOM     66  C   UNL A   1      42.994  28.191  28.550  1.00  0.00     0.135 A 
ATOM     67  C   UNL A   1      41.103  26.790  29.042  1.00  0.00     0.135 A 
ATOM     68  F   UNL A   1      43.747  29.279  28.782  1.00  0.00    -0.206 F 
ATOM     69  C   UNL A   1      43.335  27.371  27.480  1.00  0.00     0.059 A 
ATOM     70  C   UNL A   1      41.445  25.938  27.996  1.00  0.00     0.059 A 
ATOM     71  F   UNL A   1      40.012  26.495  29.766  1.00  0.00    -0.206 F 
ATOM     72  C   UNL A   1      42.555  26.244  27.213  1.00  0.00     0.060 A 
BRANCH  72  73
ATOM     73  S   UNL A   1      43.019  25.184  25.828  1.00  0.00     0.124 S 
ATOM     74  O   UNL A   1      42.077  25.617  24.801  1.00  0.00    -0.237 OA
ATOM     75  O   UNL A   1      44.413  25.555  25.606  1.00  0.00    -0.237 OA
ATOM     76  O   UNL A   1      42.806  23.836  26.344  1.00  0.00    -0.744 OA
ENDBRANCH  72  73
ENDBRANCH  51  65
BRANCH  52  77
ATOM     77  C   UNL A   1      39.837  33.699  37.271  1.00  0.00     0.058 A 
ATOM     78  C   UNL A   1      38.904  33.335  38.254  1.00  0.00     0.135 A 
ATOM     79  C   UNL A   1      40.486  34.935  37.414  1.00  0.00     0.135 A 
ATOM     80  F   UNL A   1      38.248  32.169  38.156  1.00  0.00    -0.206 F 
ATOM     81  C   UNL A   1      38.614  34.170  39.328  1.00  0.00     0.059 A 
ATOM     82  C   UNL A   1      40.235  35.774  38.495  1.00  0.00     0.059 A 
ATOM     83  F   UNL A   1      41.393  35.329  36.507  1.00  0.00    -0.206 F 
ATOM     84  C   UNL A   1      39.288  35.388  39.442  1.00  0.00     0.060 A 
BRANCH  84  85
ATOM     85  S   UNL A   1      38.943  36.440  40.869  1.00  0.00     0.124 S 
ATOM     86  O   UNL A   1      40.246  36.489  41.520  1.00  0.00    -0.237 OA
ATOM     87  O   UNL A   1      38.496  37.675  40.235  1.00  0.00    -0.237 OA
ATOM     88  O   UNL A   1      37.907  35.701  41.585  1.00  0.00    -0.744 OA
ENDBRANCH  84  85
ENDBRANCH  52  77
BRANCH  64  89
ATOM     89  C   UNL A   1      36.990  33.008  30.931  1.00  0.00     0.058 A 
ATOM     90  C   UNL A   1      37.151  33.901  29.860  1.00  0.00     0.135 A 
ATOM     91  C   UNL A   1      35.678  32.711  31.340  1.00  0.00     0.135 A 
ATOM     92  F   UNL A   1      38.381  34.223  29.427  1.00  0.00    -0.206 F 
ATOM     93  C   UNL A   1      36.059  34.502  29.241  1.00  0.00     0.059 A 
ATOM     94  C   UNL A   1      34.569  33.274  30.715  1.00  0.00     0.059 A 
ATOM     95  F   UNL A   1      35.463  31.854  32.351  1.00  0.00    -0.206 F 
ATOM     96  C   UNL A   1      34.771  34.180  29.676  1.00  0.00     0.060 A 
BRANCH  96  97
ATOM     97  S   UNL A   1      33.361  34.954  28.854  1.00  0.00     0.124 S 
ATOM     98  O   UNL A   1      33.925  36.238  28.450  1.00  0.00    -0.237 OA
ATOM     99  O   UNL A   1      33.081  34.016  27.771  1.00  0.00    -0.237 OA
ATOM    100  O   UNL A   1      32.347  35.014  29.902  1.00  0.00    -0.744 OA
ENDBRANCH  96  97
ENDBRANCH  64  89
ENDBRANCH  38  39
ENDBRANCH  31  33
ENDBRANCH  30  31
ENDBRANCH  29  30
ENDBRANCH  28  29
ENDBRANCH  27  28
ENDBRANCH  26  27
ENDBRANCH   1  26
TORSDOF 25
ENDMDL
MODEL 3
REMARK VINA RESULT:      -8.2      7.845     17.051
REMARK SMILES C[N@H+]1CCO[C@@H](CN2C[C@H](C(=O)OCCOCCOCCOCCOC(=O)c3ccc(-c4c5nc(c(-c6c(F)cc(S(=O)(=O)[O-])cc6F)c6ccc([nH]6)c(-c6c(F)cc(S(=O)(=O)[O-])cc6F)c6nc(c(-c7c(F)cc(S(=O)(=O)[O-])cc7F)c7ccc4[nH]7)C=C6)C=C5)cc3)CC2=O)C1
REMARK SMILES IDX 20 1 19 2 18 3 17 4 16 5 15 6 14 7 13 8 11 9 12 10 10 11
REMARK SMILES IDX 8 12 9 13 95 14 94 15 96 16 7 17 6 18 1 19 2 20 3 21 97 22
REMARK SMILES IDX 4 24 5 25 21 26 22 27 23 28 24 29 25 30 26 31 27 32 28 33
REMARK SMILES IDX 29 34 93 35 30 36 92 37 31 38 32 39 33 40 86 41 34 42 91 43
REMARK SMILES IDX 85 44 87 45 35 46 90 47 84 48 83 49 36 51 70 52 49 53 69 54
REMARK SMILES IDX 50 55 53 56 68 57 88 58 51 59 52 60 67 62 89 63 54 64 37 65
REMARK SMILES IDX 38 66 47 67 39 68 40 69 46 70 48 71 41 72 42 73 43 74 44 75
REMARK SMILES IDX 45 76 71 77 72 78 81 79 73 80 74 81 80 82 82 83 75 84 76 85
REMARK SMILES IDX 77 86 78 87 79 88 55 89 56 90 65 91 57 92 58 93 64 94 66 95
REMARK SMILES IDX 59 96 60 97 61 98 62 99 63 100
REMARK H PARENT 2 23 87 50 53 61
REMARK Flexibility Score: inf
ROOT
ATOM      1  C   UNL A   1      35.568  32.207  30.563  1.00  0.00     0.188 C 
ENDROOT
BRANCH   1   2
ATOM      2  O   UNL A   1      34.289  32.837  30.572  1.00  0.00    -0.377 OA
BRANCH   2   3
ATOM      3  C   UNL A   1      34.133  33.974  29.743  1.00  0.00     0.188 C 
BRANCH   3   4
ATOM      4  C   UNL A   1      33.882  33.603  28.265  1.00  0.00     0.188 C 
BRANCH   4   5
ATOM      5  O   UNL A   1      32.519  33.573  27.876  1.00  0.00    -0.376 OA
BRANCH   5   6
ATOM      6  C   UNL A   1      31.954  32.531  27.091  1.00  0.00     0.202 C 
BRANCH   6   7
ATOM      7  C   UNL A   1      32.594  31.152  26.858  1.00  0.00     0.261 C 
BRANCH   7   8
ATOM      8  O   UNL A   1      31.694  30.067  26.648  1.00  0.00    -0.463 OA
BRANCH   8   9
ATOM      9  C   UNL A   1      31.929  29.268  25.582  1.00  0.00     0.311 C 
ATOM     10  O   UNL A   1      31.096  28.926  24.758  1.00  0.00    -0.252 OA
BRANCH   9  11
ATOM     11  C   UNL A   1      33.420  29.008  25.505  1.00  0.00     0.128 C 
ATOM     12  N   UNL A   1      33.487  26.740  25.480  1.00  0.00    -0.339 N 
ATOM     13  C   UNL A   1      33.759  27.830  26.375  1.00  0.00     0.135 C 
ATOM     14  C   UNL A   1      33.565  27.113  24.145  1.00  0.00     0.223 C 
ATOM     15  C   UNL A   1      33.853  28.588  24.110  1.00  0.00     0.117 C 
ATOM     16  O   UNL A   1      33.486  26.383  23.174  1.00  0.00    -0.275 OA
BRANCH  12  17
ATOM     17  C   UNL A   1      33.194  25.409  25.951  1.00  0.00     0.157 C 
BRANCH  17  18
ATOM     18  C   UNL A   1      31.735  25.226  26.382  1.00  0.00     0.192 C 
ATOM     19  C   UNL A   1      31.598  23.196  23.750  1.00  0.00     0.332 C 
ATOM     20  N   UNL A   1      30.604  23.566  24.747  1.00  0.00    -0.333 N 
ATOM     21  C   UNL A   1      30.590  22.648  25.898  1.00  0.00     0.290 C 
ATOM     22  C   UNL A   1      30.726  24.954  25.233  1.00  0.00     0.296 C 
ATOM     23  H   UNL A   1      29.716  23.494  24.248  1.00  0.00     0.348 HD
ATOM     24  C   UNL A   1      31.714  22.900  26.909  1.00  0.00     0.222 C 
ATOM     25  O   UNL A   1      31.646  24.234  27.422  1.00  0.00    -0.365 OA
ENDBRANCH  17  18
ENDBRANCH  12  17
ENDBRANCH   9  11
ENDBRANCH   8   9
ENDBRANCH   7   8
ENDBRANCH   6   7
ENDBRANCH   5   6
ENDBRANCH   4   5
ENDBRANCH   3   4
ENDBRANCH   2   3
ENDBRANCH   1   2
BRANCH   1  26
ATOM     26  C   UNL A   1      35.733  30.769  30.007  1.00  0.00     0.188 C 
BRANCH  26  27
ATOM     27  O   UNL A   1      36.091  30.703  28.632  1.00  0.00    -0.376 OA
BRANCH  27  28
ATOM     28  C   UNL A   1      37.362  30.204  28.262  1.00  0.00     0.202 C 
BRANCH  28  29
ATOM     29  C   UNL A   1      37.990  29.158  29.193  1.00  0.00     0.261 C 
BRANCH  29  30
ATOM     30  O   UNL A   1      38.975  29.656  30.107  1.00  0.00    -0.460 OA
BRANCH  30  31
ATOM     31  C   UNL A   1      40.252  29.662  29.671  1.00  0.00     0.338 C 
ATOM     32  O   UNL A   1      40.812  28.782  29.034  1.00  0.00    -0.246 OA
BRANCH  31  33
ATOM     33  C   UNL A   1      40.810  31.007  29.909  1.00  0.00     0.060 A 
ATOM     34  C   UNL A   1      42.202  31.166  29.919  1.00  0.00     0.016 A 
ATOM     35  C   UNL A   1      39.969  32.103  30.113  1.00  0.00     0.016 A 
ATOM     36  C   UNL A   1      42.758  32.415  30.186  1.00  0.00     0.010 A 
ATOM     37  C   UNL A   1      40.526  33.349  30.406  1.00  0.00     0.010 A 
ATOM     38  C   UNL A   1      41.923  33.498  30.487  1.00  0.00    -0.014 A 
BRANCH  38  39
ATOM     39  C   UNL A   1      42.513  34.707  31.108  1.00  0.00     0.031 A 
ATOM     40  C   UNL A   1      42.491  34.814  32.610  1.00  0.00     0.074 A 
ATOM     41  C   UNL A   1      43.101  35.661  30.365  1.00  0.00     0.049 A 
ATOM     42  N   UNL A   1      42.934  35.769  33.381  1.00  0.00    -0.248 NA
ATOM     43  C   UNL A   1      41.884  33.685  33.337  1.00  0.00     0.031 C 
ATOM     44  C   UNL A   1      43.223  35.643  28.908  1.00  0.00     0.029 A 
ATOM     45  N   UNL A   1      43.706  36.833  30.741  1.00  0.00    -0.354 N 
ATOM     46  C   UNL A   1      42.656  35.364  34.682  1.00  0.00     0.074 A 
ATOM     47  C   UNL A   1      41.973  34.092  34.594  1.00  0.00     0.031 C 
ATOM     48  C   UNL A   1      43.857  36.760  28.512  1.00  0.00     0.029 A 
ATOM     49  C   UNL A   1      44.158  37.585  29.683  1.00  0.00     0.049 A 
ATOM     50  H   UNL A   1      43.808  37.109  31.680  1.00  0.00     0.167 HD
ATOM     51  C   UNL A   1      42.954  35.990  35.845  1.00  0.00     0.037 A 
ATOM     52  C   UNL A   1      44.727  38.806  29.664  1.00  0.00     0.037 A 
ATOM     53  C   UNL A   1      43.633  37.256  35.922  1.00  0.00     0.049 A 
ATOM     54  C   UNL A   1      44.986  39.517  30.969  1.00  0.00     0.074 A 
ATOM     55  C   UNL A   1      43.995  37.969  37.051  1.00  0.00     0.029 A 
ATOM     56  N   UNL A   1      44.043  38.003  34.828  1.00  0.00    -0.354 N 
ATOM     57  N   UNL A   1      44.740  39.114  32.194  1.00  0.00    -0.248 NA
ATOM     58  C   UNL A   1      45.607  40.847  30.891  1.00  0.00     0.031 C 
ATOM     59  C   UNL A   1      44.568  39.176  36.639  1.00  0.00     0.029 A 
ATOM     60  C   UNL A   1      44.629  39.185  35.253  1.00  0.00     0.049 A 
ATOM     61  H   UNL A   1      43.935  37.734  33.887  1.00  0.00     0.167 HD
ATOM     62  C   UNL A   1      45.205  40.125  33.031  1.00  0.00     0.074 A 
ATOM     63  C   UNL A   1      45.759  41.151  32.172  1.00  0.00     0.031 C 
ATOM     64  C   UNL A   1      45.180  40.196  34.386  1.00  0.00     0.037 A 
BRANCH  51  65
ATOM     65  C   UNL A   1      42.517  35.330  37.124  1.00  0.00     0.058 A 
ATOM     66  C   UNL A   1      41.264  35.588  37.706  1.00  0.00     0.135 A 
ATOM     67  C   UNL A   1      43.354  34.400  37.764  1.00  0.00     0.135 A 
ATOM     68  F   UNL A   1      40.433  36.484  37.149  1.00  0.00    -0.206 F 
ATOM     69  C   UNL A   1      40.868  34.968  38.885  1.00  0.00     0.059 A 
ATOM     70  C   UNL A   1      42.964  33.744  38.927  1.00  0.00     0.059 A 
ATOM     71  F   UNL A   1      44.565  34.121  37.257  1.00  0.00    -0.206 F 
ATOM     72  C   UNL A   1      41.725  34.044  39.488  1.00  0.00     0.060 A 
BRANCH  72  73
ATOM     73  S   UNL A   1      41.189  33.239  41.012  1.00  0.00     0.124 S 
ATOM     74  O   UNL A   1      42.245  33.637  41.938  1.00  0.00    -0.237 OA
ATOM     75  O   UNL A   1      39.883  33.847  41.242  1.00  0.00    -0.237 OA
ATOM     76  O   UNL A   1      41.167  31.823  40.659  1.00  0.00    -0.744 OA
ENDBRANCH  72  73
ENDBRANCH  51  65
BRANCH  52  77
ATOM     77  C   UNL A   1      45.083  39.444  28.367  1.00  0.00     0.058 A 
ATOM     78  C   UNL A   1      46.291  39.152  27.717  1.00  0.00     0.135 A 
ATOM     79  C   UNL A   1      44.219  40.365  27.754  1.00  0.00     0.135 A 
ATOM     80  F   UNL A   1      47.157  38.288  28.267  1.00  0.00    -0.206 F 
ATOM     81  C   UNL A   1      46.638  39.762  26.515  1.00  0.00     0.059 A 
ATOM     82  C   UNL A   1      44.530  40.964  26.537  1.00  0.00     0.059 A 
ATOM     83  F   UNL A   1      43.046  40.675  28.328  1.00  0.00    -0.206 F 
ATOM     84  C   UNL A   1      45.747  40.665  25.930  1.00  0.00     0.060 A 
BRANCH  84  85
ATOM     85  S   UNL A   1      46.184  41.408  24.344  1.00  0.00     0.124 S 
ATOM     86  O   UNL A   1      44.881  41.842  23.854  1.00  0.00    -0.237 OA
ATOM     87  O   UNL A   1      47.103  42.468  24.747  1.00  0.00    -0.237 OA
ATOM     88  O   UNL A   1      46.796  40.302  23.613  1.00  0.00    -0.744 OA
ENDBRANCH  84  85
ENDBRANCH  52  77
BRANCH  64  89
ATOM     89  C   UNL A   1      45.807  41.403  35.031  1.00  0.00     0.058 A 
ATOM     90  C   UNL A   1      47.153  41.421  35.430  1.00  0.00     0.135 A 
ATOM     91  C   UNL A   1      45.059  42.579  35.212  1.00  0.00     0.135 A 
ATOM     92  F   UNL A   1      47.916  40.326  35.284  1.00  0.00    -0.206 F 
ATOM     93  C   UNL A   1      47.725  42.546  36.016  1.00  0.00     0.059 A 
ATOM     94  C   UNL A   1      45.618  43.728  35.764  1.00  0.00     0.059 A 
ATOM     95  F   UNL A   1      43.770  42.625  34.837  1.00  0.00    -0.206 F 
ATOM     96  C   UNL A   1      46.948  43.695  36.177  1.00  0.00     0.060 A 
BRANCH  96  97
ATOM     97  S   UNL A   1      47.707  45.155  36.922  1.00  0.00     0.124 S 
ATOM     98  O   UNL A   1      46.533  45.940  37.292  1.00  0.00    -0.237 OA
ATOM     99  O   UNL A   1      48.462  44.581  38.032  1.00  0.00    -0.237 OA
ATOM    100  O   UNL A   1      48.517  45.708  35.841  1.00  0.00    -0.744 OA
ENDBRANCH  96  97
ENDBRANCH  64  89
ENDBRANCH  38  39
ENDBRANCH  31  33
ENDBRANCH  30  31
ENDBRANCH  29  30
ENDBRANCH  28  29
ENDBRANCH  27  28
ENDBRANCH  26  27
ENDBRANCH   1  26
TORSDOF 25
ENDMDL
