MODEL 1
REMARK VINA RESULT:     -10.4      0.000      0.000
REMARK SMILES CC[C@H]([NH3+])[C@H](C(=O)OCCOCCOCCOCCOC(=O)c1ccc(-c2c3nc(c(-c4c(F)cc(S(=O)(=O)[O-])cc4F)c4ccc([nH]4)c(-c4c(F)cc(S(=O)(=O)[O-])cc4F)c4nc(c(-c5c(F)cc(S(=O)(=O)[O-])cc5F)c5ccc2[nH]5)C=C4)C=C3)cc1)C(=O)OCC1c2ccccc2-c2ccccc21
REMARK SMILES IDX 13 1 12 2 11 3 10 4 9 5 8 6 6 7 7 8 5 9 3 10 2 11 1 12 4 13
REMARK SMILES IDX 89 17 90 18 91 19 92 20 93 21 94 22 105 23 95 24 99 25
REMARK SMILES IDX 100 26 104 27 96 28 98 29 101 30 103 31 97 32 102 33 14 34
REMARK SMILES IDX 15 35 16 36 17 37 18 38 19 39 20 40 21 41 22 42 23 43 24 44
REMARK SMILES IDX 88 45 25 46 87 47 26 48 27 49 28 50 81 51 29 52 86 53 80 54
REMARK SMILES IDX 82 55 30 56 85 57 79 58 78 59 31 61 65 62 44 63 64 64 45 65
REMARK SMILES IDX 48 66 63 67 83 68 46 69 47 70 62 72 84 73 49 74 32 75 33 76
REMARK SMILES IDX 42 77 34 78 35 79 41 80 43 81 36 82 37 83 38 84 39 85 40 86
REMARK SMILES IDX 66 87 67 88 76 89 68 90 69 91 75 92 77 93 70 94 71 95 72 96
REMARK SMILES IDX 73 97 74 98 50 99 51 100 60 101 52 102 53 103 59 104 61 105
REMARK SMILES IDX 54 106 55 107 56 108 57 109 58 110
REMARK H PARENT 4 14 4 15 4 16 82 60 48 71
REMARK Flexibility Score: inf
ROOT
ATOM      1  C   UNL A   1      40.058  20.961  26.452  1.00  0.00     0.188 C 
ENDROOT
BRANCH   1   2
ATOM      2  C   UNL A   1      39.478  22.388  26.639  1.00  0.00     0.188 C 
BRANCH   2   3
ATOM      3  O   UNL A   1      38.398  22.730  25.789  1.00  0.00    -0.376 OA
BRANCH   3   4
ATOM      4  C   UNL A   1      37.582  21.731  25.214  1.00  0.00     0.202 C 
BRANCH   4   5
ATOM      5  C   UNL A   1      36.097  21.696  25.621  1.00  0.00     0.261 C 
BRANCH   5   6
ATOM      6  O   UNL A   1      35.459  22.976  25.758  1.00  0.00    -0.462 OA
BRANCH   6   7
ATOM      7  C   UNL A   1      34.121  22.961  25.559  1.00  0.00     0.326 C 
ATOM      8  O   UNL A   1      33.324  23.184  26.463  1.00  0.00    -0.251 OA
BRANCH   7   9
ATOM      9  C   UNL A   1      33.719  22.890  24.101  1.00  0.00     0.266 C 
BRANCH   9  10
ATOM     10  C   UNL A   1      32.389  22.208  23.740  1.00  0.00     0.206 C 
BRANCH  10  11
ATOM     11  C   UNL A   1      32.492  20.681  23.589  1.00  0.00     0.063 C 
ATOM     12  C   UNL A   1      32.734  19.965  24.913  1.00  0.00     0.010 C 
ENDBRANCH  10  11
BRANCH  10  13
ATOM     13  N   UNL A   1      31.762  22.829  22.567  1.00  0.00    -0.354 N 
ATOM     14  H   UNL A   1      31.098  23.541  22.873  1.00  0.00     0.344 HD
ATOM     15  H   UNL A   1      31.271  22.118  22.026  1.00  0.00     0.344 HD
ATOM     16  H   UNL A   1      32.480  23.263  21.987  1.00  0.00     0.344 HD
ENDBRANCH  10  13
ENDBRANCH   9  10
BRANCH   9  17
ATOM     17  C   UNL A   1      33.813  24.257  23.484  1.00  0.00     0.326 C 
ATOM     18  O   UNL A   1      34.315  24.486  22.391  1.00  0.00    -0.251 OA
BRANCH  17  19
ATOM     19  O   UNL A   1      33.288  25.191  24.317  1.00  0.00    -0.464 OA
BRANCH  19  20
ATOM     20  C   UNL A   1      32.253  25.998  23.766  1.00  0.00     0.246 C 
BRANCH  20  21
ATOM     21  C   UNL A   1      31.305  26.567  24.849  1.00  0.00     0.088 C 
ATOM     22  C   UNL A   1      32.118  27.621  25.587  1.00  0.00    -0.029 A 
ATOM     23  C   UNL A   1      30.213  27.431  24.224  1.00  0.00    -0.029 A 
ATOM     24  C   UNL A   1      33.146  27.415  26.492  1.00  0.00     0.005 A 
ATOM     25  C   UNL A   1      31.748  28.908  25.141  1.00  0.00    -0.014 A 
ATOM     26  C   UNL A   1      30.599  28.787  24.268  1.00  0.00    -0.014 A 
ATOM     27  C   UNL A   1      29.005  27.055  23.661  1.00  0.00     0.005 A 
ATOM     28  C   UNL A   1      33.833  28.536  26.951  1.00  0.00     0.000 A 
ATOM     29  C   UNL A   1      32.429  30.017  25.602  1.00  0.00     0.009 A 
ATOM     30  C   UNL A   1      29.872  29.741  23.575  1.00  0.00     0.009 A 
ATOM     31  C   UNL A   1      28.243  28.023  23.009  1.00  0.00     0.000 A 
ATOM     32  C   UNL A   1      33.480  29.823  26.508  1.00  0.00     0.001 A 
ATOM     33  C   UNL A   1      28.699  29.346  22.923  1.00  0.00     0.001 A 
ENDBRANCH  20  21
ENDBRANCH  19  20
ENDBRANCH  17  19
ENDBRANCH   9  17
ENDBRANCH   7   9
ENDBRANCH   6   7
ENDBRANCH   5   6
ENDBRANCH   4   5
ENDBRANCH   3   4
ENDBRANCH   2   3
ENDBRANCH   1   2
BRANCH   1  34
ATOM     34  O   UNL A   1      41.352  20.584  26.899  1.00  0.00    -0.377 OA
BRANCH  34  35
ATOM     35  C   UNL A   1      42.209  19.851  26.042  1.00  0.00     0.188 C 
BRANCH  35  36
ATOM     36  C   UNL A   1      43.535  20.518  25.626  1.00  0.00     0.188 C 
BRANCH  36  37
ATOM     37  O   UNL A   1      43.371  21.593  24.713  1.00  0.00    -0.376 OA
BRANCH  37  38
ATOM     38  C   UNL A   1      43.909  22.854  25.067  1.00  0.00     0.202 C 
BRANCH  38  39
ATOM     39  C   UNL A   1      43.458  23.547  26.365  1.00  0.00     0.261 C 
BRANCH  39  40
ATOM     40  O   UNL A   1      42.140  24.113  26.391  1.00  0.00    -0.460 OA
BRANCH  40  41
ATOM     41  C   UNL A   1      41.998  25.409  26.044  1.00  0.00     0.338 C 
ATOM     42  O   UNL A   1      41.817  25.852  24.920  1.00  0.00    -0.246 OA
BRANCH  41  43
ATOM     43  C   UNL A   1      41.887  26.188  27.296  1.00  0.00     0.060 A 
ATOM     44  C   UNL A   1      40.817  25.942  28.168  1.00  0.00     0.016 A 
ATOM     45  C   UNL A   1      42.863  27.132  27.624  1.00  0.00     0.016 A 
ATOM     46  C   UNL A   1      40.706  26.658  29.359  1.00  0.00     0.010 A 
ATOM     47  C   UNL A   1      42.732  27.873  28.803  1.00  0.00     0.010 A 
ATOM     48  C   UNL A   1      41.637  27.660  29.658  1.00  0.00    -0.014 A 
BRANCH  48  49
ATOM     49  C   UNL A   1      41.350  28.628  30.744  1.00  0.00     0.031 A 
ATOM     50  C   UNL A   1      42.173  28.538  32.001  1.00  0.00     0.074 A 
ATOM     51  C   UNL A   1      40.400  29.570  30.618  1.00  0.00     0.049 A 
ATOM     52  N   UNL A   1      42.076  29.225  33.109  1.00  0.00    -0.248 NA
ATOM     53  C   UNL A   1      43.250  27.534  32.007  1.00  0.00     0.031 C 
ATOM     54  C   UNL A   1      39.570  29.781  29.433  1.00  0.00     0.029 A 
ATOM     55  N   UNL A   1      39.965  30.520  31.508  1.00  0.00    -0.354 N 
ATOM     56  C   UNL A   1      43.069  28.730  33.946  1.00  0.00     0.074 A 
ATOM     57  C   UNL A   1      43.738  27.666  33.231  1.00  0.00     0.031 C 
ATOM     58  C   UNL A   1      38.712  30.789  29.677  1.00  0.00     0.029 A 
ATOM     59  C   UNL A   1      38.907  31.266  31.046  1.00  0.00     0.049 A 
ATOM     60  H   UNL A   1      40.372  30.655  32.394  1.00  0.00     0.167 HD
ATOM     61  C   UNL A   1      43.396  29.130  35.197  1.00  0.00     0.037 A 
ATOM     62  C   UNL A   1      38.166  32.206  31.668  1.00  0.00     0.037 A 
ATOM     63  C   UNL A   1      42.721  30.187  35.903  1.00  0.00     0.049 A 
ATOM     64  C   UNL A   1      38.500  32.586  33.089  1.00  0.00     0.074 A 
ATOM     65  C   UNL A   1      42.985  30.683  37.166  1.00  0.00     0.029 A 
ATOM     66  N   UNL A   1      41.638  30.902  35.411  1.00  0.00    -0.354 N 
ATOM     67  N   UNL A   1      39.457  32.129  33.864  1.00  0.00    -0.248 NA
ATOM     68  C   UNL A   1      37.659  33.612  33.721  1.00  0.00     0.031 C 
ATOM     69  C   UNL A   1      42.024  31.654  37.465  1.00  0.00     0.029 A 
ATOM     70  C   UNL A   1      41.203  31.814  36.359  1.00  0.00     0.049 A 
ATOM     71  H   UNL A   1      41.237  30.780  34.520  1.00  0.00     0.167 HD
ATOM     72  C   UNL A   1      39.351  32.833  35.060  1.00  0.00     0.074 A 
ATOM     73  C   UNL A   1      38.244  33.754  34.902  1.00  0.00     0.031 C 
ATOM     74  C   UNL A   1      40.104  32.731  36.185  1.00  0.00     0.037 A 
BRANCH  61  75
ATOM     75  C   UNL A   1      44.510  28.399  35.895  1.00  0.00     0.058 A 
ATOM     76  C   UNL A   1      45.849  28.811  35.794  1.00  0.00     0.135 A 
ATOM     77  C   UNL A   1      44.229  27.284  36.702  1.00  0.00     0.135 A 
ATOM     78  F   UNL A   1      46.179  29.855  35.019  1.00  0.00    -0.206 F 
ATOM     79  C   UNL A   1      46.871  28.128  36.447  1.00  0.00     0.059 A 
ATOM     80  C   UNL A   1      45.230  26.607  37.391  1.00  0.00     0.059 A 
ATOM     81  F   UNL A   1      42.968  26.844  36.830  1.00  0.00    -0.206 F 
ATOM     82  C   UNL A   1      46.550  27.029  37.245  1.00  0.00     0.060 A 
BRANCH  82  83
ATOM     83  S   UNL A   1      47.887  26.163  38.096  1.00  0.00     0.124 S 
ATOM     84  O   UNL A   1      48.064  24.992  37.243  1.00  0.00    -0.237 OA
ATOM     85  O   UNL A   1      48.967  27.144  38.057  1.00  0.00    -0.237 OA
ATOM     86  O   UNL A   1      47.333  25.897  39.419  1.00  0.00    -0.744 OA
ENDBRANCH  82  83
ENDBRANCH  61  75
BRANCH  62  87
ATOM     87  C   UNL A   1      37.021  32.841  30.960  1.00  0.00     0.058 A 
ATOM     88  C   UNL A   1      37.226  33.820  29.976  1.00  0.00     0.135 A 
ATOM     89  C   UNL A   1      35.696  32.483  31.256  1.00  0.00     0.135 A 
ATOM     90  F   UNL A   1      38.472  34.209  29.666  1.00  0.00    -0.206 F 
ATOM     91  C   UNL A   1      36.161  34.428  29.318  1.00  0.00     0.059 A 
ATOM     92  C   UNL A   1      34.616  33.056  30.591  1.00  0.00     0.059 A 
ATOM     93  F   UNL A   1      35.442  31.548  32.184  1.00  0.00    -0.206 F 
ATOM     94  C   UNL A   1      34.859  34.034  29.628  1.00  0.00     0.060 A 
BRANCH  94  95
ATOM     95  S   UNL A   1      33.488  34.785  28.725  1.00  0.00     0.124 S 
ATOM     96  O   UNL A   1      34.088  36.030  28.258  1.00  0.00    -0.237 OA
ATOM     97  O   UNL A   1      33.215  33.783  27.699  1.00  0.00    -0.237 OA
ATOM     98  O   UNL A   1      32.452  34.926  29.743  1.00  0.00    -0.744 OA
ENDBRANCH  94  95
ENDBRANCH  62  87
BRANCH  74  99
ATOM     99  C   UNL A   1      39.790  33.666  37.324  1.00  0.00     0.058 A 
ATOM    100  C   UNL A   1      38.902  33.315  38.353  1.00  0.00     0.135 A 
ATOM    101  C   UNL A   1      40.440  34.909  37.417  1.00  0.00     0.135 A 
ATOM    102  F   UNL A   1      38.250  32.142  38.312  1.00  0.00    -0.206 F 
ATOM    103  C   UNL A   1      38.648  34.174  39.418  1.00  0.00     0.059 A 
ATOM    104  C   UNL A   1      40.226  35.768  38.491  1.00  0.00     0.059 A 
ATOM    105  F   UNL A   1      41.309  35.291  36.469  1.00  0.00    -0.206 F 
ATOM    106  C   UNL A   1      39.318  35.396  39.481  1.00  0.00     0.060 A 
BRANCH 106 107
ATOM    107  S   UNL A   1      39.003  36.485  40.886  1.00  0.00     0.124 S 
ATOM    108  O   UNL A   1      38.601  37.720  40.217  1.00  0.00    -0.237 OA
ATOM    109  O   UNL A   1      37.945  35.777  41.598  1.00  0.00    -0.237 OA
ATOM    110  O   UNL A   1      40.290  36.535  41.574  1.00  0.00    -0.744 OA
ENDBRANCH 106 107
ENDBRANCH  74  99
ENDBRANCH  48  49
ENDBRANCH  41  43
ENDBRANCH  40  41
ENDBRANCH  39  40
ENDBRANCH  38  39
ENDBRANCH  37  38
ENDBRANCH  36  37
ENDBRANCH  35  36
ENDBRANCH  34  35
ENDBRANCH   1  34
TORSDOF 30
ENDMDL
MODEL 2
REMARK VINA RESULT:     -10.3      6.351     11.730
REMARK SMILES CC[C@H]([NH3+])[C@H](C(=O)OCCOCCOCCOCCOC(=O)c1ccc(-c2c3nc(c(-c4c(F)cc(S(=O)(=O)[O-])cc4F)c4ccc([nH]4)c(-c4c(F)cc(S(=O)(=O)[O-])cc4F)c4nc(c(-c5c(F)cc(S(=O)(=O)[O-])cc5F)c5ccc2[nH]5)C=C4)C=C3)cc1)C(=O)OCC1c2ccccc2-c2ccccc21
REMARK SMILES IDX 13 1 12 2 11 3 10 4 9 5 8 6 6 7 7 8 5 9 3 10 2 11 1 12 4 13
REMARK SMILES IDX 89 17 90 18 91 19 92 20 93 21 94 22 105 23 95 24 99 25
REMARK SMILES IDX 100 26 104 27 96 28 98 29 101 30 103 31 97 32 102 33 14 34
REMARK SMILES IDX 15 35 16 36 17 37 18 38 19 39 20 40 21 41 22 42 23 43 24 44
REMARK SMILES IDX 88 45 25 46 87 47 26 48 27 49 28 50 81 51 29 52 86 53 80 54
REMARK SMILES IDX 82 55 30 56 85 57 79 58 78 59 31 61 65 62 44 63 64 64 45 65
REMARK SMILES IDX 48 66 63 67 83 68 46 69 47 70 62 72 84 73 49 74 32 75 33 76
REMARK SMILES IDX 42 77 34 78 35 79 41 80 43 81 36 82 37 83 38 84 39 85 40 86
REMARK SMILES IDX 66 87 67 88 76 89 68 90 69 91 75 92 77 93 70 94 71 95 72 96
REMARK SMILES IDX 73 97 74 98 50 99 51 100 60 101 52 102 53 103 59 104 61 105
REMARK SMILES IDX 54 106 55 107 56 108 57 109 58 110
REMARK H PARENT 4 14 4 15 4 16 82 60 48 71
REMARK Flexibility Score: inf
ROOT
ATOM      1  C   UNL A   1      31.104  26.463  26.280  1.00  0.00     0.188 C 
ENDROOT
BRANCH   1   2
ATOM      2  C   UNL A   1      29.844  25.664  25.855  1.00  0.00     0.188 C 
BRANCH   2   3
ATOM      3  O   UNL A   1      29.540  25.684  24.472  1.00  0.00    -0.376 OA
BRANCH   3   4
ATOM      4  C   UNL A   1      28.662  26.651  23.935  1.00  0.00     0.202 C 
BRANCH   4   5
ATOM      5  C   UNL A   1      29.282  27.928  23.337  1.00  0.00     0.261 C 
BRANCH   5   6
ATOM      6  O   UNL A   1      30.211  27.724  22.261  1.00  0.00    -0.462 OA
BRANCH   6   7
ATOM      7  C   UNL A   1      31.513  27.750  22.630  1.00  0.00     0.326 C 
ATOM      8  O   UNL A   1      32.075  28.786  22.966  1.00  0.00    -0.251 OA
BRANCH   7   9
ATOM      9  C   UNL A   1      32.123  26.378  22.820  1.00  0.00     0.266 C 
BRANCH   9  10
ATOM     10  C   UNL A   1      31.747  25.265  21.828  1.00  0.00     0.206 C 
BRANCH  10  11
ATOM     11  C   UNL A   1      32.015  23.846  22.354  1.00  0.00     0.063 C 
ATOM     12  C   UNL A   1      33.150  23.140  21.620  1.00  0.00     0.010 C 
ENDBRANCH  10  11
BRANCH  10  13
ATOM     13  N   UNL A   1      32.359  25.482  20.511  1.00  0.00    -0.354 N 
ATOM     14  H   UNL A   1      31.660  25.856  19.869  1.00  0.00     0.344 HD
ATOM     15  H   UNL A   1      32.714  24.597  20.150  1.00  0.00     0.344 HD
ATOM     16  H   UNL A   1      33.128  26.148  20.599  1.00  0.00     0.344 HD
ENDBRANCH  10  13
ENDBRANCH   9  10
BRANCH   9  17
ATOM     17  C   UNL A   1      33.614  26.503  22.957  1.00  0.00     0.326 C 
ATOM     18  O   UNL A   1      34.355  26.911  22.072  1.00  0.00    -0.251 OA
BRANCH  17  19
ATOM     19  O   UNL A   1      34.016  26.081  24.183  1.00  0.00    -0.464 OA
BRANCH  19  20
ATOM     20  C   UNL A   1      34.766  24.871  24.204  1.00  0.00     0.246 C 
BRANCH  20  21
ATOM     21  C   UNL A   1      34.863  24.260  25.622  1.00  0.00     0.088 C 
ATOM     22  C   UNL A   1      33.950  23.043  25.604  1.00  0.00    -0.029 A 
ATOM     23  C   UNL A   1      36.221  23.597  25.842  1.00  0.00    -0.029 A 
ATOM     24  C   UNL A   1      32.565  23.024  25.613  1.00  0.00     0.005 A 
ATOM     25  C   UNL A   1      34.722  21.869  25.468  1.00  0.00    -0.014 A 
ATOM     26  C   UNL A   1      36.124  22.216  25.574  1.00  0.00    -0.014 A 
ATOM     27  C   UNL A   1      37.426  24.162  26.229  1.00  0.00     0.005 A 
ATOM     28  C   UNL A   1      31.937  21.790  25.467  1.00  0.00     0.000 A 
ATOM     29  C   UNL A   1      34.094  20.647  25.326  1.00  0.00     0.009 A 
ATOM     30  C   UNL A   1      37.267  21.438  25.498  1.00  0.00     0.009 A 
ATOM     31  C   UNL A   1      38.571  23.368  26.207  1.00  0.00     0.000 A 
ATOM     32  C   UNL A   1      32.694  20.615  25.321  1.00  0.00     0.001 A 
ATOM     33  C   UNL A   1      38.500  22.029  25.796  1.00  0.00     0.001 A 
ENDBRANCH  20  21
ENDBRANCH  19  20
ENDBRANCH  17  19
ENDBRANCH   9  17
ENDBRANCH   7   9
ENDBRANCH   6   7
ENDBRANCH   5   6
ENDBRANCH   4   5
ENDBRANCH   3   4
ENDBRANCH   2   3
ENDBRANCH   1   2
BRANCH   1  34
ATOM     34  O   UNL A   1      31.047  27.641  27.071  1.00  0.00    -0.377 OA
BRANCH  34  35
ATOM     35  C   UNL A   1      32.173  28.498  27.142  1.00  0.00     0.188 C 
BRANCH  35  36
ATOM     36  C   UNL A   1      32.129  29.796  26.310  1.00  0.00     0.188 C 
BRANCH  36  37
ATOM     37  O   UNL A   1      33.251  30.642  26.515  1.00  0.00    -0.376 OA
BRANCH  37  38
ATOM     38  C   UNL A   1      33.779  30.743  27.824  1.00  0.00     0.202 C 
BRANCH  38  39
ATOM     39  C   UNL A   1      35.302  30.710  28.045  1.00  0.00     0.261 C 
BRANCH  39  40
ATOM     40  O   UNL A   1      35.874  29.489  28.533  1.00  0.00    -0.460 OA
BRANCH  40  41
ATOM     41  C   UNL A   1      36.568  29.529  29.688  1.00  0.00     0.338 C 
ATOM     42  O   UNL A   1      36.119  29.415  30.819  1.00  0.00    -0.246 OA
BRANCH  41  43
ATOM     43  C   UNL A   1      38.005  29.524  29.338  1.00  0.00     0.060 A 
ATOM     44  C   UNL A   1      38.384  29.495  27.988  1.00  0.00     0.016 A 
ATOM     45  C   UNL A   1      38.973  29.588  30.342  1.00  0.00     0.016 A 
ATOM     46  C   UNL A   1      39.734  29.504  27.640  1.00  0.00     0.010 A 
ATOM     47  C   UNL A   1      40.327  29.562  29.993  1.00  0.00     0.010 A 
ATOM     48  C   UNL A   1      40.712  29.489  28.643  1.00  0.00    -0.014 A 
BRANCH  48  49
ATOM     49  C   UNL A   1      42.118  29.179  28.292  1.00  0.00     0.031 A 
ATOM     50  C   UNL A   1      42.456  27.760  27.923  1.00  0.00     0.074 A 
ATOM     51  C   UNL A   1      43.069  30.129  28.283  1.00  0.00     0.049 A 
ATOM     52  N   UNL A   1      43.615  27.228  27.638  1.00  0.00    -0.248 NA
ATOM     53  C   UNL A   1      41.330  26.813  27.872  1.00  0.00     0.031 C 
ATOM     54  C   UNL A   1      42.854  31.544  28.580  1.00  0.00     0.029 A 
ATOM     55  N   UNL A   1      44.415  30.040  28.025  1.00  0.00    -0.354 N 
ATOM     56  C   UNL A   1      43.361  25.885  27.386  1.00  0.00     0.074 A 
ATOM     57  C   UNL A   1      41.943  25.676  27.579  1.00  0.00     0.031 C 
ATOM     58  C   UNL A   1      44.032  32.189  28.504  1.00  0.00     0.029 A 
ATOM     59  C   UNL A   1      45.088  31.227  28.191  1.00  0.00     0.049 A 
ATOM     60  H   UNL A   1      44.856  29.205  27.749  1.00  0.00     0.167 HD
ATOM     61  C   UNL A   1      44.231  24.915  27.021  1.00  0.00     0.037 A 
ATOM     62  C   UNL A   1      46.408  31.496  28.125  1.00  0.00     0.037 A 
ATOM     63  C   UNL A   1      45.642  25.131  26.836  1.00  0.00     0.049 A 
ATOM     64  C   UNL A   1      47.370  30.384  27.790  1.00  0.00     0.074 A 
ATOM     65  C   UNL A   1      46.608  24.221  26.450  1.00  0.00     0.029 A 
ATOM     66  N   UNL A   1      46.291  26.341  27.037  1.00  0.00    -0.354 N 
ATOM     67  N   UNL A   1      47.118  29.122  27.528  1.00  0.00    -0.248 NA
ATOM     68  C   UNL A   1      48.798  30.731  27.734  1.00  0.00     0.031 C 
ATOM     69  C   UNL A   1      47.850  24.863  26.478  1.00  0.00     0.029 A 
ATOM     70  C   UNL A   1      47.649  26.193  26.813  1.00  0.00     0.049 A 
ATOM     71  H   UNL A   1      45.851  27.182  27.300  1.00  0.00     0.167 HD
ATOM     72  C   UNL A   1      48.348  28.534  27.248  1.00  0.00     0.074 A 
ATOM     73  C   UNL A   1      49.342  29.581  27.361  1.00  0.00     0.031 C 
ATOM     74  C   UNL A   1      48.629  27.247  26.922  1.00  0.00     0.037 A 
BRANCH  61  75
ATOM     75  C   UNL A   1      43.688  23.525  26.833  1.00  0.00     0.058 A 
ATOM     76  C   UNL A   1      43.329  22.712  27.922  1.00  0.00     0.135 A 
ATOM     77  C   UNL A   1      43.494  23.009  25.541  1.00  0.00     0.135 A 
ATOM     78  F   UNL A   1      43.513  23.145  29.178  1.00  0.00    -0.206 F 
ATOM     79  C   UNL A   1      42.824  21.429  27.736  1.00  0.00     0.059 A 
ATOM     80  C   UNL A   1      42.959  21.741  25.331  1.00  0.00     0.059 A 
ATOM     81  F   UNL A   1      43.824  23.740  24.465  1.00  0.00    -0.206 F 
ATOM     82  C   UNL A   1      42.641  20.954  26.436  1.00  0.00     0.060 A 
BRANCH  82  83
ATOM     83  S   UNL A   1      41.972  19.292  26.213  1.00  0.00     0.124 S 
ATOM     84  O   UNL A   1      42.618  18.883  24.969  1.00  0.00    -0.237 OA
ATOM     85  O   UNL A   1      42.429  18.609  27.419  1.00  0.00    -0.237 OA
ATOM     86  O   UNL A   1      40.532  19.512  26.128  1.00  0.00    -0.744 OA
ENDBRANCH  82  83
ENDBRANCH  61  75
BRANCH  62  87
ATOM     87  C   UNL A   1      46.903  32.872  28.401  1.00  0.00     0.058 A 
ATOM     88  C   UNL A   1      47.171  33.302  29.709  1.00  0.00     0.135 A 
ATOM     89  C   UNL A   1      47.116  33.789  27.358  1.00  0.00     0.135 A 
ATOM     90  F   UNL A   1      46.971  32.471  30.742  1.00  0.00    -0.206 F 
ATOM     91  C   UNL A   1      47.623  34.591  29.975  1.00  0.00     0.059 A 
ATOM     92  C   UNL A   1      47.594  35.073  27.596  1.00  0.00     0.059 A 
ATOM     93  F   UNL A   1      46.882  33.429  26.086  1.00  0.00    -0.206 F 
ATOM     94  C   UNL A   1      47.837  35.468  28.911  1.00  0.00     0.060 A 
BRANCH  94  95
ATOM     95  S   UNL A   1      48.481  37.118  29.264  1.00  0.00     0.124 S 
ATOM     96  O   UNL A   1      49.069  37.487  27.981  1.00  0.00    -0.237 OA
ATOM     97  O   UNL A   1      47.271  37.841  29.643  1.00  0.00    -0.237 OA
ATOM     98  O   UNL A   1      49.427  36.885  30.350  1.00  0.00    -0.744 OA
ENDBRANCH  94  95
ENDBRANCH  62  87
BRANCH  74  99
ATOM     99  C   UNL A   1      50.063  26.898  26.619  1.00  0.00     0.058 A 
ATOM    100  C   UNL A   1      50.924  26.373  27.595  1.00  0.00     0.135 A 
ATOM    101  C   UNL A   1      50.562  27.035  25.312  1.00  0.00     0.135 A 
ATOM    102  F   UNL A   1      50.501  26.225  28.860  1.00  0.00    -0.206 F 
ATOM    103  C   UNL A   1      52.236  26.023  27.293  1.00  0.00     0.059 A 
ATOM    104  C   UNL A   1      51.861  26.660  24.981  1.00  0.00     0.059 A 
ATOM    105  F   UNL A   1      49.780  27.520  24.336  1.00  0.00    -0.206 F 
ATOM    106  C   UNL A   1      52.694  26.165  25.983  1.00  0.00     0.060 A 
BRANCH 106 107
ATOM    107  S   UNL A   1      54.389  25.675  25.599  1.00  0.00     0.124 S 
ATOM    108  O   UNL A   1      54.185  24.364  24.989  1.00  0.00    -0.237 OA
ATOM    109  O   UNL A   1      54.822  26.735  24.695  1.00  0.00    -0.237 OA
ATOM    110  O   UNL A   1      55.045  25.665  26.903  1.00  0.00    -0.744 OA
ENDBRANCH 106 107
ENDBRANCH  74  99
ENDBRANCH  48  49
ENDBRANCH  41  43
ENDBRANCH  40  41
ENDBRANCH  39  40
ENDBRANCH  38  39
ENDBRANCH  37  38
ENDBRANCH  36  37
ENDBRANCH  35  36
ENDBRANCH  34  35
ENDBRANCH   1  34
TORSDOF 30
ENDMDL
MODEL 3
REMARK VINA RESULT:     -10.1      2.280      9.241
REMARK SMILES CC[C@H]([NH3+])[C@H](C(=O)OCCOCCOCCOCCOC(=O)c1ccc(-c2c3nc(c(-c4c(F)cc(S(=O)(=O)[O-])cc4F)c4ccc([nH]4)c(-c4c(F)cc(S(=O)(=O)[O-])cc4F)c4nc(c(-c5c(F)cc(S(=O)(=O)[O-])cc5F)c5ccc2[nH]5)C=C4)C=C3)cc1)C(=O)OCC1c2ccccc2-c2ccccc21
REMARK SMILES IDX 13 1 12 2 11 3 10 4 9 5 8 6 6 7 7 8 5 9 3 10 2 11 1 12 4 13
REMARK SMILES IDX 89 17 90 18 91 19 92 20 93 21 94 22 105 23 95 24 99 25
REMARK SMILES IDX 100 26 104 27 96 28 98 29 101 30 103 31 97 32 102 33 14 34
REMARK SMILES IDX 15 35 16 36 17 37 18 38 19 39 20 40 21 41 22 42 23 43 24 44
REMARK SMILES IDX 88 45 25 46 87 47 26 48 27 49 28 50 81 51 29 52 86 53 80 54
REMARK SMILES IDX 82 55 30 56 85 57 79 58 78 59 31 61 65 62 44 63 64 64 45 65
REMARK SMILES IDX 48 66 63 67 83 68 46 69 47 70 62 72 84 73 49 74 32 75 33 76
REMARK SMILES IDX 42 77 34 78 35 79 41 80 43 81 36 82 37 83 38 84 39 85 40 86
REMARK SMILES IDX 66 87 67 88 76 89 68 90 69 91 75 92 77 93 70 94 71 95 72 96
REMARK SMILES IDX 73 97 74 98 50 99 51 100 60 101 52 102 53 103 59 104 61 105
REMARK SMILES IDX 54 106 55 107 56 108 57 109 58 110
REMARK H PARENT 4 14 4 15 4 16 82 60 48 71
REMARK Flexibility Score: inf
ROOT
ATOM      1  C   UNL A   1      31.430  28.127  24.951  1.00  0.00     0.188 C 
ENDROOT
BRANCH   1   2
ATOM      2  C   UNL A   1      30.301  28.141  23.887  1.00  0.00     0.188 C 
BRANCH   2   3
ATOM      3  O   UNL A   1      30.610  27.518  22.653  1.00  0.00    -0.376 OA
BRANCH   3   4
ATOM      4  C   UNL A   1      31.776  26.735  22.506  1.00  0.00     0.202 C 
BRANCH   4   5
ATOM      5  C   UNL A   1      31.599  25.224  22.267  1.00  0.00     0.261 C 
BRANCH   5   6
ATOM      6  O   UNL A   1      30.719  24.548  23.179  1.00  0.00    -0.462 OA
BRANCH   6   7
ATOM      7  C   UNL A   1      31.136  23.317  23.555  1.00  0.00     0.326 C 
ATOM      8  O   UNL A   1      31.200  22.381  22.766  1.00  0.00    -0.251 OA
BRANCH   7   9
ATOM      9  C   UNL A   1      31.735  23.271  24.943  1.00  0.00     0.266 C 
BRANCH   9  10
ATOM     10  C   UNL A   1      31.918  24.593  25.707  1.00  0.00     0.206 C 
BRANCH  10  11
ATOM     11  C   UNL A   1      33.333  24.795  26.272  1.00  0.00     0.063 C 
ATOM     12  C   UNL A   1      34.242  25.587  25.339  1.00  0.00     0.010 C 
ENDBRANCH  10  11
BRANCH  10  13
ATOM     13  N   UNL A   1      30.889  24.770  26.739  1.00  0.00    -0.354 N 
ATOM     14  H   UNL A   1      30.125  24.115  26.574  1.00  0.00     0.344 HD
ATOM     15  H   UNL A   1      30.532  25.725  26.704  1.00  0.00     0.344 HD
ATOM     16  H   UNL A   1      31.295  24.592  27.658  1.00  0.00     0.344 HD
ENDBRANCH  10  13
ENDBRANCH   9  10
BRANCH   9  17
ATOM     17  C   UNL A   1      31.000  22.259  25.778  1.00  0.00     0.326 C 
ATOM     18  O   UNL A   1      29.947  22.482  26.361  1.00  0.00    -0.251 OA
BRANCH  17  19
ATOM     19  O   UNL A   1      31.679  21.085  25.808  1.00  0.00    -0.464 OA
BRANCH  19  20
ATOM     20  C   UNL A   1      33.099  21.192  25.815  1.00  0.00     0.246 C 
BRANCH  20  21
ATOM     21  C   UNL A   1      33.725  20.861  24.439  1.00  0.00     0.088 C 
ATOM     22  C   UNL A   1      35.215  21.122  24.597  1.00  0.00    -0.029 A 
ATOM     23  C   UNL A   1      33.721  19.356  24.183  1.00  0.00    -0.029 A 
ATOM     24  C   UNL A   1      35.856  22.347  24.675  1.00  0.00     0.005 A 
ATOM     25  C   UNL A   1      35.899  19.898  24.767  1.00  0.00    -0.014 A 
ATOM     26  C   UNL A   1      34.968  18.810  24.551  1.00  0.00    -0.014 A 
ATOM     27  C   UNL A   1      32.712  18.548  23.685  1.00  0.00     0.005 A 
ATOM     28  C   UNL A   1      37.222  22.343  24.944  1.00  0.00     0.000 A 
ATOM     29  C   UNL A   1      37.254  19.899  25.030  1.00  0.00     0.009 A 
ATOM     30  C   UNL A   1      35.138  17.436  24.610  1.00  0.00     0.009 A 
ATOM     31  C   UNL A   1      32.899  17.167  23.691  1.00  0.00     0.000 A 
ATOM     32  C   UNL A   1      37.912  21.132  25.124  1.00  0.00     0.001 A 
ATOM     33  C   UNL A   1      34.084  16.613  24.197  1.00  0.00     0.001 A 
ENDBRANCH  20  21
ENDBRANCH  19  20
ENDBRANCH  17  19
ENDBRANCH   9  17
ENDBRANCH   7   9
ENDBRANCH   6   7
ENDBRANCH   5   6
ENDBRANCH   4   5
ENDBRANCH   3   4
ENDBRANCH   2   3
ENDBRANCH   1   2
BRANCH   1  34
ATOM     34  O   UNL A   1      31.203  27.831  26.322  1.00  0.00    -0.377 OA
BRANCH  34  35
ATOM     35  C   UNL A   1      32.090  28.329  27.307  1.00  0.00     0.188 C 
BRANCH  35  36
ATOM     36  C   UNL A   1      33.411  28.957  26.819  1.00  0.00     0.188 C 
BRANCH  36  37
ATOM     37  O   UNL A   1      33.468  30.366  26.986  1.00  0.00    -0.376 OA
BRANCH  37  38
ATOM     38  C   UNL A   1      32.254  31.092  26.930  1.00  0.00     0.202 C 
BRANCH  38  39
ATOM     39  C   UNL A   1      32.234  32.588  27.292  1.00  0.00     0.261 C 
BRANCH  39  40
ATOM     40  O   UNL A   1      33.486  33.208  27.615  1.00  0.00    -0.460 OA
BRANCH  40  41
ATOM     41  C   UNL A   1      33.494  34.166  28.564  1.00  0.00     0.338 C 
ATOM     42  O   UNL A   1      32.644  35.025  28.748  1.00  0.00    -0.246 OA
BRANCH  41  43
ATOM     43  C   UNL A   1      34.614  33.866  29.482  1.00  0.00     0.060 A 
ATOM     44  C   UNL A   1      35.921  34.215  29.111  1.00  0.00     0.016 A 
ATOM     45  C   UNL A   1      34.366  33.276  30.724  1.00  0.00     0.016 A 
ATOM     46  C   UNL A   1      36.986  33.951  29.972  1.00  0.00     0.010 A 
ATOM     47  C   UNL A   1      35.438  32.982  31.570  1.00  0.00     0.010 A 
ATOM     48  C   UNL A   1      36.754  33.289  31.184  1.00  0.00    -0.014 A 
BRANCH  48  49
ATOM     49  C   UNL A   1      37.897  32.728  31.944  1.00  0.00     0.031 A 
ATOM     50  C   UNL A   1      38.616  31.542  31.360  1.00  0.00     0.074 A 
ATOM     51  C   UNL A   1      38.299  33.262  33.110  1.00  0.00     0.049 A 
ATOM     52  N   UNL A   1      39.598  30.837  31.857  1.00  0.00    -0.248 NA
ATOM     53  C   UNL A   1      38.159  31.088  30.036  1.00  0.00     0.031 C 
ATOM     54  C   UNL A   1      37.710  34.436  33.751  1.00  0.00     0.029 A 
ATOM     55  N   UNL A   1      39.297  32.873  33.969  1.00  0.00    -0.354 N 
ATOM     56  C   UNL A   1      39.870  29.853  30.915  1.00  0.00     0.074 A 
ATOM     57  C   UNL A   1      38.930  30.031  29.829  1.00  0.00     0.031 C 
ATOM     58  C   UNL A   1      38.347  34.662  34.915  1.00  0.00     0.029 A 
ATOM     59  C   UNL A   1      39.362  33.628  35.117  1.00  0.00     0.049 A 
ATOM     60  H   UNL A   1      39.908  32.124  33.783  1.00  0.00     0.167 HD
ATOM     61  C   UNL A   1      40.820  28.890  30.948  1.00  0.00     0.037 A 
ATOM     62  C   UNL A   1      40.133  33.481  36.213  1.00  0.00     0.037 A 
ATOM     63  C   UNL A   1      41.747  28.718  32.035  1.00  0.00     0.049 A 
ATOM     64  C   UNL A   1      41.137  32.356  36.263  1.00  0.00     0.074 A 
ATOM     65  C   UNL A   1      42.761  27.785  32.160  1.00  0.00     0.029 A 
ATOM     66  N   UNL A   1      41.766  29.486  33.191  1.00  0.00    -0.354 N 
ATOM     67  N   UNL A   1      41.403  31.445  35.356  1.00  0.00    -0.248 NA
ATOM     68  C   UNL A   1      41.949  32.240  37.482  1.00  0.00     0.031 C 
ATOM     69  C   UNL A   1      43.352  27.948  33.418  1.00  0.00     0.029 A 
ATOM     70  C   UNL A   1      42.754  29.029  34.047  1.00  0.00     0.049 A 
ATOM     71  H   UNL A   1      41.167  30.245  33.375  1.00  0.00     0.167 HD
ATOM     72  C   UNL A   1      42.432  30.669  35.881  1.00  0.00     0.074 A 
ATOM     73  C   UNL A   1      42.747  31.225  37.181  1.00  0.00     0.031 C 
ATOM     74  C   UNL A   1      43.062  29.597  35.337  1.00  0.00     0.037 A 
BRANCH  61  75
ATOM     75  C   UNL A   1      40.880  27.928  29.793  1.00  0.00     0.058 A 
ATOM     76  C   UNL A   1      41.902  27.984  28.831  1.00  0.00     0.135 A 
ATOM     77  C   UNL A   1      39.916  26.915  29.665  1.00  0.00     0.135 A 
ATOM     78  F   UNL A   1      42.837  28.944  28.891  1.00  0.00    -0.206 F 
ATOM     79  C   UNL A   1      41.950  27.086  27.769  1.00  0.00     0.059 A 
ATOM     80  C   UNL A   1      39.963  25.986  28.630  1.00  0.00     0.059 A 
ATOM     81  F   UNL A   1      38.915  26.818  30.553  1.00  0.00    -0.206 F 
ATOM     82  C   UNL A   1      40.977  26.089  27.679  1.00  0.00     0.060 A 
BRANCH  82  83
ATOM     83  S   UNL A   1      41.061  24.924  26.302  1.00  0.00     0.124 S 
ATOM     84  O   UNL A   1      41.242  25.826  25.169  1.00  0.00    -0.237 OA
ATOM     85  O   UNL A   1      42.220  24.111  26.655  1.00  0.00    -0.237 OA
ATOM     86  O   UNL A   1      39.776  24.237  26.357  1.00  0.00    -0.744 OA
ENDBRANCH  82  83
ENDBRANCH  61  75
BRANCH  62  87
ATOM     87  C   UNL A   1      39.977  34.412  37.364  1.00  0.00     0.058 A 
ATOM     88  C   UNL A   1      39.037  34.167  38.377  1.00  0.00     0.135 A 
ATOM     89  C   UNL A   1      40.765  35.570  37.474  1.00  0.00     0.135 A 
ATOM     90  F   UNL A   1      38.250  33.083  38.313  1.00  0.00    -0.206 F 
ATOM     91  C   UNL A   1      38.877  35.039  39.450  1.00  0.00     0.059 A 
ATOM     92  C   UNL A   1      40.643  36.441  38.551  1.00  0.00     0.059 A 
ATOM     93  F   UNL A   1      41.684  35.849  36.537  1.00  0.00    -0.206 F 
ATOM     94  C   UNL A   1      39.690  36.170  39.531  1.00  0.00     0.060 A 
BRANCH  94  95
ATOM     95  S   UNL A   1      39.514  37.262  40.960  1.00  0.00     0.124 S 
ATOM     96  O   UNL A   1      38.527  38.221  40.479  1.00  0.00    -0.237 OA
ATOM     97  O   UNL A   1      39.058  36.338  41.993  1.00  0.00    -0.237 OA
ATOM     98  O   UNL A   1      40.863  37.785  41.150  1.00  0.00    -0.744 OA
ENDBRANCH  94  95
ENDBRANCH  62  87
BRANCH  74  99
ATOM     99  C   UNL A   1      44.189  28.975  36.121  1.00  0.00     0.058 A 
ATOM    100  C   UNL A   1      44.003  27.829  36.909  1.00  0.00     0.135 A 
ATOM    101  C   UNL A   1      45.489  29.501  36.028  1.00  0.00     0.135 A 
ATOM    102  F   UNL A   1      42.782  27.286  37.036  1.00  0.00    -0.206 F 
ATOM    103  C   UNL A   1      45.060  27.243  37.600  1.00  0.00     0.059 A 
ATOM    104  C   UNL A   1      46.565  28.913  36.684  1.00  0.00     0.059 A 
ATOM    105  F   UNL A   1      45.727  30.588  35.279  1.00  0.00    -0.206 F 
ATOM    106  C   UNL A   1      46.338  27.790  37.478  1.00  0.00     0.060 A 
BRANCH 106 107
ATOM    107  S   UNL A   1      47.705  26.999  38.353  1.00  0.00     0.124 S 
ATOM    108  O   UNL A   1      48.413  26.340  37.259  1.00  0.00    -0.237 OA
ATOM    109  O   UNL A   1      48.389  28.139  38.955  1.00  0.00    -0.237 OA
ATOM    110  O   UNL A   1      47.037  26.107  39.296  1.00  0.00    -0.744 OA
ENDBRANCH 106 107
ENDBRANCH  74  99
ENDBRANCH  48  49
ENDBRANCH  41  43
ENDBRANCH  40  41
ENDBRANCH  39  40
ENDBRANCH  38  39
ENDBRANCH  37  38
ENDBRANCH  36  37
ENDBRANCH  35  36
ENDBRANCH  34  35
ENDBRANCH   1  34
TORSDOF 30
ENDMDL
