MODEL 1
REMARK VINA RESULT:      -9.2      0.000      0.000
REMARK SMILES C[C@@H]1CCCCN1C(=O)Cn1cc(C(=O)OCCOCCOCCOCCOC(=O)c2ccc(-c3c4nc(c(-c5c(F)cc(S(=O)(=O)[O-])cc5F)c5ccc([nH]5)c(-c5c(F)cc(S(=O)(=O)[O-])cc5F)c5nc(c(-c6c(F)cc(S(=O)(=O)[O-])cc6F)c6ccc3[nH]6)C=C5)C=C4)cc2)cn1
REMARK SMILES IDX 22 1 21 2 20 3 19 4 18 5 17 6 16 7 14 8 15 9 13 10 11 11
REMARK SMILES IDX 12 12 98 13 97 14 10 15 8 16 9 17 7 18 1 19 2 20 3 21 4 22
REMARK SMILES IDX 6 23 5 24 23 25 24 26 25 27 26 28 27 29 28 30 29 31 30 32
REMARK SMILES IDX 31 33 32 34 96 35 33 36 95 37 34 38 35 39 36 40 89 41 37 42
REMARK SMILES IDX 94 43 88 44 90 45 38 46 93 47 87 48 86 49 39 51 73 52 52 53
REMARK SMILES IDX 72 54 53 55 56 56 71 57 91 58 54 59 55 60 70 62 92 63 57 64
REMARK SMILES IDX 40 65 41 66 50 67 42 68 43 69 49 70 51 71 44 72 45 73 46 74
REMARK SMILES IDX 47 75 48 76 74 77 75 78 84 79 76 80 77 81 83 82 85 83 78 84
REMARK SMILES IDX 79 85 80 86 81 87 82 88 58 89 59 90 68 91 60 92 61 93 67 94
REMARK SMILES IDX 69 95 62 96 63 97 64 98 65 99 66 100
REMARK H PARENT 90 50 56 61
REMARK Flexibility Score: inf
ROOT
ATOM      1  O   UNL A   1      36.310  20.974  25.114  1.00  0.00    -0.377 OA
ENDROOT
BRANCH   1   2
ATOM      2  C   UNL A   1      35.277  21.314  26.022  1.00  0.00     0.188 C 
BRANCH   2   3
ATOM      3  C   UNL A   1      35.055  22.834  26.172  1.00  0.00     0.188 C 
BRANCH   3   4
ATOM      4  O   UNL A   1      35.687  23.782  25.324  1.00  0.00    -0.376 OA
BRANCH   4   5
ATOM      5  C   UNL A   1      35.635  23.726  23.910  1.00  0.00     0.202 C 
BRANCH   5   6
ATOM      6  C   UNL A   1      34.614  22.898  23.109  1.00  0.00     0.261 C 
BRANCH   6   7
ATOM      7  O   UNL A   1      33.307  23.447  22.948  1.00  0.00    -0.460 OA
BRANCH   7   8
ATOM      8  C   UNL A   1      33.158  24.248  21.868  1.00  0.00     0.341 C 
ATOM      9  O   UNL A   1      33.241  23.868  20.699  1.00  0.00    -0.246 OA
BRANCH   8  10
ATOM     10  C   UNL A   1      32.719  25.583  22.212  1.00  0.00     0.098 A 
ATOM     11  N   UNL A   1      32.452  27.633  22.985  1.00  0.00    -0.262 N 
ATOM     12  C   UNL A   1      33.330  26.578  22.959  1.00  0.00     0.125 A 
ATOM     13  N   UNL A   1      31.311  27.373  22.306  1.00  0.00    -0.180 NA
ATOM     14  C   UNL A   1      31.463  26.124  21.879  1.00  0.00     0.150 A 
BRANCH  11  15
ATOM     15  C   UNL A   1      32.717  29.007  23.380  1.00  0.00     0.244 C 
BRANCH  15  16
ATOM     16  C   UNL A   1      32.013  29.483  24.634  1.00  0.00     0.244 C 
ATOM     17  O   UNL A   1      30.897  30.004  24.523  1.00  0.00    -0.273 OA
BRANCH  16  18
ATOM     18  N   UNL A   1      32.566  29.225  25.887  1.00  0.00    -0.338 N 
ATOM     19  C   UNL A   1      33.487  26.993  26.499  1.00  0.00     0.031 C 
ATOM     20  C   UNL A   1      33.792  28.443  26.131  1.00  0.00     0.082 C 
ATOM     21  C   UNL A   1      34.683  29.108  27.204  1.00  0.00     0.025 C 
ATOM     22  C   UNL A   1      34.508  30.625  27.191  1.00  0.00     0.004 C 
ATOM     23  C   UNL A   1      32.059  29.950  27.051  1.00  0.00     0.120 C 
ATOM     24  C   UNL A   1      33.060  31.009  27.511  1.00  0.00     0.022 C 
ENDBRANCH  16  18
ENDBRANCH  15  16
ENDBRANCH  11  15
ENDBRANCH   8  10
ENDBRANCH   7   8
ENDBRANCH   6   7
ENDBRANCH   5   6
ENDBRANCH   4   5
ENDBRANCH   3   4
ENDBRANCH   2   3
ENDBRANCH   1   2
BRANCH   1  25
ATOM     25  C   UNL A   1      36.622  19.588  24.997  1.00  0.00     0.188 C 
BRANCH  25  26
ATOM     26  C   UNL A   1      38.106  19.137  25.067  1.00  0.00     0.188 C 
BRANCH  26  27
ATOM     27  O   UNL A   1      39.022  20.163  25.428  1.00  0.00    -0.376 OA
BRANCH  27  28
ATOM     28  C   UNL A   1      40.209  19.889  26.152  1.00  0.00     0.202 C 
BRANCH  28  29
ATOM     29  C   UNL A   1      40.746  20.985  27.060  1.00  0.00     0.261 C 
BRANCH  29  30
ATOM     30  O   UNL A   1      40.971  22.205  26.389  1.00  0.00    -0.460 OA
BRANCH  30  31
ATOM     31  C   UNL A   1      40.080  23.173  26.648  1.00  0.00     0.338 C 
ATOM     32  O   UNL A   1      38.854  23.072  26.662  1.00  0.00    -0.246 OA
BRANCH  31  33
ATOM     33  C   UNL A   1      40.817  24.424  26.769  1.00  0.00     0.060 A 
ATOM     34  C   UNL A   1      41.918  24.426  27.625  1.00  0.00     0.016 A 
ATOM     35  C   UNL A   1      40.162  25.598  26.365  1.00  0.00     0.016 A 
ATOM     36  C   UNL A   1      42.186  25.587  28.304  1.00  0.00     0.010 A 
ATOM     37  C   UNL A   1      40.398  26.736  27.078  1.00  0.00     0.010 A 
ATOM     38  C   UNL A   1      41.341  26.680  28.098  1.00  0.00    -0.014 A 
BRANCH  38  39
ATOM     39  C   UNL A   1      41.515  27.854  28.918  1.00  0.00     0.031 A 
ATOM     40  C   UNL A   1      42.684  28.628  28.467  1.00  0.00     0.074 A 
ATOM     41  C   UNL A   1      40.593  28.211  29.832  1.00  0.00     0.049 A 
ATOM     42  N   UNL A   1      43.854  28.673  29.011  1.00  0.00    -0.248 NA
ATOM     43  C   UNL A   1      42.643  29.190  27.102  1.00  0.00     0.031 C 
ATOM     44  C   UNL A   1      39.275  27.598  30.043  1.00  0.00     0.029 A 
ATOM     45  N   UNL A   1      40.579  29.268  30.687  1.00  0.00    -0.354 N 
ATOM     46  C   UNL A   1      44.563  29.563  28.212  1.00  0.00     0.074 A 
ATOM     47  C   UNL A   1      43.915  29.553  26.934  1.00  0.00     0.031 C 
ATOM     48  C   UNL A   1      38.511  28.429  30.788  1.00  0.00     0.029 A 
ATOM     49  C   UNL A   1      39.322  29.556  31.214  1.00  0.00     0.049 A 
ATOM     50  H   UNL A   1      41.385  29.785  30.913  1.00  0.00     0.167 HD
ATOM     51  C   UNL A   1      45.290  30.554  28.795  1.00  0.00     0.037 A 
ATOM     52  C   UNL A   1      38.978  30.678  31.894  1.00  0.00     0.037 A 
ATOM     53  C   UNL A   1      45.497  30.265  30.195  1.00  0.00     0.049 A 
ATOM     54  C   UNL A   1      40.235  31.289  32.397  1.00  0.00     0.074 A 
ATOM     55  C   UNL A   1      46.241  29.371  30.931  1.00  0.00     0.029 A 
ATOM     56  N   UNL A   1      44.500  30.741  31.009  1.00  0.00    -0.354 N 
ATOM     57  N   UNL A   1      41.002  30.715  33.287  1.00  0.00    -0.248 NA
ATOM     58  C   UNL A   1      40.869  32.356  31.629  1.00  0.00     0.031 C 
ATOM     59  C   UNL A   1      45.577  29.234  32.184  1.00  0.00     0.029 A 
ATOM     60  C   UNL A   1      44.467  30.078  32.205  1.00  0.00     0.049 A 
ATOM     61  H   UNL A   1      43.886  31.470  30.763  1.00  0.00     0.167 HD
ATOM     62  C   UNL A   1      42.288  31.046  32.903  1.00  0.00     0.074 A 
ATOM     63  C   UNL A   1      42.143  32.177  31.996  1.00  0.00     0.031 C 
ATOM     64  C   UNL A   1      43.315  30.165  33.078  1.00  0.00     0.037 A 
BRANCH  51  65
ATOM     65  C   UNL A   1      45.342  31.987  28.290  1.00  0.00     0.058 A 
ATOM     66  C   UNL A   1      46.602  32.543  27.989  1.00  0.00     0.135 A 
ATOM     67  C   UNL A   1      44.279  32.918  28.371  1.00  0.00     0.135 A 
ATOM     68  F   UNL A   1      47.686  31.758  27.885  1.00  0.00    -0.206 F 
ATOM     69  C   UNL A   1      46.802  33.919  27.856  1.00  0.00     0.059 A 
ATOM     70  C   UNL A   1      44.448  34.284  28.192  1.00  0.00     0.059 A 
ATOM     71  F   UNL A   1      43.033  32.582  28.716  1.00  0.00    -0.206 F 
ATOM     72  C   UNL A   1      45.717  34.781  27.975  1.00  0.00     0.060 A 
BRANCH  72  73
ATOM     73  S   UNL A   1      45.971  36.560  27.890  1.00  0.00     0.124 S 
ATOM     74  O   UNL A   1      47.386  36.667  28.224  1.00  0.00    -0.237 OA
ATOM     75  O   UNL A   1      45.612  36.847  26.506  1.00  0.00    -0.237 OA
ATOM     76  O   UNL A   1      45.044  37.079  28.892  1.00  0.00    -0.744 OA
ENDBRANCH  72  73
ENDBRANCH  51  65
BRANCH  52  77
ATOM     77  C   UNL A   1      37.678  31.397  31.891  1.00  0.00     0.058 A 
ATOM     78  C   UNL A   1      36.980  31.667  33.082  1.00  0.00     0.135 A 
ATOM     79  C   UNL A   1      37.222  32.072  30.740  1.00  0.00     0.135 A 
ATOM     80  F   UNL A   1      37.359  31.087  34.230  1.00  0.00    -0.206 F 
ATOM     81  C   UNL A   1      35.916  32.577  33.135  1.00  0.00     0.059 A 
ATOM     82  C   UNL A   1      36.164  32.978  30.767  1.00  0.00     0.059 A 
ATOM     83  F   UNL A   1      37.856  31.932  29.564  1.00  0.00    -0.206 F 
ATOM     84  C   UNL A   1      35.527  33.243  31.972  1.00  0.00     0.060 A 
BRANCH  84  85
ATOM     85  S   UNL A   1      34.256  34.527  32.063  1.00  0.00     0.124 S 
ATOM     86  O   UNL A   1      33.905  34.705  30.658  1.00  0.00    -0.237 OA
ATOM     87  O   UNL A   1      33.239  33.898  32.899  1.00  0.00    -0.237 OA
ATOM     88  O   UNL A   1      34.954  35.654  32.676  1.00  0.00    -0.744 OA
ENDBRANCH  84  85
ENDBRANCH  52  77
BRANCH  64  89
ATOM     89  C   UNL A   1      43.181  29.145  34.169  1.00  0.00     0.058 A 
ATOM     90  C   UNL A   1      42.751  27.820  33.991  1.00  0.00     0.135 A 
ATOM     91  C   UNL A   1      43.603  29.522  35.453  1.00  0.00     0.135 A 
ATOM     92  F   UNL A   1      42.409  27.363  32.777  1.00  0.00    -0.206 F 
ATOM     93  C   UNL A   1      42.715  26.918  35.057  1.00  0.00     0.059 A 
ATOM     94  C   UNL A   1      43.605  28.633  36.519  1.00  0.00     0.059 A 
ATOM     95  F   UNL A   1      44.067  30.763  35.670  1.00  0.00    -0.206 F 
ATOM     96  C   UNL A   1      43.146  27.335  36.318  1.00  0.00     0.060 A 
BRANCH  96  97
ATOM     97  S   UNL A   1      43.161  26.156  37.685  1.00  0.00     0.124 S 
ATOM     98  O   UNL A   1      43.753  24.975  37.066  1.00  0.00    -0.237 OA
ATOM     99  O   UNL A   1      43.987  26.834  38.678  1.00  0.00    -0.237 OA
ATOM    100  O   UNL A   1      41.749  26.031  38.043  1.00  0.00    -0.744 OA
ENDBRANCH  96  97
ENDBRANCH  64  89
ENDBRANCH  38  39
ENDBRANCH  31  33
ENDBRANCH  30  31
ENDBRANCH  29  30
ENDBRANCH  28  29
ENDBRANCH  27  28
ENDBRANCH  26  27
ENDBRANCH  25  26
ENDBRANCH   1  25
TORSDOF 26
ENDMDL
MODEL 2
REMARK VINA RESULT:      -8.5      3.581      8.225
REMARK SMILES C[C@@H]1CCCCN1C(=O)Cn1cc(C(=O)OCCOCCOCCOCCOC(=O)c2ccc(-c3c4nc(c(-c5c(F)cc(S(=O)(=O)[O-])cc5F)c5ccc([nH]5)c(-c5c(F)cc(S(=O)(=O)[O-])cc5F)c5nc(c(-c6c(F)cc(S(=O)(=O)[O-])cc6F)c6ccc3[nH]6)C=C5)C=C4)cc2)cn1
REMARK SMILES IDX 22 1 21 2 20 3 19 4 18 5 17 6 16 7 14 8 15 9 13 10 11 11
REMARK SMILES IDX 12 12 98 13 97 14 10 15 8 16 9 17 7 18 1 19 2 20 3 21 4 22
REMARK SMILES IDX 6 23 5 24 23 25 24 26 25 27 26 28 27 29 28 30 29 31 30 32
REMARK SMILES IDX 31 33 32 34 96 35 33 36 95 37 34 38 35 39 36 40 89 41 37 42
REMARK SMILES IDX 94 43 88 44 90 45 38 46 93 47 87 48 86 49 39 51 73 52 52 53
REMARK SMILES IDX 72 54 53 55 56 56 71 57 91 58 54 59 55 60 70 62 92 63 57 64
REMARK SMILES IDX 40 65 41 66 50 67 42 68 43 69 49 70 51 71 44 72 45 73 46 74
REMARK SMILES IDX 47 75 48 76 74 77 75 78 84 79 76 80 77 81 83 82 85 83 78 84
REMARK SMILES IDX 79 85 80 86 81 87 82 88 58 89 59 90 68 91 60 92 61 93 67 94
REMARK SMILES IDX 69 95 62 96 63 97 64 98 65 99 66 100
REMARK H PARENT 90 50 56 61
REMARK Flexibility Score: inf
ROOT
ATOM      1  O   UNL A   1      33.667  24.104  26.072  1.00  0.00    -0.377 OA
ENDROOT
BRANCH   1   2
ATOM      2  C   UNL A   1      33.053  24.565  24.882  1.00  0.00     0.188 C 
BRANCH   2   3
ATOM      3  C   UNL A   1      33.881  25.625  24.125  1.00  0.00     0.188 C 
BRANCH   3   4
ATOM      4  O   UNL A   1      33.619  27.017  24.235  1.00  0.00    -0.376 OA
BRANCH   4   5
ATOM      5  C   UNL A   1      32.340  27.553  24.520  1.00  0.00     0.202 C 
BRANCH   5   6
ATOM      6  C   UNL A   1      32.042  28.525  25.677  1.00  0.00     0.261 C 
BRANCH   6   7
ATOM      7  O   UNL A   1      32.746  29.765  25.688  1.00  0.00    -0.460 OA
BRANCH   7   8
ATOM      8  C   UNL A   1      33.361  30.058  26.858  1.00  0.00     0.341 C 
ATOM      9  O   UNL A   1      34.099  29.286  27.471  1.00  0.00    -0.246 OA
BRANCH   8  10
ATOM     10  C   UNL A   1      33.205  31.443  27.245  1.00  0.00     0.098 A 
ATOM     11  N   UNL A   1      33.382  33.489  28.055  1.00  0.00    -0.262 N 
ATOM     12  C   UNL A   1      34.043  32.289  27.954  1.00  0.00     0.125 A 
ATOM     13  N   UNL A   1      32.168  33.461  27.461  1.00  0.00    -0.180 NA
ATOM     14  C   UNL A   1      32.052  32.215  27.013  1.00  0.00     0.150 A 
BRANCH  11  15
ATOM     15  C   UNL A   1      33.928  34.781  28.441  1.00  0.00     0.244 C 
BRANCH  15  16
ATOM     16  C   UNL A   1      33.160  35.530  29.511  1.00  0.00     0.244 C 
ATOM     17  O   UNL A   1      32.314  36.360  29.159  1.00  0.00    -0.273 OA
BRANCH  16  18
ATOM     18  N   UNL A   1      33.325  35.195  30.855  1.00  0.00    -0.338 N 
ATOM     19  C   UNL A   1      34.513  33.127  31.572  1.00  0.00     0.031 C 
ATOM     20  C   UNL A   1      34.558  34.648  31.449  1.00  0.00     0.082 C 
ATOM     21  C   UNL A   1      34.866  35.303  32.815  1.00  0.00     0.025 C 
ATOM     22  C   UNL A   1      34.341  36.736  32.861  1.00  0.00     0.004 C 
ATOM     23  C   UNL A   1      32.310  35.611  31.820  1.00  0.00     0.120 C 
ATOM     24  C   UNL A   1      32.820  36.765  32.684  1.00  0.00     0.022 C 
ENDBRANCH  16  18
ENDBRANCH  15  16
ENDBRANCH  11  15
ENDBRANCH   8  10
ENDBRANCH   7   8
ENDBRANCH   6   7
ENDBRANCH   5   6
ENDBRANCH   4   5
ENDBRANCH   3   4
ENDBRANCH   2   3
ENDBRANCH   1   2
BRANCH   1  25
ATOM     25  C   UNL A   1      33.385  22.758  26.453  1.00  0.00     0.188 C 
BRANCH  25  26
ATOM     26  C   UNL A   1      34.476  21.671  26.255  1.00  0.00     0.188 C 
BRANCH  26  27
ATOM     27  O   UNL A   1      34.926  21.518  24.916  1.00  0.00    -0.376 OA
BRANCH  27  28
ATOM     28  C   UNL A   1      36.261  21.801  24.537  1.00  0.00     0.202 C 
BRANCH  28  29
ATOM     29  C   UNL A   1      37.366  21.402  25.504  1.00  0.00     0.261 C 
BRANCH  29  30
ATOM     30  O   UNL A   1      37.975  22.505  26.139  1.00  0.00    -0.460 OA
BRANCH  30  31
ATOM     31  C   UNL A   1      39.288  22.375  26.378  1.00  0.00     0.338 C 
ATOM     32  O   UNL A   1      39.923  21.328  26.496  1.00  0.00    -0.246 OA
BRANCH  31  33
ATOM     33  C   UNL A   1      39.822  23.708  26.623  1.00  0.00     0.060 A 
ATOM     34  C   UNL A   1      41.142  23.939  26.235  1.00  0.00     0.016 A 
ATOM     35  C   UNL A   1      39.151  24.508  27.560  1.00  0.00     0.016 A 
ATOM     36  C   UNL A   1      41.883  24.801  27.003  1.00  0.00     0.010 A 
ATOM     37  C   UNL A   1      39.902  25.325  28.353  1.00  0.00     0.010 A 
ATOM     38  C   UNL A   1      41.271  25.382  28.116  1.00  0.00    -0.014 A 
BRANCH  38  39
ATOM     39  C   UNL A   1      42.077  26.165  29.019  1.00  0.00     0.031 A 
ATOM     40  C   UNL A   1      41.522  27.523  29.161  1.00  0.00     0.074 A 
ATOM     41  C   UNL A   1      43.079  25.607  29.726  1.00  0.00     0.049 A 
ATOM     42  N   UNL A   1      41.951  28.609  28.611  1.00  0.00    -0.248 NA
ATOM     43  C   UNL A   1      40.171  27.646  29.743  1.00  0.00     0.031 C 
ATOM     44  C   UNL A   1      43.411  24.179  29.809  1.00  0.00     0.029 A 
ATOM     45  N   UNL A   1      43.937  26.174  30.615  1.00  0.00    -0.354 N 
ATOM     46  C   UNL A   1      41.093  29.591  29.093  1.00  0.00     0.074 A 
ATOM     47  C   UNL A   1      39.883  28.917  29.461  1.00  0.00     0.031 C 
ATOM     48  C   UNL A   1      44.231  23.973  30.865  1.00  0.00     0.029 A 
ATOM     49  C   UNL A   1      44.584  25.258  31.442  1.00  0.00     0.049 A 
ATOM     50  H   UNL A   1      44.088  27.145  30.670  1.00  0.00     0.167 HD
ATOM     51  C   UNL A   1      41.610  30.751  29.582  1.00  0.00     0.037 A 
ATOM     52  C   UNL A   1      45.301  25.554  32.555  1.00  0.00     0.037 A 
ATOM     53  C   UNL A   1      42.981  30.905  29.158  1.00  0.00     0.049 A 
ATOM     54  C   UNL A   1      45.685  26.986  32.462  1.00  0.00     0.074 A 
ATOM     55  C   UNL A   1      43.637  31.183  27.980  1.00  0.00     0.029 A 
ATOM     56  N   UNL A   1      43.891  30.331  30.011  1.00  0.00    -0.354 N 
ATOM     57  N   UNL A   1      46.494  27.451  31.546  1.00  0.00    -0.248 NA
ATOM     58  C   UNL A   1      44.867  27.991  33.132  1.00  0.00     0.031 C 
ATOM     59  C   UNL A   1      44.948  30.640  28.114  1.00  0.00     0.029 A 
ATOM     60  C   UNL A   1      45.080  30.080  29.383  1.00  0.00     0.049 A 
ATOM     61  H   UNL A   1      43.709  30.127  30.956  1.00  0.00     0.167 HD
ATOM     62  C   UNL A   1      45.990  28.701  31.239  1.00  0.00     0.074 A 
ATOM     63  C   UNL A   1      45.109  29.046  32.347  1.00  0.00     0.031 C 
ATOM     64  C   UNL A   1      46.060  29.187  29.966  1.00  0.00     0.037 A 
BRANCH  51  65
ATOM     65  C   UNL A   1      41.111  31.445  30.840  1.00  0.00     0.058 A 
ATOM     66  C   UNL A   1      41.074  30.705  32.040  1.00  0.00     0.135 A 
ATOM     67  C   UNL A   1      40.403  32.670  30.867  1.00  0.00     0.135 A 
ATOM     68  F   UNL A   1      41.712  29.527  32.134  1.00  0.00    -0.206 F 
ATOM     69  C   UNL A   1      40.331  31.114  33.149  1.00  0.00     0.059 A 
ATOM     70  C   UNL A   1      39.698  33.117  31.977  1.00  0.00     0.059 A 
ATOM     71  F   UNL A   1      40.268  33.465  29.803  1.00  0.00    -0.206 F 
ATOM     72  C   UNL A   1      39.634  32.316  33.100  1.00  0.00     0.060 A 
BRANCH  72  73
ATOM     73  S   UNL A   1      38.604  32.814  34.487  1.00  0.00     0.124 S 
ATOM     74  O   UNL A   1      37.789  33.861  33.883  1.00  0.00    -0.237 OA
ATOM     75  O   UNL A   1      37.916  31.569  34.811  1.00  0.00    -0.237 OA
ATOM     76  O   UNL A   1      39.575  33.263  35.482  1.00  0.00    -0.744 OA
ENDBRANCH  72  73
ENDBRANCH  51  65
BRANCH  52  77
ATOM     77  C   UNL A   1      45.427  24.766  33.808  1.00  0.00     0.058 A 
ATOM     78  C   UNL A   1      46.659  24.224  34.219  1.00  0.00     0.135 A 
ATOM     79  C   UNL A   1      44.394  24.754  34.767  1.00  0.00     0.135 A 
ATOM     80  F   UNL A   1      47.704  24.215  33.380  1.00  0.00    -0.206 F 
ATOM     81  C   UNL A   1      46.863  23.733  35.515  1.00  0.00     0.059 A 
ATOM     82  C   UNL A   1      44.572  24.265  36.060  1.00  0.00     0.059 A 
ATOM     83  F   UNL A   1      43.198  25.301  34.497  1.00  0.00    -0.206 F 
ATOM     84  C   UNL A   1      45.816  23.775  36.436  1.00  0.00     0.060 A 
BRANCH  84  85
ATOM     85  S   UNL A   1      46.115  23.280  38.150  1.00  0.00     0.124 S 
ATOM     86  O   UNL A   1      44.991  23.899  38.844  1.00  0.00    -0.237 OA
ATOM     87  O   UNL A   1      46.086  21.824  38.062  1.00  0.00    -0.237 OA
ATOM     88  O   UNL A   1      47.423  23.858  38.447  1.00  0.00    -0.744 OA
ENDBRANCH  84  85
ENDBRANCH  52  77
BRANCH  64  89
ATOM     89  C   UNL A   1      47.152  28.667  29.080  1.00  0.00     0.058 A 
ATOM     90  C   UNL A   1      47.047  27.552  28.233  1.00  0.00     0.135 A 
ATOM     91  C   UNL A   1      48.343  29.408  29.030  1.00  0.00     0.135 A 
ATOM     92  F   UNL A   1      45.911  26.842  28.167  1.00  0.00    -0.206 F 
ATOM     93  C   UNL A   1      48.098  27.174  27.394  1.00  0.00     0.059 A 
ATOM     94  C   UNL A   1      49.388  29.069  28.182  1.00  0.00     0.059 A 
ATOM     95  F   UNL A   1      48.480  30.510  29.785  1.00  0.00    -0.206 F 
ATOM     96  C   UNL A   1      49.264  27.942  27.375  1.00  0.00     0.060 A 
BRANCH  96  97
ATOM     97  S   UNL A   1      50.602  27.494  26.247  1.00  0.00     0.124 S 
ATOM     98  O   UNL A   1      50.348  28.369  25.108  1.00  0.00    -0.237 OA
ATOM     99  O   UNL A   1      51.793  27.802  27.031  1.00  0.00    -0.237 OA
ATOM    100  O   UNL A   1      50.379  26.071  26.001  1.00  0.00    -0.744 OA
ENDBRANCH  96  97
ENDBRANCH  64  89
ENDBRANCH  38  39
ENDBRANCH  31  33
ENDBRANCH  30  31
ENDBRANCH  29  30
ENDBRANCH  28  29
ENDBRANCH  27  28
ENDBRANCH  26  27
ENDBRANCH  25  26
ENDBRANCH   1  25
TORSDOF 26
ENDMDL
MODEL 3
REMARK VINA RESULT:      -8.5      2.804      8.341
REMARK SMILES C[C@@H]1CCCCN1C(=O)Cn1cc(C(=O)OCCOCCOCCOCCOC(=O)c2ccc(-c3c4nc(c(-c5c(F)cc(S(=O)(=O)[O-])cc5F)c5ccc([nH]5)c(-c5c(F)cc(S(=O)(=O)[O-])cc5F)c5nc(c(-c6c(F)cc(S(=O)(=O)[O-])cc6F)c6ccc3[nH]6)C=C5)C=C4)cc2)cn1
REMARK SMILES IDX 22 1 21 2 20 3 19 4 18 5 17 6 16 7 14 8 15 9 13 10 11 11
REMARK SMILES IDX 12 12 98 13 97 14 10 15 8 16 9 17 7 18 1 19 2 20 3 21 4 22
REMARK SMILES IDX 6 23 5 24 23 25 24 26 25 27 26 28 27 29 28 30 29 31 30 32
REMARK SMILES IDX 31 33 32 34 96 35 33 36 95 37 34 38 35 39 36 40 89 41 37 42
REMARK SMILES IDX 94 43 88 44 90 45 38 46 93 47 87 48 86 49 39 51 73 52 52 53
REMARK SMILES IDX 72 54 53 55 56 56 71 57 91 58 54 59 55 60 70 62 92 63 57 64
REMARK SMILES IDX 40 65 41 66 50 67 42 68 43 69 49 70 51 71 44 72 45 73 46 74
REMARK SMILES IDX 47 75 48 76 74 77 75 78 84 79 76 80 77 81 83 82 85 83 78 84
REMARK SMILES IDX 79 85 80 86 81 87 82 88 58 89 59 90 68 91 60 92 61 93 67 94
REMARK SMILES IDX 69 95 62 96 63 97 64 98 65 99 66 100
REMARK H PARENT 90 50 56 61
REMARK Flexibility Score: inf
ROOT
ATOM      1  O   UNL A   1      33.033  23.621  24.840  1.00  0.00    -0.377 OA
ENDROOT
BRANCH   1   2
ATOM      2  C   UNL A   1      32.581  23.119  23.595  1.00  0.00     0.188 C 
BRANCH   2   3
ATOM      3  C   UNL A   1      33.590  23.314  22.443  1.00  0.00     0.188 C 
BRANCH   3   4
ATOM      4  O   UNL A   1      33.731  24.550  21.757  1.00  0.00    -0.376 OA
BRANCH   4   5
ATOM      5  C   UNL A   1      32.655  25.437  21.509  1.00  0.00     0.202 C 
BRANCH   5   6
ATOM      6  C   UNL A   1      32.391  26.729  22.303  1.00  0.00     0.261 C 
BRANCH   6   7
ATOM      7  O   UNL A   1      32.540  26.667  23.721  1.00  0.00    -0.460 OA
BRANCH   7   8
ATOM      8  C   UNL A   1      31.458  27.078  24.423  1.00  0.00     0.341 C 
ATOM      9  O   UNL A   1      30.316  26.645  24.263  1.00  0.00    -0.246 OA
BRANCH   8  10
ATOM     10  C   UNL A   1      31.797  27.967  25.513  1.00  0.00     0.098 A 
ATOM     11  N   UNL A   1      32.513  29.584  26.834  1.00  0.00    -0.262 N 
ATOM     12  C   UNL A   1      32.427  29.202  25.517  1.00  0.00     0.125 A 
ATOM     13  N   UNL A   1      31.984  28.666  27.674  1.00  0.00    -0.180 NA
ATOM     14  C   UNL A   1      31.594  27.679  26.875  1.00  0.00     0.150 A 
BRANCH  11  15
ATOM     15  C   UNL A   1      32.818  30.904  27.363  1.00  0.00     0.244 C 
BRANCH  15  16
ATOM     16  C   UNL A   1      34.226  31.097  27.889  1.00  0.00     0.244 C 
ATOM     17  O   UNL A   1      35.130  30.388  27.431  1.00  0.00    -0.273 OA
BRANCH  16  18
ATOM     18  N   UNL A   1      34.505  32.133  28.778  1.00  0.00    -0.338 N 
ATOM     19  C   UNL A   1      35.135  31.714  31.151  1.00  0.00     0.031 C 
ATOM     20  C   UNL A   1      35.603  32.138  29.761  1.00  0.00     0.082 C 
ATOM     21  C   UNL A   1      36.310  33.511  29.813  1.00  0.00     0.025 C 
ATOM     22  C   UNL A   1      36.244  34.208  28.455  1.00  0.00     0.004 C 
ATOM     23  C   UNL A   1      33.829  33.418  28.606  1.00  0.00     0.120 C 
ATOM     24  C   UNL A   1      34.790  34.467  28.047  1.00  0.00     0.022 C 
ENDBRANCH  16  18
ENDBRANCH  15  16
ENDBRANCH  11  15
ENDBRANCH   8  10
ENDBRANCH   7   8
ENDBRANCH   6   7
ENDBRANCH   5   6
ENDBRANCH   4   5
ENDBRANCH   3   4
ENDBRANCH   2   3
ENDBRANCH   1   2
BRANCH   1  25
ATOM     25  C   UNL A   1      33.209  22.665  25.885  1.00  0.00     0.188 C 
BRANCH  25  26
ATOM     26  C   UNL A   1      34.624  22.455  26.487  1.00  0.00     0.188 C 
BRANCH  26  27
ATOM     27  O   UNL A   1      35.696  22.790  25.616  1.00  0.00    -0.376 OA
BRANCH  27  28
ATOM     28  C   UNL A   1      36.599  23.842  25.908  1.00  0.00     0.202 C 
BRANCH  28  29
ATOM     29  C   UNL A   1      38.066  23.480  26.088  1.00  0.00     0.261 C 
BRANCH  29  30
ATOM     30  O   UNL A   1      38.664  24.111  27.200  1.00  0.00    -0.460 OA
BRANCH  30  31
ATOM     31  C   UNL A   1      39.745  24.854  26.923  1.00  0.00     0.338 C 
ATOM     32  O   UNL A   1      40.751  24.504  26.307  1.00  0.00    -0.246 OA
BRANCH  31  33
ATOM     33  C   UNL A   1      39.589  26.127  27.614  1.00  0.00     0.060 A 
ATOM     34  C   UNL A   1      40.127  27.253  26.989  1.00  0.00     0.016 A 
ATOM     35  C   UNL A   1      39.294  26.084  28.985  1.00  0.00     0.016 A 
ATOM     36  C   UNL A   1      40.635  28.239  27.795  1.00  0.00     0.010 A 
ATOM     37  C   UNL A   1      39.846  27.040  29.785  1.00  0.00     0.010 A 
ATOM     38  C   UNL A   1      40.587  28.048  29.178  1.00  0.00    -0.014 A 
BRANCH  38  39
ATOM     39  C   UNL A   1      41.255  28.999  30.031  1.00  0.00     0.031 A 
ATOM     40  C   UNL A   1      40.272  29.856  30.717  1.00  0.00     0.074 A 
ATOM     41  C   UNL A   1      42.582  28.931  30.249  1.00  0.00     0.049 A 
ATOM     42  N   UNL A   1      39.956  31.074  30.429  1.00  0.00    -0.248 NA
ATOM     43  C   UNL A   1      39.326  29.200  31.641  1.00  0.00     0.031 C 
ATOM     44  C   UNL A   1      43.496  27.870  29.807  1.00  0.00     0.029 A 
ATOM     45  N   UNL A   1      43.380  29.725  31.011  1.00  0.00    -0.354 N 
ATOM     46  C   UNL A   1      39.011  31.412  31.392  1.00  0.00     0.074 A 
ATOM     47  C   UNL A   1      38.441  30.177  31.842  1.00  0.00     0.031 C 
ATOM     48  C   UNL A   1      44.655  27.963  30.498  1.00  0.00     0.029 A 
ATOM     49  C   UNL A   1      44.614  29.158  31.323  1.00  0.00     0.049 A 
ATOM     50  H   UNL A   1      43.111  30.621  31.316  1.00  0.00     0.167 HD
ATOM     51  C   UNL A   1      39.126  32.594  32.056  1.00  0.00     0.037 A 
ATOM     52  C   UNL A   1      45.496  29.618  32.245  1.00  0.00     0.037 A 
ATOM     53  C   UNL A   1      40.029  33.476  31.355  1.00  0.00     0.049 A 
ATOM     54  C   UNL A   1      45.166  31.046  32.493  1.00  0.00     0.074 A 
ATOM     55  C   UNL A   1      40.008  34.206  30.189  1.00  0.00     0.029 A 
ATOM     56  N   UNL A   1      41.342  33.328  31.726  1.00  0.00    -0.354 N 
ATOM     57  N   UNL A   1      45.289  31.976  31.582  1.00  0.00    -0.248 NA
ATOM     58  C   UNL A   1      44.315  31.398  33.625  1.00  0.00     0.031 C 
ATOM     59  C   UNL A   1      41.368  34.385  29.804  1.00  0.00     0.029 A 
ATOM     60  C   UNL A   1      42.192  33.800  30.764  1.00  0.00     0.049 A 
ATOM     61  H   UNL A   1      41.635  32.933  32.578  1.00  0.00     0.167 HD
ATOM     62  C   UNL A   1      44.226  32.829  31.811  1.00  0.00     0.074 A 
ATOM     63  C   UNL A   1      43.769  32.527  33.161  1.00  0.00     0.031 C 
ATOM     64  C   UNL A   1      43.599  33.454  30.773  1.00  0.00     0.037 A 
BRANCH  51  65
ATOM     65  C   UNL A   1      38.891  32.762  33.549  1.00  0.00     0.058 A 
ATOM     66  C   UNL A   1      39.644  31.965  34.436  1.00  0.00     0.135 A 
ATOM     67  C   UNL A   1      37.784  33.424  34.130  1.00  0.00     0.135 A 
ATOM     68  F   UNL A   1      40.719  31.289  33.999  1.00  0.00    -0.206 F 
ATOM     69  C   UNL A   1      39.281  31.783  35.772  1.00  0.00     0.059 A 
ATOM     70  C   UNL A   1      37.435  33.295  35.468  1.00  0.00     0.059 A 
ATOM     71  F   UNL A   1      36.918  34.162  33.430  1.00  0.00    -0.206 F 
ATOM     72  C   UNL A   1      38.164  32.442  36.273  1.00  0.00     0.060 A 
BRANCH  72  73
ATOM     73  S   UNL A   1      37.634  32.152  37.967  1.00  0.00     0.124 S 
ATOM     74  O   UNL A   1      36.452  33.001  38.051  1.00  0.00    -0.237 OA
ATOM     75  O   UNL A   1      37.394  30.712  37.962  1.00  0.00    -0.237 OA
ATOM     76  O   UNL A   1      38.783  32.586  38.757  1.00  0.00    -0.744 OA
ENDBRANCH  72  73
ENDBRANCH  51  65
BRANCH  52  77
ATOM     77  C   UNL A   1      46.406  28.838  33.123  1.00  0.00     0.058 A 
ATOM     78  C   UNL A   1      45.959  28.261  34.325  1.00  0.00     0.135 A 
ATOM     79  C   UNL A   1      47.671  28.416  32.666  1.00  0.00     0.135 A 
ATOM     80  F   UNL A   1      44.756  28.587  34.821  1.00  0.00    -0.206 F 
ATOM     81  C   UNL A   1      46.705  27.297  35.014  1.00  0.00     0.059 A 
ATOM     82  C   UNL A   1      48.435  27.462  33.337  1.00  0.00     0.059 A 
ATOM     83  F   UNL A   1      48.165  28.859  31.499  1.00  0.00    -0.206 F 
ATOM     84  C   UNL A   1      47.937  26.890  34.501  1.00  0.00     0.060 A 
BRANCH  84  85
ATOM     85  S   UNL A   1      48.837  25.541  35.305  1.00  0.00     0.124 S 
ATOM     86  O   UNL A   1      49.110  26.103  36.623  1.00  0.00    -0.237 OA
ATOM     87  O   UNL A   1      47.865  24.454  35.264  1.00  0.00    -0.237 OA
ATOM     88  O   UNL A   1      50.008  25.360  34.451  1.00  0.00    -0.744 OA
ENDBRANCH  84  85
ENDBRANCH  52  77
BRANCH  64  89
ATOM     89  C   UNL A   1      44.386  33.684  29.517  1.00  0.00     0.058 A 
ATOM     90  C   UNL A   1      44.464  32.793  28.434  1.00  0.00     0.135 A 
ATOM     91  C   UNL A   1      45.026  34.925  29.381  1.00  0.00     0.135 A 
ATOM     92  F   UNL A   1      43.813  31.620  28.459  1.00  0.00    -0.206 F 
ATOM     93  C   UNL A   1      45.174  33.116  27.276  1.00  0.00     0.059 A 
ATOM     94  C   UNL A   1      45.710  35.280  28.227  1.00  0.00     0.059 A 
ATOM     95  F   UNL A   1      44.945  35.834  30.367  1.00  0.00    -0.206 F 
ATOM     96  C   UNL A   1      45.793  34.364  27.182  1.00  0.00     0.060 A 
BRANCH  96  97
ATOM     97  S   UNL A   1      46.659  34.813  25.663  1.00  0.00     0.124 S 
ATOM     98  O   UNL A   1      45.687  34.453  24.637  1.00  0.00    -0.237 OA
ATOM     99  O   UNL A   1      46.894  36.241  25.843  1.00  0.00    -0.237 OA
ATOM    100  O   UNL A   1      47.863  33.984  25.700  1.00  0.00    -0.744 OA
ENDBRANCH  96  97
ENDBRANCH  64  89
ENDBRANCH  38  39
ENDBRANCH  31  33
ENDBRANCH  30  31
ENDBRANCH  29  30
ENDBRANCH  28  29
ENDBRANCH  27  28
ENDBRANCH  26  27
ENDBRANCH  25  26
ENDBRANCH   1  25
TORSDOF 26
ENDMDL
