MODEL 1
REMARK VINA RESULT:     -10.2      0.000      0.000
REMARK SMILES C[C@@H](C(=O)OCCOCCOCCOCCOC(=O)c1ccc(-c2c3nc(c(-c4c(F)cc(S(=O)(=O)[O-])cc4F)c4ccc([nH]4)c(-c4c(F)cc(S(=O)(=O)[O-])cc4F)c4nc(c(-c5c(F)cc(S(=O)(=O)[O-])cc5F)c5ccc2[nH]5)C=C4)C=C3)cc1)c1ccc(C[C@H]2CCCC2=O)cc1F
REMARK SMILES IDX 11 1 10 2 9 3 8 4 7 5 6 6 5 7 3 8 4 9 2 10 1 11 86 12 87 13
REMARK SMILES IDX 98 14 88 15 97 16 99 17 89 18 90 19 91 20 92 21 95 22 93 23
REMARK SMILES IDX 94 24 96 25 12 26 13 27 14 28 15 29 16 30 17 31 18 32 19 33
REMARK SMILES IDX 20 34 21 35 85 36 22 37 84 38 23 39 24 40 25 41 78 42 26 43
REMARK SMILES IDX 83 44 77 45 79 46 27 47 82 48 76 49 75 50 28 52 62 53 41 54
REMARK SMILES IDX 61 55 42 56 45 57 60 58 80 59 43 60 44 61 59 63 81 64 46 65
REMARK SMILES IDX 29 66 30 67 39 68 31 69 32 70 38 71 40 72 33 73 34 74 35 75
REMARK SMILES IDX 36 76 37 77 63 78 64 79 73 80 65 81 66 82 72 83 74 84 67 85
REMARK SMILES IDX 68 86 69 87 70 88 71 89 47 90 48 91 57 92 49 93 50 94 56 95
REMARK SMILES IDX 58 96 51 97 52 98 53 99 54 100 55 101
REMARK H PARENT 79 51 45 62
REMARK Flexibility Score: inf
ROOT
ATOM      1  O   UNL A   1      40.401  21.344  27.558  1.00  0.00    -0.377 OA
ENDROOT
BRANCH   1   2
ATOM      2  C   UNL A   1      39.966  22.596  27.081  1.00  0.00     0.188 C 
BRANCH   2   3
ATOM      3  C   UNL A   1      38.770  22.536  26.109  1.00  0.00     0.188 C 
BRANCH   3   4
ATOM      4  O   UNL A   1      37.927  23.667  25.979  1.00  0.00    -0.376 OA
BRANCH   4   5
ATOM      5  C   UNL A   1      36.645  23.514  25.390  1.00  0.00     0.202 C 
BRANCH   5   6
ATOM      6  C   UNL A   1      36.432  23.120  23.910  1.00  0.00     0.261 C 
BRANCH   6   7
ATOM      7  O   UNL A   1      35.147  22.600  23.506  1.00  0.00    -0.463 OA
BRANCH   7   8
ATOM      8  C   UNL A   1      34.222  23.499  23.073  1.00  0.00     0.313 C 
ATOM      9  O   UNL A   1      34.509  24.614  22.644  1.00  0.00    -0.252 OA
BRANCH   8  10
ATOM     10  C   UNL A   1      32.760  23.022  23.213  1.00  0.00     0.129 C 
ATOM     11  C   UNL A   1      31.785  23.847  24.062  1.00  0.00     0.025 C 
BRANCH  10  12
ATOM     12  C   UNL A   1      32.676  21.536  23.557  1.00  0.00     0.002 A 
ATOM     13  C   UNL A   1      33.041  21.090  24.832  1.00  0.00     0.008 A 
ATOM     14  C   UNL A   1      32.214  20.568  22.658  1.00  0.00     0.127 A 
ATOM     15  C   UNL A   1      32.895  19.743  25.191  1.00  0.00     0.004 A 
ATOM     16  C   UNL A   1      32.026  19.238  23.013  1.00  0.00     0.043 A 
ATOM     17  F   UNL A   1      31.983  20.868  21.382  1.00  0.00    -0.207 F 
ATOM     18  C   UNL A   1      32.376  18.807  24.287  1.00  0.00    -0.044 A 
BRANCH  18  19
ATOM     19  C   UNL A   1      32.245  17.349  24.643  1.00  0.00     0.047 C 
BRANCH  19  20
ATOM     20  C   UNL A   1      33.333  16.434  24.073  1.00  0.00     0.060 C 
ATOM     21  C   UNL A   1      34.604  17.112  23.551  1.00  0.00     0.012 C 
ATOM     22  C   UNL A   1      33.880  15.504  25.127  1.00  0.00     0.136 C 
ATOM     23  C   UNL A   1      35.633  17.045  24.675  1.00  0.00     0.009 C 
ATOM     24  C   UNL A   1      35.321  15.780  25.462  1.00  0.00     0.076 C 
ATOM     25  O   UNL A   1      33.220  14.616  25.656  1.00  0.00    -0.299 OA
ENDBRANCH  19  20
ENDBRANCH  18  19
ENDBRANCH  10  12
ENDBRANCH   8  10
ENDBRANCH   7   8
ENDBRANCH   6   7
ENDBRANCH   5   6
ENDBRANCH   4   5
ENDBRANCH   3   4
ENDBRANCH   2   3
ENDBRANCH   1   2
BRANCH   1  26
ATOM     26  C   UNL A   1      41.788  21.072  27.448  1.00  0.00     0.188 C 
BRANCH  26  27
ATOM     27  C   UNL A   1      42.323  20.438  26.149  1.00  0.00     0.188 C 
BRANCH  27  28
ATOM     28  O   UNL A   1      42.598  21.366  25.103  1.00  0.00    -0.376 OA
BRANCH  28  29
ATOM     29  C   UNL A   1      43.694  22.257  25.230  1.00  0.00     0.202 C 
BRANCH  29  30
ATOM     30  C   UNL A   1      43.423  23.762  25.071  1.00  0.00     0.261 C 
BRANCH  30  31
ATOM     31  O   UNL A   1      42.880  24.442  26.210  1.00  0.00    -0.460 OA
BRANCH  31  32
ATOM     32  C   UNL A   1      42.012  25.460  25.990  1.00  0.00     0.338 C 
ATOM     33  O   UNL A   1      41.278  25.601  25.041  1.00  0.00    -0.246 OA
BRANCH  32  34
ATOM     34  C   UNL A   1      41.964  26.259  27.237  1.00  0.00     0.060 A 
ATOM     35  C   UNL A   1      41.044  25.903  28.234  1.00  0.00     0.016 A 
ATOM     36  C   UNL A   1      42.849  27.320  27.437  1.00  0.00     0.016 A 
ATOM     37  C   UNL A   1      40.988  26.628  29.424  1.00  0.00     0.010 A 
ATOM     38  C   UNL A   1      42.770  28.065  28.616  1.00  0.00     0.010 A 
ATOM     39  C   UNL A   1      41.817  27.742  29.597  1.00  0.00    -0.014 A 
BRANCH  39  40
ATOM     40  C   UNL A   1      41.523  28.704  30.686  1.00  0.00     0.031 A 
ATOM     41  C   UNL A   1      42.379  28.642  31.922  1.00  0.00     0.074 A 
ATOM     42  C   UNL A   1      40.544  29.619  30.577  1.00  0.00     0.049 A 
ATOM     43  N   UNL A   1      42.292  29.331  33.029  1.00  0.00    -0.248 NA
ATOM     44  C   UNL A   1      43.481  27.665  31.906  1.00  0.00     0.031 C 
ATOM     45  C   UNL A   1      39.687  29.807  29.408  1.00  0.00     0.029 A 
ATOM     46  N   UNL A   1      40.104  30.560  31.474  1.00  0.00    -0.354 N 
ATOM     47  C   UNL A   1      43.317  28.862  33.843  1.00  0.00     0.074 A 
ATOM     48  C   UNL A   1      43.995  27.813  33.116  1.00  0.00     0.031 C 
ATOM     49  C   UNL A   1      38.812  30.797  29.666  1.00  0.00     0.029 A 
ATOM     50  C   UNL A   1      39.025  31.286  31.028  1.00  0.00     0.049 A 
ATOM     51  H   UNL A   1      40.521  30.703  32.354  1.00  0.00     0.167 HD
ATOM     52  C   UNL A   1      43.664  29.275  35.084  1.00  0.00     0.037 A 
ATOM     53  C   UNL A   1      38.283  32.219  31.659  1.00  0.00     0.037 A 
ATOM     54  C   UNL A   1      42.982  30.320  35.800  1.00  0.00     0.049 A 
ATOM     55  C   UNL A   1      38.641  32.608  33.073  1.00  0.00     0.074 A 
ATOM     56  C   UNL A   1      43.265  30.828  37.055  1.00  0.00     0.029 A 
ATOM     57  N   UNL A   1      41.872  31.007  35.329  1.00  0.00    -0.354 N 
ATOM     58  N   UNL A   1      39.626  32.176  33.826  1.00  0.00    -0.248 NA
ATOM     59  C   UNL A   1      37.788  33.613  33.723  1.00  0.00     0.031 C 
ATOM     60  C   UNL A   1      42.288  31.778  37.369  1.00  0.00     0.029 A 
ATOM     61  C   UNL A   1      41.439  31.913  36.282  1.00  0.00     0.049 A 
ATOM     62  H   UNL A   1      41.455  30.871  34.448  1.00  0.00     0.167 HD
ATOM     63  C   UNL A   1      39.532  32.882  35.022  1.00  0.00     0.074 A 
ATOM     64  C   UNL A   1      38.398  33.774  34.890  1.00  0.00     0.031 C 
ATOM     65  C   UNL A   1      40.313  32.803  36.130  1.00  0.00     0.037 A 
BRANCH  52  66
ATOM     66  C   UNL A   1      44.806  28.568  35.761  1.00  0.00     0.058 A 
ATOM     67  C   UNL A   1      44.607  27.442  36.577  1.00  0.00     0.135 A 
ATOM     68  C   UNL A   1      46.124  29.012  35.571  1.00  0.00     0.135 A 
ATOM     69  F   UNL A   1      43.366  26.988  36.814  1.00  0.00    -0.206 F 
ATOM     70  C   UNL A   1      45.673  26.796  37.197  1.00  0.00     0.059 A 
ATOM     71  C   UNL A   1      47.208  28.364  36.155  1.00  0.00     0.059 A 
ATOM     72  F   UNL A   1      46.371  30.089  34.808  1.00  0.00    -0.206 F 
ATOM     73  C   UNL A   1      46.970  27.264  36.977  1.00  0.00     0.060 A 
BRANCH  73  74
ATOM     74  S   UNL A   1      48.342  26.408  37.780  1.00  0.00     0.124 S 
ATOM     75  O   UNL A   1      47.711  25.937  39.010  1.00  0.00    -0.237 OA
ATOM     76  O   UNL A   1      48.677  25.376  36.804  1.00  0.00    -0.237 OA
ATOM     77  O   UNL A   1      49.344  27.455  37.951  1.00  0.00    -0.744 OA
ENDBRANCH  73  74
ENDBRANCH  52  66
BRANCH  53  78
ATOM     78  C   UNL A   1      37.121  32.844  30.970  1.00  0.00     0.058 A 
ATOM     79  C   UNL A   1      35.816  32.378  31.183  1.00  0.00     0.135 A 
ATOM     80  C   UNL A   1      37.293  33.912  30.075  1.00  0.00     0.135 A 
ATOM     81  F   UNL A   1      35.598  31.350  32.017  1.00  0.00    -0.206 F 
ATOM     82  C   UNL A   1      34.724  32.937  30.526  1.00  0.00     0.059 A 
ATOM     83  C   UNL A   1      36.215  34.508  29.428  1.00  0.00     0.059 A 
ATOM     84  F   UNL A   1      38.521  34.400  29.838  1.00  0.00    -0.206 F 
ATOM     85  C   UNL A   1      34.933  34.006  29.653  1.00  0.00     0.060 A 
BRANCH  85  86
ATOM     86  S   UNL A   1      33.505  34.758  28.844  1.00  0.00     0.124 S 
ATOM     87  O   UNL A   1      34.081  35.987  28.309  1.00  0.00    -0.237 OA
ATOM     88  O   UNL A   1      33.142  33.741  27.862  1.00  0.00    -0.237 OA
ATOM     89  O   UNL A   1      32.552  34.931  29.937  1.00  0.00    -0.744 OA
ENDBRANCH  85  86
ENDBRANCH  53  78
BRANCH  65  90
ATOM     90  C   UNL A   1      40.005  33.736  37.271  1.00  0.00     0.058 A 
ATOM     91  C   UNL A   1      40.541  35.031  37.339  1.00  0.00     0.135 A 
ATOM     92  C   UNL A   1      39.108  33.345  38.280  1.00  0.00     0.135 A 
ATOM     93  F   UNL A   1      41.406  35.455  36.404  1.00  0.00    -0.206 F 
ATOM     94  C   UNL A   1      40.220  35.897  38.380  1.00  0.00     0.059 A 
ATOM     95  C   UNL A   1      38.746  34.206  39.312  1.00  0.00     0.059 A 
ATOM     96  F   UNL A   1      38.554  32.122  38.257  1.00  0.00    -0.206 F 
ATOM     97  C   UNL A   1      39.318  35.476  39.360  1.00  0.00     0.060 A 
BRANCH  97  98
ATOM     98  S   UNL A   1      38.883  36.622  40.686  1.00  0.00     0.124 S 
ATOM     99  O   UNL A   1      38.433  37.787  39.932  1.00  0.00    -0.237 OA
ATOM    100  O   UNL A   1      37.842  35.889  41.401  1.00  0.00    -0.237 OA
ATOM    101  O   UNL A   1      40.136  36.791  41.415  1.00  0.00    -0.744 OA
ENDBRANCH  97  98
ENDBRANCH  65  90
ENDBRANCH  39  40
ENDBRANCH  32  34
ENDBRANCH  31  32
ENDBRANCH  30  31
ENDBRANCH  29  30
ENDBRANCH  28  29
ENDBRANCH  27  28
ENDBRANCH  26  27
ENDBRANCH   1  26
TORSDOF 26
ENDMDL
MODEL 2
REMARK VINA RESULT:      -9.8      1.858      4.807
REMARK SMILES C[C@@H](C(=O)OCCOCCOCCOCCOC(=O)c1ccc(-c2c3nc(c(-c4c(F)cc(S(=O)(=O)[O-])cc4F)c4ccc([nH]4)c(-c4c(F)cc(S(=O)(=O)[O-])cc4F)c4nc(c(-c5c(F)cc(S(=O)(=O)[O-])cc5F)c5ccc2[nH]5)C=C4)C=C3)cc1)c1ccc(C[C@H]2CCCC2=O)cc1F
REMARK SMILES IDX 11 1 10 2 9 3 8 4 7 5 6 6 5 7 3 8 4 9 2 10 1 11 86 12 87 13
REMARK SMILES IDX 98 14 88 15 97 16 99 17 89 18 90 19 91 20 92 21 95 22 93 23
REMARK SMILES IDX 94 24 96 25 12 26 13 27 14 28 15 29 16 30 17 31 18 32 19 33
REMARK SMILES IDX 20 34 21 35 85 36 22 37 84 38 23 39 24 40 25 41 78 42 26 43
REMARK SMILES IDX 83 44 77 45 79 46 27 47 82 48 76 49 75 50 28 52 62 53 41 54
REMARK SMILES IDX 61 55 42 56 45 57 60 58 80 59 43 60 44 61 59 63 81 64 46 65
REMARK SMILES IDX 29 66 30 67 39 68 31 69 32 70 38 71 40 72 33 73 34 74 35 75
REMARK SMILES IDX 36 76 37 77 63 78 64 79 73 80 65 81 66 82 72 83 74 84 67 85
REMARK SMILES IDX 68 86 69 87 70 88 71 89 47 90 48 91 57 92 49 93 50 94 56 95
REMARK SMILES IDX 58 96 51 97 52 98 53 99 54 100 55 101
REMARK H PARENT 79 51 45 62
REMARK Flexibility Score: inf
ROOT
ATOM      1  O   UNL A   1      35.969  23.358  25.345  1.00  0.00    -0.377 OA
ENDROOT
BRANCH   1   2
ATOM      2  C   UNL A   1      35.194  22.669  26.298  1.00  0.00     0.188 C 
BRANCH   2   3
ATOM      3  C   UNL A   1      35.183  21.135  26.135  1.00  0.00     0.188 C 
BRANCH   3   4
ATOM      4  O   UNL A   1      34.519  20.563  25.022  1.00  0.00    -0.376 OA
BRANCH   4   5
ATOM      5  C   UNL A   1      33.104  20.450  25.040  1.00  0.00     0.202 C 
BRANCH   5   6
ATOM      6  C   UNL A   1      32.154  21.660  24.874  1.00  0.00     0.261 C 
BRANCH   6   7
ATOM      7  O   UNL A   1      31.618  21.948  23.565  1.00  0.00    -0.463 OA
BRANCH   7   8
ATOM      8  C   UNL A   1      31.465  23.259  23.233  1.00  0.00     0.313 C 
ATOM      9  O   UNL A   1      30.400  23.864  23.331  1.00  0.00    -0.252 OA
BRANCH   8  10
ATOM     10  C   UNL A   1      32.739  23.921  22.664  1.00  0.00     0.129 C 
ATOM     11  C   UNL A   1      34.028  23.096  22.564  1.00  0.00     0.025 C 
BRANCH  10  12
ATOM     12  C   UNL A   1      33.002  25.287  23.298  1.00  0.00     0.002 A 
ATOM     13  C   UNL A   1      33.017  25.422  24.690  1.00  0.00     0.008 A 
ATOM     14  C   UNL A   1      33.267  26.439  22.548  1.00  0.00     0.127 A 
ATOM     15  C   UNL A   1      33.334  26.649  25.288  1.00  0.00     0.004 A 
ATOM     16  C   UNL A   1      33.623  27.650  23.127  1.00  0.00     0.043 A 
ATOM     17  F   UNL A   1      33.132  26.445  21.223  1.00  0.00    -0.207 F 
ATOM     18  C   UNL A   1      33.651  27.772  24.512  1.00  0.00    -0.044 A 
BRANCH  18  19
ATOM     19  C   UNL A   1      33.961  29.107  25.137  1.00  0.00     0.047 C 
BRANCH  19  20
ATOM     20  C   UNL A   1      33.937  29.135  26.669  1.00  0.00     0.060 C 
ATOM     21  C   UNL A   1      35.292  29.107  27.383  1.00  0.00     0.012 C 
ATOM     22  C   UNL A   1      33.331  30.416  27.188  1.00  0.00     0.136 C 
ATOM     23  C   UNL A   1      35.646  30.553  27.714  1.00  0.00     0.009 C 
ATOM     24  C   UNL A   1      34.323  31.278  27.921  1.00  0.00     0.076 C 
ATOM     25  O   UNL A   1      32.155  30.723  27.028  1.00  0.00    -0.299 OA
ENDBRANCH  19  20
ENDBRANCH  18  19
ENDBRANCH  10  12
ENDBRANCH   8  10
ENDBRANCH   7   8
ENDBRANCH   6   7
ENDBRANCH   5   6
ENDBRANCH   4   5
ENDBRANCH   3   4
ENDBRANCH   2   3
ENDBRANCH   1   2
BRANCH   1  26
ATOM     26  C   UNL A   1      37.184  22.742  24.953  1.00  0.00     0.188 C 
BRANCH  26  27
ATOM     27  C   UNL A   1      38.302  22.564  26.000  1.00  0.00     0.188 C 
BRANCH  27  28
ATOM     28  O   UNL A   1      39.116  21.411  25.812  1.00  0.00    -0.376 OA
BRANCH  28  29
ATOM     29  C   UNL A   1      40.320  21.277  26.548  1.00  0.00     0.202 C 
BRANCH  29  30
ATOM     30  C   UNL A   1      40.659  22.364  27.581  1.00  0.00     0.261 C 
BRANCH  30  31
ATOM     31  O   UNL A   1      40.856  23.692  27.078  1.00  0.00    -0.460 OA
BRANCH  31  32
ATOM     32  C   UNL A   1      42.015  24.323  27.385  1.00  0.00     0.338 C 
ATOM     33  O   UNL A   1      43.115  24.085  26.946  1.00  0.00    -0.246 OA
BRANCH  32  34
ATOM     34  C   UNL A   1      41.654  25.512  28.194  1.00  0.00     0.060 A 
ATOM     35  C   UNL A   1      42.609  26.523  28.373  1.00  0.00     0.016 A 
ATOM     36  C   UNL A   1      40.373  25.646  28.731  1.00  0.00     0.016 A 
ATOM     37  C   UNL A   1      42.292  27.660  29.115  1.00  0.00     0.010 A 
ATOM     38  C   UNL A   1      40.066  26.770  29.501  1.00  0.00     0.010 A 
ATOM     39  C   UNL A   1      41.036  27.763  29.724  1.00  0.00    -0.014 A 
BRANCH  39  40
ATOM     40  C   UNL A   1      40.821  28.781  30.780  1.00  0.00     0.031 A 
ATOM     41  C   UNL A   1      41.691  28.710  32.005  1.00  0.00     0.074 A 
ATOM     42  C   UNL A   1      39.898  29.750  30.651  1.00  0.00     0.049 A 
ATOM     43  N   UNL A   1      41.666  29.443  33.087  1.00  0.00    -0.248 NA
ATOM     44  C   UNL A   1      42.730  27.665  32.010  1.00  0.00     0.031 C 
ATOM     45  C   UNL A   1      39.036  29.949  29.488  1.00  0.00     0.029 A 
ATOM     46  N   UNL A   1      39.533  30.749  31.518  1.00  0.00    -0.354 N 
ATOM     47  C   UNL A   1      42.673  28.940  33.903  1.00  0.00     0.074 A 
ATOM     48  C   UNL A   1      43.273  27.825  33.206  1.00  0.00     0.031 C 
ATOM     49  C   UNL A   1      38.229  31.000  29.721  1.00  0.00     0.029 A 
ATOM     50  C   UNL A   1      38.494  31.525  31.061  1.00  0.00     0.049 A 
ATOM     51  H   UNL A   1      39.972  30.897  32.386  1.00  0.00     0.167 HD
ATOM     52  C   UNL A   1      43.065  29.375  35.123  1.00  0.00     0.037 A 
ATOM     53  C   UNL A   1      37.822  32.524  31.667  1.00  0.00     0.037 A 
ATOM     54  C   UNL A   1      42.461  30.486  35.809  1.00  0.00     0.049 A 
ATOM     55  C   UNL A   1      38.226  32.941  33.060  1.00  0.00     0.074 A 
ATOM     56  C   UNL A   1      42.795  31.021  37.040  1.00  0.00     0.029 A 
ATOM     57  N   UNL A   1      41.388  31.224  35.329  1.00  0.00    -0.354 N 
ATOM     58  N   UNL A   1      39.195  32.475  33.815  1.00  0.00    -0.248 NA
ATOM     59  C   UNL A   1      37.448  34.020  33.685  1.00  0.00     0.031 C 
ATOM     60  C   UNL A   1      41.884  32.041  37.333  1.00  0.00     0.029 A 
ATOM     61  C   UNL A   1      41.027  32.189  36.253  1.00  0.00     0.049 A 
ATOM     62  H   UNL A   1      40.949  31.083  34.459  1.00  0.00     0.167 HD
ATOM     63  C   UNL A   1      39.164  33.229  34.986  1.00  0.00     0.074 A 
ATOM     64  C   UNL A   1      38.086  34.185  34.836  1.00  0.00     0.031 C 
ATOM     65  C   UNL A   1      39.956  33.142  36.084  1.00  0.00     0.037 A 
BRANCH  52  66
ATOM     66  C   UNL A   1      44.171  28.623  35.810  1.00  0.00     0.058 A 
ATOM     67  C   UNL A   1      45.526  28.925  35.592  1.00  0.00     0.135 A 
ATOM     68  C   UNL A   1      43.869  27.598  36.722  1.00  0.00     0.135 A 
ATOM     69  F   UNL A   1      45.874  29.878  34.713  1.00  0.00    -0.206 F 
ATOM     70  C   UNL A   1      46.540  28.222  36.235  1.00  0.00     0.059 A 
ATOM     71  C   UNL A   1      44.866  26.904  37.400  1.00  0.00     0.059 A 
ATOM     72  F   UNL A   1      42.592  27.263  36.962  1.00  0.00    -0.206 F 
ATOM     73  C   UNL A   1      46.199  27.215  37.140  1.00  0.00     0.060 A 
BRANCH  73  74
ATOM     74  S   UNL A   1      47.527  26.320  37.974  1.00  0.00     0.124 S 
ATOM     75  O   UNL A   1      48.489  27.390  38.221  1.00  0.00    -0.237 OA
ATOM     76  O   UNL A   1      46.850  25.790  39.153  1.00  0.00    -0.237 OA
ATOM     77  O   UNL A   1      47.938  25.324  36.989  1.00  0.00    -0.744 OA
ENDBRANCH  73  74
ENDBRANCH  52  66
BRANCH  53  78
ATOM     78  C   UNL A   1      36.689  33.195  30.972  1.00  0.00     0.058 A 
ATOM     79  C   UNL A   1      36.916  34.089  29.915  1.00  0.00     0.135 A 
ATOM     80  C   UNL A   1      35.359  32.966  31.357  1.00  0.00     0.135 A 
ATOM     81  F   UNL A   1      38.169  34.355  29.518  1.00  0.00    -0.206 F 
ATOM     82  C   UNL A   1      35.867  34.742  29.273  1.00  0.00     0.059 A 
ATOM     83  C   UNL A   1      34.291  33.583  30.712  1.00  0.00     0.059 A 
ATOM     84  F   UNL A   1      35.086  32.116  32.360  1.00  0.00    -0.206 F 
ATOM     85  C   UNL A   1      34.557  34.478  29.676  1.00  0.00     0.060 A 
BRANCH  85  86
ATOM     86  S   UNL A   1      33.202  35.291  28.803  1.00  0.00     0.124 S 
ATOM     87  O   UNL A   1      32.651  34.190  28.021  1.00  0.00    -0.237 OA
ATOM     88  O   UNL A   1      32.373  35.769  29.907  1.00  0.00    -0.237 OA
ATOM     89  O   UNL A   1      33.874  36.336  28.036  1.00  0.00    -0.744 OA
ENDBRANCH  85  86
ENDBRANCH  53  78
BRANCH  65  90
ATOM     90  C   UNL A   1      39.726  34.132  37.195  1.00  0.00     0.058 A 
ATOM     91  C   UNL A   1      38.960  33.816  38.327  1.00  0.00     0.135 A 
ATOM     92  C   UNL A   1      40.337  35.397  37.151  1.00  0.00     0.135 A 
ATOM     93  F   UNL A   1      38.351  32.623  38.419  1.00  0.00    -0.206 F 
ATOM     94  C   UNL A   1      38.785  34.727  39.364  1.00  0.00     0.059 A 
ATOM     95  C   UNL A   1      40.204  36.311  38.192  1.00  0.00     0.059 A 
ATOM     96  F   UNL A   1      41.093  35.748  36.098  1.00  0.00    -0.206 F 
ATOM     97  C   UNL A   1      39.415  35.971  39.289  1.00  0.00     0.060 A 
BRANCH  97  98
ATOM     98  S   UNL A   1      39.208  37.130  40.658  1.00  0.00     0.124 S 
ATOM     99  O   UNL A   1      38.307  38.118  40.073  1.00  0.00    -0.237 OA
ATOM    100  O   UNL A   1      38.632  36.283  41.697  1.00  0.00    -0.237 OA
ATOM    101  O   UNL A   1      40.567  37.596  40.919  1.00  0.00    -0.744 OA
ENDBRANCH  97  98
ENDBRANCH  65  90
ENDBRANCH  39  40
ENDBRANCH  32  34
ENDBRANCH  31  32
ENDBRANCH  30  31
ENDBRANCH  29  30
ENDBRANCH  28  29
ENDBRANCH  27  28
ENDBRANCH  26  27
ENDBRANCH   1  26
TORSDOF 26
ENDMDL
MODEL 3
REMARK VINA RESULT:      -9.7      2.743      5.289
REMARK SMILES C[C@@H](C(=O)OCCOCCOCCOCCOC(=O)c1ccc(-c2c3nc(c(-c4c(F)cc(S(=O)(=O)[O-])cc4F)c4ccc([nH]4)c(-c4c(F)cc(S(=O)(=O)[O-])cc4F)c4nc(c(-c5c(F)cc(S(=O)(=O)[O-])cc5F)c5ccc2[nH]5)C=C4)C=C3)cc1)c1ccc(C[C@H]2CCCC2=O)cc1F
REMARK SMILES IDX 11 1 10 2 9 3 8 4 7 5 6 6 5 7 3 8 4 9 2 10 1 11 86 12 87 13
REMARK SMILES IDX 98 14 88 15 97 16 99 17 89 18 90 19 91 20 92 21 95 22 93 23
REMARK SMILES IDX 94 24 96 25 12 26 13 27 14 28 15 29 16 30 17 31 18 32 19 33
REMARK SMILES IDX 20 34 21 35 85 36 22 37 84 38 23 39 24 40 25 41 78 42 26 43
REMARK SMILES IDX 83 44 77 45 79 46 27 47 82 48 76 49 75 50 28 52 62 53 41 54
REMARK SMILES IDX 61 55 42 56 45 57 60 58 80 59 43 60 44 61 59 63 81 64 46 65
REMARK SMILES IDX 29 66 30 67 39 68 31 69 32 70 38 71 40 72 33 73 34 74 35 75
REMARK SMILES IDX 36 76 37 77 63 78 64 79 73 80 65 81 66 82 72 83 74 84 67 85
REMARK SMILES IDX 68 86 69 87 70 88 71 89 47 90 48 91 57 92 49 93 50 94 56 95
REMARK SMILES IDX 58 96 51 97 52 98 53 99 54 100 55 101
REMARK H PARENT 79 51 45 62
REMARK Flexibility Score: inf
ROOT
ATOM      1  O   UNL A   1      35.955  22.638  25.513  1.00  0.00    -0.377 OA
ENDROOT
BRANCH   1   2
ATOM      2  C   UNL A   1      35.375  21.471  26.049  1.00  0.00     0.188 C 
BRANCH   2   3
ATOM      3  C   UNL A   1      34.753  20.522  25.004  1.00  0.00     0.188 C 
BRANCH   3   4
ATOM      4  O   UNL A   1      33.765  21.019  24.119  1.00  0.00    -0.376 OA
BRANCH   4   5
ATOM      5  C   UNL A   1      32.419  21.111  24.562  1.00  0.00     0.202 C 
BRANCH   5   6
ATOM      6  C   UNL A   1      31.966  22.039  25.714  1.00  0.00     0.261 C 
BRANCH   6   7
ATOM      7  O   UNL A   1      30.819  22.891  25.510  1.00  0.00    -0.463 OA
BRANCH   7   8
ATOM      8  C   UNL A   1      30.954  24.203  25.843  1.00  0.00     0.313 C 
ATOM      9  O   UNL A   1      30.183  24.795  26.595  1.00  0.00    -0.252 OA
BRANCH   8  10
ATOM     10  C   UNL A   1      32.139  24.914  25.153  1.00  0.00     0.129 C 
ATOM     11  C   UNL A   1      33.430  25.152  25.944  1.00  0.00     0.025 C 
BRANCH  10  12
ATOM     12  C   UNL A   1      31.695  26.180  24.420  1.00  0.00     0.002 A 
ATOM     13  C   UNL A   1      30.462  26.767  24.721  1.00  0.00     0.008 A 
ATOM     14  C   UNL A   1      32.484  26.824  23.460  1.00  0.00     0.127 A 
ATOM     15  C   UNL A   1      30.073  27.970  24.117  1.00  0.00     0.004 A 
ATOM     16  C   UNL A   1      32.131  28.038  22.885  1.00  0.00     0.043 A 
ATOM     17  F   UNL A   1      33.603  26.267  23.002  1.00  0.00    -0.207 F 
ATOM     18  C   UNL A   1      30.910  28.623  23.202  1.00  0.00    -0.044 A 
BRANCH  18  19
ATOM     19  C   UNL A   1      30.495  29.898  22.517  1.00  0.00     0.047 C 
BRANCH  19  20
ATOM     20  C   UNL A   1      29.101  30.417  22.886  1.00  0.00     0.060 C 
ATOM     21  C   UNL A   1      29.039  31.677  23.756  1.00  0.00     0.012 C 
ATOM     22  C   UNL A   1      28.327  30.839  21.662  1.00  0.00     0.136 C 
ATOM     23  C   UNL A   1      28.840  32.857  22.810  1.00  0.00     0.009 C 
ATOM     24  C   UNL A   1      28.060  32.320  21.618  1.00  0.00     0.076 C 
ATOM     25  O   UNL A   1      27.955  30.058  20.792  1.00  0.00    -0.299 OA
ENDBRANCH  19  20
ENDBRANCH  18  19
ENDBRANCH  10  12
ENDBRANCH   8  10
ENDBRANCH   7   8
ENDBRANCH   6   7
ENDBRANCH   5   6
ENDBRANCH   4   5
ENDBRANCH   3   4
ENDBRANCH   2   3
ENDBRANCH   1   2
BRANCH   1  26
ATOM     26  C   UNL A   1      37.292  22.527  25.054  1.00  0.00     0.188 C 
BRANCH  26  27
ATOM     27  C   UNL A   1      38.414  22.270  26.080  1.00  0.00     0.188 C 
BRANCH  27  28
ATOM     28  O   UNL A   1      39.270  21.177  25.763  1.00  0.00    -0.376 OA
BRANCH  28  29
ATOM     29  C   UNL A   1      40.548  21.091  26.372  1.00  0.00     0.202 C 
BRANCH  29  30
ATOM     30  C   UNL A   1      41.026  22.283  27.217  1.00  0.00     0.261 C 
BRANCH  30  31
ATOM     31  O   UNL A   1      41.016  23.568  26.582  1.00  0.00    -0.460 OA
BRANCH  31  32
ATOM     32  C   UNL A   1      42.105  24.361  26.732  1.00  0.00     0.338 C 
ATOM     33  O   UNL A   1      43.149  24.289  26.129  1.00  0.00    -0.246 OA
BRANCH  32  34
ATOM     34  C   UNL A   1      41.703  25.479  27.618  1.00  0.00     0.060 A 
ATOM     35  C   UNL A   1      42.469  26.654  27.615  1.00  0.00     0.016 A 
ATOM     36  C   UNL A   1      40.556  25.384  28.409  1.00  0.00     0.016 A 
ATOM     37  C   UNL A   1      42.104  27.727  28.426  1.00  0.00     0.010 A 
ATOM     38  C   UNL A   1      40.209  26.448  29.245  1.00  0.00     0.010 A 
ATOM     39  C   UNL A   1      41.002  27.609  29.281  1.00  0.00    -0.014 A 
BRANCH  39  40
ATOM     40  C   UNL A   1      40.822  28.591  30.376  1.00  0.00     0.031 A 
ATOM     41  C   UNL A   1      41.718  28.469  31.578  1.00  0.00     0.074 A 
ATOM     42  C   UNL A   1      39.907  29.574  30.302  1.00  0.00     0.049 A 
ATOM     43  N   UNL A   1      41.725  29.163  32.685  1.00  0.00    -0.248 NA
ATOM     44  C   UNL A   1      42.746  27.414  31.524  1.00  0.00     0.031 C 
ATOM     45  C   UNL A   1      39.022  29.822  29.166  1.00  0.00     0.029 A 
ATOM     46  N   UNL A   1      39.572  30.545  31.211  1.00  0.00    -0.354 N 
ATOM     47  C   UNL A   1      42.744  28.623  33.461  1.00  0.00     0.074 A 
ATOM     48  C   UNL A   1      43.316  27.526  32.712  1.00  0.00     0.031 C 
ATOM     49  C   UNL A   1      38.232  30.873  29.454  1.00  0.00     0.029 A 
ATOM     50  C   UNL A   1      38.532  31.348  30.804  1.00  0.00     0.049 A 
ATOM     51  H   UNL A   1      40.033  30.659  32.074  1.00  0.00     0.167 HD
ATOM     52  C   UNL A   1      43.168  29.011  34.686  1.00  0.00     0.037 A 
ATOM     53  C   UNL A   1      37.885  32.332  31.460  1.00  0.00     0.037 A 
ATOM     54  C   UNL A   1      42.592  30.103  35.423  1.00  0.00     0.049 A 
ATOM     55  C   UNL A   1      38.325  32.696  32.857  1.00  0.00     0.074 A 
ATOM     56  C   UNL A   1      42.960  30.591  36.664  1.00  0.00     0.029 A 
ATOM     57  N   UNL A   1      41.517  30.869  34.993  1.00  0.00    -0.354 N 
ATOM     58  N   UNL A   1      39.305  32.194  33.574  1.00  0.00    -0.248 NA
ATOM     59  C   UNL A   1      37.573  33.761  33.536  1.00  0.00     0.031 C 
ATOM     60  C   UNL A   1      42.067  31.610  37.012  1.00  0.00     0.029 A 
ATOM     61  C   UNL A   1      41.188  31.805  35.958  1.00  0.00     0.049 A 
ATOM     62  H   UNL A   1      41.057  30.762  34.129  1.00  0.00     0.167 HD
ATOM     63  C   UNL A   1      39.308  32.908  34.770  1.00  0.00     0.074 A 
ATOM     64  C   UNL A   1      38.238  33.879  34.677  1.00  0.00     0.031 C 
ATOM     65  C   UNL A   1      40.124  32.774  35.846  1.00  0.00     0.037 A 
BRANCH  52  66
ATOM     66  C   UNL A   1      44.281  28.224  35.321  1.00  0.00     0.058 A 
ATOM     67  C   UNL A   1      45.631  28.579  35.162  1.00  0.00     0.135 A 
ATOM     68  C   UNL A   1      43.989  27.108  36.123  1.00  0.00     0.135 A 
ATOM     69  F   UNL A   1      45.970  29.622  34.387  1.00  0.00    -0.206 F 
ATOM     70  C   UNL A   1      46.651  27.843  35.757  1.00  0.00     0.059 A 
ATOM     71  C   UNL A   1      44.991  26.376  36.753  1.00  0.00     0.059 A 
ATOM     72  F   UNL A   1      42.717  26.719  36.302  1.00  0.00    -0.206 F 
ATOM     73  C   UNL A   1      46.320  26.745  36.553  1.00  0.00     0.060 A 
BRANCH  73  74
ATOM     74  S   UNL A   1      47.656  25.807  37.325  1.00  0.00     0.124 S 
ATOM     75  O   UNL A   1      48.090  26.728  38.372  1.00  0.00    -0.237 OA
ATOM     76  O   UNL A   1      46.966  24.606  37.784  1.00  0.00    -0.237 OA
ATOM     77  O   UNL A   1      48.605  25.605  36.236  1.00  0.00    -0.744 OA
ENDBRANCH  73  74
ENDBRANCH  52  66
BRANCH  53  78
ATOM     78  C   UNL A   1      36.745  33.039  30.814  1.00  0.00     0.058 A 
ATOM     79  C   UNL A   1      36.958  33.970  29.787  1.00  0.00     0.135 A 
ATOM     80  C   UNL A   1      35.421  32.807  31.218  1.00  0.00     0.135 A 
ATOM     81  F   UNL A   1      38.206  34.239  29.374  1.00  0.00    -0.206 F 
ATOM     82  C   UNL A   1      35.903  34.655  29.192  1.00  0.00     0.059 A 
ATOM     83  C   UNL A   1      34.346  33.457  30.619  1.00  0.00     0.059 A 
ATOM     84  F   UNL A   1      35.160  31.922  32.194  1.00  0.00    -0.206 F 
ATOM     85  C   UNL A   1      34.599  34.388  29.612  1.00  0.00     0.060 A 
BRANCH  85  86
ATOM     86  S   UNL A   1      33.234  35.246  28.799  1.00  0.00     0.124 S 
ATOM     87  O   UNL A   1      33.931  36.331  28.117  1.00  0.00    -0.237 OA
ATOM     88  O   UNL A   1      32.685  34.199  27.941  1.00  0.00    -0.237 OA
ATOM     89  O   UNL A   1      32.377  35.646  29.911  1.00  0.00    -0.744 OA
ENDBRANCH  85  86
ENDBRANCH  53  78
BRANCH  65  90
ATOM     90  C   UNL A   1      39.930  33.727  36.995  1.00  0.00     0.058 A 
ATOM     91  C   UNL A   1      40.616  34.949  37.073  1.00  0.00     0.135 A 
ATOM     92  C   UNL A   1      38.992  33.438  38.001  1.00  0.00     0.135 A 
ATOM     93  F   UNL A   1      41.525  35.274  36.140  1.00  0.00    -0.206 F 
ATOM     94  C   UNL A   1      40.400  35.839  38.120  1.00  0.00     0.059 A 
ATOM     95  C   UNL A   1      38.735  34.329  39.040  1.00  0.00     0.059 A 
ATOM     96  F   UNL A   1      38.297  32.290  37.970  1.00  0.00    -0.206 F 
ATOM     97  C   UNL A   1      39.454  35.521  39.097  1.00  0.00     0.060 A 
BRANCH  97  98
ATOM     98  S   UNL A   1      39.158  36.700  40.432  1.00  0.00     0.124 S 
ATOM     99  O   UNL A   1      40.514  36.949  40.911  1.00  0.00    -0.237 OA
ATOM    100  O   UNL A   1      38.520  37.810  39.730  1.00  0.00    -0.237 OA
ATOM    101  O   UNL A   1      38.293  35.967  41.351  1.00  0.00    -0.744 OA
ENDBRANCH  97  98
ENDBRANCH  65  90
ENDBRANCH  39  40
ENDBRANCH  32  34
ENDBRANCH  31  32
ENDBRANCH  30  31
ENDBRANCH  29  30
ENDBRANCH  28  29
ENDBRANCH  27  28
ENDBRANCH  26  27
ENDBRANCH   1  26
TORSDOF 26
ENDMDL
