MODEL 1
REMARK VINA RESULT:     -10.5      0.000      0.000
REMARK SMILES C[C@]1(C(=O)NCc2ccc(C(=O)OCCOCCOCCOCCOC(=O)c3ccc(-c4c5nc(c(-c6c(F)cc(S(=O)(=O)[O-])cc6F)c6ccc([nH]6)c(-c6c(F)cc(S(=O)(=O)[O-])cc6F)c6nc(c(-c7c(F)cc(S(=O)(=O)[O-])cc7F)c7ccc4[nH]7)C=C6)C=C5)cc3)o2)CCC[NH2+]C1
REMARK SMILES IDX 19 1 18 2 17 3 16 4 15 5 14 6 13 7 11 8 12 9 10 10 7 11 8 12
REMARK SMILES IDX 94 13 9 14 6 15 5 16 3 17 4 18 2 20 1 21 95 22 99 23 96 24
REMARK SMILES IDX 98 25 97 26 20 29 21 30 22 31 23 32 24 33 25 34 26 35 27 36
REMARK SMILES IDX 28 37 29 38 93 39 30 40 92 41 31 42 32 43 33 44 86 45 34 46
REMARK SMILES IDX 91 47 85 48 87 49 35 50 90 51 84 52 83 53 36 55 70 56 49 57
REMARK SMILES IDX 69 58 50 59 53 60 68 61 88 62 51 63 52 64 67 66 89 67 54 68
REMARK SMILES IDX 37 69 38 70 47 71 39 72 40 73 46 74 48 75 41 76 42 77 43 78
REMARK SMILES IDX 44 79 45 80 71 81 72 82 81 83 73 84 74 85 80 86 82 87 75 88
REMARK SMILES IDX 76 89 77 90 78 91 79 92 55 93 56 94 65 95 57 96 58 97 64 98
REMARK SMILES IDX 66 99 59 100 60 101 61 102 62 103 63 104
REMARK H PARENT 5 19 98 27 98 28 87 54 53 65
REMARK Flexibility Score: inf
ROOT
ATOM      1  O   UNL A   1      35.290  23.560  25.368  1.00  0.00    -0.377 OA
ENDROOT
BRANCH   1   2
ATOM      2  C   UNL A   1      34.693  24.825  25.148  1.00  0.00     0.188 C 
BRANCH   2   3
ATOM      3  C   UNL A   1      34.068  24.994  23.754  1.00  0.00     0.188 C 
BRANCH   3   4
ATOM      4  O   UNL A   1      33.434  26.259  23.569  1.00  0.00    -0.376 OA
BRANCH   4   5
ATOM      5  C   UNL A   1      32.226  26.247  22.814  1.00  0.00     0.202 C 
BRANCH   5   6
ATOM      6  C   UNL A   1      30.972  26.686  23.584  1.00  0.00     0.261 C 
BRANCH   6   7
ATOM      7  O   UNL A   1      30.281  25.626  24.264  1.00  0.00    -0.457 OA
BRANCH   7   8
ATOM      8  C   UNL A   1      30.541  25.448  25.586  1.00  0.00     0.374 C 
ATOM      9  O   UNL A   1      30.241  26.243  26.467  1.00  0.00    -0.242 OA
BRANCH   8  10
ATOM     10  C   UNL A   1      31.089  24.124  25.768  1.00  0.00     0.211 A 
ATOM     11  C   UNL A   1      31.931  22.205  25.055  1.00  0.00     0.124 A 
ATOM     12  C   UNL A   1      32.151  22.249  26.417  1.00  0.00     0.048 A 
ATOM     13  O   UNL A   1      31.250  23.326  24.668  1.00  0.00    -0.452 OA
ATOM     14  C   UNL A   1      31.616  23.479  26.873  1.00  0.00     0.058 A 
BRANCH  11  15
ATOM     15  C   UNL A   1      32.285  21.207  24.005  1.00  0.00     0.191 C 
BRANCH  15  16
ATOM     16  N   UNL A   1      33.534  20.563  24.335  1.00  0.00    -0.348 N 
ATOM     17  C   UNL A   1      33.970  19.286  24.393  1.00  0.00     0.232 C 
ATOM     18  O   UNL A   1      35.157  19.169  24.732  1.00  0.00    -0.274 OA
ATOM     19  H   UNL A   1      34.236  21.209  24.578  1.00  0.00     0.163 HD
BRANCH  17  20
ATOM     20  C   UNL A   1      33.167  18.045  23.929  1.00  0.00     0.095 C 
ATOM     21  C   UNL A   1      32.341  18.479  22.705  1.00  0.00     0.028 C 
ATOM     22  C   UNL A   1      34.179  16.949  23.477  1.00  0.00     0.028 C 
ATOM     23  C   UNL A   1      32.249  17.378  24.971  1.00  0.00     0.277 C 
ATOM     24  C   UNL A   1      34.906  16.327  24.676  1.00  0.00     0.063 C 
ATOM     25  N   UNL A   1      32.965  16.845  26.130  1.00  0.00    -0.345 N 
ATOM     26  C   UNL A   1      33.927  15.818  25.731  1.00  0.00     0.260 C 
ATOM     27  H   UNL A   1      33.463  17.605  26.592  1.00  0.00     0.346 HD
ATOM     28  H   UNL A   1      32.286  16.422  26.763  1.00  0.00     0.346 HD
ENDBRANCH  17  20
ENDBRANCH  15  16
ENDBRANCH  11  15
ENDBRANCH   8  10
ENDBRANCH   7   8
ENDBRANCH   6   7
ENDBRANCH   5   6
ENDBRANCH   4   5
ENDBRANCH   3   4
ENDBRANCH   2   3
ENDBRANCH   1   2
BRANCH   1  29
ATOM     29  C   UNL A   1      36.321  23.127  24.482  1.00  0.00     0.188 C 
BRANCH  29  30
ATOM     30  C   UNL A   1      37.252  21.942  24.817  1.00  0.00     0.188 C 
BRANCH  30  31
ATOM     31  O   UNL A   1      38.154  22.187  25.895  1.00  0.00    -0.376 OA
BRANCH  31  32
ATOM     32  C   UNL A   1      39.284  21.325  25.974  1.00  0.00     0.202 C 
BRANCH  32  33
ATOM     33  C   UNL A   1      40.427  21.913  26.808  1.00  0.00     0.261 C 
BRANCH  33  34
ATOM     34  O   UNL A   1      40.257  23.294  27.160  1.00  0.00    -0.460 OA
BRANCH  34  35
ATOM     35  C   UNL A   1      41.343  24.088  27.029  1.00  0.00     0.338 C 
ATOM     36  O   UNL A   1      42.311  23.902  26.314  1.00  0.00    -0.246 OA
BRANCH  35  37
ATOM     37  C   UNL A   1      41.092  25.327  27.787  1.00  0.00     0.060 A 
ATOM     38  C   UNL A   1      42.115  26.276  27.887  1.00  0.00     0.016 A 
ATOM     39  C   UNL A   1      39.861  25.531  28.415  1.00  0.00     0.016 A 
ATOM     40  C   UNL A   1      41.924  27.418  28.664  1.00  0.00     0.010 A 
ATOM     41  C   UNL A   1      39.677  26.666  29.203  1.00  0.00     0.010 A 
ATOM     42  C   UNL A   1      40.721  27.593  29.361  1.00  0.00    -0.014 A 
BRANCH  42  43
ATOM     43  C   UNL A   1      40.619  28.618  30.425  1.00  0.00     0.031 A 
ATOM     44  C   UNL A   1      41.532  28.494  31.614  1.00  0.00     0.074 A 
ATOM     45  C   UNL A   1      39.724  29.616  30.350  1.00  0.00     0.049 A 
ATOM     46  N   UNL A   1      41.577  29.213  32.704  1.00  0.00    -0.248 NA
ATOM     47  C   UNL A   1      42.521  27.404  31.568  1.00  0.00     0.031 C 
ATOM     48  C   UNL A   1      38.806  29.851  29.238  1.00  0.00     0.029 A 
ATOM     49  N   UNL A   1      39.432  30.614  31.246  1.00  0.00    -0.354 N 
ATOM     50  C   UNL A   1      42.595  28.662  33.474  1.00  0.00     0.074 A 
ATOM     51  C   UNL A   1      43.123  27.533  32.740  1.00  0.00     0.031 C 
ATOM     52  C   UNL A   1      38.038  30.917  29.525  1.00  0.00     0.029 A 
ATOM     53  C   UNL A   1      38.392  31.421  30.852  1.00  0.00     0.049 A 
ATOM     54  H   UNL A   1      39.921  30.740  32.091  1.00  0.00     0.167 HD
ATOM     55  C   UNL A   1      43.052  29.064  34.682  1.00  0.00     0.037 A 
ATOM     56  C   UNL A   1      37.786  32.435  31.502  1.00  0.00     0.037 A 
ATOM     57  C   UNL A   1      42.516  30.180  35.414  1.00  0.00     0.049 A 
ATOM     58  C   UNL A   1      38.274  32.831  32.872  1.00  0.00     0.074 A 
ATOM     59  C   UNL A   1      42.912  30.673  36.643  1.00  0.00     0.029 A 
ATOM     60  N   UNL A   1      41.461  30.970  34.985  1.00  0.00    -0.354 N 
ATOM     61  N   UNL A   1      39.252  32.318  33.580  1.00  0.00    -0.248 NA
ATOM     62  C   UNL A   1      37.575  33.944  33.532  1.00  0.00     0.031 C 
ATOM     63  C   UNL A   1      42.071  31.742  36.975  1.00  0.00     0.029 A 
ATOM     64  C   UNL A   1      41.180  31.938  35.932  1.00  0.00     0.049 A 
ATOM     65  H   UNL A   1      40.981  30.858  34.131  1.00  0.00     0.167 HD
ATOM     66  C   UNL A   1      39.306  33.064  34.754  1.00  0.00     0.074 A 
ATOM     67  C   UNL A   1      38.263  34.065  34.660  1.00  0.00     0.031 C 
ATOM     68  C   UNL A   1      40.145  32.935  35.813  1.00  0.00     0.037 A 
BRANCH  55  69
ATOM     69  C   UNL A   1      44.171  28.271  35.292  1.00  0.00     0.058 A 
ATOM     70  C   UNL A   1      45.516  28.602  35.060  1.00  0.00     0.135 A 
ATOM     71  C   UNL A   1      43.897  27.167  36.113  1.00  0.00     0.135 A 
ATOM     72  F   UNL A   1      45.831  29.634  34.261  1.00  0.00    -0.206 F 
ATOM     73  C   UNL A   1      46.552  27.847  35.601  1.00  0.00     0.059 A 
ATOM     74  C   UNL A   1      44.917  26.412  36.684  1.00  0.00     0.059 A 
ATOM     75  F   UNL A   1      42.628  26.806  36.359  1.00  0.00    -0.206 F 
ATOM     76  C   UNL A   1      46.242  26.750  36.407  1.00  0.00     0.060 A 
BRANCH  76  77
ATOM     77  S   UNL A   1      47.595  25.771  37.093  1.00  0.00     0.124 S 
ATOM     78  O   UNL A   1      47.098  25.496  38.439  1.00  0.00    -0.237 OA
ATOM     79  O   UNL A   1      47.644  24.626  36.190  1.00  0.00    -0.237 OA
ATOM     80  O   UNL A   1      48.738  26.675  37.019  1.00  0.00    -0.744 OA
ENDBRANCH  76  77
ENDBRANCH  55  69
BRANCH  56  81
ATOM     81  C   UNL A   1      36.645  33.145  30.868  1.00  0.00     0.058 A 
ATOM     82  C   UNL A   1      36.848  34.022  29.792  1.00  0.00     0.135 A 
ATOM     83  C   UNL A   1      35.331  32.964  31.325  1.00  0.00     0.135 A 
ATOM     84  F   UNL A   1      38.089  34.238  29.328  1.00  0.00    -0.206 F 
ATOM     85  C   UNL A   1      35.791  34.702  29.197  1.00  0.00     0.059 A 
ATOM     86  C   UNL A   1      34.255  33.615  30.733  1.00  0.00     0.059 A 
ATOM     87  F   UNL A   1      35.084  32.129  32.347  1.00  0.00    -0.206 F 
ATOM     88  C   UNL A   1      34.495  34.490  29.674  1.00  0.00     0.060 A 
BRANCH  88  89
ATOM     89  S   UNL A   1      33.122  35.336  28.862  1.00  0.00     0.124 S 
ATOM     90  O   UNL A   1      32.619  34.295  27.974  1.00  0.00    -0.237 OA
ATOM     91  O   UNL A   1      32.263  35.683  29.990  1.00  0.00    -0.237 OA
ATOM     92  O   UNL A   1      33.770  36.470  28.207  1.00  0.00    -0.744 OA
ENDBRANCH  88  89
ENDBRANCH  56  81
BRANCH  68  93
ATOM     93  C   UNL A   1      40.003  33.921  36.937  1.00  0.00     0.058 A 
ATOM     94  C   UNL A   1      40.741  35.114  36.970  1.00  0.00     0.135 A 
ATOM     95  C   UNL A   1      39.062  33.700  37.956  1.00  0.00     0.135 A 
ATOM     96  F   UNL A   1      41.655  35.370  36.022  1.00  0.00    -0.206 F 
ATOM     97  C   UNL A   1      40.561  36.050  37.984  1.00  0.00     0.059 A 
ATOM     98  C   UNL A   1      38.850  34.633  38.968  1.00  0.00     0.059 A 
ATOM     99  F   UNL A   1      38.323  32.580  37.963  1.00  0.00    -0.206 F 
ATOM    100  C   UNL A   1      39.610  35.801  38.977  1.00  0.00     0.060 A 
BRANCH 100 101
ATOM    101  S   UNL A   1      39.350  37.043  40.262  1.00  0.00     0.124 S 
ATOM    102  O   UNL A   1      38.728  38.123  39.504  1.00  0.00    -0.237 OA
ATOM    103  O   UNL A   1      38.477  36.345  41.203  1.00  0.00    -0.237 OA
ATOM    104  O   UNL A   1      40.698  37.312  40.751  1.00  0.00    -0.744 OA
ENDBRANCH 100 101
ENDBRANCH  68  93
ENDBRANCH  42  43
ENDBRANCH  35  37
ENDBRANCH  34  35
ENDBRANCH  33  34
ENDBRANCH  32  33
ENDBRANCH  31  32
ENDBRANCH  30  31
ENDBRANCH  29  30
ENDBRANCH   1  29
TORSDOF 26
ENDMDL
MODEL 2
REMARK VINA RESULT:      -9.8      6.302     11.344
REMARK SMILES C[C@]1(C(=O)NCc2ccc(C(=O)OCCOCCOCCOCCOC(=O)c3ccc(-c4c5nc(c(-c6c(F)cc(S(=O)(=O)[O-])cc6F)c6ccc([nH]6)c(-c6c(F)cc(S(=O)(=O)[O-])cc6F)c6nc(c(-c7c(F)cc(S(=O)(=O)[O-])cc7F)c7ccc4[nH]7)C=C6)C=C5)cc3)o2)CCC[NH2+]C1
REMARK SMILES IDX 19 1 18 2 17 3 16 4 15 5 14 6 13 7 11 8 12 9 10 10 7 11 8 12
REMARK SMILES IDX 94 13 9 14 6 15 5 16 3 17 4 18 2 20 1 21 95 22 99 23 96 24
REMARK SMILES IDX 98 25 97 26 20 29 21 30 22 31 23 32 24 33 25 34 26 35 27 36
REMARK SMILES IDX 28 37 29 38 93 39 30 40 92 41 31 42 32 43 33 44 86 45 34 46
REMARK SMILES IDX 91 47 85 48 87 49 35 50 90 51 84 52 83 53 36 55 70 56 49 57
REMARK SMILES IDX 69 58 50 59 53 60 68 61 88 62 51 63 52 64 67 66 89 67 54 68
REMARK SMILES IDX 37 69 38 70 47 71 39 72 40 73 46 74 48 75 41 76 42 77 43 78
REMARK SMILES IDX 44 79 45 80 71 81 72 82 81 83 73 84 74 85 80 86 82 87 75 88
REMARK SMILES IDX 76 89 77 90 78 91 79 92 55 93 56 94 65 95 57 96 58 97 64 98
REMARK SMILES IDX 66 99 59 100 60 101 61 102 62 103 63 104
REMARK H PARENT 5 19 98 27 98 28 87 54 53 65
REMARK Flexibility Score: inf
ROOT
ATOM      1  O   UNL A   1      35.189  32.046  28.397  1.00  0.00    -0.377 OA
ENDROOT
BRANCH   1   2
ATOM      2  C   UNL A   1      33.859  31.820  27.967  1.00  0.00     0.188 C 
BRANCH   2   3
ATOM      3  C   UNL A   1      33.652  30.489  27.228  1.00  0.00     0.188 C 
BRANCH   3   4
ATOM      4  O   UNL A   1      32.284  30.219  26.921  1.00  0.00    -0.376 OA
BRANCH   4   5
ATOM      5  C   UNL A   1      31.983  30.002  25.546  1.00  0.00     0.202 C 
BRANCH   5   6
ATOM      6  C   UNL A   1      32.726  28.826  24.895  1.00  0.00     0.261 C 
BRANCH   6   7
ATOM      7  O   UNL A   1      32.026  28.199  23.809  1.00  0.00    -0.457 OA
BRANCH   7   8
ATOM      8  C   UNL A   1      30.737  27.825  24.021  1.00  0.00     0.374 C 
ATOM      9  O   UNL A   1      29.759  28.423  23.591  1.00  0.00    -0.242 OA
BRANCH   8  10
ATOM     10  C   UNL A   1      30.738  26.552  24.704  1.00  0.00     0.211 A 
ATOM     11  C   UNL A   1      31.207  24.398  24.894  1.00  0.00     0.124 A 
ATOM     12  C   UNL A   1      30.811  24.825  26.145  1.00  0.00     0.048 A 
ATOM     13  O   UNL A   1      31.123  25.438  24.010  1.00  0.00    -0.452 OA
ATOM     14  C   UNL A   1      30.514  26.205  26.025  1.00  0.00     0.058 A 
BRANCH  11  15
ATOM     15  C   UNL A   1      31.677  23.080  24.377  1.00  0.00     0.191 C 
BRANCH  15  16
ATOM     16  N   UNL A   1      32.729  23.276  23.407  1.00  0.00    -0.348 N 
ATOM     17  C   UNL A   1      34.048  23.560  23.466  1.00  0.00     0.232 C 
ATOM     18  O   UNL A   1      34.600  23.643  22.358  1.00  0.00    -0.274 OA
ATOM     19  H   UNL A   1      32.408  23.181  22.481  1.00  0.00     0.163 HD
BRANCH  17  20
ATOM     20  C   UNL A   1      34.892  23.622  24.762  1.00  0.00     0.095 C 
ATOM     21  C   UNL A   1      34.531  24.939  25.470  1.00  0.00     0.028 C 
ATOM     22  C   UNL A   1      34.466  22.436  25.680  1.00  0.00     0.028 C 
ATOM     23  C   UNL A   1      36.422  23.514  24.605  1.00  0.00     0.277 C 
ATOM     24  C   UNL A   1      34.968  21.093  25.133  1.00  0.00     0.063 C 
ATOM     25  N   UNL A   1      36.866  22.246  24.028  1.00  0.00    -0.345 N 
ATOM     26  C   UNL A   1      36.471  21.115  24.868  1.00  0.00     0.260 C 
ATOM     27  H   UNL A   1      36.448  22.136  23.105  1.00  0.00     0.346 HD
ATOM     28  H   UNL A   1      37.884  22.259  23.963  1.00  0.00     0.346 HD
ENDBRANCH  17  20
ENDBRANCH  15  16
ENDBRANCH  11  15
ENDBRANCH   8  10
ENDBRANCH   7   8
ENDBRANCH   6   7
ENDBRANCH   5   6
ENDBRANCH   4   5
ENDBRANCH   3   4
ENDBRANCH   2   3
ENDBRANCH   1   2
BRANCH   1  29
ATOM     29  C   UNL A   1      35.410  32.908  29.511  1.00  0.00     0.188 C 
BRANCH  29  30
ATOM     30  C   UNL A   1      36.809  33.459  29.862  1.00  0.00     0.188 C 
BRANCH  30  31
ATOM     31  O   UNL A   1      36.824  34.382  30.950  1.00  0.00    -0.376 OA
BRANCH  31  32
ATOM     32  C   UNL A   1      37.358  33.896  32.177  1.00  0.00     0.202 C 
BRANCH  32  33
ATOM     33  C   UNL A   1      36.730  32.569  32.619  1.00  0.00     0.261 C 
BRANCH  33  34
ATOM     34  O   UNL A   1      37.594  31.430  32.491  1.00  0.00    -0.460 OA
BRANCH  34  35
ATOM     35  C   UNL A   1      37.158  30.429  31.694  1.00  0.00     0.338 C 
ATOM     36  O   UNL A   1      36.004  30.102  31.486  1.00  0.00    -0.246 OA
BRANCH  35  37
ATOM     37  C   UNL A   1      38.322  29.885  30.973  1.00  0.00     0.060 A 
ATOM     38  C   UNL A   1      39.316  29.219  31.699  1.00  0.00     0.016 A 
ATOM     39  C   UNL A   1      38.438  30.057  29.591  1.00  0.00     0.016 A 
ATOM     40  C   UNL A   1      40.462  28.766  31.047  1.00  0.00     0.010 A 
ATOM     41  C   UNL A   1      39.591  29.615  28.944  1.00  0.00     0.010 A 
ATOM     42  C   UNL A   1      40.622  29.004  29.675  1.00  0.00    -0.014 A 
BRANCH  42  43
ATOM     43  C   UNL A   1      41.946  28.818  29.038  1.00  0.00     0.031 A 
ATOM     44  C   UNL A   1      42.290  27.452  28.511  1.00  0.00     0.074 A 
ATOM     45  C   UNL A   1      42.829  29.827  28.953  1.00  0.00     0.049 A 
ATOM     46  N   UNL A   1      43.407  27.021  27.989  1.00  0.00    -0.248 NA
ATOM     47  C   UNL A   1      41.229  26.434  28.593  1.00  0.00     0.031 C 
ATOM     48  C   UNL A   1      42.598  31.197  29.407  1.00  0.00     0.029 A 
ATOM     49  N   UNL A   1      44.111  29.844  28.465  1.00  0.00    -0.354 N 
ATOM     50  C   UNL A   1      43.186  25.683  27.683  1.00  0.00     0.074 A 
ATOM     51  C   UNL A   1      41.839  25.366  28.103  1.00  0.00     0.031 C 
ATOM     52  C   UNL A   1      43.712  31.920  29.192  1.00  0.00     0.029 A 
ATOM     53  C   UNL A   1      44.740  31.057  28.612  1.00  0.00     0.049 A 
ATOM     54  H   UNL A   1      44.540  29.061  28.050  1.00  0.00     0.167 HD
ATOM     55  C   UNL A   1      44.029  24.800  27.101  1.00  0.00     0.037 A 
ATOM     56  C   UNL A   1      46.008  31.416  28.328  1.00  0.00     0.037 A 
ATOM     57  C   UNL A   1      45.372  25.116  26.697  1.00  0.00     0.049 A 
ATOM     58  C   UNL A   1      46.949  30.401  27.732  1.00  0.00     0.074 A 
ATOM     59  C   UNL A   1      46.306  24.294  26.093  1.00  0.00     0.029 A 
ATOM     60  N   UNL A   1      45.975  26.353  26.866  1.00  0.00    -0.354 N 
ATOM     61  N   UNL A   1      46.722  29.145  27.426  1.00  0.00    -0.248 NA
ATOM     62  C   UNL A   1      48.319  30.850  27.442  1.00  0.00     0.031 C 
ATOM     63  C   UNL A   1      47.488  25.025  25.928  1.00  0.00     0.029 A 
ATOM     64  C   UNL A   1      47.274  26.314  26.392  1.00  0.00     0.049 A 
ATOM     65  H   UNL A   1      45.542  27.143  27.264  1.00  0.00     0.167 HD
ATOM     66  C   UNL A   1      47.909  28.664  26.881  1.00  0.00     0.074 A 
ATOM     67  C   UNL A   1      48.851  29.764  26.897  1.00  0.00     0.031 C 
ATOM     68  C   UNL A   1      48.193  27.426  26.406  1.00  0.00     0.037 A 
BRANCH  55  69
ATOM     69  C   UNL A   1      43.522  23.402  26.894  1.00  0.00     0.058 A 
ATOM     70  C   UNL A   1      43.400  22.499  27.963  1.00  0.00     0.135 A 
ATOM     71  C   UNL A   1      43.158  22.959  25.613  1.00  0.00     0.135 A 
ATOM     72  F   UNL A   1      43.758  22.867  29.203  1.00  0.00    -0.206 F 
ATOM     73  C   UNL A   1      42.959  21.195  27.763  1.00  0.00     0.059 A 
ATOM     74  C   UNL A   1      42.692  21.666  25.395  1.00  0.00     0.059 A 
ATOM     75  F   UNL A   1      43.264  23.781  24.558  1.00  0.00    -0.206 F 
ATOM     76  C   UNL A   1      42.613  20.786  26.474  1.00  0.00     0.060 A 
BRANCH  76  77
ATOM     77  S   UNL A   1      42.054  19.087  26.227  1.00  0.00     0.124 S 
ATOM     78  O   UNL A   1      42.356  18.492  27.526  1.00  0.00    -0.237 OA
ATOM     79  O   UNL A   1      40.638  19.262  25.924  1.00  0.00    -0.237 OA
ATOM     80  O   UNL A   1      42.877  18.618  25.117  1.00  0.00    -0.744 OA
ENDBRANCH  76  77
ENDBRANCH  55  69
BRANCH  56  81
ATOM     81  C   UNL A   1      46.466  32.802  28.609  1.00  0.00     0.058 A 
ATOM     82  C   UNL A   1      46.349  33.811  27.642  1.00  0.00     0.135 A 
ATOM     83  C   UNL A   1      47.031  33.144  29.848  1.00  0.00     0.135 A 
ATOM     84  F   UNL A   1      45.827  33.530  26.439  1.00  0.00    -0.206 F 
ATOM     85  C   UNL A   1      46.784  35.109  27.889  1.00  0.00     0.059 A 
ATOM     86  C   UNL A   1      47.453  34.439  30.125  1.00  0.00     0.059 A 
ATOM     87  F   UNL A   1      47.157  32.214  30.809  1.00  0.00    -0.206 F 
ATOM     88  C   UNL A   1      47.334  35.414  29.136  1.00  0.00     0.060 A 
BRANCH  88  89
ATOM     89  S   UNL A   1      47.849  37.114  29.466  1.00  0.00     0.124 S 
ATOM     90  O   UNL A   1      46.568  37.810  29.485  1.00  0.00    -0.237 OA
ATOM     91  O   UNL A   1      48.526  36.987  30.753  1.00  0.00    -0.237 OA
ATOM     92  O   UNL A   1      48.721  37.423  28.336  1.00  0.00    -0.744 OA
ENDBRANCH  88  89
ENDBRANCH  56  81
BRANCH  68  93
ATOM     93  C   UNL A   1      49.560  27.199  25.826  1.00  0.00     0.058 A 
ATOM     94  C   UNL A   1      50.670  26.924  26.639  1.00  0.00     0.135 A 
ATOM     95  C   UNL A   1      49.744  27.185  24.434  1.00  0.00     0.135 A 
ATOM     96  F   UNL A   1      50.546  26.930  27.976  1.00  0.00    -0.206 F 
ATOM     97  C   UNL A   1      51.921  26.657  26.092  1.00  0.00     0.059 A 
ATOM     98  C   UNL A   1      50.982  26.898  23.865  1.00  0.00     0.059 A 
ATOM     99  F   UNL A   1      48.712  27.430  23.612  1.00  0.00    -0.206 F 
ATOM    100  C   UNL A   1      52.066  26.643  24.703  1.00  0.00     0.060 A 
BRANCH 100 101
ATOM    101  S   UNL A   1      53.682  26.248  24.001  1.00  0.00     0.124 S 
ATOM    102  O   UNL A   1      54.000  24.998  24.683  1.00  0.00    -0.237 OA
ATOM    103  O   UNL A   1      53.388  26.135  22.575  1.00  0.00    -0.237 OA
ATOM    104  O   UNL A   1      54.504  27.394  24.375  1.00  0.00    -0.744 OA
ENDBRANCH 100 101
ENDBRANCH  68  93
ENDBRANCH  42  43
ENDBRANCH  35  37
ENDBRANCH  34  35
ENDBRANCH  33  34
ENDBRANCH  32  33
ENDBRANCH  31  32
ENDBRANCH  30  31
ENDBRANCH  29  30
ENDBRANCH   1  29
TORSDOF 26
ENDMDL
MODEL 3
REMARK VINA RESULT:      -8.3      6.120     11.547
REMARK SMILES C[C@]1(C(=O)NCc2ccc(C(=O)OCCOCCOCCOCCOC(=O)c3ccc(-c4c5nc(c(-c6c(F)cc(S(=O)(=O)[O-])cc6F)c6ccc([nH]6)c(-c6c(F)cc(S(=O)(=O)[O-])cc6F)c6nc(c(-c7c(F)cc(S(=O)(=O)[O-])cc7F)c7ccc4[nH]7)C=C6)C=C5)cc3)o2)CCC[NH2+]C1
REMARK SMILES IDX 19 1 18 2 17 3 16 4 15 5 14 6 13 7 11 8 12 9 10 10 7 11 8 12
REMARK SMILES IDX 94 13 9 14 6 15 5 16 3 17 4 18 2 20 1 21 95 22 99 23 96 24
REMARK SMILES IDX 98 25 97 26 20 29 21 30 22 31 23 32 24 33 25 34 26 35 27 36
REMARK SMILES IDX 28 37 29 38 93 39 30 40 92 41 31 42 32 43 33 44 86 45 34 46
REMARK SMILES IDX 91 47 85 48 87 49 35 50 90 51 84 52 83 53 36 55 70 56 49 57
REMARK SMILES IDX 69 58 50 59 53 60 68 61 88 62 51 63 52 64 67 66 89 67 54 68
REMARK SMILES IDX 37 69 38 70 47 71 39 72 40 73 46 74 48 75 41 76 42 77 43 78
REMARK SMILES IDX 44 79 45 80 71 81 72 82 81 83 73 84 74 85 80 86 82 87 75 88
REMARK SMILES IDX 76 89 77 90 78 91 79 92 55 93 56 94 65 95 57 96 58 97 64 98
REMARK SMILES IDX 66 99 59 100 60 101 61 102 62 103 63 104
REMARK H PARENT 5 19 98 27 98 28 87 54 53 65
REMARK Flexibility Score: inf
ROOT
ATOM      1  O   UNL A   1      34.094  32.445  28.280  1.00  0.00    -0.377 OA
ENDROOT
BRANCH   1   2
ATOM      2  C   UNL A   1      34.196  31.371  27.362  1.00  0.00     0.188 C 
BRANCH   2   3
ATOM      3  C   UNL A   1      33.380  30.129  27.750  1.00  0.00     0.188 C 
BRANCH   3   4
ATOM      4  O   UNL A   1      32.343  29.820  26.819  1.00  0.00    -0.376 OA
BRANCH   4   5
ATOM      5  C   UNL A   1      31.791  28.510  26.910  1.00  0.00     0.202 C 
BRANCH   5   6
ATOM      6  C   UNL A   1      32.772  27.368  26.606  1.00  0.00     0.261 C 
BRANCH   6   7
ATOM      7  O   UNL A   1      32.227  26.302  25.812  1.00  0.00    -0.457 OA
BRANCH   7   8
ATOM      8  C   UNL A   1      32.268  25.046  26.329  1.00  0.00     0.374 C 
ATOM      9  O   UNL A   1      31.493  24.615  27.173  1.00  0.00    -0.242 OA
BRANCH   8  10
ATOM     10  C   UNL A   1      33.273  24.292  25.616  1.00  0.00     0.211 A 
ATOM     11  C   UNL A   1      34.050  22.497  24.581  1.00  0.00     0.124 A 
ATOM     12  C   UNL A   1      34.932  23.522  24.305  1.00  0.00     0.048 A 
ATOM     13  O   UNL A   1      33.064  22.956  25.410  1.00  0.00    -0.452 OA
ATOM     14  C   UNL A   1      34.433  24.672  24.965  1.00  0.00     0.058 A 
BRANCH  11  15
ATOM     15  C   UNL A   1      33.995  21.069  24.156  1.00  0.00     0.191 C 
BRANCH  15  16
ATOM     16  N   UNL A   1      33.415  20.263  25.204  1.00  0.00    -0.348 N 
ATOM     17  C   UNL A   1      32.951  18.997  25.297  1.00  0.00     0.232 C 
ATOM     18  O   UNL A   1      32.525  18.694  26.422  1.00  0.00    -0.274 OA
ATOM     19  H   UNL A   1      33.339  20.753  26.055  1.00  0.00     0.163 HD
BRANCH  17  20
ATOM     20  C   UNL A   1      33.066  17.920  24.191  1.00  0.00     0.095 C 
ATOM     21  C   UNL A   1      32.360  18.481  22.944  1.00  0.00     0.028 C 
ATOM     22  C   UNL A   1      34.575  17.721  23.857  1.00  0.00     0.028 C 
ATOM     23  C   UNL A   1      32.512  16.519  24.521  1.00  0.00     0.277 C 
ATOM     24  C   UNL A   1      35.308  16.983  24.984  1.00  0.00     0.063 C 
ATOM     25  N   UNL A   1      33.193  15.865  25.637  1.00  0.00    -0.345 N 
ATOM     26  C   UNL A   1      34.615  15.674  25.351  1.00  0.00     0.260 C 
ATOM     27  H   UNL A   1      33.097  16.444  26.471  1.00  0.00     0.346 HD
ATOM     28  H   UNL A   1      32.768  14.950  25.784  1.00  0.00     0.346 HD
ENDBRANCH  17  20
ENDBRANCH  15  16
ENDBRANCH  11  15
ENDBRANCH   8  10
ENDBRANCH   7   8
ENDBRANCH   6   7
ENDBRANCH   5   6
ENDBRANCH   4   5
ENDBRANCH   3   4
ENDBRANCH   2   3
ENDBRANCH   1   2
BRANCH   1  29
ATOM     29  C   UNL A   1      34.660  32.289  29.580  1.00  0.00     0.188 C 
BRANCH  29  30
ATOM     30  C   UNL A   1      35.522  33.385  30.241  1.00  0.00     0.188 C 
BRANCH  30  31
ATOM     31  O   UNL A   1      36.800  32.939  30.693  1.00  0.00    -0.376 OA
BRANCH  31  32
ATOM     32  C   UNL A   1      36.862  31.602  31.176  1.00  0.00     0.202 C 
BRANCH  32  33
ATOM     33  C   UNL A   1      37.117  31.521  32.684  1.00  0.00     0.261 C 
BRANCH  33  34
ATOM     34  O   UNL A   1      38.118  32.427  33.168  1.00  0.00    -0.460 OA
BRANCH  34  35
ATOM     35  C   UNL A   1      39.101  31.892  33.926  1.00  0.00     0.338 C 
ATOM     36  O   UNL A   1      39.135  31.812  35.140  1.00  0.00    -0.246 OA
BRANCH  35  37
ATOM     37  C   UNL A   1      40.077  31.260  33.021  1.00  0.00     0.060 A 
ATOM     38  C   UNL A   1      40.788  30.141  33.470  1.00  0.00     0.016 A 
ATOM     39  C   UNL A   1      40.303  31.789  31.748  1.00  0.00     0.016 A 
ATOM     40  C   UNL A   1      41.771  29.576  32.658  1.00  0.00     0.010 A 
ATOM     41  C   UNL A   1      41.295  31.231  30.944  1.00  0.00     0.010 A 
ATOM     42  C   UNL A   1      42.059  30.149  31.412  1.00  0.00    -0.014 A 
BRANCH  42  43
ATOM     43  C   UNL A   1      43.291  29.768  30.685  1.00  0.00     0.031 A 
ATOM     44  C   UNL A   1      43.299  28.457  29.948  1.00  0.00     0.074 A 
ATOM     45  C   UNL A   1      44.382  30.551  30.701  1.00  0.00     0.049 A 
ATOM     46  N   UNL A   1      44.277  27.870  29.310  1.00  0.00    -0.248 NA
ATOM     47  C   UNL A   1      42.033  27.705  29.937  1.00  0.00     0.031 C 
ATOM     48  C   UNL A   1      44.483  31.852  31.359  1.00  0.00     0.029 A 
ATOM     49  N   UNL A   1      45.624  30.352  30.153  1.00  0.00    -0.354 N 
ATOM     50  C   UNL A   1      43.746  26.679  28.826  1.00  0.00     0.074 A 
ATOM     51  C   UNL A   1      42.370  26.615  29.266  1.00  0.00     0.031 C 
ATOM     52  C   UNL A   1      45.731  32.328  31.193  1.00  0.00     0.029 A 
ATOM     53  C   UNL A   1      46.520  31.354  30.440  1.00  0.00     0.049 A 
ATOM     54  H   UNL A   1      45.853  29.566  29.607  1.00  0.00     0.167 HD
ATOM     55  C   UNL A   1      44.350  25.728  28.078  1.00  0.00     0.037 A 
ATOM     56  C   UNL A   1      47.832  31.456  30.145  1.00  0.00     0.037 A 
ATOM     57  C   UNL A   1      45.723  25.790  27.653  1.00  0.00     0.049 A 
ATOM     58  C   UNL A   1      48.500  30.358  29.358  1.00  0.00     0.074 A 
ATOM     59  C   UNL A   1      46.429  24.881  26.888  1.00  0.00     0.029 A 
ATOM     60  N   UNL A   1      46.599  26.818  27.967  1.00  0.00    -0.354 N 
ATOM     61  N   UNL A   1      47.982  29.249  28.886  1.00  0.00    -0.248 NA
ATOM     62  C   UNL A   1      49.931  30.524  29.065  1.00  0.00     0.031 C 
ATOM     63  C   UNL A   1      47.745  25.341  26.768  1.00  0.00     0.029 A 
ATOM     64  C   UNL A   1      47.845  26.559  27.425  1.00  0.00     0.049 A 
ATOM     65  H   UNL A   1      46.368  27.615  28.498  1.00  0.00     0.167 HD
ATOM     66  C   UNL A   1      49.016  28.601  28.215  1.00  0.00     0.074 A 
ATOM     67  C   UNL A   1      50.187  29.443  28.340  1.00  0.00     0.031 C 
ATOM     68  C   UNL A   1      48.996  27.418  27.550  1.00  0.00     0.037 A 
BRANCH  55  69
ATOM     69  C   UNL A   1      43.530  24.530  27.697  1.00  0.00     0.058 A 
ATOM     70  C   UNL A   1      42.823  24.479  26.484  1.00  0.00     0.135 A 
ATOM     71  C   UNL A   1      43.446  23.422  28.554  1.00  0.00     0.135 A 
ATOM     72  F   UNL A   1      42.851  25.524  25.642  1.00  0.00    -0.206 F 
ATOM     73  C   UNL A   1      42.039  23.381  26.148  1.00  0.00     0.059 A 
ATOM     74  C   UNL A   1      42.687  22.303  28.226  1.00  0.00     0.059 A 
ATOM     75  F   UNL A   1      44.097  23.425  29.727  1.00  0.00    -0.206 F 
ATOM     76  C   UNL A   1      41.972  22.300  27.029  1.00  0.00     0.060 A 
BRANCH  76  77
ATOM     77  S   UNL A   1      40.941  20.886  26.586  1.00  0.00     0.124 S 
ATOM     78  O   UNL A   1      39.765  21.549  26.031  1.00  0.00    -0.237 OA
ATOM     79  O   UNL A   1      41.778  20.174  25.625  1.00  0.00    -0.237 OA
ATOM     80  O   UNL A   1      40.735  20.205  27.860  1.00  0.00    -0.744 OA
ENDBRANCH  76  77
ENDBRANCH  55  69
BRANCH  56  81
ATOM     81  C   UNL A   1      48.603  32.642  30.599  1.00  0.00     0.058 A 
ATOM     82  C   UNL A   1      49.223  32.663  31.857  1.00  0.00     0.135 A 
ATOM     83  C   UNL A   1      48.734  33.779  29.786  1.00  0.00     0.135 A 
ATOM     84  F   UNL A   1      49.115  31.604  32.674  1.00  0.00    -0.206 F 
ATOM     85  C   UNL A   1      49.938  33.771  32.298  1.00  0.00     0.059 A 
ATOM     86  C   UNL A   1      49.462  34.890  30.196  1.00  0.00     0.059 A 
ATOM     87  F   UNL A   1      48.166  33.805  28.570  1.00  0.00    -0.206 F 
ATOM     88  C   UNL A   1      50.054  34.881  31.459  1.00  0.00     0.060 A 
BRANCH  88  89
ATOM     89  S   UNL A   1      51.028  36.295  32.019  1.00  0.00     0.124 S 
ATOM     90  O   UNL A   1      50.385  36.609  33.290  1.00  0.00    -0.237 OA
ATOM     91  O   UNL A   1      52.371  35.730  32.105  1.00  0.00    -0.237 OA
ATOM     92  O   UNL A   1      50.836  37.275  30.953  1.00  0.00    -0.744 OA
ENDBRANCH  88  89
ENDBRANCH  56  81
BRANCH  68  93
ATOM     93  C   UNL A   1      50.262  26.979  26.872  1.00  0.00     0.058 A 
ATOM     94  C   UNL A   1      51.159  26.091  27.486  1.00  0.00     0.135 A 
ATOM     95  C   UNL A   1      50.544  27.397  25.561  1.00  0.00     0.135 A 
ATOM     96  F   UNL A   1      50.936  25.666  28.739  1.00  0.00    -0.206 F 
ATOM     97  C   UNL A   1      52.300  25.643  26.829  1.00  0.00     0.059 A 
ATOM     98  C   UNL A   1      51.668  26.944  24.877  1.00  0.00     0.059 A 
ATOM     99  F   UNL A   1      49.712  28.237  24.926  1.00  0.00    -0.206 F 
ATOM    100  C   UNL A   1      52.545  26.074  25.522  1.00  0.00     0.060 A 
BRANCH 100 101
ATOM    101  S   UNL A   1      54.003  25.449  24.660  1.00  0.00     0.124 S 
ATOM    102  O   UNL A   1      53.604  25.596  23.264  1.00  0.00    -0.237 OA
ATOM    103  O   UNL A   1      55.052  26.356  25.118  1.00  0.00    -0.237 OA
ATOM    104  O   UNL A   1      54.119  24.076  25.139  1.00  0.00    -0.744 OA
ENDBRANCH 100 101
ENDBRANCH  68  93
ENDBRANCH  42  43
ENDBRANCH  35  37
ENDBRANCH  34  35
ENDBRANCH  33  34
ENDBRANCH  32  33
ENDBRANCH  31  32
ENDBRANCH  30  31
ENDBRANCH  29  30
ENDBRANCH   1  29
TORSDOF 26
ENDMDL
