MODEL 1
REMARK VINA RESULT:      -7.2      0.000      0.000
REMARK SMILES O=C(OCCOCCOCCOCCOC(=O)c1[nH]ncc1C[NH+]1CCC([N@H+]2CCC[C@@H](C(=O)N3CCCC3)C2)CC1)c1ccc(-c2c3nc(c(-c4c(F)cc(S(=O)(=O)[O-])cc4F)c4ccc([nH]4)c(-c4c(F)cc(S(=O)(=O)[O-])cc4F)c4nc(c(-c5c(F)cc(S(=O)(=O)[O-])cc5F)c5ccc2[nH]5)C=C4)C=C3)cc1
REMARK SMILES IDX 10 1 9 2 8 3 7 4 6 5 5 6 4 7 3 8 2 9 1 10 43 11 44 12 108 13
REMARK SMILES IDX 45 14 107 15 46 16 47 17 48 18 101 19 49 20 106 21 100 22
REMARK SMILES IDX 102 23 50 24 105 25 99 26 98 27 51 29 85 30 64 31 84 32
REMARK SMILES IDX 65 33 68 34 83 35 103 36 66 37 67 38 82 40 104 41 69 42
REMARK SMILES IDX 52 43 53 44 62 45 54 46 55 47 61 48 63 49 56 50 57 51 58 52
REMARK SMILES IDX 59 53 60 54 86 55 87 56 96 57 88 58 89 59 95 60 97 61 90 62
REMARK SMILES IDX 91 63 92 64 93 65 94 66 70 67 71 68 80 69 72 70 73 71 79 72
REMARK SMILES IDX 81 73 74 74 75 75 76 76 77 77 78 78 11 79 12 80 13 81 14 82
REMARK SMILES IDX 15 83 16 84 17 85 18 86 19 87 22 88 20 89 21 91 23 92 24 93
REMARK SMILES IDX 25 94 42 95 26 97 41 98 27 99 28 100 29 101 40 102 30 104
REMARK SMILES IDX 32 105 31 106 33 107 34 108 35 109 36 110 39 111 37 112
REMARK SMILES IDX 38 113
REMARK H PARENT 102 28 68 39 19 90 24 96 28 103
REMARK Flexibility Score: inf
ROOT
ATOM      1  C   UNL A   1      52.474  25.725  40.400  1.00  0.00     0.188 C 
ENDROOT
BRANCH   1   2
ATOM      2  O   UNL A   1      52.750  26.073  39.048  1.00  0.00    -0.377 OA
BRANCH   2   3
ATOM      3  C   UNL A   1      52.769  27.472  38.771  1.00  0.00     0.188 C 
BRANCH   3   4
ATOM      4  C   UNL A   1      51.742  28.317  39.533  1.00  0.00     0.188 C 
BRANCH   4   5
ATOM      5  O   UNL A   1      51.213  29.352  38.709  1.00  0.00    -0.376 OA
BRANCH   5   6
ATOM      6  C   UNL A   1      49.807  29.383  38.467  1.00  0.00     0.202 C 
BRANCH   6   7
ATOM      7  C   UNL A   1      48.946  28.775  39.566  1.00  0.00     0.261 C 
BRANCH   7   8
ATOM      8  O   UNL A   1      48.219  27.612  39.149  1.00  0.00    -0.460 OA
BRANCH   8   9
ATOM      9  C   UNL A   1      46.881  27.397  39.172  1.00  0.00     0.338 C 
ATOM     10  O   UNL A   1      46.409  26.795  40.137  1.00  0.00    -0.246 OA
BRANCH   9  11
ATOM     11  C   UNL A   1      45.933  27.846  38.108  1.00  0.00     0.060 A 
ATOM     12  C   UNL A   1      46.170  28.862  37.186  1.00  0.00     0.016 A 
ATOM     13  C   UNL A   1      44.738  27.120  37.977  1.00  0.00     0.016 A 
ATOM     14  C   UNL A   1      45.249  29.217  36.222  1.00  0.00     0.010 A 
ATOM     15  C   UNL A   1      43.805  27.446  36.989  1.00  0.00     0.010 A 
ATOM     16  C   UNL A   1      44.053  28.524  36.133  1.00  0.00    -0.014 A 
BRANCH  16  17
ATOM     17  C   UNL A   1      43.020  29.130  35.285  1.00  0.00     0.031 A 
ATOM     18  C   UNL A   1      42.234  30.258  35.878  1.00  0.00     0.074 A 
ATOM     19  C   UNL A   1      42.964  28.817  33.979  1.00  0.00     0.049 A 
ATOM     20  N   UNL A   1      41.237  30.923  35.374  1.00  0.00    -0.248 NA
ATOM     21  C   UNL A   1      42.643  30.710  37.223  1.00  0.00     0.031 C 
ATOM     22  C   UNL A   1      43.846  27.861  33.299  1.00  0.00     0.029 A 
ATOM     23  N   UNL A   1      42.164  29.297  32.980  1.00  0.00    -0.354 N 
ATOM     24  C   UNL A   1      40.878  31.845  36.349  1.00  0.00     0.074 A 
ATOM     25  C   UNL A   1      41.750  31.650  37.480  1.00  0.00     0.031 C 
ATOM     26  C   UNL A   1      43.538  27.831  31.991  1.00  0.00     0.029 A 
ATOM     27  C   UNL A   1      42.389  28.697  31.764  1.00  0.00     0.049 A 
ATOM     28  H   UNL A   1      41.492  30.003  33.119  1.00  0.00     0.167 HD
ATOM     29  C   UNL A   1      39.896  32.770  36.288  1.00  0.00     0.037 A 
ATOM     30  C   UNL A   1      41.694  28.806  30.617  1.00  0.00     0.037 A 
ATOM     31  C   UNL A   1      39.057  32.924  35.132  1.00  0.00     0.049 A 
ATOM     32  C   UNL A   1      40.512  29.739  30.621  1.00  0.00     0.074 A 
ATOM     33  C   UNL A   1      37.960  33.741  34.959  1.00  0.00     0.029 A 
ATOM     34  N   UNL A   1      39.244  32.232  33.940  1.00  0.00    -0.354 N 
ATOM     35  N   UNL A   1      40.091  30.530  31.584  1.00  0.00    -0.248 NA
ATOM     36  C   UNL A   1      39.700  29.789  29.402  1.00  0.00     0.031 C 
ATOM     37  C   UNL A   1      37.454  33.508  33.675  1.00  0.00     0.029 A 
ATOM     38  C   UNL A   1      38.273  32.593  33.027  1.00  0.00     0.049 A 
ATOM     39  H   UNL A   1      39.963  31.580  33.771  1.00  0.00     0.167 HD
ATOM     40  C   UNL A   1      38.980  31.191  31.078  1.00  0.00     0.074 A 
ATOM     41  C   UNL A   1      38.808  30.718  29.717  1.00  0.00     0.031 C 
ATOM     42  C   UNL A   1      38.166  32.098  31.676  1.00  0.00     0.037 A 
BRANCH  29  43
ATOM     43  C   UNL A   1      39.653  33.598  37.516  1.00  0.00     0.058 A 
ATOM     44  C   UNL A   1      40.383  34.766  37.788  1.00  0.00     0.135 A 
ATOM     45  C   UNL A   1      38.701  33.187  38.464  1.00  0.00     0.135 A 
ATOM     46  F   UNL A   1      41.339  35.180  36.940  1.00  0.00    -0.206 F 
ATOM     47  C   UNL A   1      40.191  35.487  38.964  1.00  0.00     0.059 A 
ATOM     48  C   UNL A   1      38.474  33.907  39.633  1.00  0.00     0.059 A 
ATOM     49  F   UNL A   1      37.993  32.064  38.268  1.00  0.00    -0.206 F 
ATOM     50  C   UNL A   1      39.232  35.049  39.879  1.00  0.00     0.060 A 
BRANCH  50  51
ATOM     51  S   UNL A   1      38.992  35.999  41.395  1.00  0.00     0.124 S 
ATOM     52  O   UNL A   1      37.734  35.448  41.890  1.00  0.00    -0.237 OA
ATOM     53  O   UNL A   1      40.181  35.654  42.168  1.00  0.00    -0.237 OA
ATOM     54  O   UNL A   1      38.930  37.379  40.927  1.00  0.00    -0.744 OA
ENDBRANCH  50  51
ENDBRANCH  29  43
BRANCH  30  55
ATOM     55  C   UNL A   1      42.032  27.966  29.435  1.00  0.00     0.058 A 
ATOM     56  C   UNL A   1      43.177  28.208  28.662  1.00  0.00     0.135 A 
ATOM     57  C   UNL A   1      41.192  26.913  29.031  1.00  0.00     0.135 A 
ATOM     58  F   UNL A   1      44.015  29.201  28.998  1.00  0.00    -0.206 F 
ATOM     59  C   UNL A   1      43.459  27.465  27.517  1.00  0.00     0.059 A 
ATOM     60  C   UNL A   1      41.469  26.134  27.913  1.00  0.00     0.059 A 
ATOM     61  F   UNL A   1      40.087  26.623  29.736  1.00  0.00    -0.206 F 
ATOM     62  C   UNL A   1      42.594  26.432  27.148  1.00  0.00     0.060 A 
BRANCH  62  63
ATOM     63  S   UNL A   1      42.963  25.480  25.660  1.00  0.00     0.124 S 
ATOM     64  O   UNL A   1      42.375  24.186  25.988  1.00  0.00    -0.237 OA
ATOM     65  O   UNL A   1      42.279  26.250  24.626  1.00  0.00    -0.237 OA
ATOM     66  O   UNL A   1      44.421  25.512  25.594  1.00  0.00    -0.744 OA
ENDBRANCH  62  63
ENDBRANCH  30  55
BRANCH  42  67
ATOM     67  C   UNL A   1      37.062  32.668  30.836  1.00  0.00     0.058 A 
ATOM     68  C   UNL A   1      37.254  33.802  30.033  1.00  0.00     0.135 A 
ATOM     69  C   UNL A   1      35.813  32.028  30.795  1.00  0.00     0.135 A 
ATOM     70  F   UNL A   1      38.430  34.449  30.046  1.00  0.00    -0.206 F 
ATOM     71  C   UNL A   1      36.233  34.299  29.235  1.00  0.00     0.059 A 
ATOM     72  C   UNL A   1      34.791  32.487  29.977  1.00  0.00     0.059 A 
ATOM     73  F   UNL A   1      35.589  30.931  31.538  1.00  0.00    -0.206 F 
ATOM     74  C   UNL A   1      35.006  33.631  29.211  1.00  0.00     0.060 A 
BRANCH  74  75
ATOM     75  S   UNL A   1      33.703  34.264  28.139  1.00  0.00     0.124 S 
ATOM     76  O   UNL A   1      33.121  33.029  27.625  1.00  0.00    -0.237 OA
ATOM     77  O   UNL A   1      32.871  35.017  29.072  1.00  0.00    -0.237 OA
ATOM     78  O   UNL A   1      34.428  35.072  27.162  1.00  0.00    -0.744 OA
ENDBRANCH  74  75
ENDBRANCH  42  67
ENDBRANCH  16  17
ENDBRANCH   9  11
ENDBRANCH   8   9
ENDBRANCH   7   8
ENDBRANCH   6   7
ENDBRANCH   5   6
ENDBRANCH   4   5
ENDBRANCH   3   4
ENDBRANCH   2   3
ENDBRANCH   1   2
BRANCH   1  79
ATOM     79  C   UNL A   1      51.652  24.443  40.686  1.00  0.00     0.188 C 
BRANCH  79  80
ATOM     80  O   UNL A   1      50.318  24.508  40.230  1.00  0.00    -0.376 OA
BRANCH  80  81
ATOM     81  C   UNL A   1      49.592  23.316  39.974  1.00  0.00     0.202 C 
BRANCH  81  82
ATOM     82  C   UNL A   1      50.180  21.899  40.149  1.00  0.00     0.261 C 
BRANCH  82  83
ATOM     83  O   UNL A   1      49.589  20.829  39.408  1.00  0.00    -0.459 OA
BRANCH  83  84
ATOM     84  C   UNL A   1      49.738  19.556  39.867  1.00  0.00     0.356 C 
ATOM     85  O   UNL A   1      50.724  18.868  39.746  1.00  0.00    -0.244 OA
BRANCH  84  86
ATOM     86  C   UNL A   1      48.599  19.257  40.707  1.00  0.00     0.152 A 
ATOM     87  N   UNL A   1      48.660  19.207  42.071  1.00  0.00    -0.271 N 
ATOM     88  C   UNL A   1      47.270  19.004  40.393  1.00  0.00     0.059 A 
ATOM     89  N   UNL A   1      47.450  19.162  42.662  1.00  0.00    -0.183 NA
ATOM     90  H   UNL A   1      49.507  19.205  42.574  1.00  0.00     0.190 HD
ATOM     91  C   UNL A   1      46.605  19.026  41.639  1.00  0.00     0.145 A 
BRANCH  88  92
ATOM     92  C   UNL A   1      46.702  18.687  39.053  1.00  0.00     0.303 C 
BRANCH  92  93
ATOM     93  N   UNL A   1      46.871  19.845  38.150  1.00  0.00    -0.331 N 
ATOM     94  C   UNL A   1      46.485  19.528  36.768  1.00  0.00     0.268 C 
ATOM     95  C   UNL A   1      46.146  21.029  38.629  1.00  0.00     0.268 C 
ATOM     96  H   UNL A   1      47.867  20.066  38.153  1.00  0.00     0.348 HD
ATOM     97  C   UNL A   1      46.785  20.648  35.804  1.00  0.00     0.126 C 
ATOM     98  C   UNL A   1      46.459  22.239  37.755  1.00  0.00     0.126 C 
ATOM     99  C   UNL A   1      46.142  21.964  36.273  1.00  0.00     0.195 C 
BRANCH  99 100
ATOM    100  N   UNL A   1      46.482  23.133  35.425  1.00  0.00    -0.331 N 
ATOM    101  C   UNL A   1      45.724  24.335  35.807  1.00  0.00     0.262 C 
ATOM    102  C   UNL A   1      47.932  23.406  35.478  1.00  0.00     0.275 C 
ATOM    103  H   UNL A   1      46.219  22.897  34.468  1.00  0.00     0.348 HD
ATOM    104  C   UNL A   1      46.021  25.481  34.851  1.00  0.00     0.062 C 
ATOM    105  C   UNL A   1      48.368  24.607  34.615  1.00  0.00     0.134 C 
ATOM    106  C   UNL A   1      47.501  25.836  34.906  1.00  0.00     0.025 C 
BRANCH 105 107
ATOM    107  C   UNL A   1      49.829  24.844  34.985  1.00  0.00     0.231 C 
ATOM    108  O   UNL A   1      50.144  25.592  35.910  1.00  0.00    -0.274 OA
ATOM    109  N   UNL A   1      50.759  24.033  34.373  1.00  0.00    -0.342 N 
ATOM    110  C   UNL A   1      50.710  23.452  33.047  1.00  0.00     0.119 C 
ATOM    111  C   UNL A   1      51.995  23.694  35.053  1.00  0.00     0.119 C 
ATOM    112  C   UNL A   1      51.627  22.248  33.150  1.00  0.00     0.023 C 
ATOM    113  C   UNL A   1      52.698  22.695  34.140  1.00  0.00     0.023 C 
ENDBRANCH 105 107
ENDBRANCH  99 100
ENDBRANCH  92  93
ENDBRANCH  88  92
ENDBRANCH  84  86
ENDBRANCH  83  84
ENDBRANCH  82  83
ENDBRANCH  81  82
ENDBRANCH  80  81
ENDBRANCH  79  80
ENDBRANCH   1  79
TORSDOF 27
ENDMDL
MODEL 2
REMARK VINA RESULT:      -7.0      7.563     11.912
REMARK SMILES O=C(OCCOCCOCCOCCOC(=O)c1[nH]ncc1C[NH+]1CCC([N@H+]2CCC[C@@H](C(=O)N3CCCC3)C2)CC1)c1ccc(-c2c3nc(c(-c4c(F)cc(S(=O)(=O)[O-])cc4F)c4ccc([nH]4)c(-c4c(F)cc(S(=O)(=O)[O-])cc4F)c4nc(c(-c5c(F)cc(S(=O)(=O)[O-])cc5F)c5ccc2[nH]5)C=C4)C=C3)cc1
REMARK SMILES IDX 10 1 9 2 8 3 7 4 6 5 5 6 4 7 3 8 2 9 1 10 43 11 44 12 108 13
REMARK SMILES IDX 45 14 107 15 46 16 47 17 48 18 101 19 49 20 106 21 100 22
REMARK SMILES IDX 102 23 50 24 105 25 99 26 98 27 51 29 85 30 64 31 84 32
REMARK SMILES IDX 65 33 68 34 83 35 103 36 66 37 67 38 82 40 104 41 69 42
REMARK SMILES IDX 52 43 53 44 62 45 54 46 55 47 61 48 63 49 56 50 57 51 58 52
REMARK SMILES IDX 59 53 60 54 86 55 87 56 96 57 88 58 89 59 95 60 97 61 90 62
REMARK SMILES IDX 91 63 92 64 93 65 94 66 70 67 71 68 80 69 72 70 73 71 79 72
REMARK SMILES IDX 81 73 74 74 75 75 76 76 77 77 78 78 11 79 12 80 13 81 14 82
REMARK SMILES IDX 15 83 16 84 17 85 18 86 19 87 22 88 20 89 21 91 23 92 24 93
REMARK SMILES IDX 25 94 42 95 26 97 41 98 27 99 28 100 29 101 40 102 30 104
REMARK SMILES IDX 32 105 31 106 33 107 34 108 35 109 36 110 39 111 37 112
REMARK SMILES IDX 38 113
REMARK H PARENT 102 28 68 39 19 90 24 96 28 103
REMARK Flexibility Score: inf
ROOT
ATOM      1  C   UNL A   1      43.750  21.277  25.460  1.00  0.00     0.188 C 
ENDROOT
BRANCH   1   2
ATOM      2  O   UNL A   1      42.672  20.353  25.373  1.00  0.00    -0.377 OA
BRANCH   2   3
ATOM      3  C   UNL A   1      42.166  19.886  26.622  1.00  0.00     0.188 C 
BRANCH   3   4
ATOM      4  C   UNL A   1      41.579  20.958  27.546  1.00  0.00     0.188 C 
BRANCH   4   5
ATOM      5  O   UNL A   1      40.298  21.384  27.092  1.00  0.00    -0.376 OA
BRANCH   5   6
ATOM      6  C   UNL A   1      40.065  22.780  26.913  1.00  0.00     0.202 C 
BRANCH   6   7
ATOM      7  C   UNL A   1      41.311  23.656  26.943  1.00  0.00     0.261 C 
BRANCH   7   8
ATOM      8  O   UNL A   1      41.027  25.058  27.020  1.00  0.00    -0.460 OA
BRANCH   8   9
ATOM      9  C   UNL A   1      41.457  26.055  26.208  1.00  0.00     0.338 C 
ATOM     10  O   UNL A   1      41.241  25.949  25.001  1.00  0.00    -0.246 OA
BRANCH   9  11
ATOM     11  C   UNL A   1      42.173  27.280  26.677  1.00  0.00     0.060 A 
ATOM     12  C   UNL A   1      43.085  27.335  27.728  1.00  0.00     0.016 A 
ATOM     13  C   UNL A   1      41.970  28.454  25.935  1.00  0.00     0.016 A 
ATOM     14  C   UNL A   1      43.717  28.504  28.099  1.00  0.00     0.010 A 
ATOM     15  C   UNL A   1      42.622  29.642  26.279  1.00  0.00     0.010 A 
ATOM     16  C   UNL A   1      43.471  29.667  27.389  1.00  0.00    -0.014 A 
BRANCH  16  17
ATOM     17  C   UNL A   1      43.950  30.910  28.005  1.00  0.00     0.031 A 
ATOM     18  C   UNL A   1      43.110  31.489  29.101  1.00  0.00     0.074 A 
ATOM     19  C   UNL A   1      45.190  31.353  27.734  1.00  0.00     0.049 A 
ATOM     20  N   UNL A   1      43.268  32.595  29.766  1.00  0.00    -0.248 NA
ATOM     21  C   UNL A   1      41.933  30.699  29.515  1.00  0.00     0.031 C 
ATOM     22  C   UNL A   1      46.137  30.709  26.815  1.00  0.00     0.029 A 
ATOM     23  N   UNL A   1      45.887  32.417  28.233  1.00  0.00    -0.354 N 
ATOM     24  C   UNL A   1      42.198  32.651  30.650  1.00  0.00     0.074 A 
ATOM     25  C   UNL A   1      41.387  31.479  30.432  1.00  0.00     0.031 C 
ATOM     26  C   UNL A   1      47.292  31.394  26.822  1.00  0.00     0.029 A 
ATOM     27  C   UNL A   1      47.135  32.563  27.677  1.00  0.00     0.049 A 
ATOM     28  H   UNL A   1      45.528  33.021  28.924  1.00  0.00     0.167 HD
ATOM     29  C   UNL A   1      41.930  33.612  31.561  1.00  0.00     0.037 A 
ATOM     30  C   UNL A   1      48.018  33.570  27.812  1.00  0.00     0.037 A 
ATOM     31  C   UNL A   1      42.776  34.758  31.739  1.00  0.00     0.049 A 
ATOM     32  C   UNL A   1      47.626  34.702  28.726  1.00  0.00     0.074 A 
ATOM     33  C   UNL A   1      42.585  35.861  32.543  1.00  0.00     0.029 A 
ATOM     34  N   UNL A   1      43.994  34.933  31.089  1.00  0.00    -0.354 N 
ATOM     35  N   UNL A   1      46.555  34.820  29.478  1.00  0.00    -0.248 NA
ATOM     36  C   UNL A   1      48.545  35.842  28.802  1.00  0.00     0.031 C 
ATOM     37  C   UNL A   1      43.666  36.728  32.344  1.00  0.00     0.029 A 
ATOM     38  C   UNL A   1      44.562  36.134  31.464  1.00  0.00     0.049 A 
ATOM     39  H   UNL A   1      44.393  34.293  30.454  1.00  0.00     0.167 HD
ATOM     40  C   UNL A   1      46.681  36.035  30.136  1.00  0.00     0.074 A 
ATOM     41  C   UNL A   1      47.945  36.603  29.706  1.00  0.00     0.031 C 
ATOM     42  C   UNL A   1      45.836  36.638  31.011  1.00  0.00     0.037 A 
BRANCH  29  43
ATOM     43  C   UNL A   1      40.656  33.481  32.344  1.00  0.00     0.058 A 
ATOM     44  C   UNL A   1      39.448  34.047  31.908  1.00  0.00     0.135 A 
ATOM     45  C   UNL A   1      40.657  32.814  33.580  1.00  0.00     0.135 A 
ATOM     46  F   UNL A   1      39.400  34.737  30.757  1.00  0.00    -0.206 F 
ATOM     47  C   UNL A   1      38.290  33.973  32.678  1.00  0.00     0.059 A 
ATOM     48  C   UNL A   1      39.505  32.704  34.353  1.00  0.00     0.059 A 
ATOM     49  F   UNL A   1      41.790  32.277  34.058  1.00  0.00    -0.206 F 
ATOM     50  C   UNL A   1      38.329  33.297  33.898  1.00  0.00     0.060 A 
BRANCH  50  51
ATOM     51  S   UNL A   1      36.818  33.205  34.882  1.00  0.00     0.124 S 
ATOM     52  O   UNL A   1      37.270  32.447  36.044  1.00  0.00    -0.237 OA
ATOM     53  O   UNL A   1      36.519  34.614  35.122  1.00  0.00    -0.237 OA
ATOM     54  O   UNL A   1      35.883  32.509  34.004  1.00  0.00    -0.744 OA
ENDBRANCH  50  51
ENDBRANCH  29  43
BRANCH  30  55
ATOM     55  C   UNL A   1      49.276  33.597  27.017  1.00  0.00     0.058 A 
ATOM     56  C   UNL A   1      50.464  33.027  27.497  1.00  0.00     0.135 A 
ATOM     57  C   UNL A   1      49.325  34.225  25.759  1.00  0.00     0.135 A 
ATOM     58  F   UNL A   1      50.478  32.415  28.692  1.00  0.00    -0.206 F 
ATOM     59  C   UNL A   1      51.657  33.110  26.784  1.00  0.00     0.059 A 
ATOM     60  C   UNL A   1      50.494  34.290  25.011  1.00  0.00     0.059 A 
ATOM     61  F   UNL A   1      48.218  34.778  25.238  1.00  0.00    -0.206 F 
ATOM     62  C   UNL A   1      51.663  33.749  25.542  1.00  0.00     0.060 A 
BRANCH  62  63
ATOM     63  S   UNL A   1      53.215  33.858  24.626  1.00  0.00     0.124 S 
ATOM     64  O   UNL A   1      53.393  32.479  24.187  1.00  0.00    -0.237 OA
ATOM     65  O   UNL A   1      52.888  34.825  23.583  1.00  0.00    -0.237 OA
ATOM     66  O   UNL A   1      54.165  34.328  25.631  1.00  0.00    -0.744 OA
ENDBRANCH  62  63
ENDBRANCH  30  55
BRANCH  42  67
ATOM     67  C   UNL A   1      46.286  37.946  31.590  1.00  0.00     0.058 A 
ATOM     68  C   UNL A   1      47.008  38.013  32.791  1.00  0.00     0.135 A 
ATOM     69  C   UNL A   1      46.039  39.141  30.895  1.00  0.00     0.135 A 
ATOM     70  F   UNL A   1      47.260  36.896  33.492  1.00  0.00    -0.206 F 
ATOM     71  C   UNL A   1      47.447  39.227  33.298  1.00  0.00     0.059 A 
ATOM     72  C   UNL A   1      46.502  40.361  31.366  1.00  0.00     0.059 A 
ATOM     73  F   UNL A   1      45.364  39.122  29.734  1.00  0.00    -0.206 F 
ATOM     74  C   UNL A   1      47.193  40.396  32.575  1.00  0.00     0.060 A 
BRANCH  74  75
ATOM     75  S   UNL A   1      47.805  41.961  33.226  1.00  0.00     0.124 S 
ATOM     76  O   UNL A   1      47.042  42.082  34.464  1.00  0.00    -0.237 OA
ATOM     77  O   UNL A   1      49.232  41.696  33.384  1.00  0.00    -0.237 OA
ATOM     78  O   UNL A   1      47.464  42.921  32.180  1.00  0.00    -0.744 OA
ENDBRANCH  74  75
ENDBRANCH  42  67
ENDBRANCH  16  17
ENDBRANCH   9  11
ENDBRANCH   8   9
ENDBRANCH   7   8
ENDBRANCH   6   7
ENDBRANCH   5   6
ENDBRANCH   4   5
ENDBRANCH   3   4
ENDBRANCH   2   3
ENDBRANCH   1   2
BRANCH   1  79
ATOM     79  C   UNL A   1      44.628  21.519  24.206  1.00  0.00     0.188 C 
BRANCH  79  80
ATOM     80  O   UNL A   1      45.020  22.864  24.037  1.00  0.00    -0.376 OA
BRANCH  80  81
ATOM     81  C   UNL A   1      46.356  23.258  24.309  1.00  0.00     0.202 C 
BRANCH  81  82
ATOM     82  C   UNL A   1      46.766  24.110  25.531  1.00  0.00     0.261 C 
BRANCH  82  83
ATOM     83  O   UNL A   1      45.879  25.149  25.955  1.00  0.00    -0.459 OA
BRANCH  83  84
ATOM     84  C   UNL A   1      46.073  26.408  25.476  1.00  0.00     0.356 C 
ATOM     85  O   UNL A   1      45.221  27.134  25.022  1.00  0.00    -0.244 OA
BRANCH  84  86
ATOM     86  C   UNL A   1      47.426  26.799  25.805  1.00  0.00     0.152 A 
ATOM     87  N   UNL A   1      48.440  26.849  24.890  1.00  0.00    -0.271 N 
ATOM     88  C   UNL A   1      47.994  27.221  27.000  1.00  0.00     0.059 A 
ATOM     89  N   UNL A   1      49.545  27.472  25.345  1.00  0.00    -0.183 NA
ATOM     90  H   UNL A   1      48.370  26.467  23.985  1.00  0.00     0.190 HD
ATOM     91  C   UNL A   1      49.276  27.687  26.635  1.00  0.00     0.145 A 
BRANCH  88  92
ATOM     92  C   UNL A   1      47.409  27.112  28.366  1.00  0.00     0.303 C 
BRANCH  92  93
ATOM     93  N   UNL A   1      47.390  28.443  29.010  1.00  0.00    -0.331 N 
ATOM     94  C   UNL A   1      46.428  28.505  30.120  1.00  0.00     0.268 C 
ATOM     95  C   UNL A   1      48.724  28.858  29.461  1.00  0.00     0.268 C 
ATOM     96  H   UNL A   1      47.083  29.102  28.294  1.00  0.00     0.348 HD
ATOM     97  C   UNL A   1      46.287  29.890  30.696  1.00  0.00     0.126 C 
ATOM     98  C   UNL A   1      48.691  30.289  29.987  1.00  0.00     0.126 C 
ATOM     99  C   UNL A   1      47.655  30.454  31.115  1.00  0.00     0.195 C 
BRANCH  99 100
ATOM    100  N   UNL A   1      47.605  31.856  31.597  1.00  0.00    -0.331 N 
ATOM    101  C   UNL A   1      46.757  32.004  32.790  1.00  0.00     0.262 C 
ATOM    102  C   UNL A   1      48.966  32.357  31.873  1.00  0.00     0.275 C 
ATOM    103  H   UNL A   1      47.186  32.415  30.853  1.00  0.00     0.348 HD
ATOM    104  C   UNL A   1      46.646  33.467  33.190  1.00  0.00     0.062 C 
ATOM    105  C   UNL A   1      49.000  33.815  32.373  1.00  0.00     0.134 C 
ATOM    106  C   UNL A   1      48.023  34.019  33.535  1.00  0.00     0.025 C 
BRANCH 105 107
ATOM    107  C   UNL A   1      50.446  34.047  32.801  1.00  0.00     0.231 C 
ATOM    108  O   UNL A   1      51.119  33.148  33.307  1.00  0.00    -0.274 OA
ATOM    109  N   UNL A   1      51.020  35.238  32.414  1.00  0.00    -0.342 N 
ATOM    110  C   UNL A   1      50.382  36.526  32.234  1.00  0.00     0.119 C 
ATOM    111  C   UNL A   1      52.448  35.316  32.167  1.00  0.00     0.119 C 
ATOM    112  C   UNL A   1      51.305  37.251  31.274  1.00  0.00     0.023 C 
ATOM    113  C   UNL A   1      52.690  36.727  31.640  1.00  0.00     0.023 C 
ENDBRANCH 105 107
ENDBRANCH  99 100
ENDBRANCH  92  93
ENDBRANCH  88  92
ENDBRANCH  84  86
ENDBRANCH  83  84
ENDBRANCH  82  83
ENDBRANCH  81  82
ENDBRANCH  80  81
ENDBRANCH  79  80
ENDBRANCH   1  79
TORSDOF 27
ENDMDL
MODEL 3
REMARK VINA RESULT:      -6.8      7.942     15.475
REMARK SMILES O=C(OCCOCCOCCOCCOC(=O)c1[nH]ncc1C[NH+]1CCC([N@H+]2CCC[C@@H](C(=O)N3CCCC3)C2)CC1)c1ccc(-c2c3nc(c(-c4c(F)cc(S(=O)(=O)[O-])cc4F)c4ccc([nH]4)c(-c4c(F)cc(S(=O)(=O)[O-])cc4F)c4nc(c(-c5c(F)cc(S(=O)(=O)[O-])cc5F)c5ccc2[nH]5)C=C4)C=C3)cc1
REMARK SMILES IDX 10 1 9 2 8 3 7 4 6 5 5 6 4 7 3 8 2 9 1 10 43 11 44 12 108 13
REMARK SMILES IDX 45 14 107 15 46 16 47 17 48 18 101 19 49 20 106 21 100 22
REMARK SMILES IDX 102 23 50 24 105 25 99 26 98 27 51 29 85 30 64 31 84 32
REMARK SMILES IDX 65 33 68 34 83 35 103 36 66 37 67 38 82 40 104 41 69 42
REMARK SMILES IDX 52 43 53 44 62 45 54 46 55 47 61 48 63 49 56 50 57 51 58 52
REMARK SMILES IDX 59 53 60 54 86 55 87 56 96 57 88 58 89 59 95 60 97 61 90 62
REMARK SMILES IDX 91 63 92 64 93 65 94 66 70 67 71 68 80 69 72 70 73 71 79 72
REMARK SMILES IDX 81 73 74 74 75 75 76 76 77 77 78 78 11 79 12 80 13 81 14 82
REMARK SMILES IDX 15 83 16 84 17 85 18 86 19 87 22 88 20 89 21 91 23 92 24 93
REMARK SMILES IDX 25 94 42 95 26 97 41 98 27 99 28 100 29 101 40 102 30 104
REMARK SMILES IDX 32 105 31 106 33 107 34 108 35 109 36 110 39 111 37 112
REMARK SMILES IDX 38 113
REMARK H PARENT 102 28 68 39 19 90 24 96 28 103
REMARK Flexibility Score: inf
ROOT
ATOM      1  C   UNL A   1      51.624  42.510  30.706  1.00  0.00     0.188 C 
ENDROOT
BRANCH   1   2
ATOM      2  O   UNL A   1      52.255  42.384  29.437  1.00  0.00    -0.377 OA
BRANCH   2   3
ATOM      3  C   UNL A   1      51.776  41.317  28.621  1.00  0.00     0.188 C 
BRANCH   3   4
ATOM      4  C   UNL A   1      52.586  40.017  28.681  1.00  0.00     0.188 C 
BRANCH   4   5
ATOM      5  O   UNL A   1      51.731  38.882  28.780  1.00  0.00    -0.376 OA
BRANCH   5   6
ATOM      6  C   UNL A   1      50.481  38.905  28.093  1.00  0.00     0.202 C 
BRANCH   6   7
ATOM      7  C   UNL A   1      50.295  37.813  27.048  1.00  0.00     0.261 C 
BRANCH   7   8
ATOM      8  O   UNL A   1      50.094  36.509  27.607  1.00  0.00    -0.460 OA
BRANCH   8   9
ATOM      9  C   UNL A   1      49.155  36.105  28.498  1.00  0.00     0.338 C 
ATOM     10  O   UNL A   1      48.934  36.827  29.470  1.00  0.00    -0.246 OA
BRANCH   9  11
ATOM     11  C   UNL A   1      48.363  34.844  28.379  1.00  0.00     0.060 A 
ATOM     12  C   UNL A   1      47.919  34.061  29.442  1.00  0.00     0.016 A 
ATOM     13  C   UNL A   1      47.961  34.469  27.087  1.00  0.00     0.016 A 
ATOM     14  C   UNL A   1      47.181  32.911  29.256  1.00  0.00     0.010 A 
ATOM     15  C   UNL A   1      47.189  33.322  26.881  1.00  0.00     0.010 A 
ATOM     16  C   UNL A   1      46.831  32.525  27.972  1.00  0.00    -0.014 A 
BRANCH  16  17
ATOM     17  C   UNL A   1      46.299  31.164  27.832  1.00  0.00     0.031 A 
ATOM     18  C   UNL A   1      47.285  30.081  27.522  1.00  0.00     0.074 A 
ATOM     19  C   UNL A   1      45.030  30.905  28.193  1.00  0.00     0.049 A 
ATOM     20  N   UNL A   1      47.079  28.818  27.291  1.00  0.00    -0.248 NA
ATOM     21  C   UNL A   1      48.708  30.477  27.482  1.00  0.00     0.031 C 
ATOM     22  C   UNL A   1      44.074  31.898  28.697  1.00  0.00     0.029 A 
ATOM     23  N   UNL A   1      44.337  29.728  28.235  1.00  0.00    -0.354 N 
ATOM     24  C   UNL A   1      48.335  28.277  27.047  1.00  0.00     0.074 A 
ATOM     25  C   UNL A   1      49.299  29.345  27.141  1.00  0.00     0.031 C 
ATOM     26  C   UNL A   1      42.919  31.283  29.002  1.00  0.00     0.029 A 
ATOM     27  C   UNL A   1      43.031  29.877  28.635  1.00  0.00     0.049 A 
ATOM     28  H   UNL A   1      44.736  28.858  28.001  1.00  0.00     0.167 HD
ATOM     29  C   UNL A   1      48.639  26.992  26.765  1.00  0.00     0.037 A 
ATOM     30  C   UNL A   1      42.032  28.975  28.642  1.00  0.00     0.037 A 
ATOM     31  C   UNL A   1      47.638  25.966  26.688  1.00  0.00     0.049 A 
ATOM     32  C   UNL A   1      42.368  27.581  28.183  1.00  0.00     0.074 A 
ATOM     33  C   UNL A   1      47.775  24.645  26.314  1.00  0.00     0.029 A 
ATOM     34  N   UNL A   1      46.297  26.163  27.004  1.00  0.00    -0.354 N 
ATOM     35  N   UNL A   1      43.536  27.089  27.833  1.00  0.00    -0.248 NA
ATOM     36  C   UNL A   1      41.262  26.622  28.102  1.00  0.00     0.031 C 
ATOM     37  C   UNL A   1      46.507  24.055  26.358  1.00  0.00     0.029 A 
ATOM     38  C   UNL A   1      45.591  24.991  26.821  1.00  0.00     0.049 A 
ATOM     39  H   UNL A   1      45.909  27.014  27.312  1.00  0.00     0.167 HD
ATOM     40  C   UNL A   1      43.311  25.757  27.514  1.00  0.00     0.074 A 
ATOM     41  C   UNL A   1      41.896  25.518  27.733  1.00  0.00     0.031 C 
ATOM     42  C   UNL A   1      44.181  24.812  27.074  1.00  0.00     0.037 A 
BRANCH  29  43
ATOM     43  C   UNL A   1      50.073  26.676  26.457  1.00  0.00     0.058 A 
ATOM     44  C   UNL A   1      50.593  26.752  25.154  1.00  0.00     0.135 A 
ATOM     45  C   UNL A   1      50.934  26.243  27.479  1.00  0.00     0.135 A 
ATOM     46  F   UNL A   1      49.803  27.114  24.130  1.00  0.00    -0.206 F 
ATOM     47  C   UNL A   1      51.908  26.392  24.874  1.00  0.00     0.059 A 
ATOM     48  C   UNL A   1      52.260  25.904  27.226  1.00  0.00     0.059 A 
ATOM     49  F   UNL A   1      50.483  26.126  28.738  1.00  0.00    -0.206 F 
ATOM     50  C   UNL A   1      52.734  25.972  25.917  1.00  0.00     0.060 A 
BRANCH  50  51
ATOM     51  S   UNL A   1      54.439  25.515  25.537  1.00  0.00     0.124 S 
ATOM     52  O   UNL A   1      54.277  24.142  25.068  1.00  0.00    -0.237 OA
ATOM     53  O   UNL A   1      54.801  26.494  24.516  1.00  0.00    -0.237 OA
ATOM     54  O   UNL A   1      55.125  25.663  26.816  1.00  0.00    -0.744 OA
ENDBRANCH  50  51
ENDBRANCH  29  43
BRANCH  30  55
ATOM     55  C   UNL A   1      40.643  29.375  28.998  1.00  0.00     0.058 A 
ATOM     56  C   UNL A   1      40.247  29.559  30.331  1.00  0.00     0.135 A 
ATOM     57  C   UNL A   1      39.663  29.553  28.005  1.00  0.00     0.135 A 
ATOM     58  F   UNL A   1      41.139  29.402  31.322  1.00  0.00    -0.206 F 
ATOM     59  C   UNL A   1      38.932  29.868  30.669  1.00  0.00     0.059 A 
ATOM     60  C   UNL A   1      38.351  29.896  28.314  1.00  0.00     0.059 A 
ATOM     61  F   UNL A   1      39.981  29.403  26.709  1.00  0.00    -0.206 F 
ATOM     62  C   UNL A   1      37.989  30.029  29.652  1.00  0.00     0.060 A 
BRANCH  62  63
ATOM     63  S   UNL A   1      36.285  30.422  30.099  1.00  0.00     0.124 S 
ATOM     64  O   UNL A   1      35.598  30.236  28.826  1.00  0.00    -0.237 OA
ATOM     65  O   UNL A   1      36.002  29.430  31.130  1.00  0.00    -0.237 OA
ATOM     66  O   UNL A   1      36.372  31.801  30.574  1.00  0.00    -0.744 OA
ENDBRANCH  62  63
ENDBRANCH  30  55
BRANCH  42  67
ATOM     67  C   UNL A   1      43.628  23.436  26.858  1.00  0.00     0.058 A 
ATOM     68  C   UNL A   1      43.398  22.925  25.572  1.00  0.00     0.135 A 
ATOM     69  C   UNL A   1      43.383  22.599  27.959  1.00  0.00     0.135 A 
ATOM     70  F   UNL A   1      43.612  23.693  24.492  1.00  0.00    -0.206 F 
ATOM     71  C   UNL A   1      42.917  21.637  25.386  1.00  0.00     0.059 A 
ATOM     72  C   UNL A   1      42.936  21.296  27.793  1.00  0.00     0.059 A 
ATOM     73  F   UNL A   1      43.602  23.042  29.208  1.00  0.00    -0.206 F 
ATOM     74  C   UNL A   1      42.693  20.829  26.503  1.00  0.00     0.060 A 
BRANCH  74  75
ATOM     75  S   UNL A   1      42.107  19.144  26.243  1.00  0.00     0.124 S 
ATOM     76  O   UNL A   1      40.703  19.370  25.918  1.00  0.00    -0.237 OA
ATOM     77  O   UNL A   1      42.948  18.689  25.141  1.00  0.00    -0.237 OA
ATOM     78  O   UNL A   1      42.358  18.495  27.527  1.00  0.00    -0.744 OA
ENDBRANCH  74  75
ENDBRANCH  42  67
ENDBRANCH  16  17
ENDBRANCH   9  11
ENDBRANCH   8   9
ENDBRANCH   7   8
ENDBRANCH   6   7
ENDBRANCH   5   6
ENDBRANCH   4   5
ENDBRANCH   3   4
ENDBRANCH   2   3
ENDBRANCH   1   2
BRANCH   1  79
ATOM     79  C   UNL A   1      50.398  43.449  30.840  1.00  0.00     0.188 C 
BRANCH  79  80
ATOM     80  O   UNL A   1      49.645  43.574  29.653  1.00  0.00    -0.376 OA
BRANCH  80  81
ATOM     81  C   UNL A   1      48.244  43.353  29.669  1.00  0.00     0.202 C 
BRANCH  81  82
ATOM     82  C   UNL A   1      47.584  42.002  29.315  1.00  0.00     0.261 C 
BRANCH  82  83
ATOM     83  O   UNL A   1      46.169  41.976  29.116  1.00  0.00    -0.459 OA
BRANCH  83  84
ATOM     84  C   UNL A   1      45.683  41.466  27.952  1.00  0.00     0.356 C 
ATOM     85  O   UNL A   1      46.313  41.286  26.937  1.00  0.00    -0.244 OA
BRANCH  84  86
ATOM     86  C   UNL A   1      44.346  40.979  28.211  1.00  0.00     0.152 A 
ATOM     87  N   UNL A   1      43.252  41.353  27.480  1.00  0.00    -0.271 N 
ATOM     88  C   UNL A   1      43.866  40.068  29.142  1.00  0.00     0.059 A 
ATOM     89  N   UNL A   1      42.161  40.601  27.722  1.00  0.00    -0.183 NA
ATOM     90  H   UNL A   1      43.261  42.101  26.840  1.00  0.00     0.190 HD
ATOM     91  C   UNL A   1      42.533  39.826  28.744  1.00  0.00     0.145 A 
BRANCH  88  92
ATOM     92  C   UNL A   1      44.575  39.546  30.344  1.00  0.00     0.303 C 
BRANCH  92  93
ATOM     93  N   UNL A   1      44.261  38.113  30.529  1.00  0.00    -0.331 N 
ATOM     94  C   UNL A   1      45.246  37.243  29.872  1.00  0.00     0.268 C 
ATOM     95  C   UNL A   1      44.123  37.756  31.947  1.00  0.00     0.268 C 
ATOM     96  H   UNL A   1      43.358  37.960  30.078  1.00  0.00     0.348 HD
ATOM     97  C   UNL A   1      44.866  35.785  29.924  1.00  0.00     0.126 C 
ATOM     98  C   UNL A   1      43.658  36.311  32.093  1.00  0.00     0.126 C 
ATOM     99  C   UNL A   1      44.606  35.336  31.371  1.00  0.00     0.195 C 
BRANCH  99 100
ATOM    100  N   UNL A   1      44.128  33.937  31.489  1.00  0.00    -0.331 N 
ATOM    101  C   UNL A   1      45.009  33.117  32.335  1.00  0.00     0.262 C 
ATOM    102  C   UNL A   1      42.747  33.904  32.009  1.00  0.00     0.275 C 
ATOM    103  H   UNL A   1      44.144  33.534  30.551  1.00  0.00     0.348 HD
ATOM    104  C   UNL A   1      44.546  31.669  32.346  1.00  0.00     0.062 C 
ATOM    105  C   UNL A   1      42.173  32.481  32.154  1.00  0.00     0.134 C 
ATOM    106  C   UNL A   1      43.139  31.575  32.923  1.00  0.00     0.025 C 
BRANCH 105 107
ATOM    107  C   UNL A   1      40.855  32.666  32.900  1.00  0.00     0.231 C 
ATOM    108  O   UNL A   1      40.766  32.455  34.110  1.00  0.00    -0.274 OA
ATOM    109  N   UNL A   1      39.830  33.266  32.202  1.00  0.00    -0.342 N 
ATOM    110  C   UNL A   1      39.549  33.197  30.783  1.00  0.00     0.119 C 
ATOM    111  C   UNL A   1      38.836  34.060  32.900  1.00  0.00     0.119 C 
ATOM    112  C   UNL A   1      38.745  34.455  30.515  1.00  0.00     0.023 C 
ATOM    113  C   UNL A   1      37.958  34.661  31.806  1.00  0.00     0.023 C 
ENDBRANCH 105 107
ENDBRANCH  99 100
ENDBRANCH  92  93
ENDBRANCH  88  92
ENDBRANCH  84  86
ENDBRANCH  83  84
ENDBRANCH  82  83
ENDBRANCH  81  82
ENDBRANCH  80  81
ENDBRANCH  79  80
ENDBRANCH   1  79
TORSDOF 27
ENDMDL
