MODEL 1
REMARK VINA RESULT:      -8.9      0.000      0.000
REMARK SMILES C[C@@H](C(=O)OCCOCCOCCOCCOC(=O)c1ccc(-c2c3nc(c(-c4c(F)cc(S(=O)(=O)[O-])cc4F)c4ccc([nH]4)c(-c4c(F)cc(S(=O)(=O)[O-])cc4F)c4nc(c(-c5c(F)cc(S(=O)(=O)[O-])cc5F)c5ccc2[nH]5)C=C4)C=C3)cc1)c1ccc(C[C@H]2CCCC2=O)cc1Br
REMARK SMILES IDX 11 1 10 2 9 3 8 4 7 5 6 6 5 7 3 8 4 9 2 10 1 11 86 12 87 13
REMARK SMILES IDX 98 14 88 15 97 16 99 17 89 18 90 19 91 20 92 21 95 22 93 23
REMARK SMILES IDX 94 24 96 25 12 26 13 27 14 28 15 29 16 30 17 31 18 32 19 33
REMARK SMILES IDX 20 34 21 35 85 36 22 37 84 38 23 39 24 40 25 41 78 42 26 43
REMARK SMILES IDX 83 44 77 45 79 46 27 47 82 48 76 49 75 50 28 52 62 53 41 54
REMARK SMILES IDX 61 55 42 56 45 57 60 58 80 59 43 60 44 61 59 63 81 64 46 65
REMARK SMILES IDX 29 66 30 67 39 68 31 69 32 70 38 71 40 72 33 73 34 74 35 75
REMARK SMILES IDX 36 76 37 77 63 78 64 79 73 80 65 81 66 82 72 83 74 84 67 85
REMARK SMILES IDX 68 86 69 87 70 88 71 89 47 90 48 91 57 92 49 93 50 94 56 95
REMARK SMILES IDX 58 96 51 97 52 98 53 99 54 100 55 101
REMARK H PARENT 79 51 45 62
REMARK Flexibility Score: inf
ROOT
ATOM      1  O   UNL A   1      34.812  34.160  28.903  1.00  0.00    -0.377 OA
ENDROOT
BRANCH   1   2
ATOM      2  C   UNL A   1      36.147  33.735  28.773  1.00  0.00     0.188 C 
BRANCH   2   3
ATOM      3  C   UNL A   1      36.411  32.270  29.183  1.00  0.00     0.188 C 
BRANCH   3   4
ATOM      4  O   UNL A   1      35.502  31.251  28.794  1.00  0.00    -0.376 OA
BRANCH   4   5
ATOM      5  C   UNL A   1      35.815  30.428  27.680  1.00  0.00     0.202 C 
BRANCH   5   6
ATOM      6  C   UNL A   1      34.851  29.314  27.215  1.00  0.00     0.261 C 
BRANCH   6   7
ATOM      7  O   UNL A   1      33.723  29.688  26.391  1.00  0.00    -0.463 OA
BRANCH   7   8
ATOM      8  C   UNL A   1      33.257  28.758  25.516  1.00  0.00     0.313 C 
ATOM      9  O   UNL A   1      33.746  28.573  24.405  1.00  0.00    -0.252 OA
BRANCH   8  10
ATOM     10  C   UNL A   1      32.020  27.969  26.019  1.00  0.00     0.127 C 
ATOM     11  C   UNL A   1      31.496  28.192  27.440  1.00  0.00     0.025 C 
BRANCH  10  12
ATOM     12  C   UNL A   1      32.063  26.506  25.546  1.00  0.00    -0.020 A 
ATOM     13  C   UNL A   1      32.746  25.606  26.390  1.00  0.00     0.006 A 
ATOM     14  C   UNL A   1      31.395  25.940  24.443  1.00  0.00     0.022 A 
ATOM     15  C   UNL A   1      32.743  24.228  26.159  1.00  0.00     0.004 A 
ATOM     16  C   UNL A   1      31.248  24.553  24.321  1.00  0.00     0.019 A 
ATOM     17  Br  UNL A   1      30.968  26.811  22.813  1.00  0.00    -0.050 Br
ATOM     18  C   UNL A   1      31.981  23.690  25.125  1.00  0.00    -0.046 A 
BRANCH  18  19
ATOM     19  C   UNL A   1      32.076  22.239  24.739  1.00  0.00     0.047 C 
BRANCH  19  20
ATOM     20  C   UNL A   1      33.157  21.946  23.687  1.00  0.00     0.060 C 
ATOM     21  C   UNL A   1      33.658  23.120  22.833  1.00  0.00     0.012 C 
ATOM     22  C   UNL A   1      34.435  21.457  24.328  1.00  0.00     0.136 C 
ATOM     23  C   UNL A   1      34.966  23.604  23.453  1.00  0.00     0.009 C 
ATOM     24  C   UNL A   1      35.598  22.390  24.116  1.00  0.00     0.076 C 
ATOM     25  O   UNL A   1      34.521  20.403  24.949  1.00  0.00    -0.299 OA
ENDBRANCH  19  20
ENDBRANCH  18  19
ENDBRANCH  10  12
ENDBRANCH   8  10
ENDBRANCH   7   8
ENDBRANCH   6   7
ENDBRANCH   5   6
ENDBRANCH   4   5
ENDBRANCH   3   4
ENDBRANCH   2   3
ENDBRANCH   1   2
BRANCH   1  26
ATOM     26  C   UNL A   1      34.365  35.044  27.891  1.00  0.00     0.188 C 
BRANCH  26  27
ATOM     27  C   UNL A   1      34.044  36.495  28.310  1.00  0.00     0.188 C 
BRANCH  27  28
ATOM     28  O   UNL A   1      32.868  36.642  29.106  1.00  0.00    -0.376 OA
BRANCH  28  29
ATOM     29  C   UNL A   1      33.004  36.853  30.504  1.00  0.00     0.202 C 
BRANCH  29  30
ATOM     30  C   UNL A   1      32.692  35.658  31.419  1.00  0.00     0.261 C 
BRANCH  30  31
ATOM     31  O   UNL A   1      32.767  35.913  32.828  1.00  0.00    -0.460 OA
BRANCH  31  32
ATOM     32  C   UNL A   1      33.885  36.524  33.290  1.00  0.00     0.338 C 
ATOM     33  O   UNL A   1      33.978  37.646  33.727  1.00  0.00    -0.246 OA
BRANCH  32  34
ATOM     34  C   UNL A   1      34.940  35.489  33.377  1.00  0.00     0.060 A 
ATOM     35  C   UNL A   1      34.841  34.517  34.380  1.00  0.00     0.016 A 
ATOM     36  C   UNL A   1      35.987  35.459  32.455  1.00  0.00     0.016 A 
ATOM     37  C   UNL A   1      35.809  33.520  34.480  1.00  0.00     0.010 A 
ATOM     38  C   UNL A   1      36.975  34.482  32.576  1.00  0.00     0.010 A 
ATOM     39  C   UNL A   1      36.906  33.531  33.610  1.00  0.00    -0.014 A 
BRANCH  39  40
ATOM     40  C   UNL A   1      38.091  32.705  33.935  1.00  0.00     0.031 A 
ATOM     41  C   UNL A   1      38.854  33.042  35.186  1.00  0.00     0.074 A 
ATOM     42  C   UNL A   1      38.462  31.672  33.159  1.00  0.00     0.049 A 
ATOM     43  N   UNL A   1      39.944  32.505  35.664  1.00  0.00    -0.248 NA
ATOM     44  C   UNL A   1      38.311  34.138  36.007  1.00  0.00     0.031 C 
ATOM     45  C   UNL A   1      37.766  31.223  31.955  1.00  0.00     0.029 A 
ATOM     46  N   UNL A   1      39.528  30.815  33.274  1.00  0.00    -0.354 N 
ATOM     47  C   UNL A   1      40.223  33.204  36.833  1.00  0.00     0.074 A 
ATOM     48  C   UNL A   1      39.206  34.220  36.978  1.00  0.00     0.031 C 
ATOM     49  C   UNL A   1      38.432  30.178  31.431  1.00  0.00     0.029 A 
ATOM     50  C   UNL A   1      39.618  29.908  32.244  1.00  0.00     0.049 A 
ATOM     51  H   UNL A   1      40.167  30.847  34.021  1.00  0.00     0.167 HD
ATOM     52  C   UNL A   1      41.237  33.010  37.709  1.00  0.00     0.037 A 
ATOM     53  C   UNL A   1      40.566  28.985  31.982  1.00  0.00     0.037 A 
ATOM     54  C   UNL A   1      42.245  31.996  37.552  1.00  0.00     0.049 A 
ATOM     55  C   UNL A   1      41.728  28.838  32.932  1.00  0.00     0.074 A 
ATOM     56  C   UNL A   1      43.305  31.702  38.388  1.00  0.00     0.029 A 
ATOM     57  N   UNL A   1      42.324  31.120  36.478  1.00  0.00    -0.354 N 
ATOM     58  N   UNL A   1      41.972  29.488  34.047  1.00  0.00    -0.248 NA
ATOM     59  C   UNL A   1      42.744  27.833  32.591  1.00  0.00     0.031 C 
ATOM     60  C   UNL A   1      44.062  30.689  37.791  1.00  0.00     0.029 A 
ATOM     61  C   UNL A   1      43.434  30.305  36.615  1.00  0.00     0.049 A 
ATOM     62  H   UNL A   1      41.685  31.082  35.731  1.00  0.00     0.167 HD
ATOM     63  C   UNL A   1      43.149  28.945  34.557  1.00  0.00     0.074 A 
ATOM     64  C   UNL A   1      43.562  27.910  33.633  1.00  0.00     0.031 C 
ATOM     65  C   UNL A   1      43.824  29.271  35.688  1.00  0.00     0.037 A 
BRANCH  52  66
ATOM     66  C   UNL A   1      41.326  33.938  38.889  1.00  0.00     0.058 A 
ATOM     67  C   UNL A   1      40.699  33.650  40.113  1.00  0.00     0.135 A 
ATOM     68  C   UNL A   1      42.071  35.124  38.799  1.00  0.00     0.135 A 
ATOM     69  F   UNL A   1      39.953  32.542  40.247  1.00  0.00    -0.206 F 
ATOM     70  C   UNL A   1      40.790  34.517  41.198  1.00  0.00     0.059 A 
ATOM     71  C   UNL A   1      42.201  35.990  39.880  1.00  0.00     0.059 A 
ATOM     72  F   UNL A   1      42.683  35.453  37.651  1.00  0.00    -0.206 F 
ATOM     73  C   UNL A   1      41.546  35.684  41.071  1.00  0.00     0.060 A 
BRANCH  73  74
ATOM     74  S   UNL A   1      41.663  36.793  42.491  1.00  0.00     0.124 S 
ATOM     75  O   UNL A   1      42.012  38.056  41.846  1.00  0.00    -0.237 OA
ATOM     76  O   UNL A   1      40.319  36.719  43.053  1.00  0.00    -0.237 OA
ATOM     77  O   UNL A   1      42.715  36.193  43.306  1.00  0.00    -0.744 OA
ENDBRANCH  73  74
ENDBRANCH  52  66
BRANCH  53  78
ATOM     78  C   UNL A   1      40.464  28.133  30.766  1.00  0.00     0.058 A 
ATOM     79  C   UNL A   1      41.338  28.307  29.682  1.00  0.00     0.135 A 
ATOM     80  C   UNL A   1      39.484  27.133  30.657  1.00  0.00     0.135 A 
ATOM     81  F   UNL A   1      42.283  29.259  29.729  1.00  0.00    -0.206 F 
ATOM     82  C   UNL A   1      41.236  27.532  28.530  1.00  0.00     0.059 A 
ATOM     83  C   UNL A   1      39.382  26.326  29.529  1.00  0.00     0.059 A 
ATOM     84  F   UNL A   1      38.626  26.920  31.667  1.00  0.00    -0.206 F 
ATOM     85  C   UNL A   1      40.257  26.540  28.466  1.00  0.00     0.060 A 
BRANCH  85  86
ATOM     86  S   UNL A   1      40.167  25.509  26.985  1.00  0.00     0.124 S 
ATOM     87  O   UNL A   1      38.752  25.160  26.954  1.00  0.00    -0.237 OA
ATOM     88  O   UNL A   1      40.624  26.427  25.948  1.00  0.00    -0.237 OA
ATOM     89  O   UNL A   1      41.082  24.411  27.286  1.00  0.00    -0.744 OA
ENDBRANCH  85  86
ENDBRANCH  53  78
BRANCH  65  90
ATOM     90  C   UNL A   1      45.057  28.471  36.019  1.00  0.00     0.058 A 
ATOM     91  C   UNL A   1      44.997  27.293  36.778  1.00  0.00     0.135 A 
ATOM     92  C   UNL A   1      46.308  28.860  35.513  1.00  0.00     0.135 A 
ATOM     93  F   UNL A   1      43.828  26.877  37.291  1.00  0.00    -0.206 F 
ATOM     94  C   UNL A   1      46.138  26.542  37.046  1.00  0.00     0.059 A 
ATOM     95  C   UNL A   1      47.456  28.108  35.739  1.00  0.00     0.059 A 
ATOM     96  F   UNL A   1      46.421  29.972  34.768  1.00  0.00    -0.206 F 
ATOM     97  C   UNL A   1      47.363  26.956  36.518  1.00  0.00     0.060 A 
BRANCH  97  98
ATOM     98  S   UNL A   1      48.828  25.954  36.843  1.00  0.00     0.124 S 
ATOM     99  O   UNL A   1      48.324  25.007  37.833  1.00  0.00    -0.237 OA
ATOM    100  O   UNL A   1      49.123  25.396  35.526  1.00  0.00    -0.237 OA
ATOM    101  O   UNL A   1      49.801  26.923  37.339  1.00  0.00    -0.744 OA
ENDBRANCH  97  98
ENDBRANCH  65  90
ENDBRANCH  39  40
ENDBRANCH  32  34
ENDBRANCH  31  32
ENDBRANCH  30  31
ENDBRANCH  29  30
ENDBRANCH  28  29
ENDBRANCH  27  28
ENDBRANCH  26  27
ENDBRANCH   1  26
TORSDOF 26
ENDMDL
MODEL 2
REMARK VINA RESULT:      -8.5      2.305      8.785
REMARK SMILES C[C@@H](C(=O)OCCOCCOCCOCCOC(=O)c1ccc(-c2c3nc(c(-c4c(F)cc(S(=O)(=O)[O-])cc4F)c4ccc([nH]4)c(-c4c(F)cc(S(=O)(=O)[O-])cc4F)c4nc(c(-c5c(F)cc(S(=O)(=O)[O-])cc5F)c5ccc2[nH]5)C=C4)C=C3)cc1)c1ccc(C[C@H]2CCCC2=O)cc1Br
REMARK SMILES IDX 11 1 10 2 9 3 8 4 7 5 6 6 5 7 3 8 4 9 2 10 1 11 86 12 87 13
REMARK SMILES IDX 98 14 88 15 97 16 99 17 89 18 90 19 91 20 92 21 95 22 93 23
REMARK SMILES IDX 94 24 96 25 12 26 13 27 14 28 15 29 16 30 17 31 18 32 19 33
REMARK SMILES IDX 20 34 21 35 85 36 22 37 84 38 23 39 24 40 25 41 78 42 26 43
REMARK SMILES IDX 83 44 77 45 79 46 27 47 82 48 76 49 75 50 28 52 62 53 41 54
REMARK SMILES IDX 61 55 42 56 45 57 60 58 80 59 43 60 44 61 59 63 81 64 46 65
REMARK SMILES IDX 29 66 30 67 39 68 31 69 32 70 38 71 40 72 33 73 34 74 35 75
REMARK SMILES IDX 36 76 37 77 63 78 64 79 73 80 65 81 66 82 72 83 74 84 67 85
REMARK SMILES IDX 68 86 69 87 70 88 71 89 47 90 48 91 57 92 49 93 50 94 56 95
REMARK SMILES IDX 58 96 51 97 52 98 53 99 54 100 55 101
REMARK H PARENT 79 51 45 62
REMARK Flexibility Score: inf
ROOT
ATOM      1  O   UNL A   1      33.639  27.129  26.486  1.00  0.00    -0.377 OA
ENDROOT
BRANCH   1   2
ATOM      2  C   UNL A   1      34.109  26.801  25.201  1.00  0.00     0.188 C 
BRANCH   2   3
ATOM      3  C   UNL A   1      33.754  27.817  24.094  1.00  0.00     0.188 C 
BRANCH   3   4
ATOM      4  O   UNL A   1      32.747  27.506  23.144  1.00  0.00    -0.376 OA
BRANCH   4   5
ATOM      5  C   UNL A   1      33.019  26.547  22.132  1.00  0.00     0.202 C 
BRANCH   5   6
ATOM      6  C   UNL A   1      31.876  25.777  21.434  1.00  0.00     0.261 C 
BRANCH   6   7
ATOM      7  O   UNL A   1      31.117  24.827  22.215  1.00  0.00    -0.463 OA
BRANCH   7   8
ATOM      8  C   UNL A   1      31.746  24.247  23.271  1.00  0.00     0.313 C 
ATOM      9  O   UNL A   1      31.600  24.621  24.432  1.00  0.00    -0.252 OA
BRANCH   8  10
ATOM     10  C   UNL A   1      32.706  23.091  22.887  1.00  0.00     0.127 C 
ATOM     11  C   UNL A   1      32.141  21.775  22.346  1.00  0.00     0.025 C 
BRANCH  10  12
ATOM     12  C   UNL A   1      33.851  22.957  23.906  1.00  0.00    -0.020 A 
ATOM     13  C   UNL A   1      34.998  23.738  23.649  1.00  0.00     0.006 A 
ATOM     14  C   UNL A   1      33.840  22.251  25.123  1.00  0.00     0.022 A 
ATOM     15  C   UNL A   1      36.053  23.824  24.560  1.00  0.00     0.004 A 
ATOM     16  C   UNL A   1      34.812  22.482  26.103  1.00  0.00     0.019 A 
ATOM     17  Br  UNL A   1      32.863  20.670  25.503  1.00  0.00    -0.050 Br
ATOM     18  C   UNL A   1      35.961  23.203  25.803  1.00  0.00    -0.046 A 
BRANCH  18  19
ATOM     19  C   UNL A   1      37.132  23.133  26.746  1.00  0.00     0.047 C 
BRANCH  19  20
ATOM     20  C   UNL A   1      38.492  23.026  26.037  1.00  0.00     0.060 C 
ATOM     21  C   UNL A   1      39.708  23.658  26.729  1.00  0.00     0.012 C 
ATOM     22  C   UNL A   1      38.928  21.586  25.890  1.00  0.00     0.136 C 
ATOM     23  C   UNL A   1      40.452  22.536  27.449  1.00  0.00     0.009 C 
ATOM     24  C   UNL A   1      40.188  21.269  26.651  1.00  0.00     0.076 C 
ATOM     25  O   UNL A   1      38.324  20.762  25.212  1.00  0.00    -0.299 OA
ENDBRANCH  19  20
ENDBRANCH  18  19
ENDBRANCH  10  12
ENDBRANCH   8  10
ENDBRANCH   7   8
ENDBRANCH   6   7
ENDBRANCH   5   6
ENDBRANCH   4   5
ENDBRANCH   3   4
ENDBRANCH   2   3
ENDBRANCH   1   2
BRANCH   1  26
ATOM     26  C   UNL A   1      33.724  28.503  26.822  1.00  0.00     0.188 C 
BRANCH  26  27
ATOM     27  C   UNL A   1      32.404  29.235  27.144  1.00  0.00     0.188 C 
BRANCH  27  28
ATOM     28  O   UNL A   1      32.560  30.587  27.577  1.00  0.00    -0.376 OA
BRANCH  28  29
ATOM     29  C   UNL A   1      32.019  31.633  26.782  1.00  0.00     0.202 C 
BRANCH  29  30
ATOM     30  C   UNL A   1      32.362  33.070  27.203  1.00  0.00     0.261 C 
BRANCH  30  31
ATOM     31  O   UNL A   1      33.339  33.200  28.244  1.00  0.00    -0.460 OA
BRANCH  31  32
ATOM     32  C   UNL A   1      34.483  33.862  27.943  1.00  0.00     0.338 C 
ATOM     33  O   UNL A   1      34.640  34.703  27.091  1.00  0.00    -0.246 OA
BRANCH  32  34
ATOM     34  C   UNL A   1      35.464  33.533  29.001  1.00  0.00     0.060 A 
ATOM     35  C   UNL A   1      36.663  34.256  29.050  1.00  0.00     0.016 A 
ATOM     36  C   UNL A   1      35.184  32.553  29.955  1.00  0.00     0.016 A 
ATOM     37  C   UNL A   1      37.600  33.983  30.042  1.00  0.00     0.010 A 
ATOM     38  C   UNL A   1      36.138  32.254  30.927  1.00  0.00     0.010 A 
ATOM     39  C   UNL A   1      37.363  32.946  30.952  1.00  0.00    -0.014 A 
BRANCH  39  40
ATOM     40  C   UNL A   1      38.487  32.427  31.765  1.00  0.00     0.031 A 
ATOM     41  C   UNL A   1      39.391  31.405  31.132  1.00  0.00     0.074 A 
ATOM     42  C   UNL A   1      38.715  32.870  33.013  1.00  0.00     0.049 A 
ATOM     43  N   UNL A   1      40.409  30.767  31.643  1.00  0.00    -0.248 NA
ATOM     44  C   UNL A   1      39.100  31.054  29.731  1.00  0.00     0.031 C 
ATOM     45  C   UNL A   1      37.937  33.896  33.704  1.00  0.00     0.029 A 
ATOM     46  N   UNL A   1      39.674  32.502  33.923  1.00  0.00    -0.354 N 
ATOM     47  C   UNL A   1      40.873  29.933  30.632  1.00  0.00     0.074 A 
ATOM     48  C   UNL A   1      40.011  30.125  29.489  1.00  0.00     0.031 C 
ATOM     49  C   UNL A   1      38.443  34.067  34.940  1.00  0.00     0.029 A 
ATOM     50  C   UNL A   1      39.556  33.139  35.136  1.00  0.00     0.049 A 
ATOM     51  H   UNL A   1      40.379  31.844  33.727  1.00  0.00     0.167 HD
ATOM     52  C   UNL A   1      41.929  29.087  30.657  1.00  0.00     0.037 A 
ATOM     53  C   UNL A   1      40.256  32.969  36.276  1.00  0.00     0.037 A 
ATOM     54  C   UNL A   1      42.778  28.904  31.803  1.00  0.00     0.049 A 
ATOM     55  C   UNL A   1      41.380  31.964  36.303  1.00  0.00     0.074 A 
ATOM     56  C   UNL A   1      43.885  28.085  31.930  1.00  0.00     0.029 A 
ATOM     57  N   UNL A   1      42.606  29.539  33.025  1.00  0.00    -0.354 N 
ATOM     58  N   UNL A   1      41.826  31.196  35.336  1.00  0.00    -0.248 NA
ATOM     59  C   UNL A   1      42.097  31.801  37.575  1.00  0.00     0.031 C 
ATOM     60  C   UNL A   1      44.346  28.178  33.247  1.00  0.00     0.029 A 
ATOM     61  C   UNL A   1      43.568  29.107  33.921  1.00  0.00     0.049 A 
ATOM     62  H   UNL A   1      41.905  30.200  33.224  1.00  0.00     0.167 HD
ATOM     63  C   UNL A   1      42.897  30.487  35.874  1.00  0.00     0.074 A 
ATOM     64  C   UNL A   1      43.036  30.924  37.248  1.00  0.00     0.031 C 
ATOM     65  C   UNL A   1      43.697  29.562  35.284  1.00  0.00     0.037 A 
BRANCH  52  66
ATOM     66  C   UNL A   1      42.196  28.268  29.424  1.00  0.00     0.058 A 
ATOM     67  C   UNL A   1      43.256  28.560  28.550  1.00  0.00     0.135 A 
ATOM     68  C   UNL A   1      41.388  27.159  29.125  1.00  0.00     0.135 A 
ATOM     69  F   UNL A   1      44.044  29.624  28.774  1.00  0.00    -0.206 F 
ATOM     70  C   UNL A   1      43.492  27.795  27.412  1.00  0.00     0.059 A 
ATOM     71  C   UNL A   1      41.625  26.362  28.010  1.00  0.00     0.059 A 
ATOM     72  F   UNL A   1      40.356  26.840  29.920  1.00  0.00    -0.206 F 
ATOM     73  C   UNL A   1      42.672  26.696  27.153  1.00  0.00     0.060 A 
BRANCH  73  74
ATOM     74  S   UNL A   1      42.998  25.706  25.679  1.00  0.00     0.124 S 
ATOM     75  O   UNL A   1      44.123  26.427  25.087  1.00  0.00    -0.237 OA
ATOM     76  O   UNL A   1      43.312  24.399  26.246  1.00  0.00    -0.237 OA
ATOM     77  O   UNL A   1      41.745  25.780  24.934  1.00  0.00    -0.744 OA
ENDBRANCH  73  74
ENDBRANCH  52  66
BRANCH  53  78
ATOM     78  C   UNL A   1      39.911  33.760  37.490  1.00  0.00     0.058 A 
ATOM     79  C   UNL A   1      40.582  34.954  37.794  1.00  0.00     0.135 A 
ATOM     80  C   UNL A   1      38.908  33.332  38.376  1.00  0.00     0.135 A 
ATOM     81  F   UNL A   1      41.557  35.399  36.987  1.00  0.00    -0.206 F 
ATOM     82  C   UNL A   1      40.283  35.688  38.938  1.00  0.00     0.059 A 
ATOM     83  C   UNL A   1      38.572  34.064  39.510  1.00  0.00     0.059 A 
ATOM     84  F   UNL A   1      38.231  32.200  38.130  1.00  0.00    -0.206 F 
ATOM     85  C   UNL A   1      39.272  35.236  39.788  1.00  0.00     0.060 A 
BRANCH  85  86
ATOM     86  S   UNL A   1      38.862  36.223  41.244  1.00  0.00     0.124 S 
ATOM     87  O   UNL A   1      40.112  36.179  41.993  1.00  0.00    -0.237 OA
ATOM     88  O   UNL A   1      38.516  37.510  40.650  1.00  0.00    -0.237 OA
ATOM     89  O   UNL A   1      37.744  35.495  41.838  1.00  0.00    -0.744 OA
ENDBRANCH  85  86
ENDBRANCH  53  78
BRANCH  65  90
ATOM     90  C   UNL A   1      44.823  28.990  36.103  1.00  0.00     0.058 A 
ATOM     91  C   UNL A   1      46.088  29.595  36.153  1.00  0.00     0.135 A 
ATOM     92  C   UNL A   1      44.610  27.853  36.899  1.00  0.00     0.135 A 
ATOM     93  F   UNL A   1      46.348  30.682  35.409  1.00  0.00    -0.206 F 
ATOM     94  C   UNL A   1      47.110  29.078  36.944  1.00  0.00     0.059 A 
ATOM     95  C   UNL A   1      45.606  27.337  37.722  1.00  0.00     0.059 A 
ATOM     96  F   UNL A   1      43.415  27.241  36.901  1.00  0.00    -0.206 F 
ATOM     97  C   UNL A   1      46.858  27.950  37.728  1.00  0.00     0.060 A 
BRANCH  97  98
ATOM     98  S   UNL A   1      48.182  27.312  38.775  1.00  0.00     0.124 S 
ATOM     99  O   UNL A   1      47.897  27.970  40.046  1.00  0.00    -0.237 OA
ATOM    100  O   UNL A   1      47.941  25.872  38.739  1.00  0.00    -0.237 OA
ATOM    101  O   UNL A   1      49.396  27.754  38.097  1.00  0.00    -0.744 OA
ENDBRANCH  97  98
ENDBRANCH  65  90
ENDBRANCH  39  40
ENDBRANCH  32  34
ENDBRANCH  31  32
ENDBRANCH  30  31
ENDBRANCH  29  30
ENDBRANCH  28  29
ENDBRANCH  27  28
ENDBRANCH  26  27
ENDBRANCH   1  26
TORSDOF 26
ENDMDL
MODEL 3
REMARK VINA RESULT:      -8.5      6.470     10.414
REMARK SMILES C[C@@H](C(=O)OCCOCCOCCOCCOC(=O)c1ccc(-c2c3nc(c(-c4c(F)cc(S(=O)(=O)[O-])cc4F)c4ccc([nH]4)c(-c4c(F)cc(S(=O)(=O)[O-])cc4F)c4nc(c(-c5c(F)cc(S(=O)(=O)[O-])cc5F)c5ccc2[nH]5)C=C4)C=C3)cc1)c1ccc(C[C@H]2CCCC2=O)cc1Br
REMARK SMILES IDX 11 1 10 2 9 3 8 4 7 5 6 6 5 7 3 8 4 9 2 10 1 11 86 12 87 13
REMARK SMILES IDX 98 14 88 15 97 16 99 17 89 18 90 19 91 20 92 21 95 22 93 23
REMARK SMILES IDX 94 24 96 25 12 26 13 27 14 28 15 29 16 30 17 31 18 32 19 33
REMARK SMILES IDX 20 34 21 35 85 36 22 37 84 38 23 39 24 40 25 41 78 42 26 43
REMARK SMILES IDX 83 44 77 45 79 46 27 47 82 48 76 49 75 50 28 52 62 53 41 54
REMARK SMILES IDX 61 55 42 56 45 57 60 58 80 59 43 60 44 61 59 63 81 64 46 65
REMARK SMILES IDX 29 66 30 67 39 68 31 69 32 70 38 71 40 72 33 73 34 74 35 75
REMARK SMILES IDX 36 76 37 77 63 78 64 79 73 80 65 81 66 82 72 83 74 84 67 85
REMARK SMILES IDX 68 86 69 87 70 88 71 89 47 90 48 91 57 92 49 93 50 94 56 95
REMARK SMILES IDX 58 96 51 97 52 98 53 99 54 100 55 101
REMARK H PARENT 79 51 45 62
REMARK Flexibility Score: inf
ROOT
ATOM      1  O   UNL A   1      33.521  33.239  27.923  1.00  0.00    -0.377 OA
ENDROOT
BRANCH   1   2
ATOM      2  C   UNL A   1      34.550  32.815  28.783  1.00  0.00     0.188 C 
BRANCH   2   3
ATOM      3  C   UNL A   1      34.296  33.071  30.285  1.00  0.00     0.188 C 
BRANCH   3   4
ATOM      4  O   UNL A   1      35.317  32.799  31.232  1.00  0.00    -0.376 OA
BRANCH   4   5
ATOM      5  C   UNL A   1      35.481  33.666  32.345  1.00  0.00     0.202 C 
BRANCH   5   6
ATOM      6  C   UNL A   1      36.563  34.768  32.345  1.00  0.00     0.261 C 
BRANCH   6   7
ATOM      7  O   UNL A   1      37.766  34.543  31.577  1.00  0.00    -0.463 OA
BRANCH   7   8
ATOM      8  C   UNL A   1      38.894  34.224  32.266  1.00  0.00     0.313 C 
ATOM      9  O   UNL A   1      39.150  34.668  33.381  1.00  0.00    -0.252 OA
BRANCH   8  10
ATOM     10  C   UNL A   1      39.861  33.279  31.507  1.00  0.00     0.127 C 
ATOM     11  C   UNL A   1      39.554  32.866  30.065  1.00  0.00     0.025 C 
BRANCH  10  12
ATOM     12  C   UNL A   1      40.381  32.160  32.426  1.00  0.00    -0.020 A 
ATOM     13  C   UNL A   1      41.778  31.969  32.434  1.00  0.00     0.006 A 
ATOM     14  C   UNL A   1      39.643  31.395  33.349  1.00  0.00     0.022 A 
ATOM     15  C   UNL A   1      42.400  31.088  33.323  1.00  0.00     0.004 A 
ATOM     16  C   UNL A   1      40.283  30.655  34.350  1.00  0.00     0.019 A 
ATOM     17  Br  UNL A   1      37.821  30.890  33.198  1.00  0.00    -0.050 Br
ATOM     18  C   UNL A   1      41.654  30.431  34.298  1.00  0.00    -0.046 A 
BRANCH  18  19
ATOM     19  C   UNL A   1      42.250  29.356  35.166  1.00  0.00     0.047 C 
BRANCH  19  20
ATOM     20  C   UNL A   1      41.687  27.953  34.889  1.00  0.00     0.060 C 
ATOM     21  C   UNL A   1      42.436  27.069  33.882  1.00  0.00     0.012 C 
ATOM     22  C   UNL A   1      41.702  27.095  36.132  1.00  0.00     0.136 C 
ATOM     23  C   UNL A   1      43.316  26.115  34.685  1.00  0.00     0.009 C 
ATOM     24  C   UNL A   1      42.604  25.895  36.011  1.00  0.00     0.076 C 
ATOM     25  O   UNL A   1      41.041  27.343  37.135  1.00  0.00    -0.299 OA
ENDBRANCH  19  20
ENDBRANCH  18  19
ENDBRANCH  10  12
ENDBRANCH   8  10
ENDBRANCH   7   8
ENDBRANCH   6   7
ENDBRANCH   5   6
ENDBRANCH   4   5
ENDBRANCH   3   4
ENDBRANCH   2   3
ENDBRANCH   1   2
BRANCH   1  26
ATOM     26  C   UNL A   1      33.086  32.268  26.987  1.00  0.00     0.188 C 
BRANCH  26  27
ATOM     27  C   UNL A   1      32.442  30.983  27.549  1.00  0.00     0.188 C 
BRANCH  27  28
ATOM     28  O   UNL A   1      32.676  29.808  26.773  1.00  0.00    -0.376 OA
BRANCH  28  29
ATOM     29  C   UNL A   1      34.015  29.416  26.501  1.00  0.00     0.202 C 
BRANCH  29  30
ATOM     30  C   UNL A   1      34.873  29.002  27.707  1.00  0.00     0.261 C 
BRANCH  30  31
ATOM     31  O   UNL A   1      35.809  29.982  28.174  1.00  0.00    -0.460 OA
BRANCH  31  32
ATOM     32  C   UNL A   1      36.346  29.793  29.404  1.00  0.00     0.338 C 
ATOM     33  O   UNL A   1      35.753  29.611  30.441  1.00  0.00    -0.246 OA
BRANCH  32  34
ATOM     34  C   UNL A   1      37.804  29.621  29.219  1.00  0.00     0.060 A 
ATOM     35  C   UNL A   1      38.354  29.888  27.959  1.00  0.00     0.016 A 
ATOM     36  C   UNL A   1      38.619  29.241  30.287  1.00  0.00     0.016 A 
ATOM     37  C   UNL A   1      39.725  29.751  27.755  1.00  0.00     0.010 A 
ATOM     38  C   UNL A   1      39.987  29.070  30.074  1.00  0.00     0.010 A 
ATOM     39  C   UNL A   1      40.537  29.292  28.799  1.00  0.00    -0.014 A 
BRANCH  39  40
ATOM     40  C   UNL A   1      41.904  28.814  28.492  1.00  0.00     0.031 A 
ATOM     41  C   UNL A   1      43.024  29.816  28.553  1.00  0.00     0.074 A 
ATOM     42  C   UNL A   1      42.149  27.525  28.198  1.00  0.00     0.049 A 
ATOM     43  N   UNL A   1      44.292  29.661  28.287  1.00  0.00    -0.248 NA
ATOM     44  C   UNL A   1      42.657  31.180  28.970  1.00  0.00     0.031 C 
ATOM     45  C   UNL A   1      41.150  26.459  28.162  1.00  0.00     0.029 A 
ATOM     46  N   UNL A   1      43.324  26.899  27.865  1.00  0.00    -0.354 N 
ATOM     47  C   UNL A   1      44.872  30.908  28.492  1.00  0.00     0.074 A 
ATOM     48  C   UNL A   1      43.815  31.814  28.877  1.00  0.00     0.031 C 
ATOM     49  C   UNL A   1      41.754  25.308  27.813  1.00  0.00     0.029 A 
ATOM     50  C   UNL A   1      43.172  25.565  27.567  1.00  0.00     0.049 A 
ATOM     51  H   UNL A   1      44.192  27.361  27.841  1.00  0.00     0.167 HD
ATOM     52  C   UNL A   1      46.173  31.262  28.372  1.00  0.00     0.037 A 
ATOM     53  C   UNL A   1      44.075  24.668  27.124  1.00  0.00     0.037 A 
ATOM     54  C   UNL A   1      47.216  30.351  27.984  1.00  0.00     0.049 A 
ATOM     55  C   UNL A   1      45.505  25.104  26.924  1.00  0.00     0.074 A 
ATOM     56  C   UNL A   1      48.569  30.601  27.850  1.00  0.00     0.029 A 
ATOM     57  N   UNL A   1      47.019  29.017  27.656  1.00  0.00    -0.354 N 
ATOM     58  N   UNL A   1      46.049  26.280  27.142  1.00  0.00    -0.248 NA
ATOM     59  C   UNL A   1      46.446  24.095  26.420  1.00  0.00     0.031 C 
ATOM     60  C   UNL A   1      49.182  29.435  27.380  1.00  0.00     0.029 A 
ATOM     61  C   UNL A   1      48.221  28.439  27.288  1.00  0.00     0.049 A 
ATOM     62  H   UNL A   1      46.152  28.551  27.682  1.00  0.00     0.167 HD
ATOM     63  C   UNL A   1      47.400  26.139  26.835  1.00  0.00     0.074 A 
ATOM     64  C   UNL A   1      47.591  24.764  26.425  1.00  0.00     0.031 C 
ATOM     65  C   UNL A   1      48.393  27.063  26.892  1.00  0.00     0.037 A 
BRANCH  52  66
ATOM     66  C   UNL A   1      46.530  32.702  28.624  1.00  0.00     0.058 A 
ATOM     67  C   UNL A   1      46.494  33.668  27.606  1.00  0.00     0.135 A 
ATOM     68  C   UNL A   1      46.893  33.122  29.913  1.00  0.00     0.135 A 
ATOM     69  F   UNL A   1      46.178  33.316  26.349  1.00  0.00    -0.206 F 
ATOM     70  C   UNL A   1      46.826  34.997  27.852  1.00  0.00     0.059 A 
ATOM     71  C   UNL A   1      47.200  34.451  30.189  1.00  0.00     0.059 A 
ATOM     72  F   UNL A   1      46.953  32.239  30.921  1.00  0.00    -0.206 F 
ATOM     73  C   UNL A   1      47.175  35.378  29.149  1.00  0.00     0.060 A 
BRANCH  73  74
ATOM     74  S   UNL A   1      47.594  37.108  29.455  1.00  0.00     0.124 S 
ATOM     75  O   UNL A   1      46.499  37.522  30.329  1.00  0.00    -0.237 OA
ATOM     76  O   UNL A   1      48.903  37.002  30.088  1.00  0.00    -0.237 OA
ATOM     77  O   UNL A   1      47.589  37.701  28.121  1.00  0.00    -0.744 OA
ENDBRANCH  73  74
ENDBRANCH  52  66
BRANCH  53  78
ATOM     78  C   UNL A   1      43.658  23.270  26.828  1.00  0.00     0.058 A 
ATOM     79  C   UNL A   1      43.310  22.382  27.858  1.00  0.00     0.135 A 
ATOM     80  C   UNL A   1      43.606  22.789  25.510  1.00  0.00     0.135 A 
ATOM     81  F   UNL A   1      43.355  22.788  29.137  1.00  0.00    -0.206 F 
ATOM     82  C   UNL A   1      42.941  21.066  27.594  1.00  0.00     0.059 A 
ATOM     83  C   UNL A   1      43.213  21.487  25.219  1.00  0.00     0.059 A 
ATOM     84  F   UNL A   1      43.924  23.597  24.487  1.00  0.00    -0.206 F 
ATOM     85  C   UNL A   1      42.891  20.630  26.269  1.00  0.00     0.060 A 
BRANCH  85  86
ATOM     86  S   UNL A   1      42.363  18.934  25.938  1.00  0.00     0.124 S 
ATOM     87  O   UNL A   1      40.916  19.088  25.849  1.00  0.00    -0.237 OA
ATOM     88  O   UNL A   1      43.054  18.640  24.688  1.00  0.00    -0.237 OA
ATOM     89  O   UNL A   1      42.849  18.199  27.103  1.00  0.00    -0.744 OA
ENDBRANCH  85  86
ENDBRANCH  53  78
BRANCH  65  90
ATOM     90  C   UNL A   1      49.787  26.610  26.546  1.00  0.00     0.058 A 
ATOM     91  C   UNL A   1      50.589  25.907  27.458  1.00  0.00     0.135 A 
ATOM     92  C   UNL A   1      50.301  26.829  25.257  1.00  0.00     0.135 A 
ATOM     93  F   UNL A   1      50.149  25.674  28.705  1.00  0.00    -0.206 F 
ATOM     94  C   UNL A   1      51.862  25.461  27.113  1.00  0.00     0.059 A 
ATOM     95  C   UNL A   1      51.556  26.363  24.879  1.00  0.00     0.059 A 
ATOM     96  F   UNL A   1      49.571  27.483  24.339  1.00  0.00    -0.206 F 
ATOM     97  C   UNL A   1      52.335  25.690  25.819  1.00  0.00     0.060 A 
BRANCH  97  98
ATOM     98  S   UNL A   1      53.972  25.075  25.376  1.00  0.00     0.124 S 
ATOM     99  O   UNL A   1      54.126  25.595  24.021  1.00  0.00    -0.237 OA
ATOM    100  O   UNL A   1      54.822  25.692  26.392  1.00  0.00    -0.237 OA
ATOM    101  O   UNL A   1      53.832  23.626  25.481  1.00  0.00    -0.744 OA
ENDBRANCH  97  98
ENDBRANCH  65  90
ENDBRANCH  39  40
ENDBRANCH  32  34
ENDBRANCH  31  32
ENDBRANCH  30  31
ENDBRANCH  29  30
ENDBRANCH  28  29
ENDBRANCH  27  28
ENDBRANCH  26  27
ENDBRANCH   1  26
TORSDOF 26
ENDMDL
