MODEL 1
REMARK VINA RESULT:     -10.2      0.000      0.000
REMARK SMILES Cc1nc(C)n(CC[C@H]2CCC[C@@]2([NH2+]C(C)C)C(=O)OCCOCCOCCOCCOC(=O)c2ccc(-c3c4nc(c(-c5c(F)cc(S(=O)(=O)[O-])cc5F)c5ccc([nH]5)c(-c5c(F)cc(S(=O)(=O)[O-])cc5F)c5nc(c(-c6c(F)cc(S(=O)(=O)[O-])cc6F)c6ccc3[nH]6)C=C5)C=C4)cc2)n1
REMARK SMILES IDX 26 1 25 2 24 3 23 4 22 5 21 6 20 7 18 8 19 9 13 10 9 11
REMARK SMILES IDX 10 12 11 13 12 14 8 15 7 16 6 17 1 18 2 19 3 20 101 21 4 22
REMARK SMILES IDX 5 23 14 24 15 27 16 28 17 29 27 30 28 31 29 32 30 33 31 34
REMARK SMILES IDX 32 35 33 36 34 37 35 38 36 39 100 40 37 41 99 42 38 43 39 44
REMARK SMILES IDX 40 45 93 46 41 47 98 48 92 49 94 50 42 51 97 52 91 53 90 54
REMARK SMILES IDX 43 56 77 57 56 58 76 59 57 60 60 61 75 62 95 63 58 64 59 65
REMARK SMILES IDX 74 67 96 68 61 69 44 70 45 71 54 72 46 73 47 74 53 75 55 76
REMARK SMILES IDX 48 77 49 78 50 79 51 80 52 81 78 82 79 83 88 84 80 85 81 86
REMARK SMILES IDX 87 87 89 88 82 89 83 90 84 91 85 92 86 93 62 94 63 95 72 96
REMARK SMILES IDX 64 97 65 98 71 99 73 100 66 101 67 102 68 103 69 104 70 105
REMARK H PARENT 14 25 14 26 94 55 60 66
REMARK Flexibility Score: inf
ROOT
ATOM      1  O   UNL A   1      42.006  20.741  27.587  1.00  0.00    -0.377 OA
ENDROOT
BRANCH   1   2
ATOM      2  C   UNL A   1      40.994  21.663  27.224  1.00  0.00     0.188 C 
BRANCH   2   3
ATOM      3  C   UNL A   1      39.750  21.023  26.559  1.00  0.00     0.188 C 
BRANCH   3   4
ATOM      4  O   UNL A   1      39.025  21.695  25.530  1.00  0.00    -0.376 OA
BRANCH   4   5
ATOM      5  C   UNL A   1      37.750  21.216  25.138  1.00  0.00     0.202 C 
BRANCH   5   6
ATOM      6  C   UNL A   1      36.496  21.796  25.800  1.00  0.00     0.261 C 
BRANCH   6   7
ATOM      7  O   UNL A   1      35.332  21.903  24.971  1.00  0.00    -0.459 OA
BRANCH   7   8
ATOM      8  C   UNL A   1      34.171  21.478  25.539  1.00  0.00     0.368 C 
ATOM      9  O   UNL A   1      34.084  21.043  26.684  1.00  0.00    -0.245 OA
BRANCH   8  10
ATOM     10  C   UNL A   1      32.977  21.572  24.552  1.00  0.00     0.197 C 
ATOM     11  C   UNL A   1      31.816  22.484  25.068  1.00  0.00     0.064 C 
ATOM     12  C   UNL A   1      31.161  22.963  23.757  1.00  0.00     0.011 C 
ATOM     13  C   UNL A   1      32.293  23.103  22.745  1.00  0.00     0.008 C 
ATOM     14  C   UNL A   1      33.477  22.344  23.320  1.00  0.00     0.081 C 
BRANCH  11  15
ATOM     15  C   UNL A   1      32.152  23.660  26.013  1.00  0.00     0.034 C 
BRANCH  15  16
ATOM     16  C   UNL A   1      31.102  24.792  25.913  1.00  0.00     0.147 C 
BRANCH  16  17
ATOM     17  N   UNL A   1      31.513  25.990  25.197  1.00  0.00    -0.250 N 
ATOM     18  C   UNL A   1      34.034  28.164  24.028  1.00  0.00     0.092 C 
ATOM     19  C   UNL A   1      32.829  27.372  24.345  1.00  0.00     0.147 A 
ATOM     20  N   UNL A   1      31.625  27.646  23.768  1.00  0.00    -0.217 NA
ATOM     21  N   UNL A   1      32.821  26.341  25.201  1.00  0.00    -0.156 NA
ATOM     22  C   UNL A   1      30.804  26.785  24.328  1.00  0.00     0.124 A 
ATOM     23  C   UNL A   1      29.349  26.724  24.062  1.00  0.00     0.089 C 
ENDBRANCH  16  17
ENDBRANCH  15  16
ENDBRANCH  11  15
BRANCH  10  24
ATOM     24  N   UNL A   1      32.337  20.244  24.321  1.00  0.00    -0.330 N 
ATOM     25  H   UNL A   1      31.834  20.335  23.439  1.00  0.00     0.347 HD
ATOM     26  H   UNL A   1      31.849  20.120  25.208  1.00  0.00     0.347 HD
BRANCH  24  27
ATOM     27  C   UNL A   1      33.047  18.976  24.235  1.00  0.00     0.176 C 
ATOM     28  C   UNL A   1      32.660  18.182  25.502  1.00  0.00     0.075 C 
ATOM     29  C   UNL A   1      32.633  18.119  23.037  1.00  0.00     0.075 C 
ENDBRANCH  24  27
ENDBRANCH  10  24
ENDBRANCH   8  10
ENDBRANCH   7   8
ENDBRANCH   6   7
ENDBRANCH   5   6
ENDBRANCH   4   5
ENDBRANCH   3   4
ENDBRANCH   2   3
ENDBRANCH   1   2
BRANCH   1  30
ATOM     30  C   UNL A   1      42.113  19.591  26.761  1.00  0.00     0.188 C 
BRANCH  30  31
ATOM     31  C   UNL A   1      43.024  19.689  25.515  1.00  0.00     0.188 C 
BRANCH  31  32
ATOM     32  O   UNL A   1      43.996  18.653  25.407  1.00  0.00    -0.376 OA
BRANCH  32  33
ATOM     33  C   UNL A   1      45.380  18.971  25.364  1.00  0.00     0.202 C 
BRANCH  33  34
ATOM     34  C   UNL A   1      45.702  20.095  24.379  1.00  0.00     0.261 C 
BRANCH  34  35
ATOM     35  O   UNL A   1      46.220  21.246  25.026  1.00  0.00    -0.460 OA
BRANCH  35  36
ATOM     36  C   UNL A   1      45.639  22.399  24.679  1.00  0.00     0.338 C 
ATOM     37  O   UNL A   1      46.011  23.182  23.789  1.00  0.00    -0.246 OA
BRANCH  36  38
ATOM     38  C   UNL A   1      44.525  22.674  25.575  1.00  0.00     0.060 A 
ATOM     39  C   UNL A   1      43.520  23.457  25.016  1.00  0.00     0.016 A 
ATOM     40  C   UNL A   1      44.754  22.586  26.958  1.00  0.00     0.016 A 
ATOM     41  C   UNL A   1      43.051  24.477  25.789  1.00  0.00     0.010 A 
ATOM     42  C   UNL A   1      44.286  23.610  27.730  1.00  0.00     0.010 A 
ATOM     43  C   UNL A   1      43.564  24.606  27.084  1.00  0.00    -0.014 A 
BRANCH  43  44
ATOM     44  C   UNL A   1      43.347  25.872  27.728  1.00  0.00     0.031 A 
ATOM     45  C   UNL A   1      44.440  26.820  27.480  1.00  0.00     0.074 A 
ATOM     46  C   UNL A   1      42.230  26.116  28.437  1.00  0.00     0.049 A 
ATOM     47  N   UNL A   1      45.296  27.285  28.324  1.00  0.00    -0.248 NA
ATOM     48  C   UNL A   1      44.730  27.131  26.071  1.00  0.00     0.031 C 
ATOM     49  C   UNL A   1      40.994  25.328  28.488  1.00  0.00     0.029 A 
ATOM     50  N   UNL A   1      41.930  27.208  29.179  1.00  0.00    -0.354 N 
ATOM     51  C   UNL A   1      46.093  28.142  27.580  1.00  0.00     0.074 A 
ATOM     52  C   UNL A   1      45.843  27.851  26.192  1.00  0.00     0.031 C 
ATOM     53  C   UNL A   1      40.011  26.094  29.012  1.00  0.00     0.029 A 
ATOM     54  C   UNL A   1      40.578  27.367  29.429  1.00  0.00     0.049 A 
ATOM     55  H   UNL A   1      42.613  27.834  29.511  1.00  0.00     0.167 HD
ATOM     56  C   UNL A   1      46.676  29.228  28.148  1.00  0.00     0.037 A 
ATOM     57  C   UNL A   1      39.983  28.522  29.819  1.00  0.00     0.037 A 
ATOM     58  C   UNL A   1      46.776  29.103  29.578  1.00  0.00     0.049 A 
ATOM     59  C   UNL A   1      41.050  29.399  30.380  1.00  0.00     0.074 A 
ATOM     60  C   UNL A   1      47.369  28.184  30.423  1.00  0.00     0.029 A 
ATOM     61  N   UNL A   1      45.887  29.807  30.355  1.00  0.00    -0.354 N 
ATOM     62  N   UNL A   1      41.708  29.143  31.479  1.00  0.00    -0.248 NA
ATOM     63  C   UNL A   1      41.704  30.340  29.479  1.00  0.00     0.031 C 
ATOM     64  C   UNL A   1      46.487  28.074  31.537  1.00  0.00     0.029 A 
ATOM     65  C   UNL A   1      45.425  28.954  31.326  1.00  0.00     0.049 A 
ATOM     66  H   UNL A   1      45.629  30.750  30.236  1.00  0.00     0.167 HD
ATOM     67  C   UNL A   1      43.012  29.557  31.229  1.00  0.00     0.074 A 
ATOM     68  C   UNL A   1      42.924  30.370  30.020  1.00  0.00     0.031 C 
ATOM     69  C   UNL A   1      44.077  28.975  31.858  1.00  0.00     0.037 A 
BRANCH  56  70
ATOM     70  C   UNL A   1      46.784  30.534  27.416  1.00  0.00     0.058 A 
ATOM     71  C   UNL A   1      48.021  31.195  27.353  1.00  0.00     0.135 A 
ATOM     72  C   UNL A   1      45.657  31.284  27.000  1.00  0.00     0.135 A 
ATOM     73  F   UNL A   1      49.143  30.579  27.753  1.00  0.00    -0.206 F 
ATOM     74  C   UNL A   1      48.125  32.525  26.949  1.00  0.00     0.059 A 
ATOM     75  C   UNL A   1      45.746  32.585  26.534  1.00  0.00     0.059 A 
ATOM     76  F   UNL A   1      44.405  30.827  27.130  1.00  0.00    -0.206 F 
ATOM     77  C   UNL A   1      46.977  33.213  26.555  1.00  0.00     0.060 A 
BRANCH  77  78
ATOM     78  S   UNL A   1      47.081  34.964  26.158  1.00  0.00     0.124 S 
ATOM     79  O   UNL A   1      47.667  34.919  24.823  1.00  0.00    -0.237 OA
ATOM     80  O   UNL A   1      45.684  35.376  26.232  1.00  0.00    -0.237 OA
ATOM     81  O   UNL A   1      47.942  35.496  27.210  1.00  0.00    -0.744 OA
ENDBRANCH  77  78
ENDBRANCH  56  70
BRANCH  57  82
ATOM     82  C   UNL A   1      38.668  29.038  29.351  1.00  0.00     0.058 A 
ATOM     83  C   UNL A   1      37.620  29.277  30.255  1.00  0.00     0.135 A 
ATOM     84  C   UNL A   1      38.490  29.550  28.047  1.00  0.00     0.135 A 
ATOM     85  F   UNL A   1      37.716  28.855  31.525  1.00  0.00    -0.206 F 
ATOM     86  C   UNL A   1      36.480  30.007  29.898  1.00  0.00     0.059 A 
ATOM     87  C   UNL A   1      37.357  30.262  27.664  1.00  0.00     0.059 A 
ATOM     88  F   UNL A   1      39.455  29.455  27.121  1.00  0.00    -0.206 F 
ATOM     89  C   UNL A   1      36.364  30.509  28.601  1.00  0.00     0.060 A 
BRANCH  89  90
ATOM     90  S   UNL A   1      34.975  31.583  28.176  1.00  0.00     0.124 S 
ATOM     91  O   UNL A   1      34.107  30.675  27.437  1.00  0.00    -0.237 OA
ATOM     92  O   UNL A   1      34.495  32.000  29.488  1.00  0.00    -0.237 OA
ATOM     93  O   UNL A   1      35.595  32.639  27.378  1.00  0.00    -0.744 OA
ENDBRANCH  89  90
ENDBRANCH  57  82
BRANCH  69  94
ATOM     94  C   UNL A   1      43.803  28.082  33.041  1.00  0.00     0.058 A 
ATOM     95  C   UNL A   1      43.591  28.553  34.349  1.00  0.00     0.135 A 
ATOM     96  C   UNL A   1      43.592  26.713  32.815  1.00  0.00     0.135 A 
ATOM     97  F   UNL A   1      43.661  29.862  34.628  1.00  0.00    -0.206 F 
ATOM     98  C   UNL A   1      43.232  27.698  35.392  1.00  0.00     0.059 A 
ATOM     99  C   UNL A   1      43.204  25.847  33.834  1.00  0.00     0.059 A 
ATOM    100  F   UNL A   1      43.711  26.211  31.574  1.00  0.00    -0.206 F 
ATOM    101  C   UNL A   1      43.038  26.345  35.125  1.00  0.00     0.060 A 
BRANCH 101 102
ATOM    102  S   UNL A   1      42.491  25.255  36.458  1.00  0.00     0.124 S 
ATOM    103  O   UNL A   1      42.000  24.094  35.724  1.00  0.00    -0.237 OA
ATOM    104  O   UNL A   1      43.718  25.048  37.224  1.00  0.00    -0.237 OA
ATOM    105  O   UNL A   1      41.467  26.040  37.142  1.00  0.00    -0.744 OA
ENDBRANCH 101 102
ENDBRANCH  69  94
ENDBRANCH  43  44
ENDBRANCH  36  38
ENDBRANCH  35  36
ENDBRANCH  34  35
ENDBRANCH  33  34
ENDBRANCH  32  33
ENDBRANCH  31  32
ENDBRANCH  30  31
ENDBRANCH   1  30
TORSDOF 28
ENDMDL
MODEL 2
REMARK VINA RESULT:      -9.6      1.725      2.223
REMARK SMILES Cc1nc(C)n(CC[C@H]2CCC[C@@]2([NH2+]C(C)C)C(=O)OCCOCCOCCOCCOC(=O)c2ccc(-c3c4nc(c(-c5c(F)cc(S(=O)(=O)[O-])cc5F)c5ccc([nH]5)c(-c5c(F)cc(S(=O)(=O)[O-])cc5F)c5nc(c(-c6c(F)cc(S(=O)(=O)[O-])cc6F)c6ccc3[nH]6)C=C5)C=C4)cc2)n1
REMARK SMILES IDX 26 1 25 2 24 3 23 4 22 5 21 6 20 7 18 8 19 9 13 10 9 11
REMARK SMILES IDX 10 12 11 13 12 14 8 15 7 16 6 17 1 18 2 19 3 20 101 21 4 22
REMARK SMILES IDX 5 23 14 24 15 27 16 28 17 29 27 30 28 31 29 32 30 33 31 34
REMARK SMILES IDX 32 35 33 36 34 37 35 38 36 39 100 40 37 41 99 42 38 43 39 44
REMARK SMILES IDX 40 45 93 46 41 47 98 48 92 49 94 50 42 51 97 52 91 53 90 54
REMARK SMILES IDX 43 56 77 57 56 58 76 59 57 60 60 61 75 62 95 63 58 64 59 65
REMARK SMILES IDX 74 67 96 68 61 69 44 70 45 71 54 72 46 73 47 74 53 75 55 76
REMARK SMILES IDX 48 77 49 78 50 79 51 80 52 81 78 82 79 83 88 84 80 85 81 86
REMARK SMILES IDX 87 87 89 88 82 89 83 90 84 91 85 92 86 93 62 94 63 95 72 96
REMARK SMILES IDX 64 97 65 98 71 99 73 100 66 101 67 102 68 103 69 104 70 105
REMARK H PARENT 14 25 14 26 94 55 60 66
REMARK Flexibility Score: inf
ROOT
ATOM      1  O   UNL A   1      42.295  21.268  27.819  1.00  0.00    -0.377 OA
ENDROOT
BRANCH   1   2
ATOM      2  C   UNL A   1      41.238  22.208  27.896  1.00  0.00     0.188 C 
BRANCH   2   3
ATOM      3  C   UNL A   1      39.948  21.787  27.148  1.00  0.00     0.188 C 
BRANCH   3   4
ATOM      4  O   UNL A   1      39.208  22.715  26.357  1.00  0.00    -0.376 OA
BRANCH   4   5
ATOM      5  C   UNL A   1      38.072  22.275  25.633  1.00  0.00     0.202 C 
BRANCH   5   6
ATOM      6  C   UNL A   1      36.694  22.842  25.987  1.00  0.00     0.261 C 
BRANCH   6   7
ATOM      7  O   UNL A   1      35.574  22.257  25.310  1.00  0.00    -0.459 OA
BRANCH   7   8
ATOM      8  C   UNL A   1      34.566  21.827  26.116  1.00  0.00     0.368 C 
ATOM      9  O   UNL A   1      34.687  21.623  27.321  1.00  0.00    -0.245 OA
BRANCH   8  10
ATOM     10  C   UNL A   1      33.254  21.586  25.321  1.00  0.00     0.197 C 
ATOM     11  C   UNL A   1      32.099  22.563  25.721  1.00  0.00     0.064 C 
ATOM     12  C   UNL A   1      31.251  22.619  24.435  1.00  0.00     0.011 C 
ATOM     13  C   UNL A   1      32.233  22.506  23.275  1.00  0.00     0.008 C 
ATOM     14  C   UNL A   1      33.534  21.991  23.865  1.00  0.00     0.081 C 
BRANCH  11  15
ATOM     15  C   UNL A   1      32.458  23.973  26.242  1.00  0.00     0.034 C 
BRANCH  15  16
ATOM     16  C   UNL A   1      31.575  25.064  25.592  1.00  0.00     0.147 C 
BRANCH  16  17
ATOM     17  N   UNL A   1      32.066  26.431  25.689  1.00  0.00    -0.250 N 
ATOM     18  C   UNL A   1      34.482  28.764  26.767  1.00  0.00     0.092 C 
ATOM     19  C   UNL A   1      33.393  27.975  26.159  1.00  0.00     0.147 A 
ATOM     20  N   UNL A   1      32.524  28.531  25.267  1.00  0.00    -0.217 NA
ATOM     21  N   UNL A   1      33.177  26.679  26.423  1.00  0.00    -0.156 NA
ATOM     22  C   UNL A   1      31.683  27.556  24.997  1.00  0.00     0.124 A 
ATOM     23  C   UNL A   1      30.509  27.689  24.106  1.00  0.00     0.089 C 
ENDBRANCH  16  17
ENDBRANCH  15  16
ENDBRANCH  11  15
BRANCH  10  24
ATOM     24  N   UNL A   1      32.695  20.225  25.564  1.00  0.00    -0.330 N 
ATOM     25  H   UNL A   1      31.699  20.299  25.357  1.00  0.00     0.347 HD
ATOM     26  H   UNL A   1      33.037  20.053  26.510  1.00  0.00     0.347 HD
BRANCH  24  27
ATOM     27  C   UNL A   1      33.140  19.007  24.901  1.00  0.00     0.176 C 
ATOM     28  C   UNL A   1      32.615  17.836  25.762  1.00  0.00     0.075 C 
ATOM     29  C   UNL A   1      32.554  18.819  23.501  1.00  0.00     0.075 C 
ENDBRANCH  24  27
ENDBRANCH  10  24
ENDBRANCH   8  10
ENDBRANCH   7   8
ENDBRANCH   6   7
ENDBRANCH   5   6
ENDBRANCH   4   5
ENDBRANCH   3   4
ENDBRANCH   2   3
ENDBRANCH   1   2
BRANCH   1  30
ATOM     30  C   UNL A   1      42.424  20.591  26.578  1.00  0.00     0.188 C 
BRANCH  30  31
ATOM     31  C   UNL A   1      43.049  21.373  25.399  1.00  0.00     0.188 C 
BRANCH  31  32
ATOM     32  O   UNL A   1      44.060  20.666  24.686  1.00  0.00    -0.376 OA
BRANCH  32  33
ATOM     33  C   UNL A   1      45.399  21.139  24.683  1.00  0.00     0.202 C 
BRANCH  33  34
ATOM     34  C   UNL A   1      45.510  22.608  24.278  1.00  0.00     0.261 C 
BRANCH  34  35
ATOM     35  O   UNL A   1      45.749  23.457  25.390  1.00  0.00    -0.460 OA
BRANCH  35  36
ATOM     36  C   UNL A   1      45.312  24.712  25.248  1.00  0.00     0.338 C 
ATOM     37  O   UNL A   1      45.886  25.638  24.653  1.00  0.00    -0.246 OA
BRANCH  36  38
ATOM     38  C   UNL A   1      44.070  24.882  25.990  1.00  0.00     0.060 A 
ATOM     39  C   UNL A   1      43.166  25.760  25.399  1.00  0.00     0.016 A 
ATOM     40  C   UNL A   1      44.077  24.592  27.364  1.00  0.00     0.016 A 
ATOM     41  C   UNL A   1      42.581  26.670  26.229  1.00  0.00     0.010 A 
ATOM     42  C   UNL A   1      43.494  25.507  28.193  1.00  0.00     0.010 A 
ATOM     43  C   UNL A   1      42.883  26.602  27.593  1.00  0.00    -0.014 A 
BRANCH  43  44
ATOM     44  C   UNL A   1      42.568  27.768  28.371  1.00  0.00     0.031 A 
ATOM     45  C   UNL A   1      43.643  28.767  28.342  1.00  0.00     0.074 A 
ATOM     46  C   UNL A   1      41.388  27.889  29.005  1.00  0.00     0.049 A 
ATOM     47  N   UNL A   1      44.409  29.139  29.309  1.00  0.00    -0.248 NA
ATOM     48  C   UNL A   1      44.038  29.265  27.014  1.00  0.00     0.031 C 
ATOM     49  C   UNL A   1      40.181  27.071  28.847  1.00  0.00     0.029 A 
ATOM     50  N   UNL A   1      40.988  28.869  29.850  1.00  0.00    -0.354 N 
ATOM     51  C   UNL A   1      45.234  30.106  28.752  1.00  0.00     0.074 A 
ATOM     52  C   UNL A   1      45.110  29.991  27.322  1.00  0.00     0.031 C 
ATOM     53  C   UNL A   1      39.131  27.738  29.376  1.00  0.00     0.029 A 
ATOM     54  C   UNL A   1      39.614  28.960  29.999  1.00  0.00     0.049 A 
ATOM     55  H   UNL A   1      41.618  29.463  30.317  1.00  0.00     0.167 HD
ATOM     56  C   UNL A   1      45.727  31.124  29.501  1.00  0.00     0.037 A 
ATOM     57  C   UNL A   1      38.948  30.039  30.479  1.00  0.00     0.037 A 
ATOM     58  C   UNL A   1      45.712  30.817  30.908  1.00  0.00     0.049 A 
ATOM     59  C   UNL A   1      39.932  30.863  31.238  1.00  0.00     0.074 A 
ATOM     60  C   UNL A   1      46.265  29.811  31.678  1.00  0.00     0.029 A 
ATOM     61  N   UNL A   1      44.736  31.392  31.687  1.00  0.00    -0.354 N 
ATOM     62  N   UNL A   1      40.506  30.483  32.349  1.00  0.00    -0.248 NA
ATOM     63  C   UNL A   1      40.625  31.928  30.524  1.00  0.00     0.031 C 
ATOM     64  C   UNL A   1      45.299  29.536  32.687  1.00  0.00     0.029 A 
ATOM     65  C   UNL A   1      44.226  30.409  32.498  1.00  0.00     0.049 A 
ATOM     66  H   UNL A   1      44.455  32.335  31.666  1.00  0.00     0.167 HD
ATOM     67  C   UNL A   1      41.809  30.959  32.268  1.00  0.00     0.074 A 
ATOM     68  C   UNL A   1      41.794  31.919  31.169  1.00  0.00     0.031 C 
ATOM     69  C   UNL A   1      42.839  30.328  32.908  1.00  0.00     0.037 A 
BRANCH  56  70
ATOM     70  C   UNL A   1      45.849  32.515  28.954  1.00  0.00     0.058 A 
ATOM     71  C   UNL A   1      47.065  33.205  29.072  1.00  0.00     0.135 A 
ATOM     72  C   UNL A   1      44.732  33.289  28.551  1.00  0.00     0.135 A 
ATOM     73  F   UNL A   1      48.174  32.566  29.477  1.00  0.00    -0.206 F 
ATOM     74  C   UNL A   1      47.157  34.579  28.852  1.00  0.00     0.059 A 
ATOM     75  C   UNL A   1      44.815  34.641  28.262  1.00  0.00     0.059 A 
ATOM     76  F   UNL A   1      43.489  32.792  28.522  1.00  0.00    -0.206 F 
ATOM     77  C   UNL A   1      46.022  35.287  28.460  1.00  0.00     0.060 A 
BRANCH  77  78
ATOM     78  S   UNL A   1      46.100  37.077  28.300  1.00  0.00     0.124 S 
ATOM     79  O   UNL A   1      46.644  37.455  29.599  1.00  0.00    -0.237 OA
ATOM     80  O   UNL A   1      46.993  37.241  27.158  1.00  0.00    -0.237 OA
ATOM     81  O   UNL A   1      44.711  37.453  28.060  1.00  0.00    -0.744 OA
ENDBRANCH  77  78
ENDBRANCH  56  70
BRANCH  57  82
ATOM     82  C   UNL A   1      37.659  30.578  29.967  1.00  0.00     0.058 A 
ATOM     83  C   UNL A   1      36.716  31.149  30.837  1.00  0.00     0.135 A 
ATOM     84  C   UNL A   1      37.430  30.779  28.588  1.00  0.00     0.135 A 
ATOM     85  F   UNL A   1      36.870  31.037  32.165  1.00  0.00    -0.206 F 
ATOM     86  C   UNL A   1      35.630  31.901  30.371  1.00  0.00     0.059 A 
ATOM     87  C   UNL A   1      36.348  31.506  28.100  1.00  0.00     0.059 A 
ATOM     88  F   UNL A   1      38.303  30.351  27.666  1.00  0.00    -0.206 F 
ATOM     89  C   UNL A   1      35.463  32.086  28.998  1.00  0.00     0.060 A 
BRANCH  89  90
ATOM     90  S   UNL A   1      34.160  33.181  28.393  1.00  0.00     0.124 S 
ATOM     91  O   UNL A   1      33.291  32.252  27.682  1.00  0.00    -0.237 OA
ATOM     92  O   UNL A   1      33.625  33.737  29.631  1.00  0.00    -0.237 OA
ATOM     93  O   UNL A   1      34.881  34.131  27.548  1.00  0.00    -0.744 OA
ENDBRANCH  89  90
ENDBRANCH  57  82
BRANCH  69  94
ATOM     94  C   UNL A   1      42.499  29.282  33.941  1.00  0.00     0.058 A 
ATOM     95  C   UNL A   1      42.118  27.965  33.629  1.00  0.00     0.135 A 
ATOM     96  C   UNL A   1      42.718  29.579  35.295  1.00  0.00     0.135 A 
ATOM     97  F   UNL A   1      41.998  27.567  32.355  1.00  0.00    -0.206 F 
ATOM     98  C   UNL A   1      41.920  27.001  34.618  1.00  0.00     0.059 A 
ATOM     99  C   UNL A   1      42.556  28.624  36.296  1.00  0.00     0.059 A 
ATOM    100  F   UNL A   1      43.149  30.800  35.653  1.00  0.00    -0.206 F 
ATOM    101  C   UNL A   1      42.143  27.339  35.951  1.00  0.00     0.060 A 
BRANCH 101 102
ATOM    102  S   UNL A   1      41.968  26.067  37.222  1.00  0.00     0.124 S 
ATOM    103  O   UNL A   1      40.555  26.173  37.569  1.00  0.00    -0.237 OA
ATOM    104  O   UNL A   1      42.356  24.851  36.512  1.00  0.00    -0.237 OA
ATOM    105  O   UNL A   1      42.900  26.493  38.263  1.00  0.00    -0.744 OA
ENDBRANCH 101 102
ENDBRANCH  69  94
ENDBRANCH  43  44
ENDBRANCH  36  38
ENDBRANCH  35  36
ENDBRANCH  34  35
ENDBRANCH  33  34
ENDBRANCH  32  33
ENDBRANCH  31  32
ENDBRANCH  30  31
ENDBRANCH   1  30
TORSDOF 28
ENDMDL
MODEL 3
REMARK VINA RESULT:      -9.4      2.037      4.013
REMARK SMILES Cc1nc(C)n(CC[C@H]2CCC[C@@]2([NH2+]C(C)C)C(=O)OCCOCCOCCOCCOC(=O)c2ccc(-c3c4nc(c(-c5c(F)cc(S(=O)(=O)[O-])cc5F)c5ccc([nH]5)c(-c5c(F)cc(S(=O)(=O)[O-])cc5F)c5nc(c(-c6c(F)cc(S(=O)(=O)[O-])cc6F)c6ccc3[nH]6)C=C5)C=C4)cc2)n1
REMARK SMILES IDX 26 1 25 2 24 3 23 4 22 5 21 6 20 7 18 8 19 9 13 10 9 11
REMARK SMILES IDX 10 12 11 13 12 14 8 15 7 16 6 17 1 18 2 19 3 20 101 21 4 22
REMARK SMILES IDX 5 23 14 24 15 27 16 28 17 29 27 30 28 31 29 32 30 33 31 34
REMARK SMILES IDX 32 35 33 36 34 37 35 38 36 39 100 40 37 41 99 42 38 43 39 44
REMARK SMILES IDX 40 45 93 46 41 47 98 48 92 49 94 50 42 51 97 52 91 53 90 54
REMARK SMILES IDX 43 56 77 57 56 58 76 59 57 60 60 61 75 62 95 63 58 64 59 65
REMARK SMILES IDX 74 67 96 68 61 69 44 70 45 71 54 72 46 73 47 74 53 75 55 76
REMARK SMILES IDX 48 77 49 78 50 79 51 80 52 81 78 82 79 83 88 84 80 85 81 86
REMARK SMILES IDX 87 87 89 88 82 89 83 90 84 91 85 92 86 93 62 94 63 95 72 96
REMARK SMILES IDX 64 97 65 98 71 99 73 100 66 101 67 102 68 103 69 104 70 105
REMARK H PARENT 14 25 14 26 94 55 60 66
REMARK Flexibility Score: inf
ROOT
ATOM      1  O   UNL A   1      42.370  21.392  27.742  1.00  0.00    -0.377 OA
ENDROOT
BRANCH   1   2
ATOM      2  C   UNL A   1      41.438  22.459  27.787  1.00  0.00     0.188 C 
BRANCH   2   3
ATOM      3  C   UNL A   1      40.031  22.107  27.246  1.00  0.00     0.188 C 
BRANCH   3   4
ATOM      4  O   UNL A   1      39.472  22.785  26.122  1.00  0.00    -0.376 OA
BRANCH   4   5
ATOM      5  C   UNL A   1      38.167  22.456  25.677  1.00  0.00     0.202 C 
BRANCH   5   6
ATOM      6  C   UNL A   1      37.216  23.578  25.250  1.00  0.00     0.261 C 
BRANCH   6   7
ATOM      7  O   UNL A   1      35.826  23.374  25.531  1.00  0.00    -0.459 OA
BRANCH   7   8
ATOM      8  C   UNL A   1      34.979  23.629  24.497  1.00  0.00     0.368 C 
ATOM      9  O   UNL A   1      35.337  23.764  23.331  1.00  0.00    -0.245 OA
BRANCH   8  10
ATOM     10  C   UNL A   1      33.509  23.769  24.977  1.00  0.00     0.197 C 
ATOM     11  C   UNL A   1      32.536  22.750  24.297  1.00  0.00     0.064 C 
ATOM     12  C   UNL A   1      31.423  22.598  25.353  1.00  0.00     0.011 C 
ATOM     13  C   UNL A   1      32.107  22.716  26.710  1.00  0.00     0.008 C 
ATOM     14  C   UNL A   1      33.475  23.321  26.448  1.00  0.00     0.081 C 
BRANCH  11  15
ATOM     15  C   UNL A   1      33.088  21.382  23.834  1.00  0.00     0.034 C 
BRANCH  15  16
ATOM     16  C   UNL A   1      32.215  20.211  24.345  1.00  0.00     0.147 C 
BRANCH  16  17
ATOM     17  N   UNL A   1      32.739  18.873  24.118  1.00  0.00    -0.250 N 
ATOM     18  C   UNL A   1      34.057  15.836  25.338  1.00  0.00     0.092 C 
ATOM     19  C   UNL A   1      33.462  16.975  24.611  1.00  0.00     0.147 A 
ATOM     20  N   UNL A   1      33.111  16.876  23.298  1.00  0.00    -0.217 NA
ATOM     21  N   UNL A   1      33.219  18.168  25.171  1.00  0.00    -0.156 NA
ATOM     22  C   UNL A   1      32.678  18.081  22.995  1.00  0.00     0.124 A 
ATOM     23  C   UNL A   1      32.229  18.493  21.647  1.00  0.00     0.089 C 
ENDBRANCH  16  17
ENDBRANCH  15  16
ENDBRANCH  11  15
BRANCH  10  24
ATOM     24  N   UNL A   1      32.939  25.107  24.649  1.00  0.00    -0.330 N 
ATOM     25  H   UNL A   1      32.259  25.300  25.384  1.00  0.00     0.347 HD
ATOM     26  H   UNL A   1      32.657  24.954  23.681  1.00  0.00     0.347 HD
BRANCH  24  27
ATOM     27  C   UNL A   1      33.711  26.334  24.504  1.00  0.00     0.176 C 
ATOM     28  C   UNL A   1      33.059  27.114  23.342  1.00  0.00     0.075 C 
ATOM     29  C   UNL A   1      33.655  27.245  25.732  1.00  0.00     0.075 C 
ENDBRANCH  24  27
ENDBRANCH  10  24
ENDBRANCH   8  10
ENDBRANCH   7   8
ENDBRANCH   6   7
ENDBRANCH   5   6
ENDBRANCH   4   5
ENDBRANCH   3   4
ENDBRANCH   2   3
ENDBRANCH   1   2
BRANCH   1  30
ATOM     30  C   UNL A   1      42.615  20.847  26.454  1.00  0.00     0.188 C 
BRANCH  30  31
ATOM     31  C   UNL A   1      43.280  21.768  25.404  1.00  0.00     0.188 C 
BRANCH  31  32
ATOM     32  O   UNL A   1      44.339  21.162  24.668  1.00  0.00    -0.376 OA
BRANCH  32  33
ATOM     33  C   UNL A   1      45.642  21.725  24.694  1.00  0.00     0.202 C 
BRANCH  33  34
ATOM     34  C   UNL A   1      45.673  23.179  24.226  1.00  0.00     0.261 C 
BRANCH  34  35
ATOM     35  O   UNL A   1      45.955  24.080  25.286  1.00  0.00    -0.460 OA
BRANCH  35  36
ATOM     36  C   UNL A   1      45.513  25.328  25.101  1.00  0.00     0.338 C 
ATOM     37  O   UNL A   1      46.135  26.267  24.578  1.00  0.00    -0.246 OA
BRANCH  36  38
ATOM     38  C   UNL A   1      44.192  25.472  25.697  1.00  0.00     0.060 A 
ATOM     39  C   UNL A   1      43.406  26.461  25.114  1.00  0.00     0.016 A 
ATOM     40  C   UNL A   1      44.010  25.019  27.014  1.00  0.00     0.016 A 
ATOM     41  C   UNL A   1      42.752  27.294  25.972  1.00  0.00     0.010 A 
ATOM     42  C   UNL A   1      43.358  25.856  27.872  1.00  0.00     0.010 A 
ATOM     43  C   UNL A   1      42.871  27.046  27.343  1.00  0.00    -0.014 A 
BRANCH  43  44
ATOM     44  C   UNL A   1      42.499  28.124  28.217  1.00  0.00     0.031 A 
ATOM     45  C   UNL A   1      43.549  29.145  28.323  1.00  0.00     0.074 A 
ATOM     46  C   UNL A   1      41.296  28.158  28.816  1.00  0.00     0.049 A 
ATOM     47  N   UNL A   1      44.272  29.439  29.349  1.00  0.00    -0.248 NA
ATOM     48  C   UNL A   1      43.977  29.776  27.064  1.00  0.00     0.031 C 
ATOM     49  C   UNL A   1      40.116  27.332  28.537  1.00  0.00     0.029 A 
ATOM     50  N   UNL A   1      40.842  29.043  29.735  1.00  0.00    -0.354 N 
ATOM     51  C   UNL A   1      45.090  30.473  28.917  1.00  0.00     0.074 A 
ATOM     52  C   UNL A   1      45.019  30.493  27.478  1.00  0.00     0.031 C 
ATOM     53  C   UNL A   1      39.031  27.923  29.088  1.00  0.00     0.029 A 
ATOM     54  C   UNL A   1      39.462  29.090  29.842  1.00  0.00     0.049 A 
ATOM     55  H   UNL A   1      41.441  29.603  30.279  1.00  0.00     0.167 HD
ATOM     56  C   UNL A   1      45.532  31.424  29.778  1.00  0.00     0.037 A 
ATOM     57  C   UNL A   1      38.753  30.103  30.398  1.00  0.00     0.037 A 
ATOM     58  C   UNL A   1      45.476  30.984  31.147  1.00  0.00     0.049 A 
ATOM     59  C   UNL A   1      39.689  30.871  31.268  1.00  0.00     0.074 A 
ATOM     60  C   UNL A   1      46.028  29.921  31.837  1.00  0.00     0.029 A 
ATOM     61  N   UNL A   1      44.460  31.459  31.941  1.00  0.00    -0.354 N 
ATOM     62  N   UNL A   1      40.233  30.399  32.357  1.00  0.00    -0.248 NA
ATOM     63  C   UNL A   1      40.378  32.015  30.684  1.00  0.00     0.031 C 
ATOM     64  C   UNL A   1      45.034  29.528  32.780  1.00  0.00     0.029 A 
ATOM     65  C   UNL A   1      43.947  30.392  32.636  1.00  0.00     0.049 A 
ATOM     66  H   UNL A   1      44.156  32.394  32.000  1.00  0.00     0.167 HD
ATOM     67  C   UNL A   1      41.527  30.908  32.370  1.00  0.00     0.074 A 
ATOM     68  C   UNL A   1      41.525  31.969  31.368  1.00  0.00     0.031 C 
ATOM     69  C   UNL A   1      42.549  30.241  32.985  1.00  0.00     0.037 A 
BRANCH  56  70
ATOM     70  C   UNL A   1      45.637  32.864  29.370  1.00  0.00     0.058 A 
ATOM     71  C   UNL A   1      46.819  33.576  29.630  1.00  0.00     0.135 A 
ATOM     72  C   UNL A   1      44.521  33.639  28.969  1.00  0.00     0.135 A 
ATOM     73  F   UNL A   1      47.922  32.935  30.045  1.00  0.00    -0.206 F 
ATOM     74  C   UNL A   1      46.875  34.966  29.544  1.00  0.00     0.059 A 
ATOM     75  C   UNL A   1      44.573  35.014  28.813  1.00  0.00     0.059 A 
ATOM     76  F   UNL A   1      43.300  33.110  28.814  1.00  0.00    -0.206 F 
ATOM     77  C   UNL A   1      45.741  35.675  29.147  1.00  0.00     0.060 A 
BRANCH  77  78
ATOM     78  S   UNL A   1      45.765  37.473  29.158  1.00  0.00     0.124 S 
ATOM     79  O   UNL A   1      44.610  37.778  28.321  1.00  0.00    -0.237 OA
ATOM     80  O   UNL A   1      45.623  37.770  30.579  1.00  0.00    -0.237 OA
ATOM     81  O   UNL A   1      47.067  37.794  28.583  1.00  0.00    -0.744 OA
ENDBRANCH  77  78
ENDBRANCH  56  70
BRANCH  57  82
ATOM     82  C   UNL A   1      37.469  30.660  29.893  1.00  0.00     0.058 A 
ATOM     83  C   UNL A   1      36.522  31.212  30.772  1.00  0.00     0.135 A 
ATOM     84  C   UNL A   1      37.249  30.898  28.518  1.00  0.00     0.135 A 
ATOM     85  F   UNL A   1      36.668  31.064  32.097  1.00  0.00    -0.206 F 
ATOM     86  C   UNL A   1      35.443  31.980  30.319  1.00  0.00     0.059 A 
ATOM     87  C   UNL A   1      36.173  31.642  28.043  1.00  0.00     0.059 A 
ATOM     88  F   UNL A   1      38.127  30.491  27.590  1.00  0.00    -0.206 F 
ATOM     89  C   UNL A   1      35.285  32.201  28.951  1.00  0.00     0.060 A 
BRANCH  89  90
ATOM     90  S   UNL A   1      33.989  33.317  28.367  1.00  0.00     0.124 S 
ATOM     91  O   UNL A   1      33.065  32.395  27.720  1.00  0.00    -0.237 OA
ATOM     92  O   UNL A   1      33.523  33.924  29.609  1.00  0.00    -0.237 OA
ATOM     93  O   UNL A   1      34.701  34.221  27.465  1.00  0.00    -0.744 OA
ENDBRANCH  89  90
ENDBRANCH  57  82
BRANCH  69  94
ATOM     94  C   UNL A   1      42.201  29.094  33.900  1.00  0.00     0.058 A 
ATOM     95  C   UNL A   1      42.221  27.743  33.508  1.00  0.00     0.135 A 
ATOM     96  C   UNL A   1      41.991  29.360  35.261  1.00  0.00     0.135 A 
ATOM     97  F   UNL A   1      42.525  27.396  32.250  1.00  0.00    -0.206 F 
ATOM     98  C   UNL A   1      41.997  26.709  34.418  1.00  0.00     0.059 A 
ATOM     99  C   UNL A   1      41.797  28.343  36.192  1.00  0.00     0.059 A 
ATOM    100  F   UNL A   1      42.028  30.626  35.711  1.00  0.00    -0.206 F 
ATOM    101  C   UNL A   1      41.788  27.018  35.760  1.00  0.00     0.060 A 
BRANCH 101 102
ATOM    102  S   UNL A   1      41.583  25.674  36.950  1.00  0.00     0.124 S 
ATOM    103  O   UNL A   1      42.875  25.665  37.629  1.00  0.00    -0.237 OA
ATOM    104  O   UNL A   1      40.449  26.127  37.751  1.00  0.00    -0.237 OA
ATOM    105  O   UNL A   1      41.313  24.511  36.108  1.00  0.00    -0.744 OA
ENDBRANCH 101 102
ENDBRANCH  69  94
ENDBRANCH  43  44
ENDBRANCH  36  38
ENDBRANCH  35  36
ENDBRANCH  34  35
ENDBRANCH  33  34
ENDBRANCH  32  33
ENDBRANCH  31  32
ENDBRANCH  30  31
ENDBRANCH   1  30
TORSDOF 28
ENDMDL
