MODEL 1
REMARK VINA RESULT:      -6.1      0.000      0.000
REMARK SMILES CC(C)c1cccc2c1N[C@H](c1ccc(C(=O)OCCOCCOCCOCCOC(=O)c3ccc(-c4c5nc(c(-c6c(F)cc(S(=O)(=O)[O-])cc6F)c6ccc([nH]6)c(-c6c(F)cc(S(=O)(=O)[O-])cc6F)c6nc(c(-c7c(F)cc(S(=O)(=O)[O-])cc7F)c7ccc4[nH]7)C=C6)C=C5)cc3)cc1)[C@H]1CC=C[C@H]21
REMARK SMILES IDX 25 1 24 2 23 3 22 4 21 5 20 6 19 7 18 8 16 9 17 10 15 11
REMARK SMILES IDX 12 12 13 13 100 14 14 15 99 16 11 17 4 18 5 19 9 20 6 21
REMARK SMILES IDX 8 22 10 23 7 24 105 25 101 27 104 28 102 29 103 30 2 31 1 32
REMARK SMILES IDX 3 33 26 34 27 35 28 36 29 37 30 38 31 39 32 40 33 41 34 42
REMARK SMILES IDX 98 43 35 44 97 45 36 46 37 47 38 48 91 49 39 50 96 51 90 52
REMARK SMILES IDX 92 53 40 54 95 55 89 56 88 57 41 59 75 60 54 61 74 62 55 63
REMARK SMILES IDX 58 64 73 65 93 66 56 67 57 68 72 70 94 71 59 72 42 73 43 74
REMARK SMILES IDX 52 75 44 76 45 77 51 78 53 79 46 80 47 81 48 82 49 83 50 84
REMARK SMILES IDX 76 85 77 86 86 87 78 88 79 89 85 90 87 91 80 92 81 93 82 94
REMARK SMILES IDX 83 95 84 96 60 97 61 98 70 99 62 100 63 101 69 102 71 103
REMARK SMILES IDX 64 104 65 105 66 106 67 107 68 108
REMARK H PARENT 10 26 92 58 58 69
REMARK Flexibility Score: inf
ROOT
ATOM      1  C   UNL A   1      44.979  32.943  43.852  1.00  0.00     0.188 C 
ENDROOT
BRANCH   1   2
ATOM      2  O   UNL A   1      44.480  31.609  43.808  1.00  0.00    -0.377 OA
BRANCH   2   3
ATOM      3  C   UNL A   1      44.594  30.790  44.959  1.00  0.00     0.188 C 
BRANCH   3   4
ATOM      4  C   UNL A   1      45.629  29.650  44.958  1.00  0.00     0.188 C 
BRANCH   4   5
ATOM      5  O   UNL A   1      45.210  28.476  44.268  1.00  0.00    -0.376 OA
BRANCH   5   6
ATOM      6  C   UNL A   1      45.931  28.153  43.086  1.00  0.00     0.202 C 
BRANCH   6   7
ATOM      7  C   UNL A   1      45.587  29.030  41.879  1.00  0.00     0.261 C 
BRANCH   7   8
ATOM      8  O   UNL A   1      46.726  29.598  41.224  1.00  0.00    -0.460 OA
BRANCH   8   9
ATOM      9  C   UNL A   1      47.130  30.838  41.576  1.00  0.00     0.338 C 
ATOM     10  O   UNL A   1      47.867  31.130  42.501  1.00  0.00    -0.246 OA
BRANCH   9  11
ATOM     11  C   UNL A   1      46.680  31.775  40.509  1.00  0.00     0.060 A 
ATOM     12  C   UNL A   1      45.942  33.524  38.407  1.00  0.00    -0.025 A 
ATOM     13  C   UNL A   1      46.759  33.970  39.461  1.00  0.00     0.007 A 
ATOM     14  C   UNL A   1      45.579  32.167  38.391  1.00  0.00     0.007 A 
ATOM     15  C   UNL A   1      47.128  33.102  40.504  1.00  0.00     0.016 A 
ATOM     16  C   UNL A   1      45.905  31.315  39.443  1.00  0.00     0.016 A 
BRANCH  12  17
ATOM     17  C   UNL A   1      45.402  34.513  37.375  1.00  0.00     0.114 C 
ATOM     18  C   UNL A   1      43.626  33.763  34.063  1.00  0.00    -0.022 A 
ATOM     19  C   UNL A   1      42.511  34.296  33.366  1.00  0.00     0.006 A 
ATOM     20  C   UNL A   1      43.971  34.376  35.298  1.00  0.00     0.042 A 
ATOM     21  C   UNL A   1      41.854  35.457  33.766  1.00  0.00     0.001 A 
ATOM     22  C   UNL A   1      43.344  35.614  35.647  1.00  0.00    -0.017 A 
ATOM     23  N   UNL A   1      44.923  33.817  36.168  1.00  0.00    -0.377 N 
ATOM     24  C   UNL A   1      42.301  36.141  34.879  1.00  0.00     0.006 A 
ATOM     25  C   UNL A   1      43.898  36.387  36.810  1.00  0.00     0.049 C 
ATOM     26  H   UNL A   1      45.284  32.924  35.964  1.00  0.00     0.161 HD
ATOM     27  C   UNL A   1      44.281  35.401  37.904  1.00  0.00     0.031 C 
ATOM     28  C   UNL A   1      43.058  37.336  37.617  1.00  0.00    -0.023 C 
ATOM     29  C   UNL A   1      44.536  36.301  39.114  1.00  0.00     0.034 C 
ATOM     30  C   UNL A   1      43.451  37.317  38.901  1.00  0.00    -0.030 C 
BRANCH  18  31
ATOM     31  C   UNL A   1      44.348  32.557  33.426  1.00  0.00     0.015 C 
ATOM     32  C   UNL A   1      43.667  32.062  32.123  1.00  0.00     0.012 C 
ATOM     33  C   UNL A   1      45.828  32.764  33.059  1.00  0.00     0.012 C 
ENDBRANCH  18  31
ENDBRANCH  12  17
ENDBRANCH   9  11
ENDBRANCH   8   9
ENDBRANCH   7   8
ENDBRANCH   6   7
ENDBRANCH   5   6
ENDBRANCH   4   5
ENDBRANCH   3   4
ENDBRANCH   2   3
ENDBRANCH   1   2
BRANCH   1  34
ATOM     34  C   UNL A   1      44.454  34.030  42.885  1.00  0.00     0.188 C 
BRANCH  34  35
ATOM     35  O   UNL A   1      43.194  33.752  42.288  1.00  0.00    -0.376 OA
BRANCH  35  36
ATOM     36  C   UNL A   1      42.499  34.861  41.737  1.00  0.00     0.202 C 
BRANCH  36  37
ATOM     37  C   UNL A   1      41.059  35.023  42.233  1.00  0.00     0.261 C 
BRANCH  37  38
ATOM     38  O   UNL A   1      40.318  36.091  41.628  1.00  0.00    -0.460 OA
BRANCH  38  39
ATOM     39  C   UNL A   1      39.104  35.805  41.105  1.00  0.00     0.338 C 
ATOM     40  O   UNL A   1      38.022  36.222  41.476  1.00  0.00    -0.246 OA
BRANCH  39  41
ATOM     41  C   UNL A   1      39.354  35.044  39.864  1.00  0.00     0.060 A 
ATOM     42  C   UNL A   1      40.131  35.609  38.850  1.00  0.00     0.016 A 
ATOM     43  C   UNL A   1      38.745  33.796  39.685  1.00  0.00     0.016 A 
ATOM     44  C   UNL A   1      40.308  34.917  37.653  1.00  0.00     0.010 A 
ATOM     45  C   UNL A   1      38.911  33.111  38.479  1.00  0.00     0.010 A 
ATOM     46  C   UNL A   1      39.709  33.660  37.463  1.00  0.00    -0.014 A 
BRANCH  46  47
ATOM     47  C   UNL A   1      40.085  32.849  36.282  1.00  0.00     0.031 A 
ATOM     48  C   UNL A   1      41.232  31.886  36.302  1.00  0.00     0.074 A 
ATOM     49  C   UNL A   1      39.335  32.993  35.174  1.00  0.00     0.049 A 
ATOM     50  N   UNL A   1      41.614  31.052  35.368  1.00  0.00    -0.248 NA
ATOM     51  C   UNL A   1      42.060  31.855  37.515  1.00  0.00     0.031 C 
ATOM     52  C   UNL A   1      38.200  33.913  35.048  1.00  0.00     0.029 A 
ATOM     53  N   UNL A   1      39.399  32.371  33.955  1.00  0.00    -0.354 N 
ATOM     54  C   UNL A   1      42.710  30.373  35.885  1.00  0.00     0.074 A 
ATOM     55  C   UNL A   1      42.959  30.927  37.201  1.00  0.00     0.031 C 
ATOM     56  C   UNL A   1      37.664  33.781  33.827  1.00  0.00     0.029 A 
ATOM     57  C   UNL A   1      38.425  32.784  33.079  1.00  0.00     0.049 A 
ATOM     58  H   UNL A   1      40.077  31.693  33.729  1.00  0.00     0.167 HD
ATOM     59  C   UNL A   1      43.424  29.372  35.314  1.00  0.00     0.037 A 
ATOM     60  C   UNL A   1      38.164  32.398  31.817  1.00  0.00     0.037 A 
ATOM     61  C   UNL A   1      43.177  28.848  33.991  1.00  0.00     0.049 A 
ATOM     62  C   UNL A   1      38.999  31.317  31.195  1.00  0.00     0.074 A 
ATOM     63  C   UNL A   1      43.836  27.820  33.336  1.00  0.00     0.029 A 
ATOM     64  N   UNL A   1      42.204  29.313  33.116  1.00  0.00    -0.354 N 
ATOM     65  N   UNL A   1      39.998  30.647  31.716  1.00  0.00    -0.248 NA
ATOM     66  C   UNL A   1      38.662  30.929  29.819  1.00  0.00     0.031 C 
ATOM     67  C   UNL A   1      43.295  27.696  32.052  1.00  0.00     0.029 A 
ATOM     68  C   UNL A   1      42.261  28.609  31.922  1.00  0.00     0.049 A 
ATOM     69  H   UNL A   1      41.567  30.037  33.314  1.00  0.00     0.167 HD
ATOM     70  C   UNL A   1      40.394  29.739  30.742  1.00  0.00     0.074 A 
ATOM     71  C   UNL A   1      39.519  29.939  29.605  1.00  0.00     0.031 C 
ATOM     72  C   UNL A   1      41.389  28.818  30.791  1.00  0.00     0.037 A 
BRANCH  59  73
ATOM     73  C   UNL A   1      44.543  28.759  36.112  1.00  0.00     0.058 A 
ATOM     74  C   UNL A   1      45.839  29.300  36.087  1.00  0.00     0.135 A 
ATOM     75  C   UNL A   1      44.304  27.682  36.982  1.00  0.00     0.135 A 
ATOM     76  F   UNL A   1      46.128  30.326  35.270  1.00  0.00    -0.206 F 
ATOM     77  C   UNL A   1      46.859  28.787  36.882  1.00  0.00     0.059 A 
ATOM     78  C   UNL A   1      45.303  27.167  37.804  1.00  0.00     0.059 A 
ATOM     79  F   UNL A   1      43.083  27.129  37.052  1.00  0.00    -0.206 F 
ATOM     80  C   UNL A   1      46.581  27.722  37.741  1.00  0.00     0.060 A 
BRANCH  80  81
ATOM     81  S   UNL A   1      47.915  27.083  38.777  1.00  0.00     0.124 S 
ATOM     82  O   UNL A   1      48.550  26.125  37.877  1.00  0.00    -0.237 OA
ATOM     83  O   UNL A   1      48.686  28.287  39.068  1.00  0.00    -0.237 OA
ATOM     84  O   UNL A   1      47.213  26.500  39.917  1.00  0.00    -0.744 OA
ENDBRANCH  80  81
ENDBRANCH  59  73
BRANCH  60  85
ATOM     85  C   UNL A   1      37.031  33.018  31.087  1.00  0.00     0.058 A 
ATOM     86  C   UNL A   1      37.258  33.933  30.049  1.00  0.00     0.135 A 
ATOM     87  C   UNL A   1      35.703  32.667  31.375  1.00  0.00     0.135 A 
ATOM     88  F   UNL A   1      38.512  34.297  29.740  1.00  0.00    -0.206 F 
ATOM     89  C   UNL A   1      36.208  34.484  29.325  1.00  0.00     0.059 A 
ATOM     90  C   UNL A   1      34.636  33.187  30.648  1.00  0.00     0.059 A 
ATOM     91  F   UNL A   1      35.437  31.779  32.345  1.00  0.00    -0.206 F 
ATOM     92  C   UNL A   1      34.901  34.099  29.628  1.00  0.00     0.060 A 
BRANCH  92  93
ATOM     93  S   UNL A   1      33.551  34.777  28.638  1.00  0.00     0.124 S 
ATOM     94  O   UNL A   1      34.168  35.976  28.083  1.00  0.00    -0.237 OA
ATOM     95  O   UNL A   1      33.293  33.695  27.694  1.00  0.00    -0.237 OA
ATOM     96  O   UNL A   1      32.496  35.006  29.621  1.00  0.00    -0.744 OA
ENDBRANCH  92  93
ENDBRANCH  60  85
BRANCH  72  97
ATOM     97  C   UNL A   1      41.573  27.937  29.585  1.00  0.00     0.058 A 
ATOM     98  C   UNL A   1      42.655  28.103  28.707  1.00  0.00     0.135 A 
ATOM     99  C   UNL A   1      40.678  26.886  29.328  1.00  0.00     0.135 A 
ATOM    100  F   UNL A   1      43.536  29.097  28.902  1.00  0.00    -0.206 F 
ATOM    101  C   UNL A   1      42.829  27.276  27.603  1.00  0.00     0.059 A 
ATOM    102  C   UNL A   1      40.847  26.029  28.245  1.00  0.00     0.059 A 
ATOM    103  F   UNL A   1      39.630  26.677  30.141  1.00  0.00    -0.206 F 
ATOM    104  C   UNL A   1      41.920  26.239  27.381  1.00  0.00     0.060 A 
BRANCH 104 105
ATOM    105  S   UNL A   1      42.174  25.157  25.958  1.00  0.00     0.124 S 
ATOM    106  O   UNL A   1      41.424  23.970  26.354  1.00  0.00    -0.237 OA
ATOM    107  O   UNL A   1      41.597  25.936  24.867  1.00  0.00    -0.237 OA
ATOM    108  O   UNL A   1      43.623  24.995  25.907  1.00  0.00    -0.744 OA
ENDBRANCH 104 105
ENDBRANCH  72  97
ENDBRANCH  46  47
ENDBRANCH  39  41
ENDBRANCH  38  39
ENDBRANCH  37  38
ENDBRANCH  36  37
ENDBRANCH  35  36
ENDBRANCH  34  35
ENDBRANCH   1  34
TORSDOF 25
ENDMDL
MODEL 2
REMARK VINA RESULT:      -6.0      6.162     14.190
REMARK SMILES CC(C)c1cccc2c1N[C@H](c1ccc(C(=O)OCCOCCOCCOCCOC(=O)c3ccc(-c4c5nc(c(-c6c(F)cc(S(=O)(=O)[O-])cc6F)c6ccc([nH]6)c(-c6c(F)cc(S(=O)(=O)[O-])cc6F)c6nc(c(-c7c(F)cc(S(=O)(=O)[O-])cc7F)c7ccc4[nH]7)C=C6)C=C5)cc3)cc1)[C@H]1CC=C[C@H]21
REMARK SMILES IDX 25 1 24 2 23 3 22 4 21 5 20 6 19 7 18 8 16 9 17 10 15 11
REMARK SMILES IDX 12 12 13 13 100 14 14 15 99 16 11 17 4 18 5 19 9 20 6 21
REMARK SMILES IDX 8 22 10 23 7 24 105 25 101 27 104 28 102 29 103 30 2 31 1 32
REMARK SMILES IDX 3 33 26 34 27 35 28 36 29 37 30 38 31 39 32 40 33 41 34 42
REMARK SMILES IDX 98 43 35 44 97 45 36 46 37 47 38 48 91 49 39 50 96 51 90 52
REMARK SMILES IDX 92 53 40 54 95 55 89 56 88 57 41 59 75 60 54 61 74 62 55 63
REMARK SMILES IDX 58 64 73 65 93 66 56 67 57 68 72 70 94 71 59 72 42 73 43 74
REMARK SMILES IDX 52 75 44 76 45 77 51 78 53 79 46 80 47 81 48 82 49 83 50 84
REMARK SMILES IDX 76 85 77 86 86 87 78 88 79 89 85 90 87 91 80 92 81 93 82 94
REMARK SMILES IDX 83 95 84 96 60 97 61 98 70 99 62 100 63 101 69 102 71 103
REMARK SMILES IDX 64 104 65 105 66 106 67 107 68 108
REMARK H PARENT 10 26 92 58 58 69
REMARK Flexibility Score: inf
ROOT
ATOM      1  C   UNL A   1      32.979  28.643  26.583  1.00  0.00     0.188 C 
ENDROOT
BRANCH   1   2
ATOM      2  O   UNL A   1      33.198  27.551  25.694  1.00  0.00    -0.377 OA
BRANCH   2   3
ATOM      3  C   UNL A   1      32.697  26.271  26.036  1.00  0.00     0.188 C 
BRANCH   3   4
ATOM      4  C   UNL A   1      31.176  26.080  26.172  1.00  0.00     0.188 C 
BRANCH   4   5
ATOM      5  O   UNL A   1      30.667  24.922  25.519  1.00  0.00    -0.376 OA
BRANCH   5   6
ATOM      6  C   UNL A   1      30.774  23.699  26.237  1.00  0.00     0.202 C 
BRANCH   6   7
ATOM      7  C   UNL A   1      31.587  22.617  25.521  1.00  0.00     0.261 C 
BRANCH   7   8
ATOM      8  O   UNL A   1      32.922  22.463  26.017  1.00  0.00    -0.460 OA
BRANCH   8   9
ATOM      9  C   UNL A   1      33.741  21.571  25.418  1.00  0.00     0.338 C 
ATOM     10  O   UNL A   1      33.410  20.638  24.709  1.00  0.00    -0.246 OA
BRANCH   9  11
ATOM     11  C   UNL A   1      35.139  22.049  25.611  1.00  0.00     0.060 A 
ATOM     12  C   UNL A   1      37.793  23.009  25.845  1.00  0.00    -0.025 A 
ATOM     13  C   UNL A   1      37.533  21.734  25.313  1.00  0.00     0.007 A 
ATOM     14  C   UNL A   1      36.691  23.816  26.175  1.00  0.00     0.007 A 
ATOM     15  C   UNL A   1      36.216  21.257  25.194  1.00  0.00     0.016 A 
ATOM     16  C   UNL A   1      35.388  23.333  26.101  1.00  0.00     0.016 A 
BRANCH  12  17
ATOM     17  C   UNL A   1      39.228  23.450  26.135  1.00  0.00     0.114 C 
ATOM     18  C   UNL A   1      40.425  26.530  28.075  1.00  0.00    -0.022 A 
ATOM     19  C   UNL A   1      41.439  26.796  29.031  1.00  0.00     0.006 A 
ATOM     20  C   UNL A   1      40.337  25.202  27.576  1.00  0.00     0.042 A 
ATOM     21  C   UNL A   1      42.416  25.865  29.376  1.00  0.00     0.001 A 
ATOM     22  C   UNL A   1      41.397  24.288  27.873  1.00  0.00    -0.017 A 
ATOM     23  N   UNL A   1      39.260  24.772  26.783  1.00  0.00    -0.377 N 
ATOM     24  C   UNL A   1      42.422  24.628  28.761  1.00  0.00     0.006 A 
ATOM     25  C   UNL A   1      41.436  22.981  27.133  1.00  0.00     0.049 C 
ATOM     26  H   UNL A   1      38.494  25.378  26.657  1.00  0.00     0.161 HD
ATOM     27  C   UNL A   1      40.011  22.464  26.995  1.00  0.00     0.031 C 
ATOM     28  C   UNL A   1      42.087  21.753  27.705  1.00  0.00    -0.023 C 
ATOM     29  C   UNL A   1      40.203  21.026  26.513  1.00  0.00     0.034 C 
ATOM     30  C   UNL A   1      41.417  20.656  27.315  1.00  0.00    -0.030 C 
BRANCH  18  31
ATOM     31  C   UNL A   1      39.500  27.700  27.681  1.00  0.00     0.015 C 
ATOM     32  C   UNL A   1      38.895  28.434  28.907  1.00  0.00     0.012 C 
ATOM     33  C   UNL A   1      40.130  28.805  26.814  1.00  0.00     0.012 C 
ENDBRANCH  18  31
ENDBRANCH  12  17
ENDBRANCH   9  11
ENDBRANCH   8   9
ENDBRANCH   7   8
ENDBRANCH   6   7
ENDBRANCH   5   6
ENDBRANCH   4   5
ENDBRANCH   3   4
ENDBRANCH   2   3
ENDBRANCH   1   2
BRANCH   1  34
ATOM     34  C   UNL A   1      33.304  30.097  26.166  1.00  0.00     0.188 C 
BRANCH  34  35
ATOM     35  O   UNL A   1      33.047  31.083  27.158  1.00  0.00    -0.376 OA
BRANCH  35  36
ATOM     36  C   UNL A   1      34.078  31.303  28.109  1.00  0.00     0.202 C 
BRANCH  36  37
ATOM     37  C   UNL A   1      34.876  32.593  27.901  1.00  0.00     0.261 C 
BRANCH  37  38
ATOM     38  O   UNL A   1      34.913  33.480  29.027  1.00  0.00    -0.460 OA
BRANCH  38  39
ATOM     39  C   UNL A   1      35.150  32.947  30.247  1.00  0.00     0.338 C 
ATOM     40  O   UNL A   1      34.334  32.497  31.030  1.00  0.00    -0.246 OA
BRANCH  39  41
ATOM     41  C   UNL A   1      36.618  32.829  30.372  1.00  0.00     0.060 A 
ATOM     42  C   UNL A   1      37.325  32.020  29.480  1.00  0.00     0.016 A 
ATOM     43  C   UNL A   1      37.275  33.469  31.430  1.00  0.00     0.016 A 
ATOM     44  C   UNL A   1      38.700  31.856  29.642  1.00  0.00     0.010 A 
ATOM     45  C   UNL A   1      38.650  33.291  31.600  1.00  0.00     0.010 A 
ATOM     46  C   UNL A   1      39.374  32.498  30.696  1.00  0.00    -0.014 A 
BRANCH  46  47
ATOM     47  C   UNL A   1      40.854  32.489  30.721  1.00  0.00     0.031 A 
ATOM     48  C   UNL A   1      41.673  33.608  30.153  1.00  0.00     0.074 A 
ATOM     49  C   UNL A   1      41.453  31.433  31.300  1.00  0.00     0.049 A 
ATOM     50  N   UNL A   1      42.972  33.768  30.188  1.00  0.00    -0.248 NA
ATOM     51  C   UNL A   1      40.951  34.680  29.454  1.00  0.00     0.031 C 
ATOM     52  C   UNL A   1      40.745  30.284  31.875  1.00  0.00     0.029 A 
ATOM     53  N   UNL A   1      42.776  31.151  31.514  1.00  0.00    -0.354 N 
ATOM     54  C   UNL A   1      43.227  34.971  29.542  1.00  0.00     0.074 A 
ATOM     55  C   UNL A   1      41.948  35.477  29.085  1.00  0.00     0.031 C 
ATOM     56  C   UNL A   1      41.641  29.433  32.392  1.00  0.00     0.029 A 
ATOM     57  C   UNL A   1      42.983  29.963  32.170  1.00  0.00     0.049 A 
ATOM     58  H   UNL A   1      43.508  31.744  31.225  1.00  0.00     0.167 HD
ATOM     59  C   UNL A   1      44.419  35.594  29.367  1.00  0.00     0.037 A 
ATOM     60  C   UNL A   1      44.125  29.367  32.560  1.00  0.00     0.037 A 
ATOM     61  C   UNL A   1      45.687  35.063  29.808  1.00  0.00     0.049 A 
ATOM     62  C   UNL A   1      45.433  30.061  32.314  1.00  0.00     0.074 A 
ATOM     63  C   UNL A   1      46.945  35.632  29.693  1.00  0.00     0.029 A 
ATOM     64  N   UNL A   1      45.866  33.839  30.439  1.00  0.00    -0.354 N 
ATOM     65  N   UNL A   1      45.654  31.223  31.749  1.00  0.00    -0.248 NA
ATOM     66  C   UNL A   1      46.645  29.369  32.771  1.00  0.00     0.031 C 
ATOM     67  C   UNL A   1      47.886  34.735  30.208  1.00  0.00     0.029 A 
ATOM     68  C   UNL A   1      47.212  33.628  30.697  1.00  0.00     0.049 A 
ATOM     69  H   UNL A   1      45.142  33.213  30.670  1.00  0.00     0.167 HD
ATOM     70  C   UNL A   1      47.029  31.416  31.806  1.00  0.00     0.074 A 
ATOM     71  C   UNL A   1      47.586  30.255  32.469  1.00  0.00     0.031 C 
ATOM     72  C   UNL A   1      47.760  32.465  31.354  1.00  0.00     0.037 A 
BRANCH  59  73
ATOM     73  C   UNL A   1      44.421  36.930  28.673  1.00  0.00     0.058 A 
ATOM     74  C   UNL A   1      44.246  38.125  29.390  1.00  0.00     0.135 A 
ATOM     75  C   UNL A   1      44.692  37.028  27.298  1.00  0.00     0.135 A 
ATOM     76  F   UNL A   1      43.977  38.091  30.705  1.00  0.00    -0.206 F 
ATOM     77  C   UNL A   1      44.325  39.367  28.767  1.00  0.00     0.059 A 
ATOM     78  C   UNL A   1      44.799  38.261  26.658  1.00  0.00     0.059 A 
ATOM     79  F   UNL A   1      44.874  35.919  26.564  1.00  0.00    -0.206 F 
ATOM     80  C   UNL A   1      44.606  39.425  27.400  1.00  0.00     0.060 A 
BRANCH  80  81
ATOM     81  S   UNL A   1      44.721  41.047  26.616  1.00  0.00     0.124 S 
ATOM     82  O   UNL A   1      45.718  41.707  27.455  1.00  0.00    -0.237 OA
ATOM     83  O   UNL A   1      45.155  40.709  25.265  1.00  0.00    -0.237 OA
ATOM     84  O   UNL A   1      43.365  41.576  26.722  1.00  0.00    -0.744 OA
ENDBRANCH  80  81
ENDBRANCH  59  73
BRANCH  60  85
ATOM     85  C   UNL A   1      44.060  28.062  33.263  1.00  0.00     0.058 A 
ATOM     86  C   UNL A   1      43.776  27.997  34.635  1.00  0.00     0.135 A 
ATOM     87  C   UNL A   1      44.226  26.854  32.568  1.00  0.00     0.135 A 
ATOM     88  F   UNL A   1      43.611  29.128  35.339  1.00  0.00    -0.206 F 
ATOM     89  C   UNL A   1      43.665  26.780  35.295  1.00  0.00     0.059 A 
ATOM     90  C   UNL A   1      44.095  25.623  33.202  1.00  0.00     0.059 A 
ATOM     91  F   UNL A   1      44.478  26.866  31.250  1.00  0.00    -0.206 F 
ATOM     92  C   UNL A   1      43.820  25.598  34.569  1.00  0.00     0.060 A 
BRANCH  92  93
ATOM     93  S   UNL A   1      43.611  24.024  35.429  1.00  0.00     0.124 S 
ATOM     94  O   UNL A   1      43.994  23.071  34.393  1.00  0.00    -0.237 OA
ATOM     95  O   UNL A   1      44.540  24.163  36.546  1.00  0.00    -0.237 OA
ATOM     96  O   UNL A   1      42.198  24.026  35.794  1.00  0.00    -0.744 OA
ENDBRANCH  92  93
ENDBRANCH  60  85
BRANCH  72  97
ATOM     97  C   UNL A   1      49.247  32.418  31.581  1.00  0.00     0.058 A 
ATOM     98  C   UNL A   1      49.837  32.974  32.728  1.00  0.00     0.135 A 
ATOM     99  C   UNL A   1      50.089  31.772  30.661  1.00  0.00     0.135 A 
ATOM    100  F   UNL A   1      49.080  33.610  33.635  1.00  0.00    -0.206 F 
ATOM    101  C   UNL A   1      51.210  32.914  32.940  1.00  0.00     0.059 A 
ATOM    102  C   UNL A   1      51.461  31.676  30.867  1.00  0.00     0.059 A 
ATOM    103  F   UNL A   1      49.576  31.215  29.552  1.00  0.00    -0.206 F 
ATOM    104  C   UNL A   1      52.014  32.261  32.005  1.00  0.00     0.060 A 
BRANCH 104 105
ATOM    105  S   UNL A   1      53.792  32.168  32.308  1.00  0.00     0.124 S 
ATOM    106  O   UNL A   1      54.280  31.640  31.038  1.00  0.00    -0.237 OA
ATOM    107  O   UNL A   1      54.133  33.560  32.589  1.00  0.00    -0.237 OA
ATOM    108  O   UNL A   1      53.897  31.261  33.446  1.00  0.00    -0.744 OA
ENDBRANCH 104 105
ENDBRANCH  72  97
ENDBRANCH  46  47
ENDBRANCH  39  41
ENDBRANCH  38  39
ENDBRANCH  37  38
ENDBRANCH  36  37
ENDBRANCH  35  36
ENDBRANCH  34  35
ENDBRANCH   1  34
TORSDOF 25
ENDMDL
MODEL 3
REMARK VINA RESULT:      -5.9      3.845     10.548
REMARK SMILES CC(C)c1cccc2c1N[C@H](c1ccc(C(=O)OCCOCCOCCOCCOC(=O)c3ccc(-c4c5nc(c(-c6c(F)cc(S(=O)(=O)[O-])cc6F)c6ccc([nH]6)c(-c6c(F)cc(S(=O)(=O)[O-])cc6F)c6nc(c(-c7c(F)cc(S(=O)(=O)[O-])cc7F)c7ccc4[nH]7)C=C6)C=C5)cc3)cc1)[C@H]1CC=C[C@H]21
REMARK SMILES IDX 25 1 24 2 23 3 22 4 21 5 20 6 19 7 18 8 16 9 17 10 15 11
REMARK SMILES IDX 12 12 13 13 100 14 14 15 99 16 11 17 4 18 5 19 9 20 6 21
REMARK SMILES IDX 8 22 10 23 7 24 105 25 101 27 104 28 102 29 103 30 2 31 1 32
REMARK SMILES IDX 3 33 26 34 27 35 28 36 29 37 30 38 31 39 32 40 33 41 34 42
REMARK SMILES IDX 98 43 35 44 97 45 36 46 37 47 38 48 91 49 39 50 96 51 90 52
REMARK SMILES IDX 92 53 40 54 95 55 89 56 88 57 41 59 75 60 54 61 74 62 55 63
REMARK SMILES IDX 58 64 73 65 93 66 56 67 57 68 72 70 94 71 59 72 42 73 43 74
REMARK SMILES IDX 52 75 44 76 45 77 51 78 53 79 46 80 47 81 48 82 49 83 50 84
REMARK SMILES IDX 76 85 77 86 86 87 78 88 79 89 85 90 87 91 80 92 81 93 82 94
REMARK SMILES IDX 83 95 84 96 60 97 61 98 70 99 62 100 63 101 69 102 71 103
REMARK SMILES IDX 64 104 65 105 66 106 67 107 68 108
REMARK H PARENT 10 26 92 58 58 69
REMARK Flexibility Score: inf
ROOT
ATOM      1  C   UNL A   1      44.094  37.351  31.701  1.00  0.00     0.188 C 
ENDROOT
BRANCH   1   2
ATOM      2  O   UNL A   1      44.846  38.425  32.256  1.00  0.00    -0.377 OA
BRANCH   2   3
ATOM      3  C   UNL A   1      44.881  38.590  33.663  1.00  0.00     0.188 C 
BRANCH   3   4
ATOM      4  C   UNL A   1      43.595  38.342  34.472  1.00  0.00     0.188 C 
BRANCH   4   5
ATOM      5  O   UNL A   1      43.814  38.020  35.841  1.00  0.00    -0.376 OA
BRANCH   5   6
ATOM      6  C   UNL A   1      43.323  36.758  36.275  1.00  0.00     0.202 C 
BRANCH   6   7
ATOM      7  C   UNL A   1      42.558  36.801  37.601  1.00  0.00     0.261 C 
BRANCH   7   8
ATOM      8  O   UNL A   1      41.673  35.694  37.803  1.00  0.00    -0.460 OA
BRANCH   8   9
ATOM      9  C   UNL A   1      40.395  35.793  37.376  1.00  0.00     0.338 C 
ATOM     10  O   UNL A   1      39.637  36.729  37.557  1.00  0.00    -0.246 OA
BRANCH   9  11
ATOM     11  C   UNL A   1      40.137  34.641  36.467  1.00  0.00     0.060 A 
ATOM     12  C   UNL A   1      39.763  32.390  34.790  1.00  0.00    -0.025 A 
ATOM     13  C   UNL A   1      40.559  33.472  34.376  1.00  0.00     0.007 A 
ATOM     14  C   UNL A   1      39.233  32.429  36.091  1.00  0.00     0.007 A 
ATOM     15  C   UNL A   1      40.748  34.590  35.208  1.00  0.00     0.016 A 
ATOM     16  C   UNL A   1      39.380  33.551  36.902  1.00  0.00     0.016 A 
BRANCH  12  17
ATOM     17  C   UNL A   1      39.419  31.263  33.816  1.00  0.00     0.114 C 
ATOM     18  C   UNL A   1      38.618  31.513  30.077  1.00  0.00    -0.022 A 
ATOM     19  C   UNL A   1      38.956  30.773  28.915  1.00  0.00     0.006 A 
ATOM     20  C   UNL A   1      39.131  31.044  31.317  1.00  0.00     0.042 A 
ATOM     21  C   UNL A   1      39.633  29.557  28.964  1.00  0.00     0.001 A 
ATOM     22  C   UNL A   1      39.746  29.752  31.358  1.00  0.00    -0.017 A 
ATOM     23  N   UNL A   1      39.030  31.796  32.499  1.00  0.00    -0.377 N 
ATOM     24  C   UNL A   1      39.985  29.025  30.189  1.00  0.00     0.006 A 
ATOM     25  C   UNL A   1      40.045  29.151  32.702  1.00  0.00     0.049 C 
ATOM     26  H   UNL A   1      38.686  32.717  32.446  1.00  0.00     0.161 HD
ATOM     27  C   UNL A   1      40.547  30.255  33.622  1.00  0.00     0.031 C 
ATOM     28  C   UNL A   1      41.141  28.145  32.906  1.00  0.00    -0.023 C 
ATOM     29  C   UNL A   1      41.092  29.488  34.827  1.00  0.00     0.034 C 
ATOM     30  C   UNL A   1      41.695  28.310  34.119  1.00  0.00    -0.030 C 
BRANCH  18  31
ATOM     31  C   UNL A   1      37.739  32.768  29.886  1.00  0.00     0.015 C 
ATOM     32  C   UNL A   1      38.514  33.961  29.268  1.00  0.00     0.012 C 
ATOM     33  C   UNL A   1      36.487  32.596  29.008  1.00  0.00     0.012 C 
ENDBRANCH  18  31
ENDBRANCH  12  17
ENDBRANCH   9  11
ENDBRANCH   8   9
ENDBRANCH   7   8
ENDBRANCH   6   7
ENDBRANCH   5   6
ENDBRANCH   4   5
ENDBRANCH   3   4
ENDBRANCH   2   3
ENDBRANCH   1   2
BRANCH   1  34
ATOM     34  C   UNL A   1      43.723  37.321  30.199  1.00  0.00     0.188 C 
BRANCH  34  35
ATOM     35  O   UNL A   1      44.268  38.378  29.419  1.00  0.00    -0.376 OA
BRANCH  35  36
ATOM     36  C   UNL A   1      44.896  38.003  28.202  1.00  0.00     0.202 C 
BRANCH  36  37
ATOM     37  C   UNL A   1      45.029  36.491  27.991  1.00  0.00     0.261 C 
BRANCH  37  38
ATOM     38  O   UNL A   1      44.186  35.938  26.972  1.00  0.00    -0.460 OA
BRANCH  38  39
ATOM     39  C   UNL A   1      42.942  35.538  27.323  1.00  0.00     0.338 C 
ATOM     40  O   UNL A   1      41.882  35.967  26.907  1.00  0.00    -0.246 OA
BRANCH  39  41
ATOM     41  C   UNL A   1      43.113  34.338  28.167  1.00  0.00     0.060 A 
ATOM     42  C   UNL A   1      44.149  33.442  27.894  1.00  0.00     0.016 A 
ATOM     43  C   UNL A   1      42.188  34.071  29.184  1.00  0.00     0.016 A 
ATOM     44  C   UNL A   1      44.267  32.276  28.648  1.00  0.00     0.010 A 
ATOM     45  C   UNL A   1      42.299  32.893  29.928  1.00  0.00     0.010 A 
ATOM     46  C   UNL A   1      43.350  31.998  29.676  1.00  0.00    -0.014 A 
BRANCH  46  47
ATOM     47  C   UNL A   1      43.618  30.874  30.602  1.00  0.00     0.031 A 
ATOM     48  C   UNL A   1      43.627  29.446  30.150  1.00  0.00     0.074 A 
ATOM     49  C   UNL A   1      43.878  31.184  31.886  1.00  0.00     0.049 A 
ATOM     50  N   UNL A   1      43.934  28.374  30.836  1.00  0.00    -0.248 NA
ATOM     51  C   UNL A   1      43.242  29.181  28.757  1.00  0.00     0.031 C 
ATOM     52  C   UNL A   1      43.882  32.545  32.431  1.00  0.00     0.029 A 
ATOM     53  N   UNL A   1      44.196  30.393  32.957  1.00  0.00    -0.354 N 
ATOM     54  C   UNL A   1      43.807  27.307  29.957  1.00  0.00     0.074 A 
ATOM     55  C   UNL A   1      43.351  27.858  28.696  1.00  0.00     0.031 C 
ATOM     56  C   UNL A   1      44.207  32.494  33.730  1.00  0.00     0.029 A 
ATOM     57  C   UNL A   1      44.415  31.101  34.114  1.00  0.00     0.049 A 
ATOM     58  H   UNL A   1      44.262  29.412  32.904  1.00  0.00     0.167 HD
ATOM     59  C   UNL A   1      44.065  25.995  30.185  1.00  0.00     0.037 A 
ATOM     60  C   UNL A   1      44.754  30.680  35.346  1.00  0.00     0.037 A 
ATOM     61  C   UNL A   1      44.496  25.459  31.455  1.00  0.00     0.049 A 
ATOM     62  C   UNL A   1      44.992  29.216  35.579  1.00  0.00     0.074 A 
ATOM     63  C   UNL A   1      44.800  24.146  31.776  1.00  0.00     0.029 A 
ATOM     64  N   UNL A   1      44.673  26.200  32.616  1.00  0.00    -0.354 N 
ATOM     65  N   UNL A   1      44.919  28.225  34.725  1.00  0.00    -0.248 NA
ATOM     66  C   UNL A   1      45.371  28.816  36.940  1.00  0.00     0.031 C 
ATOM     67  C   UNL A   1      45.116  24.085  33.137  1.00  0.00     0.029 A 
ATOM     68  C   UNL A   1      45.061  25.369  33.657  1.00  0.00     0.049 A 
ATOM     69  H   UNL A   1      44.543  27.173  32.690  1.00  0.00     0.167 HD
ATOM     70  C   UNL A   1      45.270  27.084  35.437  1.00  0.00     0.074 A 
ATOM     71  C   UNL A   1      45.563  27.511  36.789  1.00  0.00     0.031 C 
ATOM     72  C   UNL A   1      45.346  25.801  35.004  1.00  0.00     0.037 A 
BRANCH  59  73
ATOM     73  C   UNL A   1      43.899  25.034  29.039  1.00  0.00     0.058 A 
ATOM     74  C   UNL A   1      42.628  24.599  28.628  1.00  0.00     0.135 A 
ATOM     75  C   UNL A   1      45.006  24.614  28.284  1.00  0.00     0.135 A 
ATOM     76  F   UNL A   1      41.534  24.963  29.317  1.00  0.00    -0.206 F 
ATOM     77  C   UNL A   1      42.463  23.773  27.521  1.00  0.00     0.059 A 
ATOM     78  C   UNL A   1      44.863  23.806  27.158  1.00  0.00     0.059 A 
ATOM     79  F   UNL A   1      46.245  25.002  28.627  1.00  0.00    -0.206 F 
ATOM     80  C   UNL A   1      43.586  23.384  26.789  1.00  0.00     0.060 A 
BRANCH  80  81
ATOM     81  S   UNL A   1      43.347  22.326  25.346  1.00  0.00     0.124 S 
ATOM     82  O   UNL A   1      44.521  21.462  25.420  1.00  0.00    -0.237 OA
ATOM     83  O   UNL A   1      42.069  21.685  25.639  1.00  0.00    -0.237 OA
ATOM     84  O   UNL A   1      43.332  23.267  24.230  1.00  0.00    -0.744 OA
ENDBRANCH  80  81
ENDBRANCH  59  73
BRANCH  60  85
ATOM     85  C   UNL A   1      44.930  31.676  36.432  1.00  0.00     0.058 A 
ATOM     86  C   UNL A   1      46.156  32.331  36.616  1.00  0.00     0.135 A 
ATOM     87  C   UNL A   1      43.861  32.032  37.269  1.00  0.00     0.135 A 
ATOM     88  F   UNL A   1      47.204  32.021  35.838  1.00  0.00    -0.206 F 
ATOM     89  C   UNL A   1      46.319  33.300  37.598  1.00  0.00     0.059 A 
ATOM     90  C   UNL A   1      43.994  33.016  38.243  1.00  0.00     0.059 A 
ATOM     91  F   UNL A   1      42.663  31.448  37.116  1.00  0.00    -0.206 F 
ATOM     92  C   UNL A   1      45.230  33.641  38.402  1.00  0.00     0.060 A 
BRANCH  92  93
ATOM     93  S   UNL A   1      45.441  34.946  39.632  1.00  0.00     0.124 S 
ATOM     94  O   UNL A   1      44.182  34.867  40.363  1.00  0.00    -0.237 OA
ATOM     95  O   UNL A   1      46.629  34.496  40.352  1.00  0.00    -0.237 OA
ATOM     96  O   UNL A   1      45.627  36.145  38.820  1.00  0.00    -0.744 OA
ENDBRANCH  92  93
ENDBRANCH  60  85
BRANCH  72  97
ATOM     97  C   UNL A   1      45.788  24.763  36.000  1.00  0.00     0.058 A 
ATOM     98  C   UNL A   1      44.864  23.999  36.730  1.00  0.00     0.135 A 
ATOM     99  C   UNL A   1      47.154  24.500  36.196  1.00  0.00     0.135 A 
ATOM    100  F   UNL A   1      43.547  24.216  36.588  1.00  0.00    -0.206 F 
ATOM    101  C   UNL A   1      45.278  23.031  37.638  1.00  0.00     0.059 A 
ATOM    102  C   UNL A   1      47.591  23.517  37.079  1.00  0.00     0.059 A 
ATOM    103  F   UNL A   1      48.080  25.196  35.517  1.00  0.00    -0.206 F 
ATOM    104  C   UNL A   1      46.644  22.795  37.804  1.00  0.00     0.060 A 
BRANCH 104 105
ATOM    105  S   UNL A   1      47.166  21.515  38.967  1.00  0.00     0.124 S 
ATOM    106  O   UNL A   1      47.982  20.658  38.114  1.00  0.00    -0.237 OA
ATOM    107  O   UNL A   1      47.892  22.285  39.972  1.00  0.00    -0.237 OA
ATOM    108  O   UNL A   1      45.907  20.933  39.420  1.00  0.00    -0.744 OA
ENDBRANCH 104 105
ENDBRANCH  72  97
ENDBRANCH  46  47
ENDBRANCH  39  41
ENDBRANCH  38  39
ENDBRANCH  37  38
ENDBRANCH  36  37
ENDBRANCH  35  36
ENDBRANCH  34  35
ENDBRANCH   1  34
TORSDOF 25
ENDMDL
