MODEL 1
REMARK VINA RESULT:      -9.5      0.000      0.000
REMARK SMILES Cc1ccc(-c2nc(C)c(C(=O)N3CCC(C(=O)OCCOCCOCCOCCOC(=O)c4ccc(-c5c6nc(c(-c7c(F)cc(S(=O)(=O)[O-])cc7F)c7ccc([nH]7)c(-c7c(F)cc(S(=O)(=O)[O-])cc7F)c7nc(c(-c8c(F)cc(S(=O)(=O)[O-])cc8F)c8ccc5[nH]8)C=C7)C=C6)cc4)CC3)s2)o1
REMARK SMILES IDX 26 1 25 2 24 3 23 4 22 5 21 6 20 7 19 8 17 9 18 10 16 11
REMARK SMILES IDX 11 12 12 13 13 14 14 15 101 16 15 17 100 18 10 19 6 20 7 21
REMARK SMILES IDX 102 22 8 23 9 24 5 25 1 26 2 27 3 28 103 29 4 30 27 31 28 32
REMARK SMILES IDX 29 33 30 34 31 35 32 36 33 37 34 38 35 39 99 40 36 41 98 42
REMARK SMILES IDX 37 43 38 44 39 45 92 46 40 47 97 48 91 49 93 50 41 51 96 52
REMARK SMILES IDX 90 53 89 54 42 56 76 57 55 58 75 59 56 60 59 61 74 62 94 63
REMARK SMILES IDX 57 64 58 65 73 67 95 68 60 69 43 70 44 71 53 72 45 73 46 74
REMARK SMILES IDX 52 75 54 76 47 77 48 78 49 79 50 80 51 81 77 82 78 83 87 84
REMARK SMILES IDX 79 85 80 86 86 87 88 88 81 89 82 90 83 91 84 92 85 93 61 94
REMARK SMILES IDX 62 95 71 96 63 97 64 98 70 99 72 100 65 101 66 102 67 103
REMARK SMILES IDX 68 104 69 105
REMARK H PARENT 93 55 59 66
REMARK Flexibility Score: inf
ROOT
ATOM      1  C   UNL A   1      33.243  34.678  28.539  1.00  0.00     0.188 C 
ENDROOT
BRANCH   1   2
ATOM      2  O   UNL A   1      34.391  33.954  28.107  1.00  0.00    -0.377 OA
BRANCH   2   3
ATOM      3  C   UNL A   1      34.594  32.677  28.670  1.00  0.00     0.188 C 
BRANCH   3   4
ATOM      4  C   UNL A   1      34.457  31.484  27.722  1.00  0.00     0.188 C 
BRANCH   4   5
ATOM      5  O   UNL A   1      33.216  30.835  27.513  1.00  0.00    -0.376 OA
BRANCH   5   6
ATOM      6  C   UNL A   1      33.134  29.594  26.828  1.00  0.00     0.202 C 
BRANCH   6   7
ATOM      7  C   UNL A   1      32.187  29.377  25.636  1.00  0.00     0.261 C 
BRANCH   7   8
ATOM      8  O   UNL A   1      32.738  29.586  24.325  1.00  0.00    -0.463 OA
BRANCH   8   9
ATOM      9  C   UNL A   1      32.180  28.864  23.331  1.00  0.00     0.309 C 
ATOM     10  O   UNL A   1      31.643  29.342  22.335  1.00  0.00    -0.252 OA
BRANCH   9  11
ATOM     11  C   UNL A   1      32.198  27.369  23.566  1.00  0.00     0.103 C 
ATOM     12  C   UNL A   1      33.602  23.530  22.758  1.00  0.00     0.265 C 
ATOM     13  O   UNL A   1      33.347  23.253  21.585  1.00  0.00    -0.268 OA
ATOM     14  N   UNL A   1      33.030  24.641  23.354  1.00  0.00    -0.338 N 
ATOM     15  C   UNL A   1      31.684  24.988  22.969  1.00  0.00     0.120 C 
ATOM     16  C   UNL A   1      33.711  25.526  24.294  1.00  0.00     0.120 C 
ATOM     17  C   UNL A   1      31.584  26.431  22.520  1.00  0.00     0.037 C 
ATOM     18  C   UNL A   1      33.655  26.965  23.806  1.00  0.00     0.037 C 
BRANCH  12  19
ATOM     19  C   UNL A   1      34.374  22.660  23.614  1.00  0.00     0.115 A 
ATOM     20  C   UNL A   1      36.214  21.513  24.659  1.00  0.00     0.159 A 
ATOM     21  N   UNL A   1      35.111  20.825  24.846  1.00  0.00    -0.237 NA
ATOM     22  S   UNL A   1      36.043  22.994  23.833  1.00  0.00    -0.105 S 
ATOM     23  C   UNL A   1      34.046  21.465  24.241  1.00  0.00     0.062 A 
ATOM     24  C   UNL A   1      32.743  20.750  24.293  1.00  0.00     0.068 C 
BRANCH  20  25
ATOM     25  C   UNL A   1      37.485  21.017  25.081  1.00  0.00     0.162 A 
ATOM     26  C   UNL A   1      40.588  21.769  26.681  1.00  0.00     0.087 C 
ATOM     27  C   UNL A   1      39.497  21.068  25.983  1.00  0.00     0.101 A 
ATOM     28  C   UNL A   1      39.311  19.780  25.535  1.00  0.00     0.046 A 
ATOM     29  O   UNL A   1      38.407  21.824  25.695  1.00  0.00    -0.459 OA
ATOM     30  C   UNL A   1      38.013  19.743  24.971  1.00  0.00     0.054 A 
ENDBRANCH  20  25
ENDBRANCH  12  19
ENDBRANCH   9  11
ENDBRANCH   8   9
ENDBRANCH   7   8
ENDBRANCH   6   7
ENDBRANCH   5   6
ENDBRANCH   4   5
ENDBRANCH   3   4
ENDBRANCH   2   3
ENDBRANCH   1   2
BRANCH   1  31
ATOM     31  C   UNL A   1      33.400  35.610  29.757  1.00  0.00     0.188 C 
BRANCH  31  32
ATOM     32  O   UNL A   1      32.822  35.113  30.957  1.00  0.00    -0.376 OA
BRANCH  32  33
ATOM     33  C   UNL A   1      33.142  35.735  32.194  1.00  0.00     0.202 C 
BRANCH  33  34
ATOM     34  C   UNL A   1      34.570  35.582  32.755  1.00  0.00     0.261 C 
BRANCH  34  35
ATOM     35  O   UNL A   1      35.209  34.313  32.557  1.00  0.00    -0.460 OA
BRANCH  35  36
ATOM     36  C   UNL A   1      35.666  33.673  33.656  1.00  0.00     0.338 C 
ATOM     37  O   UNL A   1      35.101  33.565  34.722  1.00  0.00    -0.246 OA
BRANCH  36  38
ATOM     38  C   UNL A   1      36.889  32.929  33.282  1.00  0.00     0.060 A 
ATOM     39  C   UNL A   1      37.990  32.998  34.143  1.00  0.00     0.016 A 
ATOM     40  C   UNL A   1      36.966  32.217  32.082  1.00  0.00     0.016 A 
ATOM     41  C   UNL A   1      39.203  32.430  33.767  1.00  0.00     0.010 A 
ATOM     42  C   UNL A   1      38.192  31.666  31.694  1.00  0.00     0.010 A 
ATOM     43  C   UNL A   1      39.328  31.832  32.507  1.00  0.00    -0.014 A 
BRANCH  43  44
ATOM     44  C   UNL A   1      40.691  31.665  31.950  1.00  0.00     0.031 A 
ATOM     45  C   UNL A   1      41.241  32.773  31.088  1.00  0.00     0.074 A 
ATOM     46  C   UNL A   1      41.460  30.612  32.276  1.00  0.00     0.049 A 
ATOM     47  N   UNL A   1      42.413  32.886  30.521  1.00  0.00    -0.248 NA
ATOM     48  C   UNL A   1      40.339  33.909  30.833  1.00  0.00     0.031 C 
ATOM     49  C   UNL A   1      41.055  29.503  33.136  1.00  0.00     0.029 A 
ATOM     50  N   UNL A   1      42.750  30.313  31.920  1.00  0.00    -0.354 N 
ATOM     51  C   UNL A   1      42.390  34.102  29.847  1.00  0.00     0.074 A 
ATOM     52  C   UNL A   1      41.071  34.664  30.031  1.00  0.00     0.031 C 
ATOM     53  C   UNL A   1      42.075  28.632  33.229  1.00  0.00     0.029 A 
ATOM     54  C   UNL A   1      43.194  29.112  32.419  1.00  0.00     0.049 A 
ATOM     55  H   UNL A   1      43.306  30.901  31.359  1.00  0.00     0.167 HD
ATOM     56  C   UNL A   1      43.383  34.708  29.154  1.00  0.00     0.037 A 
ATOM     57  C   UNL A   1      44.363  28.470  32.227  1.00  0.00     0.037 A 
ATOM     58  C   UNL A   1      44.689  34.135  28.965  1.00  0.00     0.049 A 
ATOM     59  C   UNL A   1      45.437  29.128  31.400  1.00  0.00     0.074 A 
ATOM     60  C   UNL A   1      45.766  34.654  28.271  1.00  0.00     0.029 A 
ATOM     61  N   UNL A   1      45.092  32.904  29.465  1.00  0.00    -0.354 N 
ATOM     62  N   UNL A   1      45.409  30.282  30.774  1.00  0.00    -0.248 NA
ATOM     63  C   UNL A   1      46.710  28.405  31.269  1.00  0.00     0.031 C 
ATOM     64  C   UNL A   1      46.801  33.713  28.304  1.00  0.00     0.029 A 
ATOM     65  C   UNL A   1      46.395  32.639  29.079  1.00  0.00     0.049 A 
ATOM     66  H   UNL A   1      44.532  32.307  30.013  1.00  0.00     0.167 HD
ATOM     67  C   UNL A   1      46.667  30.439  30.201  1.00  0.00     0.074 A 
ATOM     68  C   UNL A   1      47.435  29.264  30.565  1.00  0.00     0.031 C 
ATOM     69  C   UNL A   1      47.148  31.464  29.451  1.00  0.00     0.037 A 
BRANCH  56  70
ATOM     70  C   UNL A   1      43.068  36.040  28.526  1.00  0.00     0.058 A 
ATOM     71  C   UNL A   1      42.628  36.150  27.195  1.00  0.00     0.135 A 
ATOM     72  C   UNL A   1      43.230  37.228  29.257  1.00  0.00     0.135 A 
ATOM     73  F   UNL A   1      42.474  35.051  26.441  1.00  0.00    -0.206 F 
ATOM     74  C   UNL A   1      42.407  37.388  26.599  1.00  0.00     0.059 A 
ATOM     75  C   UNL A   1      42.981  38.476  28.692  1.00  0.00     0.059 A 
ATOM     76  F   UNL A   1      43.651  37.186  30.531  1.00  0.00    -0.206 F 
ATOM     77  C   UNL A   1      42.593  38.547  27.356  1.00  0.00     0.060 A 
BRANCH  77  78
ATOM     78  S   UNL A   1      42.332  40.146  26.562  1.00  0.00     0.124 S 
ATOM     79  O   UNL A   1      42.423  41.054  27.702  1.00  0.00    -0.237 OA
ATOM     80  O   UNL A   1      43.440  40.208  25.614  1.00  0.00    -0.237 OA
ATOM     81  O   UNL A   1      41.006  40.020  25.966  1.00  0.00    -0.744 OA
ENDBRANCH  77  78
ENDBRANCH  56  70
BRANCH  57  82
ATOM     82  C   UNL A   1      44.565  27.125  32.829  1.00  0.00     0.058 A 
ATOM     83  C   UNL A   1      44.950  26.968  34.168  1.00  0.00     0.135 A 
ATOM     84  C   UNL A   1      44.342  25.961  32.075  1.00  0.00     0.135 A 
ATOM     85  F   UNL A   1      45.188  28.047  34.929  1.00  0.00    -0.206 F 
ATOM     86  C   UNL A   1      45.107  25.708  34.739  1.00  0.00     0.059 A 
ATOM     87  C   UNL A   1      44.465  24.692  32.630  1.00  0.00     0.059 A 
ATOM     88  F   UNL A   1      43.964  26.056  30.790  1.00  0.00    -0.206 F 
ATOM     89  C   UNL A   1      44.851  24.576  33.964  1.00  0.00     0.060 A 
BRANCH  89  90
ATOM     90  S   UNL A   1      44.975  22.949  34.738  1.00  0.00     0.124 S 
ATOM     91  O   UNL A   1      43.732  22.320  34.304  1.00  0.00    -0.237 OA
ATOM     92  O   UNL A   1      46.199  22.422  34.144  1.00  0.00    -0.237 OA
ATOM     93  O   UNL A   1      45.061  23.259  36.162  1.00  0.00    -0.744 OA
ENDBRANCH  89  90
ENDBRANCH  57  82
BRANCH  69  94
ATOM     94  C   UNL A   1      48.588  31.389  29.012  1.00  0.00     0.058 A 
ATOM     95  C   UNL A   1      48.977  30.752  27.824  1.00  0.00     0.135 A 
ATOM     96  C   UNL A   1      49.592  31.997  29.785  1.00  0.00     0.135 A 
ATOM     97  F   UNL A   1      48.060  30.153  27.045  1.00  0.00    -0.206 F 
ATOM     98  C   UNL A   1      50.313  30.683  27.438  1.00  0.00     0.059 A 
ATOM     99  C   UNL A   1      50.929  31.972  29.401  1.00  0.00     0.059 A 
ATOM    100  F   UNL A   1      49.277  32.636  30.923  1.00  0.00    -0.206 F 
ATOM    101  C   UNL A   1      51.283  31.294  28.236  1.00  0.00     0.060 A 
BRANCH 101 102
ATOM    102  S   UNL A   1      53.011  31.199  27.727  1.00  0.00     0.124 S 
ATOM    103  O   UNL A   1      52.936  30.267  26.607  1.00  0.00    -0.237 OA
ATOM    104  O   UNL A   1      53.312  32.584  27.379  1.00  0.00    -0.237 OA
ATOM    105  O   UNL A   1      53.690  30.696  28.917  1.00  0.00    -0.744 OA
ENDBRANCH 101 102
ENDBRANCH  69  94
ENDBRANCH  43  44
ENDBRANCH  36  38
ENDBRANCH  35  36
ENDBRANCH  34  35
ENDBRANCH  33  34
ENDBRANCH  32  33
ENDBRANCH  31  32
ENDBRANCH   1  31
TORSDOF 25
ENDMDL
MODEL 2
REMARK VINA RESULT:      -9.5      3.529      5.132
REMARK SMILES Cc1ccc(-c2nc(C)c(C(=O)N3CCC(C(=O)OCCOCCOCCOCCOC(=O)c4ccc(-c5c6nc(c(-c7c(F)cc(S(=O)(=O)[O-])cc7F)c7ccc([nH]7)c(-c7c(F)cc(S(=O)(=O)[O-])cc7F)c7nc(c(-c8c(F)cc(S(=O)(=O)[O-])cc8F)c8ccc5[nH]8)C=C7)C=C6)cc4)CC3)s2)o1
REMARK SMILES IDX 26 1 25 2 24 3 23 4 22 5 21 6 20 7 19 8 17 9 18 10 16 11
REMARK SMILES IDX 11 12 12 13 13 14 14 15 101 16 15 17 100 18 10 19 6 20 7 21
REMARK SMILES IDX 102 22 8 23 9 24 5 25 1 26 2 27 3 28 103 29 4 30 27 31 28 32
REMARK SMILES IDX 29 33 30 34 31 35 32 36 33 37 34 38 35 39 99 40 36 41 98 42
REMARK SMILES IDX 37 43 38 44 39 45 92 46 40 47 97 48 91 49 93 50 41 51 96 52
REMARK SMILES IDX 90 53 89 54 42 56 76 57 55 58 75 59 56 60 59 61 74 62 94 63
REMARK SMILES IDX 57 64 58 65 73 67 95 68 60 69 43 70 44 71 53 72 45 73 46 74
REMARK SMILES IDX 52 75 54 76 47 77 48 78 49 79 50 80 51 81 77 82 78 83 87 84
REMARK SMILES IDX 79 85 80 86 86 87 88 88 81 89 82 90 83 91 84 92 85 93 61 94
REMARK SMILES IDX 62 95 71 96 63 97 64 98 70 99 72 100 65 101 66 102 67 103
REMARK SMILES IDX 68 104 69 105
REMARK H PARENT 93 55 59 66
REMARK Flexibility Score: inf
ROOT
ATOM      1  C   UNL A   1      38.497  31.575  29.491  1.00  0.00     0.188 C 
ENDROOT
BRANCH   1   2
ATOM      2  O   UNL A   1      37.733  30.397  29.736  1.00  0.00    -0.377 OA
BRANCH   2   3
ATOM      3  C   UNL A   1      37.270  29.687  28.610  1.00  0.00     0.188 C 
BRANCH   3   4
ATOM      4  C   UNL A   1      36.467  30.488  27.582  1.00  0.00     0.188 C 
BRANCH   4   5
ATOM      5  O   UNL A   1      35.272  31.163  27.930  1.00  0.00    -0.376 OA
BRANCH   5   6
ATOM      6  C   UNL A   1      34.001  30.680  27.519  1.00  0.00     0.202 C 
BRANCH   6   7
ATOM      7  C   UNL A   1      33.776  29.219  27.096  1.00  0.00     0.261 C 
BRANCH   7   8
ATOM      8  O   UNL A   1      32.598  28.943  26.320  1.00  0.00    -0.463 OA
BRANCH   8   9
ATOM      9  C   UNL A   1      31.923  27.825  26.657  1.00  0.00     0.309 C 
ATOM     10  O   UNL A   1      31.262  27.688  27.683  1.00  0.00    -0.252 OA
BRANCH   9  11
ATOM     11  C   UNL A   1      32.093  26.681  25.681  1.00  0.00     0.103 C 
ATOM     12  C   UNL A   1      34.073  23.290  24.287  1.00  0.00     0.265 C 
ATOM     13  O   UNL A   1      35.227  23.599  23.989  1.00  0.00    -0.268 OA
ATOM     14  N   UNL A   1      33.130  24.271  24.542  1.00  0.00    -0.338 N 
ATOM     15  C   UNL A   1      33.211  25.491  23.776  1.00  0.00     0.120 C 
ATOM     16  C   UNL A   1      32.101  24.190  25.574  1.00  0.00     0.120 C 
ATOM     17  C   UNL A   1      33.247  26.713  24.671  1.00  0.00     0.037 C 
ATOM     18  C   UNL A   1      32.181  25.392  26.502  1.00  0.00     0.037 C 
BRANCH  12  19
ATOM     19  C   UNL A   1      33.597  21.927  24.249  1.00  0.00     0.115 A 
ATOM     20  C   UNL A   1      33.479  19.531  24.446  1.00  0.00     0.159 A 
ATOM     21  N   UNL A   1      32.572  19.942  23.589  1.00  0.00    -0.237 NA
ATOM     22  S   UNL A   1      34.399  20.749  25.205  1.00  0.00    -0.105 S 
ATOM     23  C   UNL A   1      32.635  21.315  23.455  1.00  0.00     0.062 A 
ATOM     24  C   UNL A   1      31.723  21.913  22.443  1.00  0.00     0.068 C 
BRANCH  20  25
ATOM     25  C   UNL A   1      33.710  18.142  24.683  1.00  0.00     0.162 A 
ATOM     26  C   UNL A   1      32.320  15.042  25.781  1.00  0.00     0.087 C 
ATOM     27  C   UNL A   1      33.249  16.072  25.285  1.00  0.00     0.101 A 
ATOM     28  C   UNL A   1      34.565  16.068  24.883  1.00  0.00     0.046 A 
ATOM     29  O   UNL A   1      32.733  17.322  25.184  1.00  0.00    -0.459 OA
ATOM     30  C   UNL A   1      34.857  17.394  24.481  1.00  0.00     0.054 A 
ENDBRANCH  20  25
ENDBRANCH  12  19
ENDBRANCH   9  11
ENDBRANCH   8   9
ENDBRANCH   7   8
ENDBRANCH   6   7
ENDBRANCH   5   6
ENDBRANCH   4   5
ENDBRANCH   3   4
ENDBRANCH   2   3
ENDBRANCH   1   2
BRANCH   1  31
ATOM     31  C   UNL A   1      39.122  32.290  30.705  1.00  0.00     0.188 C 
BRANCH  31  32
ATOM     32  O   UNL A   1      38.347  33.367  31.218  1.00  0.00    -0.376 OA
BRANCH  32  33
ATOM     33  C   UNL A   1      36.960  33.172  31.459  1.00  0.00     0.202 C 
BRANCH  33  34
ATOM     34  C   UNL A   1      36.499  32.795  32.881  1.00  0.00     0.261 C 
BRANCH  34  35
ATOM     35  O   UNL A   1      37.193  31.715  33.520  1.00  0.00    -0.460 OA
BRANCH  35  36
ATOM     36  C   UNL A   1      37.039  30.482  32.990  1.00  0.00     0.338 C 
ATOM     37  O   UNL A   1      36.114  30.092  32.310  1.00  0.00    -0.246 OA
BRANCH  36  38
ATOM     38  C   UNL A   1      38.299  29.733  33.189  1.00  0.00     0.060 A 
ATOM     39  C   UNL A   1      39.260  30.278  34.049  1.00  0.00     0.016 A 
ATOM     40  C   UNL A   1      38.551  28.541  32.503  1.00  0.00     0.016 A 
ATOM     41  C   UNL A   1      40.512  29.683  34.159  1.00  0.00     0.010 A 
ATOM     42  C   UNL A   1      39.818  27.956  32.597  1.00  0.00     0.010 A 
ATOM     43  C   UNL A   1      40.820  28.566  33.374  1.00  0.00    -0.014 A 
BRANCH  43  44
ATOM     44  C   UNL A   1      42.251  28.245  33.154  1.00  0.00     0.031 A 
ATOM     45  C   UNL A   1      42.968  28.954  32.035  1.00  0.00     0.074 A 
ATOM     46  C   UNL A   1      42.923  27.426  33.982  1.00  0.00     0.049 A 
ATOM     47  N   UNL A   1      44.220  28.881  31.668  1.00  0.00    -0.248 NA
ATOM     48  C   UNL A   1      42.156  29.873  31.219  1.00  0.00     0.031 C 
ATOM     49  C   UNL A   1      42.347  26.719  35.124  1.00  0.00     0.029 A 
ATOM     50  N   UNL A   1      44.243  27.057  33.984  1.00  0.00    -0.354 N 
ATOM     51  C   UNL A   1      44.346  29.742  30.584  1.00  0.00     0.074 A 
ATOM     52  C   UNL A   1      43.033  30.285  30.319  1.00  0.00     0.031 C 
ATOM     53  C   UNL A   1      43.310  25.987  35.710  1.00  0.00     0.029 A 
ATOM     54  C   UNL A   1      44.562  26.157  34.972  1.00  0.00     0.049 A 
ATOM     55  H   UNL A   1      44.902  27.404  33.339  1.00  0.00     0.167 HD
ATOM     56  C   UNL A   1      45.458  30.070  29.883  1.00  0.00     0.037 A 
ATOM     57  C   UNL A   1      45.726  25.532  35.236  1.00  0.00     0.037 A 
ATOM     58  C   UNL A   1      46.759  29.513  30.145  1.00  0.00     0.049 A 
ATOM     59  C   UNL A   1      46.941  25.858  34.407  1.00  0.00     0.074 A 
ATOM     60  C   UNL A   1      47.951  29.763  29.491  1.00  0.00     0.029 A 
ATOM     61  N   UNL A   1      47.036  28.584  31.139  1.00  0.00    -0.354 N 
ATOM     62  N   UNL A   1      47.052  26.680  33.389  1.00  0.00    -0.248 NA
ATOM     63  C   UNL A   1      48.195  25.185  34.774  1.00  0.00     0.031 C 
ATOM     64  C   UNL A   1      48.936  28.944  30.052  1.00  0.00     0.029 A 
ATOM     65  C   UNL A   1      48.376  28.237  31.104  1.00  0.00     0.049 A 
ATOM     66  H   UNL A   1      46.375  28.225  31.775  1.00  0.00     0.167 HD
ATOM     67  C   UNL A   1      48.391  26.648  33.014  1.00  0.00     0.074 A 
ATOM     68  C   UNL A   1      49.052  25.732  33.922  1.00  0.00     0.031 C 
ATOM     69  C   UNL A   1      49.020  27.322  32.016  1.00  0.00     0.037 A 
BRANCH  56  70
ATOM     70  C   UNL A   1      45.292  31.046  28.748  1.00  0.00     0.058 A 
ATOM     71  C   UNL A   1      45.286  32.436  28.957  1.00  0.00     0.135 A 
ATOM     72  C   UNL A   1      45.115  30.585  27.433  1.00  0.00     0.135 A 
ATOM     73  F   UNL A   1      45.431  32.935  30.195  1.00  0.00    -0.206 F 
ATOM     74  C   UNL A   1      45.061  33.330  27.914  1.00  0.00     0.059 A 
ATOM     75  C   UNL A   1      44.924  31.462  26.369  1.00  0.00     0.059 A 
ATOM     76  F   UNL A   1      45.109  29.268  27.173  1.00  0.00    -0.206 F 
ATOM     77  C   UNL A   1      44.875  32.832  26.623  1.00  0.00     0.060 A 
BRANCH  77  78
ATOM     78  S   UNL A   1      44.555  34.000  25.286  1.00  0.00     0.124 S 
ATOM     79  O   UNL A   1      43.883  33.146  24.310  1.00  0.00    -0.237 OA
ATOM     80  O   UNL A   1      43.714  34.998  25.938  1.00  0.00    -0.237 OA
ATOM     81  O   UNL A   1      45.888  34.458  24.906  1.00  0.00    -0.744 OA
ENDBRANCH  77  78
ENDBRANCH  56  70
BRANCH  57  82
ATOM     82  C   UNL A   1      45.784  24.530  36.334  1.00  0.00     0.058 A 
ATOM     83  C   UNL A   1      45.662  23.155  36.084  1.00  0.00     0.135 A 
ATOM     84  C   UNL A   1      45.999  24.933  37.662  1.00  0.00     0.135 A 
ATOM     85  F   UNL A   1      45.444  22.718  34.834  1.00  0.00    -0.206 F 
ATOM     86  C   UNL A   1      45.751  22.217  37.108  1.00  0.00     0.059 A 
ATOM     87  C   UNL A   1      46.119  24.014  38.698  1.00  0.00     0.059 A 
ATOM     88  F   UNL A   1      46.131  26.237  37.954  1.00  0.00    -0.206 F 
ATOM     89  C   UNL A   1      45.990  22.656  38.411  1.00  0.00     0.060 A 
BRANCH  89  90
ATOM     90  S   UNL A   1      46.188  21.425  39.718  1.00  0.00     0.124 S 
ATOM     91  O   UNL A   1      45.841  20.193  39.018  1.00  0.00    -0.237 OA
ATOM     92  O   UNL A   1      47.593  21.584  40.074  1.00  0.00    -0.237 OA
ATOM     93  O   UNL A   1      45.238  21.861  40.738  1.00  0.00    -0.744 OA
ENDBRANCH  89  90
ENDBRANCH  57  82
BRANCH  69  94
ATOM     94  C   UNL A   1      50.510  27.134  31.882  1.00  0.00     0.058 A 
ATOM     95  C   UNL A   1      51.429  27.852  32.663  1.00  0.00     0.135 A 
ATOM     96  C   UNL A   1      51.021  26.191  30.974  1.00  0.00     0.135 A 
ATOM     97  F   UNL A   1      50.997  28.766  33.547  1.00  0.00    -0.206 F 
ATOM     98  C   UNL A   1      52.802  27.673  32.519  1.00  0.00     0.059 A 
ATOM     99  C   UNL A   1      52.388  25.970  30.839  1.00  0.00     0.059 A 
ATOM    100  F   UNL A   1      50.189  25.463  30.213  1.00  0.00    -0.206 F 
ATOM    101  C   UNL A   1      53.272  26.731  31.602  1.00  0.00     0.060 A 
BRANCH 101 102
ATOM    102  S   UNL A   1      55.054  26.508  31.424  1.00  0.00     0.124 S 
ATOM    103  O   UNL A   1      55.552  27.833  31.778  1.00  0.00    -0.237 OA
ATOM    104  O   UNL A   1      55.334  25.447  32.387  1.00  0.00    -0.237 OA
ATOM    105  O   UNL A   1      55.213  26.132  30.022  1.00  0.00    -0.744 OA
ENDBRANCH 101 102
ENDBRANCH  69  94
ENDBRANCH  43  44
ENDBRANCH  36  38
ENDBRANCH  35  36
ENDBRANCH  34  35
ENDBRANCH  33  34
ENDBRANCH  32  33
ENDBRANCH  31  32
ENDBRANCH   1  31
TORSDOF 25
ENDMDL
MODEL 3
REMARK VINA RESULT:      -9.0      7.029      9.345
REMARK SMILES Cc1ccc(-c2nc(C)c(C(=O)N3CCC(C(=O)OCCOCCOCCOCCOC(=O)c4ccc(-c5c6nc(c(-c7c(F)cc(S(=O)(=O)[O-])cc7F)c7ccc([nH]7)c(-c7c(F)cc(S(=O)(=O)[O-])cc7F)c7nc(c(-c8c(F)cc(S(=O)(=O)[O-])cc8F)c8ccc5[nH]8)C=C7)C=C6)cc4)CC3)s2)o1
REMARK SMILES IDX 26 1 25 2 24 3 23 4 22 5 21 6 20 7 19 8 17 9 18 10 16 11
REMARK SMILES IDX 11 12 12 13 13 14 14 15 101 16 15 17 100 18 10 19 6 20 7 21
REMARK SMILES IDX 102 22 8 23 9 24 5 25 1 26 2 27 3 28 103 29 4 30 27 31 28 32
REMARK SMILES IDX 29 33 30 34 31 35 32 36 33 37 34 38 35 39 99 40 36 41 98 42
REMARK SMILES IDX 37 43 38 44 39 45 92 46 40 47 97 48 91 49 93 50 41 51 96 52
REMARK SMILES IDX 90 53 89 54 42 56 76 57 55 58 75 59 56 60 59 61 74 62 94 63
REMARK SMILES IDX 57 64 58 65 73 67 95 68 60 69 43 70 44 71 53 72 45 73 46 74
REMARK SMILES IDX 52 75 54 76 47 77 48 78 49 79 50 80 51 81 77 82 78 83 87 84
REMARK SMILES IDX 79 85 80 86 86 87 88 88 81 89 82 90 83 91 84 92 85 93 61 94
REMARK SMILES IDX 62 95 71 96 63 97 64 98 70 99 72 100 65 101 66 102 67 103
REMARK SMILES IDX 68 104 69 105
REMARK H PARENT 93 55 59 66
REMARK Flexibility Score: inf
ROOT
ATOM      1  C   UNL A   1      38.491  31.536  29.842  1.00  0.00     0.188 C 
ENDROOT
BRANCH   1   2
ATOM      2  O   UNL A   1      37.349  30.738  30.142  1.00  0.00    -0.377 OA
BRANCH   2   3
ATOM      3  C   UNL A   1      37.194  29.541  29.413  1.00  0.00     0.188 C 
BRANCH   3   4
ATOM      4  C   UNL A   1      36.607  29.671  28.006  1.00  0.00     0.188 C 
BRANCH   4   5
ATOM      5  O   UNL A   1      35.700  30.705  27.668  1.00  0.00    -0.376 OA
BRANCH   5   6
ATOM      6  C   UNL A   1      34.299  30.480  27.629  1.00  0.00     0.202 C 
BRANCH   6   7
ATOM      7  C   UNL A   1      33.697  29.066  27.561  1.00  0.00     0.261 C 
BRANCH   7   8
ATOM      8  O   UNL A   1      32.659  28.850  26.591  1.00  0.00    -0.463 OA
BRANCH   8   9
ATOM      9  C   UNL A   1      31.900  27.751  26.779  1.00  0.00     0.309 C 
ATOM     10  O   UNL A   1      31.111  27.595  27.707  1.00  0.00    -0.252 OA
BRANCH   9  11
ATOM     11  C   UNL A   1      32.142  26.651  25.768  1.00  0.00     0.103 C 
ATOM     12  C   UNL A   1      34.105  23.215  24.461  1.00  0.00     0.265 C 
ATOM     13  O   UNL A   1      35.305  23.463  24.346  1.00  0.00    -0.268 OA
ATOM     14  N   UNL A   1      33.193  24.241  24.641  1.00  0.00    -0.338 N 
ATOM     15  C   UNL A   1      33.451  25.491  23.969  1.00  0.00     0.120 C 
ATOM     16  C   UNL A   1      32.023  24.173  25.512  1.00  0.00     0.120 C 
ATOM     17  C   UNL A   1      33.429  26.660  24.933  1.00  0.00     0.037 C 
ATOM     18  C   UNL A   1      32.039  25.318  26.514  1.00  0.00     0.037 C 
BRANCH  12  19
ATOM     19  C   UNL A   1      33.562  21.890  24.273  1.00  0.00     0.115 A 
ATOM     20  C   UNL A   1      33.292  19.498  24.284  1.00  0.00     0.159 A 
ATOM     21  N   UNL A   1      32.510  20.020  23.366  1.00  0.00    -0.237 NA
ATOM     22  S   UNL A   1      34.187  20.604  25.223  1.00  0.00    -0.105 S 
ATOM     23  C   UNL A   1      32.662  21.393  23.339  1.00  0.00     0.062 A 
ATOM     24  C   UNL A   1      31.902  22.110  22.281  1.00  0.00     0.068 C 
BRANCH  20  25
ATOM     25  C   UNL A   1      33.419  18.085  24.444  1.00  0.00     0.162 A 
ATOM     26  C   UNL A   1      32.184  15.154  26.067  1.00  0.00     0.087 C 
ATOM     27  C   UNL A   1      32.969  16.073  25.226  1.00  0.00     0.101 A 
ATOM     28  C   UNL A   1      34.014  15.916  24.344  1.00  0.00     0.046 A 
ATOM     29  O   UNL A   1      32.618  17.381  25.305  1.00  0.00    -0.459 OA
ATOM     30  C   UNL A   1      34.292  17.205  23.829  1.00  0.00     0.054 A 
ENDBRANCH  20  25
ENDBRANCH  12  19
ENDBRANCH   9  11
ENDBRANCH   8   9
ENDBRANCH   7   8
ENDBRANCH   6   7
ENDBRANCH   5   6
ENDBRANCH   4   5
ENDBRANCH   3   4
ENDBRANCH   2   3
ENDBRANCH   1   2
BRANCH   1  31
ATOM     31  C   UNL A   1      38.445  33.028  30.230  1.00  0.00     0.188 C 
BRANCH  31  32
ATOM     32  O   UNL A   1      37.840  33.871  29.257  1.00  0.00    -0.376 OA
BRANCH  32  33
ATOM     33  C   UNL A   1      36.505  33.613  28.845  1.00  0.00     0.202 C 
BRANCH  33  34
ATOM     34  C   UNL A   1      35.360  34.418  29.491  1.00  0.00     0.261 C 
BRANCH  34  35
ATOM     35  O   UNL A   1      35.278  34.390  30.923  1.00  0.00    -0.460 OA
BRANCH  35  36
ATOM     36  C   UNL A   1      34.964  33.209  31.501  1.00  0.00     0.338 C 
ATOM     37  O   UNL A   1      34.374  32.283  30.989  1.00  0.00    -0.246 OA
BRANCH  36  38
ATOM     38  C   UNL A   1      35.654  33.137  32.808  1.00  0.00     0.060 A 
ATOM     39  C   UNL A   1      35.527  34.225  33.680  1.00  0.00     0.016 A 
ATOM     40  C   UNL A   1      36.452  32.041  33.148  1.00  0.00     0.016 A 
ATOM     41  C   UNL A   1      36.268  34.262  34.857  1.00  0.00     0.010 A 
ATOM     42  C   UNL A   1      37.214  32.090  34.320  1.00  0.00     0.010 A 
ATOM     43  C   UNL A   1      37.172  33.232  35.140  1.00  0.00    -0.014 A 
BRANCH  43  44
ATOM     44  C   UNL A   1      38.256  33.507  36.113  1.00  0.00     0.031 A 
ATOM     45  C   UNL A   1      39.523  34.138  35.597  1.00  0.00     0.074 A 
ATOM     46  C   UNL A   1      38.088  33.299  37.431  1.00  0.00     0.049 A 
ATOM     47  N   UNL A   1      40.593  34.515  36.246  1.00  0.00    -0.248 NA
ATOM     48  C   UNL A   1      39.587  34.377  34.144  1.00  0.00     0.031 C 
ATOM     49  C   UNL A   1      36.891  32.737  38.052  1.00  0.00     0.029 A 
ATOM     50  N   UNL A   1      38.934  33.544  38.482  1.00  0.00    -0.354 N 
ATOM     51  C   UNL A   1      41.453  35.034  35.285  1.00  0.00     0.074 A 
ATOM     52  C   UNL A   1      40.804  34.875  34.004  1.00  0.00     0.031 C 
ATOM     53  C   UNL A   1      37.086  32.666  39.381  1.00  0.00     0.029 A 
ATOM     54  C   UNL A   1      38.427  33.156  39.698  1.00  0.00     0.049 A 
ATOM     55  H   UNL A   1      39.821  33.958  38.375  1.00  0.00     0.167 HD
ATOM     56  C   UNL A   1      42.667  35.610  35.455  1.00  0.00     0.037 A 
ATOM     57  C   UNL A   1      38.991  33.179  40.922  1.00  0.00     0.037 A 
ATOM     58  C   UNL A   1      43.312  35.751  36.733  1.00  0.00     0.049 A 
ATOM     59  C   UNL A   1      40.369  33.765  41.086  1.00  0.00     0.074 A 
ATOM     60  C   UNL A   1      44.546  36.307  37.020  1.00  0.00     0.029 A 
ATOM     61  N   UNL A   1      42.777  35.322  37.940  1.00  0.00    -0.354 N 
ATOM     62  N   UNL A   1      41.171  34.262  40.173  1.00  0.00    -0.248 NA
ATOM     63  C   UNL A   1      40.912  33.812  42.451  1.00  0.00     0.031 C 
ATOM     64  C   UNL A   1      44.780  36.163  38.391  1.00  0.00     0.029 A 
ATOM     65  C   UNL A   1      43.663  35.584  38.972  1.00  0.00     0.049 A 
ATOM     66  H   UNL A   1      41.897  34.893  38.046  1.00  0.00     0.167 HD
ATOM     67  C   UNL A   1      42.299  34.709  40.855  1.00  0.00     0.074 A 
ATOM     68  C   UNL A   1      42.069  34.432  42.259  1.00  0.00     0.031 C 
ATOM     69  C   UNL A   1      43.419  35.302  40.367  1.00  0.00     0.037 A 
BRANCH  56  70
ATOM     70  C   UNL A   1      43.378  36.091  34.217  1.00  0.00     0.058 A 
ATOM     71  C   UNL A   1      44.200  35.244  33.453  1.00  0.00     0.135 A 
ATOM     72  C   UNL A   1      43.255  37.427  33.799  1.00  0.00     0.135 A 
ATOM     73  F   UNL A   1      44.371  33.963  33.815  1.00  0.00    -0.206 F 
ATOM     74  C   UNL A   1      44.909  35.713  32.352  1.00  0.00     0.059 A 
ATOM     75  C   UNL A   1      43.928  37.909  32.680  1.00  0.00     0.059 A 
ATOM     76  F   UNL A   1      42.487  38.283  34.491  1.00  0.00    -0.206 F 
ATOM     77  C   UNL A   1      44.771  37.050  31.977  1.00  0.00     0.060 A 
BRANCH  77  78
ATOM     78  S   UNL A   1      45.720  37.653  30.565  1.00  0.00     0.124 S 
ATOM     79  O   UNL A   1      47.010  37.002  30.784  1.00  0.00    -0.237 OA
ATOM     80  O   UNL A   1      44.945  37.156  29.433  1.00  0.00    -0.237 OA
ATOM     81  O   UNL A   1      45.712  39.101  30.741  1.00  0.00    -0.744 OA
ENDBRANCH  77  78
ENDBRANCH  56  70
BRANCH  57  82
ATOM     82  C   UNL A   1      38.244  32.620  42.081  1.00  0.00     0.058 A 
ATOM     83  C   UNL A   1      37.239  33.350  42.730  1.00  0.00     0.135 A 
ATOM     84  C   UNL A   1      38.506  31.319  42.541  1.00  0.00     0.135 A 
ATOM     85  F   UNL A   1      36.959  34.602  42.337  1.00  0.00    -0.206 F 
ATOM     86  C   UNL A   1      36.518  32.813  43.793  1.00  0.00     0.059 A 
ATOM     87  C   UNL A   1      37.781  30.750  43.583  1.00  0.00     0.059 A 
ATOM     88  F   UNL A   1      39.453  30.575  41.949  1.00  0.00    -0.206 F 
ATOM     89  C   UNL A   1      36.790  31.507  44.206  1.00  0.00     0.060 A 
BRANCH  89  90
ATOM     90  S   UNL A   1      35.792  30.790  45.529  1.00  0.00     0.124 S 
ATOM     91  O   UNL A   1      36.019  31.737  46.616  1.00  0.00    -0.237 OA
ATOM     92  O   UNL A   1      34.457  30.800  44.942  1.00  0.00    -0.237 OA
ATOM     93  O   UNL A   1      36.378  29.466  45.714  1.00  0.00    -0.744 OA
ENDBRANCH  89  90
ENDBRANCH  57  82
BRANCH  69  94
ATOM     94  C   UNL A   1      44.463  35.740  41.361  1.00  0.00     0.058 A 
ATOM     95  C   UNL A   1      44.515  37.048  41.867  1.00  0.00     0.135 A 
ATOM     96  C   UNL A   1      45.410  34.818  41.840  1.00  0.00     0.135 A 
ATOM     97  F   UNL A   1      43.634  37.972  41.446  1.00  0.00    -0.206 F 
ATOM     98  C   UNL A   1      45.492  37.439  42.778  1.00  0.00     0.059 A 
ATOM     99  C   UNL A   1      46.374  35.177  42.777  1.00  0.00     0.059 A 
ATOM    100  F   UNL A   1      45.400  33.549  41.405  1.00  0.00    -0.206 F 
ATOM    101  C   UNL A   1      46.420  36.496  43.225  1.00  0.00     0.060 A 
BRANCH 101 102
ATOM    102  S   UNL A   1      47.683  37.014  44.406  1.00  0.00     0.124 S 
ATOM    103  O   UNL A   1      47.470  36.067  45.495  1.00  0.00    -0.237 OA
ATOM    104  O   UNL A   1      48.915  36.837  43.644  1.00  0.00    -0.237 OA
ATOM    105  O   UNL A   1      47.327  38.399  44.700  1.00  0.00    -0.744 OA
ENDBRANCH 101 102
ENDBRANCH  69  94
ENDBRANCH  43  44
ENDBRANCH  36  38
ENDBRANCH  35  36
ENDBRANCH  34  35
ENDBRANCH  33  34
ENDBRANCH  32  33
ENDBRANCH  31  32
ENDBRANCH   1  31
TORSDOF 25
ENDMDL
