MODEL 1
REMARK VINA RESULT:      -9.7      0.000      0.000
REMARK SMILES CS(=O)(=O)c1ccc(/C=C(/C(=O)OCCOCCOCCOCCOC(=O)c2ccc(-c3c4nc(c(-c5c(F)cc(S(=O)(=O)[O-])cc5F)c5ccc([nH]5)c(-c5c(F)cc(S(=O)(=O)[O-])cc5F)c5nc(c(-c6c(F)cc(S(=O)(=O)[O-])cc6F)c6ccc3[nH]6)C=C5)C=C4)cc2)c2ccc(O)cc2)cc1
REMARK SMILES IDX 20 1 19 2 18 3 17 4 16 5 15 6 14 7 13 8 11 9 12 10 10 11
REMARK SMILES IDX 9 12 8 13 5 14 6 15 102 16 7 17 101 18 2 19 1 20 3 21 4 22
REMARK SMILES IDX 94 23 95 24 100 25 96 26 99 27 97 28 98 29 21 31 22 32 23 33
REMARK SMILES IDX 24 34 25 35 26 36 27 37 28 38 29 39 93 40 30 41 92 42 31 43
REMARK SMILES IDX 32 44 33 45 86 46 34 47 91 48 85 49 87 50 35 51 90 52 84 53
REMARK SMILES IDX 83 54 36 56 70 57 49 58 69 59 50 60 53 61 68 62 88 63 51 64
REMARK SMILES IDX 52 65 67 67 89 68 54 69 37 70 38 71 47 72 39 73 40 74 46 75
REMARK SMILES IDX 48 76 41 77 42 78 43 79 44 80 45 81 71 82 72 83 81 84 73 85
REMARK SMILES IDX 74 86 80 87 82 88 75 89 76 90 77 91 78 92 79 93 55 94 56 95
REMARK SMILES IDX 65 96 57 97 58 98 64 99 66 100 59 101 60 102 61 103 62 104
REMARK SMILES IDX 63 105
REMARK H PARENT 98 30 87 55 53 66
REMARK Flexibility Score: inf
ROOT
ATOM      1  C   UNL A   1      31.164  28.899  24.867  1.00  0.00     0.188 C 
ENDROOT
BRANCH   1   2
ATOM      2  O   UNL A   1      31.713  28.038  23.883  1.00  0.00    -0.377 OA
BRANCH   2   3
ATOM      3  C   UNL A   1      32.317  28.597  22.731  1.00  0.00     0.188 C 
BRANCH   3   4
ATOM      4  C   UNL A   1      33.749  28.185  22.334  1.00  0.00     0.188 C 
BRANCH   4   5
ATOM      5  O   UNL A   1      33.848  26.944  21.647  1.00  0.00    -0.376 OA
BRANCH   5   6
ATOM      6  C   UNL A   1      32.612  26.343  21.280  1.00  0.00     0.202 C 
BRANCH   6   7
ATOM      7  C   UNL A   1      32.281  25.084  22.087  1.00  0.00     0.261 C 
BRANCH   7   8
ATOM      8  O   UNL A   1      33.071  24.926  23.277  1.00  0.00    -0.460 OA
BRANCH   8   9
ATOM      9  C   UNL A   1      32.470  24.362  24.351  1.00  0.00     0.338 C 
ATOM     10  O   UNL A   1      31.566  24.860  25.005  1.00  0.00    -0.246 OA
BRANCH   9  11
ATOM     11  C   UNL A   1      32.972  22.963  24.559  1.00  0.00     0.067 C 
ATOM     12  C   UNL A   1      32.071  21.951  24.587  1.00  0.00     0.024 C 
BRANCH  12  13
ATOM     13  C   UNL A   1      32.306  20.492  24.610  1.00  0.00    -0.025 A 
ATOM     14  C   UNL A   1      33.113  17.812  24.401  1.00  0.00     0.067 A 
ATOM     15  C   UNL A   1      33.132  18.444  25.642  1.00  0.00     0.021 A 
ATOM     16  C   UNL A   1      32.587  18.467  23.287  1.00  0.00     0.021 A 
ATOM     17  C   UNL A   1      32.700  19.770  25.742  1.00  0.00     0.009 A 
ATOM     18  C   UNL A   1      32.180  19.799  23.397  1.00  0.00     0.009 A 
BRANCH  14  19
ATOM     19  S   UNL A   1      33.858  16.220  24.154  1.00  0.00     0.175 S 
ATOM     20  C   UNL A   1      35.282  16.151  25.204  1.00  0.00     0.163 C 
ATOM     21  O   UNL A   1      34.354  16.202  22.789  1.00  0.00    -0.224 OA
ATOM     22  O   UNL A   1      32.912  15.229  24.625  1.00  0.00    -0.224 OA
ENDBRANCH  14  19
ENDBRANCH  12  13
BRANCH  11  23
ATOM     23  C   UNL A   1      34.429  22.770  24.696  1.00  0.00    -0.011 A 
ATOM     24  C   UNL A   1      34.991  22.581  25.971  1.00  0.00     0.013 A 
ATOM     25  C   UNL A   1      35.260  22.695  23.573  1.00  0.00     0.013 A 
ATOM     26  C   UNL A   1      36.348  22.303  26.121  1.00  0.00     0.047 A 
ATOM     27  C   UNL A   1      36.622  22.412  23.722  1.00  0.00     0.047 A 
ATOM     28  C   UNL A   1      37.151  22.214  24.995  1.00  0.00     0.115 A 
BRANCH  28  29
ATOM     29  O   UNL A   1      38.466  21.909  25.181  1.00  0.00    -0.508 OA
ATOM     30  H   UNL A   1      39.130  22.439  24.784  1.00  0.00     0.293 HD
ENDBRANCH  28  29
ENDBRANCH  11  23
ENDBRANCH   9  11
ENDBRANCH   8   9
ENDBRANCH   7   8
ENDBRANCH   6   7
ENDBRANCH   5   6
ENDBRANCH   4   5
ENDBRANCH   3   4
ENDBRANCH   2   3
ENDBRANCH   1   2
BRANCH   1  31
ATOM     31  C   UNL A   1      31.798  28.936  26.271  1.00  0.00     0.188 C 
BRANCH  31  32
ATOM     32  O   UNL A   1      33.133  28.440  26.332  1.00  0.00    -0.376 OA
BRANCH  32  33
ATOM     33  C   UNL A   1      33.999  29.091  27.252  1.00  0.00     0.202 C 
BRANCH  33  34
ATOM     34  C   UNL A   1      33.873  30.617  27.266  1.00  0.00     0.261 C 
BRANCH  34  35
ATOM     35  O   UNL A   1      35.070  31.328  27.615  1.00  0.00    -0.460 OA
BRANCH  35  36
ATOM     36  C   UNL A   1      35.241  31.695  28.904  1.00  0.00     0.338 C 
ATOM     37  O   UNL A   1      34.450  32.282  29.620  1.00  0.00    -0.246 OA
BRANCH  36  38
ATOM     38  C   UNL A   1      36.503  31.081  29.356  1.00  0.00     0.060 A 
ATOM     39  C   UNL A   1      36.460  29.934  30.161  1.00  0.00     0.016 A 
ATOM     40  C   UNL A   1      37.723  31.602  28.919  1.00  0.00     0.016 A 
ATOM     41  C   UNL A   1      37.648  29.300  30.526  1.00  0.00     0.010 A 
ATOM     42  C   UNL A   1      38.909  30.982  29.308  1.00  0.00     0.010 A 
ATOM     43  C   UNL A   1      38.877  29.836  30.121  1.00  0.00    -0.014 A 
BRANCH  43  44
ATOM     44  C   UNL A   1      40.150  29.313  30.665  1.00  0.00     0.031 A 
ATOM     45  C   UNL A   1      40.760  30.014  31.843  1.00  0.00     0.074 A 
ATOM     46  C   UNL A   1      40.774  28.268  30.093  1.00  0.00     0.049 A 
ATOM     47  N   UNL A   1      41.919  29.820  32.414  1.00  0.00    -0.248 NA
ATOM     48  C   UNL A   1      39.952  31.082  32.455  1.00  0.00     0.031 C 
ATOM     49  C   UNL A   1      40.258  27.484  28.973  1.00  0.00     0.029 A 
ATOM     50  N   UNL A   1      41.994  27.704  30.367  1.00  0.00    -0.354 N 
ATOM     51  C   UNL A   1      41.982  30.741  33.452  1.00  0.00     0.074 A 
ATOM     52  C   UNL A   1      40.756  31.509  33.416  1.00  0.00     0.031 C 
ATOM     53  C   UNL A   1      41.167  26.548  28.644  1.00  0.00     0.029 A 
ATOM     54  C   UNL A   1      42.343  26.696  29.501  1.00  0.00     0.049 A 
ATOM     55  H   UNL A   1      42.567  27.994  31.115  1.00  0.00     0.167 HD
ATOM     56  C   UNL A   1      42.973  30.927  34.355  1.00  0.00     0.037 A 
ATOM     57  C   UNL A   1      43.493  26.000  29.393  1.00  0.00     0.037 A 
ATOM     58  C   UNL A   1      44.201  30.180  34.367  1.00  0.00     0.049 A 
ATOM     59  C   UNL A   1      44.631  26.305  30.335  1.00  0.00     0.074 A 
ATOM     60  C   UNL A   1      45.264  30.283  35.246  1.00  0.00     0.029 A 
ATOM     61  N   UNL A   1      44.540  29.204  33.440  1.00  0.00    -0.354 N 
ATOM     62  N   UNL A   1      44.673  27.159  31.329  1.00  0.00    -0.248 NA
ATOM     63  C   UNL A   1      45.883  25.561  30.129  1.00  0.00     0.031 C 
ATOM     64  C   UNL A   1      46.267  29.405  34.820  1.00  0.00     0.029 A 
ATOM     65  C   UNL A   1      45.811  28.722  33.703  1.00  0.00     0.049 A 
ATOM     66  H   UNL A   1      43.962  28.900  32.704  1.00  0.00     0.167 HD
ATOM     67  C   UNL A   1      45.947  27.044  31.878  1.00  0.00     0.074 A 
ATOM     68  C   UNL A   1      46.641  26.031  31.111  1.00  0.00     0.031 C 
ATOM     69  C   UNL A   1      46.490  27.716  32.925  1.00  0.00     0.037 A 
BRANCH  56  70
ATOM     70  C   UNL A   1      42.770  32.008  35.378  1.00  0.00     0.058 A 
ATOM     71  C   UNL A   1      42.366  31.714  36.690  1.00  0.00     0.135 A 
ATOM     72  C   UNL A   1      42.970  33.355  35.039  1.00  0.00     0.135 A 
ATOM     73  F   UNL A   1      42.141  30.443  37.059  1.00  0.00    -0.206 F 
ATOM     74  C   UNL A   1      42.131  32.720  37.620  1.00  0.00     0.059 A 
ATOM     75  C   UNL A   1      42.765  34.377  35.961  1.00  0.00     0.059 A 
ATOM     76  F   UNL A   1      43.351  33.691  33.797  1.00  0.00    -0.206 F 
ATOM     77  C   UNL A   1      42.325  34.050  37.243  1.00  0.00     0.060 A 
BRANCH  77  78
ATOM     78  S   UNL A   1      41.988  35.348  38.450  1.00  0.00     0.124 S 
ATOM     79  O   UNL A   1      40.704  35.857  37.977  1.00  0.00    -0.237 OA
ATOM     80  O   UNL A   1      41.950  34.606  39.707  1.00  0.00    -0.237 OA
ATOM     81  O   UNL A   1      43.119  36.258  38.298  1.00  0.00    -0.744 OA
ENDBRANCH  77  78
ENDBRANCH  56  70
BRANCH  57  82
ATOM     82  C   UNL A   1      43.635  24.959  28.341  1.00  0.00     0.058 A 
ATOM     83  C   UNL A   1      43.311  23.621  28.604  1.00  0.00     0.135 A 
ATOM     84  C   UNL A   1      44.082  25.282  27.050  1.00  0.00     0.135 A 
ATOM     85  F   UNL A   1      42.895  23.260  29.828  1.00  0.00    -0.206 F 
ATOM     86  C   UNL A   1      43.420  22.640  27.624  1.00  0.00     0.059 A 
ATOM     87  C   UNL A   1      44.179  24.323  26.048  1.00  0.00     0.059 A 
ATOM     88  F   UNL A   1      44.403  26.550  26.747  1.00  0.00    -0.206 F 
ATOM     89  C   UNL A   1      43.848  23.001  26.346  1.00  0.00     0.060 A 
BRANCH  89  90
ATOM     90  S   UNL A   1      43.911  21.732  25.062  1.00  0.00     0.124 S 
ATOM     91  O   UNL A   1      42.732  20.935  25.378  1.00  0.00    -0.237 OA
ATOM     92  O   UNL A   1      43.836  22.529  23.842  1.00  0.00    -0.237 OA
ATOM     93  O   UNL A   1      45.197  21.081  25.297  1.00  0.00    -0.744 OA
ENDBRANCH  89  90
ENDBRANCH  57  82
BRANCH  69  94
ATOM     94  C   UNL A   1      47.902  27.376  33.315  1.00  0.00     0.058 A 
ATOM     95  C   UNL A   1      48.185  26.335  34.214  1.00  0.00     0.135 A 
ATOM     96  C   UNL A   1      48.987  28.041  32.719  1.00  0.00     0.135 A 
ATOM     97  F   UNL A   1      47.184  25.675  34.818  1.00  0.00    -0.206 F 
ATOM     98  C   UNL A   1      49.493  25.968  34.511  1.00  0.00     0.059 A 
ATOM     99  C   UNL A   1      50.303  27.674  32.984  1.00  0.00     0.059 A 
ATOM    100  F   UNL A   1      48.772  29.037  31.846  1.00  0.00    -0.206 F 
ATOM    101  C   UNL A   1      50.546  26.639  33.886  1.00  0.00     0.060 A 
BRANCH 101 102
ATOM    102  S   UNL A   1      52.237  26.110  34.233  1.00  0.00     0.124 S 
ATOM    103  O   UNL A   1      52.122  24.660  34.123  1.00  0.00    -0.237 OA
ATOM    104  O   UNL A   1      52.995  26.769  33.173  1.00  0.00    -0.237 OA
ATOM    105  O   UNL A   1      52.484  26.621  35.579  1.00  0.00    -0.744 OA
ENDBRANCH 101 102
ENDBRANCH  69  94
ENDBRANCH  43  44
ENDBRANCH  36  38
ENDBRANCH  35  36
ENDBRANCH  34  35
ENDBRANCH  33  34
ENDBRANCH  32  33
ENDBRANCH  31  32
ENDBRANCH   1  31
TORSDOF 27
ENDMDL
MODEL 2
REMARK VINA RESULT:      -9.3      2.961      8.873
REMARK SMILES CS(=O)(=O)c1ccc(/C=C(/C(=O)OCCOCCOCCOCCOC(=O)c2ccc(-c3c4nc(c(-c5c(F)cc(S(=O)(=O)[O-])cc5F)c5ccc([nH]5)c(-c5c(F)cc(S(=O)(=O)[O-])cc5F)c5nc(c(-c6c(F)cc(S(=O)(=O)[O-])cc6F)c6ccc3[nH]6)C=C5)C=C4)cc2)c2ccc(O)cc2)cc1
REMARK SMILES IDX 20 1 19 2 18 3 17 4 16 5 15 6 14 7 13 8 11 9 12 10 10 11
REMARK SMILES IDX 9 12 8 13 5 14 6 15 102 16 7 17 101 18 2 19 1 20 3 21 4 22
REMARK SMILES IDX 94 23 95 24 100 25 96 26 99 27 97 28 98 29 21 31 22 32 23 33
REMARK SMILES IDX 24 34 25 35 26 36 27 37 28 38 29 39 93 40 30 41 92 42 31 43
REMARK SMILES IDX 32 44 33 45 86 46 34 47 91 48 85 49 87 50 35 51 90 52 84 53
REMARK SMILES IDX 83 54 36 56 70 57 49 58 69 59 50 60 53 61 68 62 88 63 51 64
REMARK SMILES IDX 52 65 67 67 89 68 54 69 37 70 38 71 47 72 39 73 40 74 46 75
REMARK SMILES IDX 48 76 41 77 42 78 43 79 44 80 45 81 71 82 72 83 81 84 73 85
REMARK SMILES IDX 74 86 80 87 82 88 75 89 76 90 77 91 78 92 79 93 55 94 56 95
REMARK SMILES IDX 65 96 57 97 58 98 64 99 66 100 59 101 60 102 61 103 62 104
REMARK SMILES IDX 63 105
REMARK H PARENT 98 30 87 55 53 66
REMARK Flexibility Score: inf
ROOT
ATOM      1  C   UNL A   1      31.108  28.635  25.523  1.00  0.00     0.188 C 
ENDROOT
BRANCH   1   2
ATOM      2  O   UNL A   1      31.781  27.949  24.480  1.00  0.00    -0.377 OA
BRANCH   2   3
ATOM      3  C   UNL A   1      31.846  28.534  23.193  1.00  0.00     0.188 C 
BRANCH   3   4
ATOM      4  C   UNL A   1      33.213  28.781  22.525  1.00  0.00     0.188 C 
BRANCH   4   5
ATOM      5  O   UNL A   1      33.871  27.612  22.055  1.00  0.00    -0.376 OA
BRANCH   5   6
ATOM      6  C   UNL A   1      33.022  26.528  21.697  1.00  0.00     0.202 C 
BRANCH   6   7
ATOM      7  C   UNL A   1      32.775  25.541  22.841  1.00  0.00     0.261 C 
BRANCH   7   8
ATOM      8  O   UNL A   1      33.735  25.627  23.907  1.00  0.00    -0.460 OA
BRANCH   8   9
ATOM      9  C   UNL A   1      33.509  24.872  25.009  1.00  0.00     0.338 C 
ATOM     10  O   UNL A   1      32.544  24.968  25.752  1.00  0.00    -0.246 OA
BRANCH   9  11
ATOM     11  C   UNL A   1      34.544  23.792  25.126  1.00  0.00     0.067 C 
ATOM     12  C   UNL A   1      35.843  24.117  24.919  1.00  0.00     0.024 C 
BRANCH  12  13
ATOM     13  C   UNL A   1      37.055  23.299  25.131  1.00  0.00    -0.025 A 
ATOM     14  C   UNL A   1      39.253  21.767  25.969  1.00  0.00     0.067 A 
ATOM     15  C   UNL A   1      38.260  21.181  25.188  1.00  0.00     0.021 A 
ATOM     16  C   UNL A   1      39.219  23.136  26.237  1.00  0.00     0.021 A 
ATOM     17  C   UNL A   1      37.184  21.958  24.750  1.00  0.00     0.009 A 
ATOM     18  C   UNL A   1      38.127  23.896  25.812  1.00  0.00     0.009 A 
BRANCH  14  19
ATOM     19  S   UNL A   1      40.519  20.799  26.751  1.00  0.00     0.175 S 
ATOM     20  C   UNL A   1      42.070  21.386  26.130  1.00  0.00     0.163 C 
ATOM     21  O   UNL A   1      40.367  19.442  26.258  1.00  0.00    -0.224 OA
ATOM     22  O   UNL A   1      40.468  21.097  28.168  1.00  0.00    -0.224 OA
ENDBRANCH  14  19
ENDBRANCH  12  13
BRANCH  11  23
ATOM     23  C   UNL A   1      34.083  22.437  25.488  1.00  0.00    -0.011 A 
ATOM     24  C   UNL A   1      33.886  21.475  24.482  1.00  0.00     0.013 A 
ATOM     25  C   UNL A   1      33.911  22.062  26.825  1.00  0.00     0.013 A 
ATOM     26  C   UNL A   1      33.543  20.163  24.803  1.00  0.00     0.047 A 
ATOM     27  C   UNL A   1      33.570  20.744  27.148  1.00  0.00     0.047 A 
ATOM     28  C   UNL A   1      33.395  19.807  26.135  1.00  0.00     0.115 A 
BRANCH  28  29
ATOM     29  O   UNL A   1      33.090  18.507  26.409  1.00  0.00    -0.508 OA
ATOM     30  H   UNL A   1      32.914  17.910  25.709  1.00  0.00     0.293 HD
ENDBRANCH  28  29
ENDBRANCH  11  23
ENDBRANCH   9  11
ENDBRANCH   8   9
ENDBRANCH   7   8
ENDBRANCH   6   7
ENDBRANCH   5   6
ENDBRANCH   4   5
ENDBRANCH   3   4
ENDBRANCH   2   3
ENDBRANCH   1   2
BRANCH   1  31
ATOM     31  C   UNL A   1      31.930  29.252  26.670  1.00  0.00     0.188 C 
BRANCH  31  32
ATOM     32  O   UNL A   1      33.214  29.736  26.286  1.00  0.00    -0.376 OA
BRANCH  32  33
ATOM     33  C   UNL A   1      33.839  30.636  27.191  1.00  0.00     0.202 C 
BRANCH  33  34
ATOM     34  C   UNL A   1      33.024  31.897  27.490  1.00  0.00     0.261 C 
BRANCH  34  35
ATOM     35  O   UNL A   1      33.770  33.123  27.492  1.00  0.00    -0.460 OA
BRANCH  35  36
ATOM     36  C   UNL A   1      33.717  33.900  28.596  1.00  0.00     0.338 C 
ATOM     37  O   UNL A   1      32.803  34.619  28.955  1.00  0.00    -0.246 OA
BRANCH  36  38
ATOM     38  C   UNL A   1      34.908  33.573  29.402  1.00  0.00     0.060 A 
ATOM     39  C   UNL A   1      36.127  34.204  29.116  1.00  0.00     0.016 A 
ATOM     40  C   UNL A   1      34.793  32.699  30.485  1.00  0.00     0.016 A 
ATOM     41  C   UNL A   1      37.238  33.962  29.924  1.00  0.00     0.010 A 
ATOM     42  C   UNL A   1      35.912  32.438  31.273  1.00  0.00     0.010 A 
ATOM     43  C   UNL A   1      37.140  33.059  30.990  1.00  0.00    -0.014 A 
BRANCH  43  44
ATOM     44  C   UNL A   1      38.346  32.622  31.730  1.00  0.00     0.031 A 
ATOM     45  C   UNL A   1      39.252  31.618  31.079  1.00  0.00     0.074 A 
ATOM     46  C   UNL A   1      38.603  33.073  32.970  1.00  0.00     0.049 A 
ATOM     47  N   UNL A   1      40.290  30.998  31.572  1.00  0.00    -0.248 NA
ATOM     48  C   UNL A   1      38.937  31.264  29.685  1.00  0.00     0.031 C 
ATOM     49  C   UNL A   1      37.820  34.078  33.685  1.00  0.00     0.029 A 
ATOM     50  N   UNL A   1      39.589  32.719  33.856  1.00  0.00    -0.354 N 
ATOM     51  C   UNL A   1      40.755  30.178  30.551  1.00  0.00     0.074 A 
ATOM     52  C   UNL A   1      39.870  30.363  29.420  1.00  0.00     0.031 C 
ATOM     53  C   UNL A   1      38.347  34.248  34.911  1.00  0.00     0.029 A 
ATOM     54  C   UNL A   1      39.477  33.334  35.080  1.00  0.00     0.049 A 
ATOM     55  H   UNL A   1      40.310  32.084  33.636  1.00  0.00     0.167 HD
ATOM     56  C   UNL A   1      41.825  29.350  30.555  1.00  0.00     0.037 A 
ATOM     57  C   UNL A   1      40.184  33.152  36.213  1.00  0.00     0.037 A 
ATOM     58  C   UNL A   1      42.682  29.150  31.691  1.00  0.00     0.049 A 
ATOM     59  C   UNL A   1      41.298  32.135  36.233  1.00  0.00     0.074 A 
ATOM     60  C   UNL A   1      43.799  28.340  31.797  1.00  0.00     0.029 A 
ATOM     61  N   UNL A   1      42.504  29.749  32.930  1.00  0.00    -0.354 N 
ATOM     62  N   UNL A   1      41.747  31.383  35.257  1.00  0.00    -0.248 NA
ATOM     63  C   UNL A   1      41.991  31.932  37.514  1.00  0.00     0.031 C 
ATOM     64  C   UNL A   1      44.266  28.412  33.114  1.00  0.00     0.029 A 
ATOM     65  C   UNL A   1      43.468  29.301  33.817  1.00  0.00     0.049 A 
ATOM     66  H   UNL A   1      41.796  30.398  33.146  1.00  0.00     0.167 HD
ATOM     67  C   UNL A   1      42.785  30.631  35.799  1.00  0.00     0.074 A 
ATOM     68  C   UNL A   1      42.903  31.025  37.187  1.00  0.00     0.031 C 
ATOM     69  C   UNL A   1      43.569  29.700  35.199  1.00  0.00     0.037 A 
BRANCH  56  70
ATOM     70  C   UNL A   1      42.093  28.575  29.297  1.00  0.00     0.058 A 
ATOM     71  C   UNL A   1      43.091  28.968  28.389  1.00  0.00     0.135 A 
ATOM     72  C   UNL A   1      41.337  27.434  28.988  1.00  0.00     0.135 A 
ATOM     73  F   UNL A   1      43.827  30.065  28.628  1.00  0.00    -0.206 F 
ATOM     74  C   UNL A   1      43.303  28.279  27.201  1.00  0.00     0.059 A 
ATOM     75  C   UNL A   1      41.550  26.714  27.816  1.00  0.00     0.059 A 
ATOM     76  F   UNL A   1      40.368  27.019  29.818  1.00  0.00    -0.206 F 
ATOM     77  C   UNL A   1      42.521  27.157  26.919  1.00  0.00     0.060 A 
BRANCH  77  78
ATOM     78  S   UNL A   1      42.788  26.288  25.360  1.00  0.00     0.124 S 
ATOM     79  O   UNL A   1      44.145  25.782  25.539  1.00  0.00    -0.237 OA
ATOM     80  O   UNL A   1      41.730  25.282  25.376  1.00  0.00    -0.237 OA
ATOM     81  O   UNL A   1      42.637  27.337  24.356  1.00  0.00    -0.744 OA
ENDBRANCH  77  78
ENDBRANCH  56  70
BRANCH  57  82
ATOM     82  C   UNL A   1      39.848  33.935  37.432  1.00  0.00     0.058 A 
ATOM     83  C   UNL A   1      38.916  33.454  38.362  1.00  0.00     0.135 A 
ATOM     84  C   UNL A   1      40.461  35.169  37.698  1.00  0.00     0.135 A 
ATOM     85  F   UNL A   1      38.291  32.287  38.143  1.00  0.00    -0.206 F 
ATOM     86  C   UNL A   1      38.606  34.166  39.516  1.00  0.00     0.059 A 
ATOM     87  C   UNL A   1      40.183  35.890  38.856  1.00  0.00     0.059 A 
ATOM     88  F   UNL A   1      41.362  35.672  36.839  1.00  0.00    -0.206 F 
ATOM     89  C   UNL A   1      39.250  35.380  39.758  1.00  0.00     0.060 A 
BRANCH  89  90
ATOM     90  S   UNL A   1      38.897  36.257  41.298  1.00  0.00     0.124 S 
ATOM     91  O   UNL A   1      40.157  36.109  42.017  1.00  0.00    -0.237 OA
ATOM     92  O   UNL A   1      38.587  37.600  40.819  1.00  0.00    -0.237 OA
ATOM     93  O   UNL A   1      37.763  35.521  41.850  1.00  0.00    -0.744 OA
ENDBRANCH  89  90
ENDBRANCH  57  82
BRANCH  69  94
ATOM     94  C   UNL A   1      44.635  29.045  36.032  1.00  0.00     0.058 A 
ATOM     95  C   UNL A   1      44.409  27.824  36.686  1.00  0.00     0.135 A 
ATOM     96  C   UNL A   1      45.924  29.600  36.106  1.00  0.00     0.135 A 
ATOM     97  F   UNL A   1      43.193  27.256  36.654  1.00  0.00    -0.206 F 
ATOM     98  C   UNL A   1      45.421  27.177  37.389  1.00  0.00     0.059 A 
ATOM     99  C   UNL A   1      46.957  28.958  36.784  1.00  0.00     0.059 A 
ATOM    100  F   UNL A   1      46.196  30.761  35.492  1.00  0.00    -0.206 F 
ATOM    101  C   UNL A   1      46.694  27.749  37.426  1.00  0.00     0.060 A 
BRANCH 101 102
ATOM    102  S   UNL A   1      48.014  26.868  38.288  1.00  0.00     0.124 S 
ATOM    103  O   UNL A   1      47.547  26.916  39.669  1.00  0.00    -0.237 OA
ATOM    104  O   UNL A   1      47.981  25.554  37.651  1.00  0.00    -0.237 OA
ATOM    105  O   UNL A   1      49.202  27.667  37.997  1.00  0.00    -0.744 OA
ENDBRANCH 101 102
ENDBRANCH  69  94
ENDBRANCH  43  44
ENDBRANCH  36  38
ENDBRANCH  35  36
ENDBRANCH  34  35
ENDBRANCH  33  34
ENDBRANCH  32  33
ENDBRANCH  31  32
ENDBRANCH   1  31
TORSDOF 27
ENDMDL
MODEL 3
REMARK VINA RESULT:      -9.2      4.157     10.318
REMARK SMILES CS(=O)(=O)c1ccc(/C=C(/C(=O)OCCOCCOCCOCCOC(=O)c2ccc(-c3c4nc(c(-c5c(F)cc(S(=O)(=O)[O-])cc5F)c5ccc([nH]5)c(-c5c(F)cc(S(=O)(=O)[O-])cc5F)c5nc(c(-c6c(F)cc(S(=O)(=O)[O-])cc6F)c6ccc3[nH]6)C=C5)C=C4)cc2)c2ccc(O)cc2)cc1
REMARK SMILES IDX 20 1 19 2 18 3 17 4 16 5 15 6 14 7 13 8 11 9 12 10 10 11
REMARK SMILES IDX 9 12 8 13 5 14 6 15 102 16 7 17 101 18 2 19 1 20 3 21 4 22
REMARK SMILES IDX 94 23 95 24 100 25 96 26 99 27 97 28 98 29 21 31 22 32 23 33
REMARK SMILES IDX 24 34 25 35 26 36 27 37 28 38 29 39 93 40 30 41 92 42 31 43
REMARK SMILES IDX 32 44 33 45 86 46 34 47 91 48 85 49 87 50 35 51 90 52 84 53
REMARK SMILES IDX 83 54 36 56 70 57 49 58 69 59 50 60 53 61 68 62 88 63 51 64
REMARK SMILES IDX 52 65 67 67 89 68 54 69 37 70 38 71 47 72 39 73 40 74 46 75
REMARK SMILES IDX 48 76 41 77 42 78 43 79 44 80 45 81 71 82 72 83 81 84 73 85
REMARK SMILES IDX 74 86 80 87 82 88 75 89 76 90 77 91 78 92 79 93 55 94 56 95
REMARK SMILES IDX 65 96 57 97 58 98 64 99 66 100 59 101 60 102 61 103 62 104
REMARK SMILES IDX 63 105
REMARK H PARENT 98 30 87 55 53 66
REMARK Flexibility Score: inf
ROOT
ATOM      1  C   UNL A   1      39.982  24.761  27.726  1.00  0.00     0.188 C 
ENDROOT
BRANCH   1   2
ATOM      2  O   UNL A   1      39.779  23.457  27.204  1.00  0.00    -0.377 OA
BRANCH   2   3
ATOM      3  C   UNL A   1      38.605  23.181  26.463  1.00  0.00     0.188 C 
BRANCH   3   4
ATOM      4  C   UNL A   1      38.469  21.848  25.701  1.00  0.00     0.188 C 
BRANCH   4   5
ATOM      5  O   UNL A   1      37.154  21.546  25.251  1.00  0.00    -0.376 OA
BRANCH   5   6
ATOM      6  C   UNL A   1      36.734  22.226  24.075  1.00  0.00     0.202 C 
BRANCH   6   7
ATOM      7  C   UNL A   1      35.224  22.469  24.015  1.00  0.00     0.261 C 
BRANCH   7   8
ATOM      8  O   UNL A   1      34.857  23.849  23.851  1.00  0.00    -0.460 OA
BRANCH   8   9
ATOM      9  C   UNL A   1      33.942  24.139  22.895  1.00  0.00     0.338 C 
ATOM     10  O   UNL A   1      33.944  23.707  21.753  1.00  0.00    -0.246 OA
BRANCH   9  11
ATOM     11  C   UNL A   1      32.830  24.967  23.469  1.00  0.00     0.067 C 
ATOM     12  C   UNL A   1      32.560  26.168  22.901  1.00  0.00     0.024 C 
BRANCH  12  13
ATOM     13  C   UNL A   1      31.434  27.090  23.159  1.00  0.00    -0.025 A 
ATOM     14  C   UNL A   1      29.407  29.029  23.256  1.00  0.00     0.067 A 
ATOM     15  C   UNL A   1      29.070  27.681  23.155  1.00  0.00     0.021 A 
ATOM     16  C   UNL A   1      30.738  29.409  23.425  1.00  0.00     0.021 A 
ATOM     17  C   UNL A   1      30.085  26.720  23.138  1.00  0.00     0.009 A 
ATOM     18  C   UNL A   1      31.744  28.440  23.383  1.00  0.00     0.009 A 
BRANCH  14  19
ATOM     19  S   UNL A   1      28.196  30.311  23.052  1.00  0.00     0.175 S 
ATOM     20  C   UNL A   1      28.138  30.690  21.323  1.00  0.00     0.163 C 
ATOM     21  O   UNL A   1      28.727  31.491  23.712  1.00  0.00    -0.224 OA
ATOM     22  O   UNL A   1      26.914  29.750  23.425  1.00  0.00    -0.224 OA
ENDBRANCH  14  19
ENDBRANCH  12  13
BRANCH  11  23
ATOM     23  C   UNL A   1      32.075  24.408  24.608  1.00  0.00    -0.011 A 
ATOM     24  C   UNL A   1      31.378  23.197  24.455  1.00  0.00     0.013 A 
ATOM     25  C   UNL A   1      32.103  25.019  25.866  1.00  0.00     0.013 A 
ATOM     26  C   UNL A   1      30.737  22.598  25.538  1.00  0.00     0.047 A 
ATOM     27  C   UNL A   1      31.463  24.417  26.955  1.00  0.00     0.047 A 
ATOM     28  C   UNL A   1      30.791  23.210  26.781  1.00  0.00     0.115 A 
BRANCH  28  29
ATOM     29  O   UNL A   1      30.179  22.578  27.822  1.00  0.00    -0.508 OA
ATOM     30  H   UNL A   1      29.616  23.059  28.397  1.00  0.00     0.293 HD
ENDBRANCH  28  29
ENDBRANCH  11  23
ENDBRANCH   9  11
ENDBRANCH   8   9
ENDBRANCH   7   8
ENDBRANCH   6   7
ENDBRANCH   5   6
ENDBRANCH   4   5
ENDBRANCH   3   4
ENDBRANCH   2   3
ENDBRANCH   1   2
BRANCH   1  31
ATOM     31  C   UNL A   1      39.990  25.963  26.763  1.00  0.00     0.188 C 
BRANCH  31  32
ATOM     32  O   UNL A   1      41.283  26.344  26.300  1.00  0.00    -0.376 OA
BRANCH  32  33
ATOM     33  C   UNL A   1      41.897  25.462  25.370  1.00  0.00     0.202 C 
BRANCH  33  34
ATOM     34  C   UNL A   1      43.425  25.563  25.321  1.00  0.00     0.261 C 
BRANCH  34  35
ATOM     35  O   UNL A   1      43.996  26.611  26.119  1.00  0.00    -0.460 OA
BRANCH  35  36
ATOM     36  C   UNL A   1      44.674  26.266  27.235  1.00  0.00     0.338 C 
ATOM     37  O   UNL A   1      45.648  25.539  27.318  1.00  0.00    -0.246 OA
BRANCH  36  38
ATOM     38  C   UNL A   1      44.134  27.090  28.331  1.00  0.00     0.060 A 
ATOM     39  C   UNL A   1      44.333  28.478  28.311  1.00  0.00     0.016 A 
ATOM     40  C   UNL A   1      43.368  26.493  29.335  1.00  0.00     0.016 A 
ATOM     41  C   UNL A   1      43.757  29.274  29.301  1.00  0.00     0.010 A 
ATOM     42  C   UNL A   1      42.816  27.288  30.338  1.00  0.00     0.010 A 
ATOM     43  C   UNL A   1      43.017  28.679  30.331  1.00  0.00    -0.014 A 
BRANCH  43  44
ATOM     44  C   UNL A   1      42.576  29.468  31.503  1.00  0.00     0.031 A 
ATOM     45  C   UNL A   1      41.317  30.276  31.381  1.00  0.00     0.074 A 
ATOM     46  C   UNL A   1      43.303  29.502  32.633  1.00  0.00     0.049 A 
ATOM     47  N   UNL A   1      40.798  31.133  32.218  1.00  0.00    -0.248 NA
ATOM     48  C   UNL A   1      40.543  30.092  30.142  1.00  0.00     0.031 C 
ATOM     49  C   UNL A   1      44.518  28.729  32.882  1.00  0.00     0.029 A 
ATOM     50  N   UNL A   1      43.132  30.241  33.777  1.00  0.00    -0.354 N 
ATOM     51  C   UNL A   1      39.638  31.595  31.610  1.00  0.00     0.074 A 
ATOM     52  C   UNL A   1      39.543  30.940  30.322  1.00  0.00     0.031 C 
ATOM     53  C   UNL A   1      44.994  29.048  34.100  1.00  0.00     0.029 A 
ATOM     54  C   UNL A   1      44.141  30.077  34.695  1.00  0.00     0.049 A 
ATOM     55  H   UNL A   1      42.359  30.833  33.926  1.00  0.00     0.167 HD
ATOM     56  C   UNL A   1      38.732  32.481  32.084  1.00  0.00     0.037 A 
ATOM     57  C   UNL A   1      44.367  30.712  35.863  1.00  0.00     0.037 A 
ATOM     58  C   UNL A   1      38.848  33.150  33.351  1.00  0.00     0.049 A 
ATOM     59  C   UNL A   1      43.408  31.784  36.317  1.00  0.00     0.074 A 
ATOM     60  C   UNL A   1      37.980  34.059  33.929  1.00  0.00     0.029 A 
ATOM     61  N   UNL A   1      39.912  32.999  34.228  1.00  0.00    -0.354 N 
ATOM     62  N   UNL A   1      42.301  32.196  35.748  1.00  0.00    -0.248 NA
ATOM     63  C   UNL A   1      43.740  32.489  37.565  1.00  0.00     0.031 C 
ATOM     64  C   UNL A   1      38.545  34.494  35.133  1.00  0.00     0.029 A 
ATOM     65  C   UNL A   1      39.742  33.823  35.327  1.00  0.00     0.049 A 
ATOM     66  H   UNL A   1      40.676  32.393  34.090  1.00  0.00     0.167 HD
ATOM     67  C   UNL A   1      41.794  33.194  36.575  1.00  0.00     0.074 A 
ATOM     68  C   UNL A   1      42.711  33.317  37.689  1.00  0.00     0.031 C 
ATOM     69  C   UNL A   1      40.669  33.938  36.426  1.00  0.00     0.037 A 
BRANCH  56  70
ATOM     70  C   UNL A   1      37.560  32.799  31.200  1.00  0.00     0.058 A 
ATOM     71  C   UNL A   1      36.312  32.180  31.381  1.00  0.00     0.135 A 
ATOM     72  C   UNL A   1      37.688  33.722  30.151  1.00  0.00     0.135 A 
ATOM     73  F   UNL A   1      36.144  31.273  32.357  1.00  0.00    -0.206 F 
ATOM     74  C   UNL A   1      35.243  32.437  30.531  1.00  0.00     0.059 A 
ATOM     75  C   UNL A   1      36.624  34.014  29.303  1.00  0.00     0.059 A 
ATOM     76  F   UNL A   1      38.860  34.337  29.930  1.00  0.00    -0.206 F 
ATOM     77  C   UNL A   1      35.412  33.350  29.488  1.00  0.00     0.060 A 
BRANCH  77  78
ATOM     78  S   UNL A   1      34.026  33.654  28.374  1.00  0.00     0.124 S 
ATOM     79  O   UNL A   1      33.037  34.216  29.288  1.00  0.00    -0.237 OA
ATOM     80  O   UNL A   1      34.598  34.587  27.408  1.00  0.00    -0.237 OA
ATOM     81  O   UNL A   1      33.713  32.328  27.849  1.00  0.00    -0.744 OA
ENDBRANCH  77  78
ENDBRANCH  56  70
BRANCH  57  82
ATOM     82  C   UNL A   1      45.562  30.366  36.677  1.00  0.00     0.058 A 
ATOM     83  C   UNL A   1      45.526  29.305  37.591  1.00  0.00     0.135 A 
ATOM     84  C   UNL A   1      46.765  31.078  36.548  1.00  0.00     0.135 A 
ATOM     85  F   UNL A   1      44.394  28.605  37.763  1.00  0.00    -0.206 F 
ATOM     86  C   UNL A   1      46.642  28.957  38.347  1.00  0.00     0.059 A 
ATOM     87  C   UNL A   1      47.900  30.736  37.275  1.00  0.00     0.059 A 
ATOM     88  F   UNL A   1      46.851  32.103  35.684  1.00  0.00    -0.206 F 
ATOM     89  C   UNL A   1      47.827  29.674  38.176  1.00  0.00     0.060 A 
BRANCH  89  90
ATOM     90  S   UNL A   1      49.290  29.162  39.105  1.00  0.00     0.124 S 
ATOM     91  O   UNL A   1      50.353  29.406  38.137  1.00  0.00    -0.237 OA
ATOM     92  O   UNL A   1      49.252  30.063  40.253  1.00  0.00    -0.237 OA
ATOM     93  O   UNL A   1      49.020  27.760  39.410  1.00  0.00    -0.744 OA
ENDBRANCH  89  90
ENDBRANCH  57  82
BRANCH  69  94
ATOM     94  C   UNL A   1      40.354  34.949  37.494  1.00  0.00     0.058 A 
ATOM     95  C   UNL A   1      39.463  34.658  38.539  1.00  0.00     0.135 A 
ATOM     96  C   UNL A   1      41.015  36.188  37.521  1.00  0.00     0.135 A 
ATOM     97  F   UNL A   1      38.798  33.492  38.555  1.00  0.00    -0.206 F 
ATOM     98  C   UNL A   1      39.234  35.564  39.571  1.00  0.00     0.059 A 
ATOM     99  C   UNL A   1      40.819  37.098  38.556  1.00  0.00     0.059 A 
ATOM    100  F   UNL A   1      41.884  36.512  36.550  1.00  0.00    -0.206 F 
ATOM    101  C   UNL A   1      39.923  36.778  39.574  1.00  0.00     0.060 A 
BRANCH 101 102
ATOM    102  S   UNL A   1      39.664  37.916  40.952  1.00  0.00     0.124 S 
ATOM    103  O   UNL A   1      39.298  37.000  42.027  1.00  0.00    -0.237 OA
ATOM    104  O   UNL A   1      40.971  38.554  41.080  1.00  0.00    -0.237 OA
ATOM    105  O   UNL A   1      38.593  38.788  40.477  1.00  0.00    -0.744 OA
ENDBRANCH 101 102
ENDBRANCH  69  94
ENDBRANCH  43  44
ENDBRANCH  36  38
ENDBRANCH  35  36
ENDBRANCH  34  35
ENDBRANCH  33  34
ENDBRANCH  32  33
ENDBRANCH  31  32
ENDBRANCH   1  31
TORSDOF 27
ENDMDL
