MODEL 1
REMARK VINA RESULT:      -7.7      0.000      0.000
REMARK SMILES CCCC(=O)N(c1cc2sc(=O)oc2c2ccccc12)S(=O)(=O)c1ccc(C(=O)OCCOCCOCCOCCOC(=O)c2ccc(-c3c4nc(c(-c5c(F)cc(S(=O)(=O)[O-])cc5F)c5ccc([nH]5)c(-c5c(F)cc(S(=O)(=O)[O-])cc5F)c5nc(c(-c6c(F)cc(S(=O)(=O)[O-])cc6F)c6ccc3[nH]6)C=C5)C=C4)cc2)cc1
REMARK SMILES IDX 35 1 34 2 33 3 32 4 31 5 30 6 28 7 29 8 27 9 24 10 25 11
REMARK SMILES IDX 112 12 26 13 111 14 21 15 22 16 23 17 6 18 4 19 5 20 3 21
REMARK SMILES IDX 2 22 1 23 7 24 8 25 20 26 9 27 15 28 19 29 10 30 14 31 16 32
REMARK SMILES IDX 18 33 11 34 13 35 17 36 12 37 36 38 37 39 38 40 39 41 40 42
REMARK SMILES IDX 41 43 42 44 43 45 44 46 45 47 46 48 110 49 47 50 109 51
REMARK SMILES IDX 48 52 49 53 50 54 103 55 51 56 108 57 102 58 104 59 52 60
REMARK SMILES IDX 107 61 101 62 100 63 53 65 87 66 66 67 86 68 67 69 70 70
REMARK SMILES IDX 85 71 105 72 68 73 69 74 84 76 106 77 71 78 54 79 55 80
REMARK SMILES IDX 64 81 56 82 57 83 63 84 65 85 58 86 59 87 60 88 61 89 62 90
REMARK SMILES IDX 88 91 89 92 98 93 90 94 91 95 97 96 99 97 92 98 93 99 94 100
REMARK SMILES IDX 95 101 96 102 72 103 73 104 82 105 74 106 75 107 81 108
REMARK SMILES IDX 83 109 76 110 77 111 78 112 79 113 80 114
REMARK H PARENT 104 64 70 75
REMARK Flexibility Score: inf
ROOT
ATOM      1  C   UNL A   1      33.605  26.945  25.253  1.00  0.00     0.188 C 
ENDROOT
BRANCH   1   2
ATOM      2  C   UNL A   1      32.973  25.646  24.742  1.00  0.00     0.188 C 
BRANCH   2   3
ATOM      3  O   UNL A   1      33.943  24.722  24.248  1.00  0.00    -0.376 OA
BRANCH   3   4
ATOM      4  C   UNL A   1      34.296  23.642  25.111  1.00  0.00     0.202 C 
BRANCH   4   5
ATOM      5  C   UNL A   1      35.722  23.101  24.912  1.00  0.00     0.261 C 
BRANCH   5   6
ATOM      6  O   UNL A   1      36.634  23.354  25.997  1.00  0.00    -0.460 OA
BRANCH   6   7
ATOM      7  C   UNL A   1      37.761  22.608  26.059  1.00  0.00     0.338 C 
ATOM      8  O   UNL A   1      37.915  21.486  25.606  1.00  0.00    -0.246 OA
BRANCH   7   9
ATOM      9  C   UNL A   1      38.891  23.468  26.508  1.00  0.00     0.060 A 
ATOM     10  C   UNL A   1      41.106  25.031  27.218  1.00  0.00     0.088 A 
ATOM     11  C   UNL A   1      41.306  23.746  26.705  1.00  0.00     0.023 A 
ATOM     12  C   UNL A   1      39.808  25.542  27.365  1.00  0.00     0.023 A 
ATOM     13  C   UNL A   1      40.196  22.972  26.347  1.00  0.00     0.017 A 
ATOM     14  C   UNL A   1      38.701  24.761  27.010  1.00  0.00     0.017 A 
BRANCH  10  15
ATOM     15  S   UNL A   1      42.487  25.963  27.862  1.00  0.00     0.270 S 
ATOM     16  O   UNL A   1      42.176  26.201  29.255  1.00  0.00    -0.201 OA
ATOM     17  O   UNL A   1      42.719  27.063  26.944  1.00  0.00    -0.201 OA
BRANCH  15  18
ATOM     18  N   UNL A   1      43.869  24.975  27.774  1.00  0.00    -0.202 N 
BRANCH  18  19
ATOM     19  C   UNL A   1      44.417  24.576  29.048  1.00  0.00     0.241 C 
ATOM     20  O   UNL A   1      44.037  23.550  29.608  1.00  0.00    -0.273 OA
BRANCH  19  21
ATOM     21  C   UNL A   1      45.473  25.434  29.737  1.00  0.00     0.101 C 
BRANCH  21  22
ATOM     22  C   UNL A   1      44.951  26.146  30.984  1.00  0.00     0.006 C 
ATOM     23  C   UNL A   1      45.539  27.542  31.144  1.00  0.00     0.004 C 
ENDBRANCH  21  22
ENDBRANCH  19  21
ENDBRANCH  18  19
BRANCH  18  24
ATOM     24  C   UNL A   1      44.784  25.095  26.669  1.00  0.00     0.070 A 
ATOM     25  C   UNL A   1      45.512  26.274  26.453  1.00  0.00     0.051 A 
ATOM     26  C   UNL A   1      45.062  23.907  25.913  1.00  0.00     0.010 A 
ATOM     27  C   UNL A   1      46.504  26.271  25.488  1.00  0.00     0.080 A 
ATOM     28  C   UNL A   1      46.106  23.921  24.956  1.00  0.00     0.028 A 
ATOM     29  C   UNL A   1      44.376  22.683  26.110  1.00  0.00     0.011 A 
ATOM     30  S   UNL A   1      47.629  27.561  25.101  1.00  0.00    -0.052 S 
ATOM     31  C   UNL A   1      46.799  25.121  24.761  1.00  0.00     0.157 A 
ATOM     32  C   UNL A   1      46.461  22.731  24.285  1.00  0.00     0.013 A 
ATOM     33  C   UNL A   1      44.754  21.509  25.456  1.00  0.00     0.001 A 
ATOM     34  C   UNL A   1      48.476  26.443  24.030  1.00  0.00     0.396 A 
ATOM     35  O   UNL A   1      47.889  25.190  23.886  1.00  0.00    -0.413 OA
ATOM     36  C   UNL A   1      45.803  21.531  24.550  1.00  0.00     0.001 A 
ATOM     37  O   UNL A   1      49.531  26.731  23.483  1.00  0.00    -0.233 OA
ENDBRANCH  18  24
ENDBRANCH  15  18
ENDBRANCH  10  15
ENDBRANCH   7   9
ENDBRANCH   6   7
ENDBRANCH   5   6
ENDBRANCH   4   5
ENDBRANCH   3   4
ENDBRANCH   2   3
ENDBRANCH   1   2
BRANCH   1  38
ATOM     38  O   UNL A   1      33.002  27.450  26.433  1.00  0.00    -0.377 OA
BRANCH  38  39
ATOM     39  C   UNL A   1      32.084  28.512  26.196  1.00  0.00     0.188 C 
BRANCH  39  40
ATOM     40  C   UNL A   1      32.708  29.917  26.324  1.00  0.00     0.188 C 
BRANCH  40  41
ATOM     41  O   UNL A   1      33.085  30.407  27.610  1.00  0.00    -0.376 OA
BRANCH  41  42
ATOM     42  C   UNL A   1      33.595  31.731  27.727  1.00  0.00     0.202 C 
BRANCH  42  43
ATOM     43  C   UNL A   1      35.107  31.897  27.893  1.00  0.00     0.261 C 
BRANCH  43  44
ATOM     44  O   UNL A   1      35.685  30.916  28.768  1.00  0.00    -0.460 OA
BRANCH  44  45
ATOM     45  C   UNL A   1      36.385  29.924  28.165  1.00  0.00     0.338 C 
ATOM     46  O   UNL A   1      36.161  29.405  27.084  1.00  0.00    -0.246 OA
BRANCH  45  47
ATOM     47  C   UNL A   1      37.626  29.703  28.930  1.00  0.00     0.060 A 
ATOM     48  C   UNL A   1      38.020  28.427  29.340  1.00  0.00     0.016 A 
ATOM     49  C   UNL A   1      38.362  30.829  29.311  1.00  0.00     0.016 A 
ATOM     50  C   UNL A   1      39.182  28.284  30.106  1.00  0.00     0.010 A 
ATOM     51  C   UNL A   1      39.485  30.684  30.119  1.00  0.00     0.010 A 
ATOM     52  C   UNL A   1      39.931  29.411  30.496  1.00  0.00    -0.014 A 
BRANCH  52  53
ATOM     53  C   UNL A   1      41.266  29.222  31.112  1.00  0.00     0.031 A 
ATOM     54  C   UNL A   1      42.386  30.037  30.541  1.00  0.00     0.074 A 
ATOM     55  C   UNL A   1      41.450  28.754  32.363  1.00  0.00     0.049 A 
ATOM     56  N   UNL A   1      42.645  31.258  30.915  1.00  0.00    -0.248 NA
ATOM     57  C   UNL A   1      43.105  29.619  29.337  1.00  0.00     0.031 C 
ATOM     58  C   UNL A   1      40.581  29.086  33.497  1.00  0.00     0.029 A 
ATOM     59  N   UNL A   1      42.544  28.148  32.932  1.00  0.00    -0.354 N 
ATOM     60  C   UNL A   1      43.530  31.787  29.992  1.00  0.00     0.074 A 
ATOM     61  C   UNL A   1      43.788  30.733  29.034  1.00  0.00     0.031 C 
ATOM     62  C   UNL A   1      41.257  28.836  34.639  1.00  0.00     0.029 A 
ATOM     63  C   UNL A   1      42.522  28.179  34.322  1.00  0.00     0.049 A 
ATOM     64  H   UNL A   1      43.268  27.733  32.409  1.00  0.00     0.167 HD
ATOM     65  C   UNL A   1      44.008  33.059  30.045  1.00  0.00     0.037 A 
ATOM     66  C   UNL A   1      43.626  28.165  35.120  1.00  0.00     0.037 A 
ATOM     67  C   UNL A   1      43.596  33.844  31.169  1.00  0.00     0.049 A 
ATOM     68  C   UNL A   1      44.166  29.552  34.873  1.00  0.00     0.074 A 
ATOM     69  C   UNL A   1      42.602  34.748  31.474  1.00  0.00     0.029 A 
ATOM     70  N   UNL A   1      44.299  33.697  32.343  1.00  0.00    -0.354 N 
ATOM     71  N   UNL A   1      43.738  30.657  35.425  1.00  0.00    -0.248 NA
ATOM     72  C   UNL A   1      45.004  29.749  33.686  1.00  0.00     0.031 C 
ATOM     73  C   UNL A   1      42.483  34.720  32.900  1.00  0.00     0.029 A 
ATOM     74  C   UNL A   1      43.380  33.758  33.360  1.00  0.00     0.049 A 
ATOM     75  H   UNL A   1      45.271  33.571  32.434  1.00  0.00     0.167 HD
ATOM     76  C   UNL A   1      44.024  31.666  34.503  1.00  0.00     0.074 A 
ATOM     77  C   UNL A   1      44.828  31.044  33.471  1.00  0.00     0.031 C 
ATOM     78  C   UNL A   1      43.440  32.899  34.522  1.00  0.00     0.037 A 
BRANCH  65  79
ATOM     79  C   UNL A   1      45.048  33.574  29.135  1.00  0.00     0.058 A 
ATOM     80  C   UNL A   1      44.648  34.298  28.003  1.00  0.00     0.135 A 
ATOM     81  C   UNL A   1      46.396  33.218  29.255  1.00  0.00     0.135 A 
ATOM     82  F   UNL A   1      43.357  34.641  27.850  1.00  0.00    -0.206 F 
ATOM     83  C   UNL A   1      45.544  34.628  26.998  1.00  0.00     0.059 A 
ATOM     84  C   UNL A   1      47.317  33.541  28.260  1.00  0.00     0.059 A 
ATOM     85  F   UNL A   1      46.818  32.517  30.319  1.00  0.00    -0.206 F 
ATOM     86  C   UNL A   1      46.874  34.228  27.127  1.00  0.00     0.060 A 
BRANCH  86  87
ATOM     87  S   UNL A   1      47.999  34.585  25.761  1.00  0.00     0.124 S 
ATOM     88  O   UNL A   1      47.074  34.716  24.640  1.00  0.00    -0.237 OA
ATOM     89  O   UNL A   1      48.632  35.820  26.210  1.00  0.00    -0.237 OA
ATOM     90  O   UNL A   1      48.870  33.416  25.721  1.00  0.00    -0.744 OA
ENDBRANCH  86  87
ENDBRANCH  65  79
BRANCH  66  91
ATOM     91  C   UNL A   1      44.463  26.921  35.024  1.00  0.00     0.058 A 
ATOM     92  C   UNL A   1      45.778  26.961  35.537  1.00  0.00     0.135 A 
ATOM     93  C   UNL A   1      44.057  25.693  34.477  1.00  0.00     0.135 A 
ATOM     94  F   UNL A   1      46.307  28.122  35.956  1.00  0.00    -0.206 F 
ATOM     95  C   UNL A   1      46.573  25.823  35.654  1.00  0.00     0.059 A 
ATOM     96  C   UNL A   1      44.822  24.532  34.605  1.00  0.00     0.059 A 
ATOM     97  F   UNL A   1      42.893  25.578  33.823  1.00  0.00    -0.206 F 
ATOM     98  C   UNL A   1      46.063  24.601  35.229  1.00  0.00     0.060 A 
BRANCH  98  99
ATOM     99  S   UNL A   1      47.019  23.109  35.570  1.00  0.00     0.124 S 
ATOM    100  O   UNL A   1      46.188  22.072  34.966  1.00  0.00    -0.237 OA
ATOM    101  O   UNL A   1      48.274  23.397  34.884  1.00  0.00    -0.237 OA
ATOM    102  O   UNL A   1      47.099  23.083  37.027  1.00  0.00    -0.744 OA
ENDBRANCH  98  99
ENDBRANCH  66  91
BRANCH  78 103
ATOM    103  C   UNL A   1      42.632  33.224  35.731  1.00  0.00     0.058 A 
ATOM    104  C   UNL A   1      43.210  33.943  36.787  1.00  0.00     0.135 A 
ATOM    105  C   UNL A   1      41.270  32.895  35.828  1.00  0.00     0.135 A 
ATOM    106  F   UNL A   1      44.508  34.289  36.741  1.00  0.00    -0.206 F 
ATOM    107  C   UNL A   1      42.458  34.358  37.880  1.00  0.00     0.059 A 
ATOM    108  C   UNL A   1      40.494  33.317  36.904  1.00  0.00     0.059 A 
ATOM    109  F   UNL A   1      40.659  32.193  34.859  1.00  0.00    -0.206 F 
ATOM    110  C   UNL A   1      41.096  34.057  37.920  1.00  0.00     0.060 A 
BRANCH 110 111
ATOM    111  S   UNL A   1      40.103  34.716  39.274  1.00  0.00     0.124 S 
ATOM    112  O   UNL A   1      40.758  35.992  39.539  1.00  0.00    -0.237 OA
ATOM    113  O   UNL A   1      38.774  34.795  38.673  1.00  0.00    -0.237 OA
ATOM    114  O   UNL A   1      40.248  33.708  40.321  1.00  0.00    -0.744 OA
ENDBRANCH 110 111
ENDBRANCH  78 103
ENDBRANCH  52  53
ENDBRANCH  45  47
ENDBRANCH  44  45
ENDBRANCH  43  44
ENDBRANCH  42  43
ENDBRANCH  41  42
ENDBRANCH  40  41
ENDBRANCH  39  40
ENDBRANCH  38  39
ENDBRANCH   1  38
TORSDOF 29
ENDMDL
MODEL 2
REMARK VINA RESULT:      -7.7      1.545      2.370
REMARK SMILES CCCC(=O)N(c1cc2sc(=O)oc2c2ccccc12)S(=O)(=O)c1ccc(C(=O)OCCOCCOCCOCCOC(=O)c2ccc(-c3c4nc(c(-c5c(F)cc(S(=O)(=O)[O-])cc5F)c5ccc([nH]5)c(-c5c(F)cc(S(=O)(=O)[O-])cc5F)c5nc(c(-c6c(F)cc(S(=O)(=O)[O-])cc6F)c6ccc3[nH]6)C=C5)C=C4)cc2)cc1
REMARK SMILES IDX 35 1 34 2 33 3 32 4 31 5 30 6 28 7 29 8 27 9 24 10 25 11
REMARK SMILES IDX 112 12 26 13 111 14 21 15 22 16 23 17 6 18 4 19 5 20 3 21
REMARK SMILES IDX 2 22 1 23 7 24 8 25 20 26 9 27 15 28 19 29 10 30 14 31 16 32
REMARK SMILES IDX 18 33 11 34 13 35 17 36 12 37 36 38 37 39 38 40 39 41 40 42
REMARK SMILES IDX 41 43 42 44 43 45 44 46 45 47 46 48 110 49 47 50 109 51
REMARK SMILES IDX 48 52 49 53 50 54 103 55 51 56 108 57 102 58 104 59 52 60
REMARK SMILES IDX 107 61 101 62 100 63 53 65 87 66 66 67 86 68 67 69 70 70
REMARK SMILES IDX 85 71 105 72 68 73 69 74 84 76 106 77 71 78 54 79 55 80
REMARK SMILES IDX 64 81 56 82 57 83 63 84 65 85 58 86 59 87 60 88 61 89 62 90
REMARK SMILES IDX 88 91 89 92 98 93 90 94 91 95 97 96 99 97 92 98 93 99 94 100
REMARK SMILES IDX 95 101 96 102 72 103 73 104 82 105 74 106 75 107 81 108
REMARK SMILES IDX 83 109 76 110 77 111 78 112 79 113 80 114
REMARK H PARENT 104 64 70 75
REMARK Flexibility Score: inf
ROOT
ATOM      1  C   UNL A   1      33.675  26.364  25.809  1.00  0.00     0.188 C 
ENDROOT
BRANCH   1   2
ATOM      2  C   UNL A   1      33.263  25.033  25.170  1.00  0.00     0.188 C 
BRANCH   2   3
ATOM      3  O   UNL A   1      34.354  24.371  24.530  1.00  0.00    -0.376 OA
BRANCH   3   4
ATOM      4  C   UNL A   1      35.140  23.500  25.341  1.00  0.00     0.202 C 
BRANCH   4   5
ATOM      5  C   UNL A   1      36.649  23.794  25.325  1.00  0.00     0.261 C 
BRANCH   5   6
ATOM      6  O   UNL A   1      37.261  23.945  26.619  1.00  0.00    -0.460 OA
BRANCH   6   7
ATOM      7  C   UNL A   1      38.547  23.550  26.757  1.00  0.00     0.338 C 
ATOM      8  O   UNL A   1      38.963  22.403  26.723  1.00  0.00    -0.246 OA
BRANCH   7   9
ATOM      9  C   UNL A   1      39.437  24.741  26.666  1.00  0.00     0.060 A 
ATOM     10  C   UNL A   1      41.083  26.984  26.326  1.00  0.00     0.088 A 
ATOM     11  C   UNL A   1      41.117  25.955  25.381  1.00  0.00     0.023 A 
ATOM     12  C   UNL A   1      40.222  26.903  27.432  1.00  0.00     0.023 A 
ATOM     13  C   UNL A   1      40.288  24.840  25.552  1.00  0.00     0.017 A 
ATOM     14  C   UNL A   1      39.399  25.783  27.601  1.00  0.00     0.017 A 
BRANCH  10  15
ATOM     15  S   UNL A   1      42.263  28.322  26.238  1.00  0.00     0.270 S 
ATOM     16  O   UNL A   1      41.821  29.292  27.216  1.00  0.00    -0.201 OA
ATOM     17  O   UNL A   1      42.398  28.673  24.836  1.00  0.00    -0.201 OA
BRANCH  15  18
ATOM     18  N   UNL A   1      43.777  27.714  26.720  1.00  0.00    -0.202 N 
BRANCH  18  19
ATOM     19  C   UNL A   1      44.892  28.604  26.500  1.00  0.00     0.241 C 
ATOM     20  O   UNL A   1      44.731  29.822  26.456  1.00  0.00    -0.273 OA
BRANCH  19  21
ATOM     21  C   UNL A   1      46.297  28.047  26.298  1.00  0.00     0.101 C 
BRANCH  21  22
ATOM     22  C   UNL A   1      47.082  27.906  27.601  1.00  0.00     0.006 C 
ATOM     23  C   UNL A   1      47.561  26.480  27.839  1.00  0.00     0.004 C 
ENDBRANCH  21  22
ENDBRANCH  19  21
ENDBRANCH  18  19
BRANCH  18  24
ATOM     24  C   UNL A   1      44.043  26.300  26.681  1.00  0.00     0.070 A 
ATOM     25  C   UNL A   1      44.421  25.664  25.489  1.00  0.00     0.051 A 
ATOM     26  C   UNL A   1      44.090  25.604  27.936  1.00  0.00     0.010 A 
ATOM     27  C   UNL A   1      44.837  24.345  25.546  1.00  0.00     0.080 A 
ATOM     28  C   UNL A   1      44.552  24.265  27.971  1.00  0.00     0.028 A 
ATOM     29  C   UNL A   1      43.745  26.206  29.171  1.00  0.00     0.011 A 
ATOM     30  S   UNL A   1      45.466  23.361  24.238  1.00  0.00    -0.052 S 
ATOM     31  C   UNL A   1      44.907  23.664  26.757  1.00  0.00     0.157 A 
ATOM     32  C   UNL A   1      44.705  23.607  29.209  1.00  0.00     0.013 A 
ATOM     33  C   UNL A   1      43.925  25.550  30.390  1.00  0.00     0.001 A 
ATOM     34  C   UNL A   1      45.853  22.111  25.422  1.00  0.00     0.396 A 
ATOM     35  O   UNL A   1      45.440  22.370  26.724  1.00  0.00    -0.413 OA
ATOM     36  C   UNL A   1      44.414  24.253  30.410  1.00  0.00     0.001 A 
ATOM     37  O   UNL A   1      46.481  21.102  25.130  1.00  0.00    -0.233 OA
ENDBRANCH  18  24
ENDBRANCH  15  18
ENDBRANCH  10  15
ENDBRANCH   7   9
ENDBRANCH   6   7
ENDBRANCH   5   6
ENDBRANCH   4   5
ENDBRANCH   3   4
ENDBRANCH   2   3
ENDBRANCH   1   2
BRANCH   1  38
ATOM     38  O   UNL A   1      32.582  27.214  26.116  1.00  0.00    -0.377 OA
BRANCH  38  39
ATOM     39  C   UNL A   1      32.499  28.361  25.278  1.00  0.00     0.188 C 
BRANCH  39  40
ATOM     40  C   UNL A   1      33.322  29.565  25.783  1.00  0.00     0.188 C 
BRANCH  40  41
ATOM     41  O   UNL A   1      33.453  29.792  27.185  1.00  0.00    -0.376 OA
BRANCH  41  42
ATOM     42  C   UNL A   1      33.569  31.128  27.665  1.00  0.00     0.202 C 
BRANCH  42  43
ATOM     43  C   UNL A   1      34.967  31.630  28.034  1.00  0.00     0.261 C 
BRANCH  43  44
ATOM     44  O   UNL A   1      35.707  30.691  28.829  1.00  0.00    -0.460 OA
BRANCH  44  45
ATOM     45  C   UNL A   1      36.643  29.965  28.171  1.00  0.00     0.338 C 
ATOM     46  O   UNL A   1      36.653  29.657  26.991  1.00  0.00    -0.246 OA
BRANCH  45  47
ATOM     47  C   UNL A   1      37.799  29.779  29.068  1.00  0.00     0.060 A 
ATOM     48  C   UNL A   1      38.028  28.571  29.729  1.00  0.00     0.016 A 
ATOM     49  C   UNL A   1      38.619  30.886  29.306  1.00  0.00     0.016 A 
ATOM     50  C   UNL A   1      39.114  28.468  30.607  1.00  0.00     0.010 A 
ATOM     51  C   UNL A   1      39.662  30.793  30.222  1.00  0.00     0.010 A 
ATOM     52  C   UNL A   1      39.947  29.576  30.855  1.00  0.00    -0.014 A 
BRANCH  52  53
ATOM     53  C   UNL A   1      41.209  29.386  31.609  1.00  0.00     0.031 A 
ATOM     54  C   UNL A   1      42.402  30.148  31.118  1.00  0.00     0.074 A 
ATOM     55  C   UNL A   1      41.256  28.971  32.891  1.00  0.00     0.049 A 
ATOM     56  N   UNL A   1      42.654  31.378  31.463  1.00  0.00    -0.248 NA
ATOM     57  C   UNL A   1      43.224  29.660  30.010  1.00  0.00     0.031 C 
ATOM     58  C   UNL A   1      40.289  29.374  33.918  1.00  0.00     0.029 A 
ATOM     59  N   UNL A   1      42.272  28.367  33.592  1.00  0.00    -0.354 N 
ATOM     60  C   UNL A   1      43.640  31.845  30.611  1.00  0.00     0.074 A 
ATOM     61  C   UNL A   1      43.963  30.744  29.730  1.00  0.00     0.031 C 
ATOM     62  C   UNL A   1      40.842  29.160  35.130  1.00  0.00     0.029 A 
ATOM     63  C   UNL A   1      42.115  28.461  34.970  1.00  0.00     0.049 A 
ATOM     64  H   UNL A   1      43.033  27.913  33.162  1.00  0.00     0.167 HD
ATOM     65  C   UNL A   1      44.144  33.107  30.656  1.00  0.00     0.037 A 
ATOM     66  C   UNL A   1      43.133  28.459  35.874  1.00  0.00     0.037 A 
ATOM     67  C   UNL A   1      43.645  33.952  31.698  1.00  0.00     0.049 A 
ATOM     68  C   UNL A   1      43.732  29.821  35.623  1.00  0.00     0.074 A 
ATOM     69  C   UNL A   1      42.650  34.891  31.864  1.00  0.00     0.029 A 
ATOM     70  N   UNL A   1      44.225  33.842  32.942  1.00  0.00    -0.354 N 
ATOM     71  N   UNL A   1      43.281  30.959  36.081  1.00  0.00    -0.248 NA
ATOM     72  C   UNL A   1      44.688  29.945  34.518  1.00  0.00     0.031 C 
ATOM     73  C   UNL A   1      42.391  34.930  33.272  1.00  0.00     0.029 A 
ATOM     74  C   UNL A   1      43.212  33.970  33.860  1.00  0.00     0.049 A 
ATOM     75  H   UNL A   1      45.179  33.700  33.135  1.00  0.00     0.167 HD
ATOM     76  C   UNL A   1      43.684  31.919  35.149  1.00  0.00     0.074 A 
ATOM     77  C   UNL A   1      44.569  31.233  34.230  1.00  0.00     0.031 C 
ATOM     78  C   UNL A   1      43.134  33.164  35.057  1.00  0.00     0.037 A 
BRANCH  65  79
ATOM     79  C   UNL A   1      45.283  33.557  29.833  1.00  0.00     0.058 A 
ATOM     80  C   UNL A   1      45.015  34.179  28.605  1.00  0.00     0.135 A 
ATOM     81  C   UNL A   1      46.608  33.229  30.139  1.00  0.00     0.135 A 
ATOM     82  F   UNL A   1      43.751  34.492  28.275  1.00  0.00    -0.206 F 
ATOM     83  C   UNL A   1      46.022  34.435  27.687  1.00  0.00     0.059 A 
ATOM     84  C   UNL A   1      47.638  33.478  29.234  1.00  0.00     0.059 A 
ATOM     85  F   UNL A   1      46.905  32.624  31.300  1.00  0.00    -0.206 F 
ATOM     86  C   UNL A   1      47.329  34.063  28.003  1.00  0.00     0.060 A 
BRANCH  86  87
ATOM     87  S   UNL A   1      48.605  34.318  26.751  1.00  0.00     0.124 S 
ATOM     88  O   UNL A   1      48.976  35.710  26.984  1.00  0.00    -0.237 OA
ATOM     89  O   UNL A   1      49.601  33.322  27.131  1.00  0.00    -0.237 OA
ATOM     90  O   UNL A   1      47.907  34.057  25.497  1.00  0.00    -0.744 OA
ENDBRANCH  86  87
ENDBRANCH  65  79
BRANCH  66  91
ATOM     91  C   UNL A   1      43.942  27.193  35.915  1.00  0.00     0.058 A 
ATOM     92  C   UNL A   1      43.442  26.107  36.667  1.00  0.00     0.135 A 
ATOM     93  C   UNL A   1      45.163  26.973  35.259  1.00  0.00     0.135 A 
ATOM     94  F   UNL A   1      42.354  26.261  37.440  1.00  0.00    -0.206 F 
ATOM     95  C   UNL A   1      44.022  24.841  36.631  1.00  0.00     0.059 A 
ATOM     96  C   UNL A   1      45.750  25.708  35.186  1.00  0.00     0.059 A 
ATOM     97  F   UNL A   1      45.811  27.974  34.647  1.00  0.00    -0.206 F 
ATOM     98  C   UNL A   1      45.150  24.640  35.845  1.00  0.00     0.060 A 
BRANCH  98  99
ATOM     99  S   UNL A   1      45.770  22.957  35.649  1.00  0.00     0.124 S 
ATOM    100  O   UNL A   1      46.177  22.624  37.010  1.00  0.00    -0.237 OA
ATOM    101  O   UNL A   1      44.587  22.261  35.152  1.00  0.00    -0.237 OA
ATOM    102  O   UNL A   1      46.855  23.105  34.685  1.00  0.00    -0.744 OA
ENDBRANCH  98  99
ENDBRANCH  66  91
BRANCH  78 103
ATOM    103  C   UNL A   1      42.219  33.562  36.165  1.00  0.00     0.058 A 
ATOM    104  C   UNL A   1      42.694  34.370  37.208  1.00  0.00     0.135 A 
ATOM    105  C   UNL A   1      40.860  33.212  36.170  1.00  0.00     0.135 A 
ATOM    106  F   UNL A   1      43.985  34.741  37.245  1.00  0.00    -0.206 F 
ATOM    107  C   UNL A   1      41.843  34.851  38.197  1.00  0.00     0.059 A 
ATOM    108  C   UNL A   1      39.988  33.696  37.141  1.00  0.00     0.059 A 
ATOM    109  F   UNL A   1      40.346  32.425  35.210  1.00  0.00    -0.206 F 
ATOM    110  C   UNL A   1      40.488  34.524  38.145  1.00  0.00     0.060 A 
BRANCH 110 111
ATOM    111  S   UNL A   1      39.372  35.262  39.355  1.00  0.00     0.124 S 
ATOM    112  O   UNL A   1      39.386  36.666  38.965  1.00  0.00    -0.237 OA
ATOM    113  O   UNL A   1      38.125  34.543  39.104  1.00  0.00    -0.237 OA
ATOM    114  O   UNL A   1      40.012  34.960  40.632  1.00  0.00    -0.744 OA
ENDBRANCH 110 111
ENDBRANCH  78 103
ENDBRANCH  52  53
ENDBRANCH  45  47
ENDBRANCH  44  45
ENDBRANCH  43  44
ENDBRANCH  42  43
ENDBRANCH  41  42
ENDBRANCH  40  41
ENDBRANCH  39  40
ENDBRANCH  38  39
ENDBRANCH   1  38
TORSDOF 29
ENDMDL
MODEL 3
REMARK VINA RESULT:      -7.2      2.338      3.303
REMARK SMILES CCCC(=O)N(c1cc2sc(=O)oc2c2ccccc12)S(=O)(=O)c1ccc(C(=O)OCCOCCOCCOCCOC(=O)c2ccc(-c3c4nc(c(-c5c(F)cc(S(=O)(=O)[O-])cc5F)c5ccc([nH]5)c(-c5c(F)cc(S(=O)(=O)[O-])cc5F)c5nc(c(-c6c(F)cc(S(=O)(=O)[O-])cc6F)c6ccc3[nH]6)C=C5)C=C4)cc2)cc1
REMARK SMILES IDX 35 1 34 2 33 3 32 4 31 5 30 6 28 7 29 8 27 9 24 10 25 11
REMARK SMILES IDX 112 12 26 13 111 14 21 15 22 16 23 17 6 18 4 19 5 20 3 21
REMARK SMILES IDX 2 22 1 23 7 24 8 25 20 26 9 27 15 28 19 29 10 30 14 31 16 32
REMARK SMILES IDX 18 33 11 34 13 35 17 36 12 37 36 38 37 39 38 40 39 41 40 42
REMARK SMILES IDX 41 43 42 44 43 45 44 46 45 47 46 48 110 49 47 50 109 51
REMARK SMILES IDX 48 52 49 53 50 54 103 55 51 56 108 57 102 58 104 59 52 60
REMARK SMILES IDX 107 61 101 62 100 63 53 65 87 66 66 67 86 68 67 69 70 70
REMARK SMILES IDX 85 71 105 72 68 73 69 74 84 76 106 77 71 78 54 79 55 80
REMARK SMILES IDX 64 81 56 82 57 83 63 84 65 85 58 86 59 87 60 88 61 89 62 90
REMARK SMILES IDX 88 91 89 92 98 93 90 94 91 95 97 96 99 97 92 98 93 99 94 100
REMARK SMILES IDX 95 101 96 102 72 103 73 104 82 105 74 106 75 107 81 108
REMARK SMILES IDX 83 109 76 110 77 111 78 112 79 113 80 114
REMARK H PARENT 104 64 70 75
REMARK Flexibility Score: inf
ROOT
ATOM      1  C   UNL A   1      33.568  26.117  25.389  1.00  0.00     0.188 C 
ENDROOT
BRANCH   1   2
ATOM      2  C   UNL A   1      33.392  24.718  24.788  1.00  0.00     0.188 C 
BRANCH   2   3
ATOM      3  O   UNL A   1      34.613  24.183  24.277  1.00  0.00    -0.376 OA
BRANCH   3   4
ATOM      4  C   UNL A   1      35.427  23.456  25.196  1.00  0.00     0.202 C 
BRANCH   4   5
ATOM      5  C   UNL A   1      36.890  23.925  25.267  1.00  0.00     0.261 C 
BRANCH   5   6
ATOM      6  O   UNL A   1      37.485  23.893  26.577  1.00  0.00    -0.460 OA
BRANCH   6   7
ATOM      7  C   UNL A   1      38.763  23.462  26.678  1.00  0.00     0.338 C 
ATOM      8  O   UNL A   1      39.159  22.318  26.524  1.00  0.00    -0.246 OA
BRANCH   7   9
ATOM      9  C   UNL A   1      39.674  24.640  26.716  1.00  0.00     0.060 A 
ATOM     10  C   UNL A   1      41.341  26.891  26.629  1.00  0.00     0.088 A 
ATOM     11  C   UNL A   1      41.233  26.070  25.503  1.00  0.00     0.023 A 
ATOM     12  C   UNL A   1      40.611  26.600  27.792  1.00  0.00     0.023 A 
ATOM     13  C   UNL A   1      40.394  24.951  25.550  1.00  0.00     0.017 A 
ATOM     14  C   UNL A   1      39.778  25.476  27.835  1.00  0.00     0.017 A 
BRANCH  10  15
ATOM     15  S   UNL A   1      42.546  28.210  26.664  1.00  0.00     0.270 S 
ATOM     16  O   UNL A   1      42.155  29.059  27.769  1.00  0.00    -0.201 OA
ATOM     17  O   UNL A   1      42.642  28.729  25.313  1.00  0.00    -0.201 OA
BRANCH  15  18
ATOM     18  N   UNL A   1      44.062  27.522  27.015  1.00  0.00    -0.202 N 
BRANCH  18  19
ATOM     19  C   UNL A   1      45.193  28.391  26.796  1.00  0.00     0.241 C 
ATOM     20  O   UNL A   1      45.332  28.994  25.733  1.00  0.00    -0.273 OA
BRANCH  19  21
ATOM     21  C   UNL A   1      46.253  28.567  27.878  1.00  0.00     0.101 C 
BRANCH  21  22
ATOM     22  C   UNL A   1      45.709  29.195  29.159  1.00  0.00     0.006 C 
ATOM     23  C   UNL A   1      46.608  28.935  30.361  1.00  0.00     0.004 C 
ENDBRANCH  21  22
ENDBRANCH  19  21
ENDBRANCH  18  19
BRANCH  18  24
ATOM     24  C   UNL A   1      44.275  26.107  26.861  1.00  0.00     0.070 A 
ATOM     25  C   UNL A   1      44.687  25.564  25.636  1.00  0.00     0.051 A 
ATOM     26  C   UNL A   1      44.233  25.302  28.049  1.00  0.00     0.010 A 
ATOM     27  C   UNL A   1      45.050  24.228  25.593  1.00  0.00     0.080 A 
ATOM     28  C   UNL A   1      44.641  23.947  27.985  1.00  0.00     0.028 A 
ATOM     29  C   UNL A   1      43.850  25.807  29.316  1.00  0.00     0.011 A 
ATOM     30  S   UNL A   1      45.706  23.338  24.231  1.00  0.00    -0.052 S 
ATOM     31  C   UNL A   1      45.033  23.440  26.740  1.00  0.00     0.157 A 
ATOM     32  C   UNL A   1      44.707  23.176  29.164  1.00  0.00     0.013 A 
ATOM     33  C   UNL A   1      43.944  25.039  30.478  1.00  0.00     0.001 A 
ATOM     34  C   UNL A   1      45.985  21.973  25.314  1.00  0.00     0.396 A 
ATOM     35  O   UNL A   1      45.518  22.133  26.615  1.00  0.00    -0.413 OA
ATOM     36  C   UNL A   1      44.382  23.725  30.403  1.00  0.00     0.001 A 
ATOM     37  O   UNL A   1      46.588  20.968  24.962  1.00  0.00    -0.233 OA
ENDBRANCH  18  24
ENDBRANCH  15  18
ENDBRANCH  10  15
ENDBRANCH   7   9
ENDBRANCH   6   7
ENDBRANCH   5   6
ENDBRANCH   4   5
ENDBRANCH   3   4
ENDBRANCH   2   3
ENDBRANCH   1   2
BRANCH   1  38
ATOM     38  O   UNL A   1      32.472  26.984  25.152  1.00  0.00    -0.377 OA
BRANCH  38  39
ATOM     39  C   UNL A   1      32.791  28.091  24.316  1.00  0.00     0.188 C 
BRANCH  39  40
ATOM     40  C   UNL A   1      33.119  29.385  25.091  1.00  0.00     0.188 C 
BRANCH  40  41
ATOM     41  O   UNL A   1      33.493  29.309  26.465  1.00  0.00    -0.376 OA
BRANCH  41  42
ATOM     42  C   UNL A   1      33.327  30.454  27.295  1.00  0.00     0.202 C 
BRANCH  42  43
ATOM     43  C   UNL A   1      34.575  31.025  27.974  1.00  0.00     0.261 C 
BRANCH  43  44
ATOM     44  O   UNL A   1      35.444  30.006  28.492  1.00  0.00    -0.460 OA
BRANCH  44  45
ATOM     45  C   UNL A   1      36.617  29.836  27.833  1.00  0.00     0.338 C 
ATOM     46  O   UNL A   1      36.810  29.898  26.631  1.00  0.00    -0.246 OA
BRANCH  45  47
ATOM     47  C   UNL A   1      37.702  29.779  28.830  1.00  0.00     0.060 A 
ATOM     48  C   UNL A   1      38.287  28.569  29.209  1.00  0.00     0.016 A 
ATOM     49  C   UNL A   1      38.075  30.973  29.452  1.00  0.00     0.016 A 
ATOM     50  C   UNL A   1      39.280  28.570  30.196  1.00  0.00     0.010 A 
ATOM     51  C   UNL A   1      39.022  30.960  30.470  1.00  0.00     0.010 A 
ATOM     52  C   UNL A   1      39.664  29.767  30.830  1.00  0.00    -0.014 A 
BRANCH  52  53
ATOM     53  C   UNL A   1      40.860  29.779  31.704  1.00  0.00     0.031 A 
ATOM     54  C   UNL A   1      41.795  30.939  31.542  1.00  0.00     0.074 A 
ATOM     55  C   UNL A   1      40.933  29.118  32.876  1.00  0.00     0.049 A 
ATOM     56  N   UNL A   1      41.630  32.080  32.148  1.00  0.00    -0.248 NA
ATOM     57  C   UNL A   1      42.811  30.967  30.489  1.00  0.00     0.031 C 
ATOM     58  C   UNL A   1      39.813  28.987  33.814  1.00  0.00     0.029 A 
ATOM     59  N   UNL A   1      42.028  28.686  33.586  1.00  0.00    -0.354 N 
ATOM     60  C   UNL A   1      42.487  32.987  31.549  1.00  0.00     0.074 A 
ATOM     61  C   UNL A   1      43.201  32.250  30.528  1.00  0.00     0.031 C 
ATOM     62  C   UNL A   1      40.309  28.673  35.030  1.00  0.00     0.029 A 
ATOM     63  C   UNL A   1      41.743  28.419  34.920  1.00  0.00     0.049 A 
ATOM     64  H   UNL A   1      42.923  28.575  33.189  1.00  0.00     0.167 HD
ATOM     65  C   UNL A   1      42.573  34.296  31.906  1.00  0.00     0.037 A 
ATOM     66  C   UNL A   1      42.640  28.503  35.942  1.00  0.00     0.037 A 
ATOM     67  C   UNL A   1      41.759  34.707  33.009  1.00  0.00     0.049 A 
ATOM     68  C   UNL A   1      42.808  29.999  36.043  1.00  0.00     0.074 A 
ATOM     69  C   UNL A   1      40.514  35.262  33.209  1.00  0.00     0.029 A 
ATOM     70  N   UNL A   1      42.246  34.490  34.278  1.00  0.00    -0.354 N 
ATOM     71  N   UNL A   1      41.995  30.829  36.642  1.00  0.00    -0.248 NA
ATOM     72  C   UNL A   1      43.762  30.635  35.129  1.00  0.00     0.031 C 
ATOM     73  C   UNL A   1      40.147  34.909  34.546  1.00  0.00     0.029 A 
ATOM     74  C   UNL A   1      41.175  34.115  35.050  1.00  0.00     0.049 A 
ATOM     75  H   UNL A   1      43.180  34.585  34.574  1.00  0.00     0.167 HD
ATOM     76  C   UNL A   1      42.153  32.047  35.977  1.00  0.00     0.074 A 
ATOM     77  C   UNL A   1      43.275  31.866  35.079  1.00  0.00     0.031 C 
ATOM     78  C   UNL A   1      41.256  33.072  36.048  1.00  0.00     0.037 A 
BRANCH  65  79
ATOM     79  C   UNL A   1      43.579  35.224  31.353  1.00  0.00     0.058 A 
ATOM     80  C   UNL A   1      44.760  35.437  32.078  1.00  0.00     0.135 A 
ATOM     81  C   UNL A   1      43.326  36.030  30.239  1.00  0.00     0.135 A 
ATOM     82  F   UNL A   1      45.024  34.690  33.163  1.00  0.00    -0.206 F 
ATOM     83  C   UNL A   1      45.649  36.445  31.735  1.00  0.00     0.059 A 
ATOM     84  C   UNL A   1      44.205  37.047  29.873  1.00  0.00     0.059 A 
ATOM     85  F   UNL A   1      42.202  35.864  29.524  1.00  0.00    -0.206 F 
ATOM     86  C   UNL A   1      45.352  37.258  30.641  1.00  0.00     0.060 A 
BRANCH  86  87
ATOM     87  S   UNL A   1      46.477  38.623  30.276  1.00  0.00     0.124 S 
ATOM     88  O   UNL A   1      45.673  39.437  29.371  1.00  0.00    -0.237 OA
ATOM     89  O   UNL A   1      46.706  39.184  31.603  1.00  0.00    -0.237 OA
ATOM     90  O   UNL A   1      47.628  37.962  29.670  1.00  0.00    -0.744 OA
ENDBRANCH  86  87
ENDBRANCH  65  79
BRANCH  66  91
ATOM     91  C   UNL A   1      43.793  27.544  35.855  1.00  0.00     0.058 A 
ATOM     92  C   UNL A   1      44.009  26.661  36.936  1.00  0.00     0.135 A 
ATOM     93  C   UNL A   1      44.689  27.426  34.780  1.00  0.00     0.135 A 
ATOM     94  F   UNL A   1      43.294  26.785  38.066  1.00  0.00    -0.206 F 
ATOM     95  C   UNL A   1      44.936  25.622  36.882  1.00  0.00     0.059 A 
ATOM     96  C   UNL A   1      45.608  26.379  34.690  1.00  0.00     0.059 A 
ATOM     97  F   UNL A   1      44.681  28.309  33.772  1.00  0.00    -0.206 F 
ATOM     98  C   UNL A   1      45.698  25.460  35.731  1.00  0.00     0.060 A 
BRANCH  98  99
ATOM     99  S   UNL A   1      46.746  23.997  35.595  1.00  0.00     0.124 S 
ATOM    100  O   UNL A   1      48.072  24.551  35.849  1.00  0.00    -0.237 OA
ATOM    101  O   UNL A   1      46.202  23.145  36.647  1.00  0.00    -0.237 OA
ATOM    102  O   UNL A   1      46.505  23.533  34.233  1.00  0.00    -0.744 OA
ENDBRANCH  98  99
ENDBRANCH  66  91
BRANCH  78 103
ATOM    103  C   UNL A   1      40.180  32.934  37.071  1.00  0.00     0.058 A 
ATOM    104  C   UNL A   1      38.993  32.260  36.751  1.00  0.00     0.135 A 
ATOM    105  C   UNL A   1      40.340  33.398  38.386  1.00  0.00     0.135 A 
ATOM    106  F   UNL A   1      38.794  31.788  35.509  1.00  0.00    -0.206 F 
ATOM    107  C   UNL A   1      38.017  32.017  37.711  1.00  0.00     0.059 A 
ATOM    108  C   UNL A   1      39.383  33.150  39.366  1.00  0.00     0.059 A 
ATOM    109  F   UNL A   1      41.446  34.067  38.753  1.00  0.00    -0.206 F 
ATOM    110  C   UNL A   1      38.229  32.449  39.020  1.00  0.00     0.060 A 
BRANCH 110 111
ATOM    111  S   UNL A   1      37.019  32.011  40.284  1.00  0.00     0.124 S 
ATOM    112  O   UNL A   1      37.453  30.673  40.669  1.00  0.00    -0.237 OA
ATOM    113  O   UNL A   1      37.220  33.058  41.282  1.00  0.00    -0.237 OA
ATOM    114  O   UNL A   1      35.747  32.075  39.570  1.00  0.00    -0.744 OA
ENDBRANCH 110 111
ENDBRANCH  78 103
ENDBRANCH  52  53
ENDBRANCH  45  47
ENDBRANCH  44  45
ENDBRANCH  43  44
ENDBRANCH  42  43
ENDBRANCH  41  42
ENDBRANCH  40  41
ENDBRANCH  39  40
ENDBRANCH  38  39
ENDBRANCH   1  38
TORSDOF 29
ENDMDL
