MODEL 1
REMARK VINA RESULT:     -10.9      0.000      0.000
REMARK SMILES Cc1ccc(-c2cc(Cl)cc3c2O[C@@H](C(F)(F)F)C(C(=O)OCCOCCOCCOCCOC(=O)c2ccc(-c4c5nc(c(-c6c(F)cc(S(=O)(=O)[O-])cc6F)c6ccc([nH]6)c(-c6c(F)cc(S(=O)(=O)[O-])cc6F)c6nc(c(-c7c(F)cc(S(=O)(=O)[O-])cc7F)c7ccc4[nH]7)C=C6)C=C5)cc2)=C3)cc1
REMARK SMILES IDX 29 1 28 2 27 3 26 4 25 5 24 6 23 7 22 8 20 9 21 10 19 11
REMARK SMILES IDX 6 12 7 13 12 14 8 15 11 16 13 17 9 18 10 19 103 20 14 21
REMARK SMILES IDX 5 22 1 23 2 24 3 25 105 26 4 27 104 28 15 29 16 30 17 31
REMARK SMILES IDX 18 32 30 33 31 34 32 35 33 36 34 37 35 38 36 39 37 40 38 41
REMARK SMILES IDX 102 42 39 43 101 44 40 45 41 46 42 47 95 48 43 49 100 50
REMARK SMILES IDX 94 51 96 52 44 53 99 54 93 55 92 56 45 58 79 59 58 60 78 61
REMARK SMILES IDX 59 62 62 63 77 64 97 65 60 66 61 67 76 69 98 70 63 71 46 72
REMARK SMILES IDX 47 73 56 74 48 75 49 76 55 77 57 78 50 79 51 80 52 81 53 82
REMARK SMILES IDX 54 83 80 84 81 85 90 86 82 87 83 88 89 89 91 90 84 91 85 92
REMARK SMILES IDX 86 93 87 94 88 95 64 96 65 97 74 98 66 99 67 100 73 101
REMARK SMILES IDX 75 102 68 103 69 104 70 105 71 106 72 107
REMARK H PARENT 96 57 62 68
REMARK Flexibility Score: inf
ROOT
ATOM      1  C   UNL A   1      33.517  31.128  27.021  1.00  0.00     0.188 C 
ENDROOT
BRANCH   1   2
ATOM      2  O   UNL A   1      32.487  30.244  27.379  1.00  0.00    -0.377 OA
BRANCH   2   3
ATOM      3  C   UNL A   1      31.840  29.548  26.333  1.00  0.00     0.188 C 
BRANCH   3   4
ATOM      4  C   UNL A   1      31.796  27.997  26.399  1.00  0.00     0.188 C 
BRANCH   4   5
ATOM      5  O   UNL A   1      30.650  27.539  25.719  1.00  0.00    -0.376 OA
BRANCH   5   6
ATOM      6  C   UNL A   1      30.638  26.306  25.061  1.00  0.00     0.202 C 
BRANCH   6   7
ATOM      7  C   UNL A   1      30.805  25.235  26.071  1.00  0.00     0.261 C 
BRANCH   7   8
ATOM      8  O   UNL A   1      32.152  24.848  26.311  1.00  0.00    -0.460 OA
BRANCH   8   9
ATOM      9  C   UNL A   1      32.644  23.990  25.431  1.00  0.00     0.338 C 
ATOM     10  O   UNL A   1      32.252  22.820  25.175  1.00  0.00    -0.246 OA
BRANCH   9  11
ATOM     11  C   UNL A   1      33.699  24.704  24.689  1.00  0.00     0.087 C 
ATOM     12  C   UNL A   1      35.602  21.026  24.547  1.00  0.00     0.026 A 
ATOM     13  C   UNL A   1      36.883  20.951  25.123  1.00  0.00     0.033 A 
ATOM     14  C   UNL A   1      35.082  22.364  24.353  1.00  0.00     0.135 A 
ATOM     15  C   UNL A   1      37.513  22.069  25.658  1.00  0.00     0.042 A 
ATOM     16  C   UNL A   1      35.641  23.442  25.088  1.00  0.00     0.019 A 
ATOM     17  O   UNL A   1      34.157  22.732  23.358  1.00  0.00    -0.475 OA
ATOM     18  Cl  UNL A   1      39.068  21.902  26.364  1.00  0.00    -0.084 Cl
ATOM     19  C   UNL A   1      36.869  23.294  25.708  1.00  0.00     0.032 A 
ATOM     20  C   UNL A   1      34.923  24.741  25.249  1.00  0.00     0.027 C 
ATOM     21  C   UNL A   1      33.777  24.167  23.274  1.00  0.00     0.316 C 
BRANCH  12  22
ATOM     22  C   UNL A   1      34.902  19.679  24.648  1.00  0.00    -0.015 A 
ATOM     23  C   UNL A   1      32.706  15.909  25.354  1.00  0.00     0.044 C 
ATOM     24  C   UNL A   1      33.480  17.184  25.141  1.00  0.00    -0.051 A 
ATOM     25  C   UNL A   1      34.805  17.188  24.718  1.00  0.00     0.004 A 
ATOM     26  C   UNL A   1      32.893  18.425  25.359  1.00  0.00     0.004 A 
ATOM     27  C   UNL A   1      35.516  18.409  24.527  1.00  0.00     0.009 A 
ATOM     28  C   UNL A   1      33.565  19.639  25.097  1.00  0.00     0.009 A 
ENDBRANCH  12  22
BRANCH  21  29
ATOM     29  C   UNL A   1      32.669  24.747  22.314  1.00  0.00     0.430 C 
ATOM     30  F   UNL A   1      32.782  26.116  22.303  1.00  0.00    -0.167 F 
ATOM     31  F   UNL A   1      32.894  24.368  21.029  1.00  0.00    -0.167 F 
ATOM     32  F   UNL A   1      31.376  24.516  22.541  1.00  0.00    -0.167 F 
ENDBRANCH  21  29
ENDBRANCH   9  11
ENDBRANCH   8   9
ENDBRANCH   7   8
ENDBRANCH   6   7
ENDBRANCH   5   6
ENDBRANCH   4   5
ENDBRANCH   3   4
ENDBRANCH   2   3
ENDBRANCH   1   2
BRANCH   1  33
ATOM     33  C   UNL A   1      34.149  31.846  28.212  1.00  0.00     0.188 C 
BRANCH  33  34
ATOM     34  O   UNL A   1      33.470  32.973  28.734  1.00  0.00    -0.376 OA
BRANCH  34  35
ATOM     35  C   UNL A   1      34.264  34.051  29.233  1.00  0.00     0.202 C 
BRANCH  35  36
ATOM     36  C   UNL A   1      34.740  34.043  30.719  1.00  0.00     0.261 C 
BRANCH  36  37
ATOM     37  O   UNL A   1      35.725  33.000  30.992  1.00  0.00    -0.460 OA
BRANCH  37  38
ATOM     38  C   UNL A   1      36.910  32.989  30.316  1.00  0.00     0.338 C 
ATOM     39  O   UNL A   1      37.698  33.943  30.304  1.00  0.00    -0.246 OA
BRANCH  38  40
ATOM     40  C   UNL A   1      37.386  31.621  29.934  1.00  0.00     0.060 A 
ATOM     41  C   UNL A   1      37.300  30.552  30.821  1.00  0.00     0.016 A 
ATOM     42  C   UNL A   1      37.944  31.367  28.677  1.00  0.00     0.016 A 
ATOM     43  C   UNL A   1      37.991  29.355  30.539  1.00  0.00     0.010 A 
ATOM     44  C   UNL A   1      38.799  30.266  28.495  1.00  0.00     0.010 A 
ATOM     45  C   UNL A   1      38.984  29.345  29.530  1.00  0.00    -0.014 A 
BRANCH  45  46
ATOM     46  C   UNL A   1      40.446  28.987  29.909  1.00  0.00     0.031 A 
ATOM     47  C   UNL A   1      41.106  27.603  29.502  1.00  0.00     0.074 A 
ATOM     48  C   UNL A   1      40.981  30.214  30.222  1.00  0.00     0.049 A 
ATOM     49  N   UNL A   1      42.265  27.068  29.825  1.00  0.00    -0.248 NA
ATOM     50  C   UNL A   1      40.305  26.606  28.782  1.00  0.00     0.031 C 
ATOM     51  C   UNL A   1      42.150  31.043  29.966  1.00  0.00     0.029 A 
ATOM     52  N   UNL A   1      40.673  30.721  31.490  1.00  0.00    -0.354 N 
ATOM     53  C   UNL A   1      42.427  25.797  29.202  1.00  0.00     0.074 A 
ATOM     54  C   UNL A   1      41.140  25.575  28.601  1.00  0.00     0.031 C 
ATOM     55  C   UNL A   1      42.689  31.507  31.090  1.00  0.00     0.029 A 
ATOM     56  C   UNL A   1      41.874  30.957  32.127  1.00  0.00     0.049 A 
ATOM     57  H   UNL A   1      39.773  30.880  31.857  1.00  0.00     0.167 HD
ATOM     58  C   UNL A   1      43.571  24.999  29.264  1.00  0.00     0.037 A 
ATOM     59  C   UNL A   1      42.117  31.332  33.377  1.00  0.00     0.037 A 
ATOM     60  C   UNL A   1      44.459  25.401  30.374  1.00  0.00     0.049 A 
ATOM     61  C   UNL A   1      43.104  30.231  33.842  1.00  0.00     0.074 A 
ATOM     62  C   UNL A   1      45.829  25.546  30.532  1.00  0.00     0.029 A 
ATOM     63  N   UNL A   1      43.907  25.838  31.593  1.00  0.00    -0.354 N 
ATOM     64  N   UNL A   1      43.528  29.170  33.138  1.00  0.00    -0.248 NA
ATOM     65  C   UNL A   1      43.558  30.158  35.224  1.00  0.00     0.031 C 
ATOM     66  C   UNL A   1      46.068  26.241  31.742  1.00  0.00     0.029 A 
ATOM     67  C   UNL A   1      44.853  26.471  32.379  1.00  0.00     0.049 A 
ATOM     68  H   UNL A   1      42.966  25.711  31.852  1.00  0.00     0.167 HD
ATOM     69  C   UNL A   1      44.148  28.240  33.997  1.00  0.00     0.074 A 
ATOM     70  C   UNL A   1      44.163  28.958  35.268  1.00  0.00     0.031 C 
ATOM     71  C   UNL A   1      44.589  26.942  33.736  1.00  0.00     0.037 A 
BRANCH  58  72
ATOM     72  C   UNL A   1      44.046  23.875  28.201  1.00  0.00     0.058 A 
ATOM     73  C   UNL A   1      45.240  23.991  27.420  1.00  0.00     0.135 A 
ATOM     74  C   UNL A   1      43.319  22.728  27.808  1.00  0.00     0.135 A 
ATOM     75  F   UNL A   1      46.255  24.775  27.790  1.00  0.00    -0.206 F 
ATOM     76  C   UNL A   1      45.540  23.238  26.260  1.00  0.00     0.059 A 
ATOM     77  C   UNL A   1      43.611  21.930  26.666  1.00  0.00     0.059 A 
ATOM     78  F   UNL A   1      42.274  22.291  28.513  1.00  0.00    -0.206 F 
ATOM     79  C   UNL A   1      44.698  22.223  25.863  1.00  0.00     0.060 A 
BRANCH  79  80
ATOM     80  S   UNL A   1      45.072  21.269  24.367  1.00  0.00     0.124 S 
ATOM     81  O   UNL A   1      44.626  22.172  23.300  1.00  0.00    -0.237 OA
ATOM     82  O   UNL A   1      46.525  21.096  24.464  1.00  0.00    -0.237 OA
ATOM     83  O   UNL A   1      44.292  20.062  24.521  1.00  0.00    -0.744 OA
ENDBRANCH  79  80
ENDBRANCH  58  72
BRANCH  59  84
ATOM     84  C   UNL A   1      41.595  32.762  33.564  1.00  0.00     0.058 A 
ATOM     85  C   UNL A   1      40.321  32.987  34.149  1.00  0.00     0.135 A 
ATOM     86  C   UNL A   1      42.572  33.733  33.946  1.00  0.00     0.135 A 
ATOM     87  F   UNL A   1      39.307  32.159  33.858  1.00  0.00    -0.206 F 
ATOM     88  C   UNL A   1      40.104  33.924  35.194  1.00  0.00     0.059 A 
ATOM     89  C   UNL A   1      42.384  34.653  35.001  1.00  0.00     0.059 A 
ATOM     90  F   UNL A   1      43.831  33.610  33.492  1.00  0.00    -0.206 F 
ATOM     91  C   UNL A   1      41.161  34.704  35.661  1.00  0.00     0.060 A 
BRANCH  91  92
ATOM     92  S   UNL A   1      41.030  35.582  37.259  1.00  0.00     0.124 S 
ATOM     93  O   UNL A   1      42.421  35.938  37.527  1.00  0.00    -0.237 OA
ATOM     94  O   UNL A   1      40.135  36.688  36.962  1.00  0.00    -0.237 OA
ATOM     95  O   UNL A   1      40.454  34.558  38.131  1.00  0.00    -0.744 OA
ENDBRANCH  91  92
ENDBRANCH  59  84
BRANCH  71  96
ATOM     96  C   UNL A   1      44.896  25.827  34.776  1.00  0.00     0.058 A 
ATOM     97  C   UNL A   1      44.004  24.789  35.067  1.00  0.00     0.135 A 
ATOM     98  C   UNL A   1      46.224  25.604  35.271  1.00  0.00     0.135 A 
ATOM     99  F   UNL A   1      42.734  24.824  34.642  1.00  0.00    -0.206 F 
ATOM    100  C   UNL A   1      44.394  23.634  35.763  1.00  0.00     0.059 A 
ATOM    101  C   UNL A   1      46.653  24.429  35.869  1.00  0.00     0.059 A 
ATOM    102  F   UNL A   1      47.197  26.518  35.215  1.00  0.00    -0.206 F 
ATOM    103  C   UNL A   1      45.727  23.449  36.128  1.00  0.00     0.060 A 
BRANCH 103 104
ATOM    104  S   UNL A   1      46.273  21.920  36.898  1.00  0.00     0.124 S 
ATOM    105  O   UNL A   1      47.714  21.982  36.668  1.00  0.00    -0.237 OA
ATOM    106  O   UNL A   1      45.840  22.079  38.273  1.00  0.00    -0.237 OA
ATOM    107  O   UNL A   1      45.561  20.888  36.137  1.00  0.00    -0.744 OA
ENDBRANCH 103 104
ENDBRANCH  71  96
ENDBRANCH  45  46
ENDBRANCH  38  40
ENDBRANCH  37  38
ENDBRANCH  36  37
ENDBRANCH  35  36
ENDBRANCH  34  35
ENDBRANCH  33  34
ENDBRANCH   1  33
TORSDOF 25
ENDMDL
MODEL 2
REMARK VINA RESULT:     -10.2      3.781      9.275
REMARK SMILES Cc1ccc(-c2cc(Cl)cc3c2O[C@@H](C(F)(F)F)C(C(=O)OCCOCCOCCOCCOC(=O)c2ccc(-c4c5nc(c(-c6c(F)cc(S(=O)(=O)[O-])cc6F)c6ccc([nH]6)c(-c6c(F)cc(S(=O)(=O)[O-])cc6F)c6nc(c(-c7c(F)cc(S(=O)(=O)[O-])cc7F)c7ccc4[nH]7)C=C6)C=C5)cc2)=C3)cc1
REMARK SMILES IDX 29 1 28 2 27 3 26 4 25 5 24 6 23 7 22 8 20 9 21 10 19 11
REMARK SMILES IDX 6 12 7 13 12 14 8 15 11 16 13 17 9 18 10 19 103 20 14 21
REMARK SMILES IDX 5 22 1 23 2 24 3 25 105 26 4 27 104 28 15 29 16 30 17 31
REMARK SMILES IDX 18 32 30 33 31 34 32 35 33 36 34 37 35 38 36 39 37 40 38 41
REMARK SMILES IDX 102 42 39 43 101 44 40 45 41 46 42 47 95 48 43 49 100 50
REMARK SMILES IDX 94 51 96 52 44 53 99 54 93 55 92 56 45 58 79 59 58 60 78 61
REMARK SMILES IDX 59 62 62 63 77 64 97 65 60 66 61 67 76 69 98 70 63 71 46 72
REMARK SMILES IDX 47 73 56 74 48 75 49 76 55 77 57 78 50 79 51 80 52 81 53 82
REMARK SMILES IDX 54 83 80 84 81 85 90 86 82 87 83 88 89 89 91 90 84 91 85 92
REMARK SMILES IDX 86 93 87 94 88 95 64 96 65 97 74 98 66 99 67 100 73 101
REMARK SMILES IDX 75 102 68 103 69 104 70 105 71 106 72 107
REMARK H PARENT 96 57 62 68
REMARK Flexibility Score: inf
ROOT
ATOM      1  C   UNL A   1      32.427  30.571  26.323  1.00  0.00     0.188 C 
ENDROOT
BRANCH   1   2
ATOM      2  O   UNL A   1      31.375  30.332  25.425  1.00  0.00    -0.377 OA
BRANCH   2   3
ATOM      3  C   UNL A   1      31.558  29.300  24.477  1.00  0.00     0.188 C 
BRANCH   3   4
ATOM      4  C   UNL A   1      30.509  28.155  24.425  1.00  0.00     0.188 C 
BRANCH   4   5
ATOM      5  O   UNL A   1      31.125  26.947  24.810  1.00  0.00    -0.376 OA
BRANCH   5   6
ATOM      6  C   UNL A   1      30.371  25.816  25.134  1.00  0.00     0.202 C 
BRANCH   6   7
ATOM      7  C   UNL A   1      30.982  25.171  26.320  1.00  0.00     0.261 C 
BRANCH   7   8
ATOM      8  O   UNL A   1      32.396  25.037  26.262  1.00  0.00    -0.460 OA
BRANCH   8   9
ATOM      9  C   UNL A   1      32.827  24.090  25.442  1.00  0.00     0.338 C 
ATOM     10  O   UNL A   1      32.382  22.920  25.295  1.00  0.00    -0.246 OA
BRANCH   9  11
ATOM     11  C   UNL A   1      33.885  24.697  24.613  1.00  0.00     0.087 C 
ATOM     12  C   UNL A   1      35.590  20.921  24.645  1.00  0.00     0.026 A 
ATOM     13  C   UNL A   1      36.889  20.814  25.175  1.00  0.00     0.033 A 
ATOM     14  C   UNL A   1      35.132  22.269  24.382  1.00  0.00     0.135 A 
ATOM     15  C   UNL A   1      37.598  21.930  25.609  1.00  0.00     0.042 A 
ATOM     16  C   UNL A   1      35.775  23.361  25.021  1.00  0.00     0.019 A 
ATOM     17  O   UNL A   1      34.186  22.621  23.402  1.00  0.00    -0.475 OA
ATOM     18  Cl  UNL A   1      39.170  21.726  26.264  1.00  0.00    -0.084 Cl
ATOM     19  C   UNL A   1      37.019  23.189  25.602  1.00  0.00     0.032 A 
ATOM     20  C   UNL A   1      35.132  24.705  25.122  1.00  0.00     0.027 C 
ATOM     21  C   UNL A   1      33.876  24.066  23.236  1.00  0.00     0.316 C 
BRANCH  12  22
ATOM     22  C   UNL A   1      34.827  19.622  24.863  1.00  0.00    -0.015 A 
ATOM     23  C   UNL A   1      32.776  15.714  25.082  1.00  0.00     0.044 C 
ATOM     24  C   UNL A   1      33.450  17.058  24.980  1.00  0.00    -0.051 A 
ATOM     25  C   UNL A   1      32.786  18.247  25.261  1.00  0.00     0.004 A 
ATOM     26  C   UNL A   1      34.782  17.165  24.597  1.00  0.00     0.004 A 
ATOM     27  C   UNL A   1      33.446  19.506  25.153  1.00  0.00     0.009 A 
ATOM     28  C   UNL A   1      35.465  18.400  24.564  1.00  0.00     0.009 A 
ENDBRANCH  12  22
BRANCH  21  29
ATOM     29  C   UNL A   1      32.760  24.641  22.283  1.00  0.00     0.430 C 
ATOM     30  F   UNL A   1      31.565  24.047  22.607  1.00  0.00    -0.167 F 
ATOM     31  F   UNL A   1      32.563  25.967  22.511  1.00  0.00    -0.167 F 
ATOM     32  F   UNL A   1      32.854  24.510  20.960  1.00  0.00    -0.167 F 
ENDBRANCH  21  29
ENDBRANCH   9  11
ENDBRANCH   8   9
ENDBRANCH   7   8
ENDBRANCH   6   7
ENDBRANCH   5   6
ENDBRANCH   4   5
ENDBRANCH   3   4
ENDBRANCH   2   3
ENDBRANCH   1   2
BRANCH   1  33
ATOM     33  C   UNL A   1      32.253  31.847  27.144  1.00  0.00     0.188 C 
BRANCH  33  34
ATOM     34  O   UNL A   1      33.382  32.339  27.841  1.00  0.00    -0.376 OA
BRANCH  34  35
ATOM     35  C   UNL A   1      33.619  33.748  27.808  1.00  0.00     0.202 C 
BRANCH  35  36
ATOM     36  C   UNL A   1      33.064  34.656  28.950  1.00  0.00     0.261 C 
BRANCH  36  37
ATOM     37  O   UNL A   1      34.102  35.097  29.877  1.00  0.00    -0.460 OA
BRANCH  37  38
ATOM     38  C   UNL A   1      34.387  34.352  30.983  1.00  0.00     0.338 C 
ATOM     39  O   UNL A   1      33.701  34.369  32.012  1.00  0.00    -0.246 OA
BRANCH  38  40
ATOM     40  C   UNL A   1      35.331  33.217  30.733  1.00  0.00     0.060 A 
ATOM     41  C   UNL A   1      35.091  31.948  31.254  1.00  0.00     0.016 A 
ATOM     42  C   UNL A   1      36.494  33.388  29.976  1.00  0.00     0.016 A 
ATOM     43  C   UNL A   1      36.114  30.979  31.229  1.00  0.00     0.010 A 
ATOM     44  C   UNL A   1      37.577  32.505  30.138  1.00  0.00     0.010 A 
ATOM     45  C   UNL A   1      37.444  31.377  30.953  1.00  0.00    -0.014 A 
BRANCH  45  46
ATOM     46  C   UNL A   1      38.544  31.139  32.021  1.00  0.00     0.031 A 
ATOM     47  C   UNL A   1      38.609  31.980  33.365  1.00  0.00     0.074 A 
ATOM     48  C   UNL A   1      39.028  29.898  31.679  1.00  0.00     0.049 A 
ATOM     49  N   UNL A   1      39.513  32.016  34.322  1.00  0.00    -0.248 NA
ATOM     50  C   UNL A   1      37.629  33.048  33.594  1.00  0.00     0.031 C 
ATOM     51  C   UNL A   1      39.374  28.612  32.266  1.00  0.00     0.029 A 
ATOM     52  N   UNL A   1      39.924  29.855  30.604  1.00  0.00    -0.354 N 
ATOM     53  C   UNL A   1      39.129  32.928  35.346  1.00  0.00     0.074 A 
ATOM     54  C   UNL A   1      37.959  33.552  34.790  1.00  0.00     0.031 C 
ATOM     55  C   UNL A   1      40.590  28.210  31.905  1.00  0.00     0.029 A 
ATOM     56  C   UNL A   1      41.079  29.264  31.073  1.00  0.00     0.049 A 
ATOM     57  H   UNL A   1      39.762  30.183  29.690  1.00  0.00     0.167 HD
ATOM     58  C   UNL A   1      39.816  33.146  36.542  1.00  0.00     0.037 A 
ATOM     59  C   UNL A   1      42.253  29.095  30.477  1.00  0.00     0.037 A 
ATOM     60  C   UNL A   1      41.204  32.644  36.475  1.00  0.00     0.049 A 
ATOM     61  C   UNL A   1      43.218  29.732  31.510  1.00  0.00     0.074 A 
ATOM     62  C   UNL A   1      42.043  31.959  37.340  1.00  0.00     0.029 A 
ATOM     63  N   UNL A   1      41.936  32.758  35.278  1.00  0.00    -0.354 N 
ATOM     64  N   UNL A   1      42.890  30.329  32.667  1.00  0.00    -0.248 NA
ATOM     65  C   UNL A   1      44.635  29.892  31.221  1.00  0.00     0.031 C 
ATOM     66  C   UNL A   1      43.165  31.502  36.607  1.00  0.00     0.029 A 
ATOM     67  C   UNL A   1      43.065  31.961  35.297  1.00  0.00     0.049 A 
ATOM     68  H   UNL A   1      41.675  33.332  34.522  1.00  0.00     0.167 HD
ATOM     69  C   UNL A   1      43.991  31.058  33.159  1.00  0.00     0.074 A 
ATOM     70  C   UNL A   1      45.048  30.692  32.221  1.00  0.00     0.031 C 
ATOM     71  C   UNL A   1      44.062  31.950  34.231  1.00  0.00     0.037 A 
BRANCH  58  72
ATOM     72  C   UNL A   1      39.212  33.701  37.938  1.00  0.00     0.058 A 
ATOM     73  C   UNL A   1      39.517  34.997  38.462  1.00  0.00     0.135 A 
ATOM     74  C   UNL A   1      38.435  32.972  38.867  1.00  0.00     0.135 A 
ATOM     75  F   UNL A   1      39.946  35.994  37.683  1.00  0.00    -0.206 F 
ATOM     76  C   UNL A   1      39.308  35.414  39.797  1.00  0.00     0.059 A 
ATOM     77  C   UNL A   1      38.179  33.375  40.208  1.00  0.00     0.059 A 
ATOM     78  F   UNL A   1      37.859  31.815  38.537  1.00  0.00    -0.206 F 
ATOM     79  C   UNL A   1      38.665  34.580  40.685  1.00  0.00     0.060 A 
BRANCH  79  80
ATOM     80  S   UNL A   1      38.411  35.105  42.401  1.00  0.00     0.124 S 
ATOM     81  O   UNL A   1      36.952  35.025  42.541  1.00  0.00    -0.237 OA
ATOM     82  O   UNL A   1      39.160  34.091  43.150  1.00  0.00    -0.237 OA
ATOM     83  O   UNL A   1      38.964  36.439  42.442  1.00  0.00    -0.744 OA
ENDBRANCH  79  80
ENDBRANCH  58  72
BRANCH  59  84
ATOM     84  C   UNL A   1      42.070  28.107  29.318  1.00  0.00     0.058 A 
ATOM     85  C   UNL A   1      41.872  28.584  27.996  1.00  0.00     0.135 A 
ATOM     86  C   UNL A   1      42.874  26.927  29.378  1.00  0.00     0.135 A 
ATOM     87  F   UNL A   1      41.119  29.676  27.796  1.00  0.00    -0.206 F 
ATOM     88  C   UNL A   1      42.597  28.092  26.878  1.00  0.00     0.059 A 
ATOM     89  C   UNL A   1      43.624  26.439  28.285  1.00  0.00     0.059 A 
ATOM     90  F   UNL A   1      43.170  26.396  30.577  1.00  0.00    -0.206 F 
ATOM     91  C   UNL A   1      43.523  27.065  27.047  1.00  0.00     0.060 A 
BRANCH  91  92
ATOM     92  S   UNL A   1      44.764  26.712  25.751  1.00  0.00     0.124 S 
ATOM     93  O   UNL A   1      44.153  25.591  25.041  1.00  0.00    -0.237 OA
ATOM     94  O   UNL A   1      44.847  27.963  25.017  1.00  0.00    -0.237 OA
ATOM     95  O   UNL A   1      45.955  26.395  26.539  1.00  0.00    -0.744 OA
ENDBRANCH  91  92
ENDBRANCH  59  84
BRANCH  71  96
ATOM     96  C   UNL A   1      45.165  33.015  34.495  1.00  0.00     0.058 A 
ATOM     97  C   UNL A   1      44.970  34.384  34.283  1.00  0.00     0.135 A 
ATOM     98  C   UNL A   1      46.336  32.710  35.265  1.00  0.00     0.135 A 
ATOM     99  F   UNL A   1      43.902  34.838  33.614  1.00  0.00    -0.206 F 
ATOM    100  C   UNL A   1      45.839  35.358  34.800  1.00  0.00     0.059 A 
ATOM    101  C   UNL A   1      47.148  33.658  35.870  1.00  0.00     0.059 A 
ATOM    102  F   UNL A   1      46.779  31.467  35.478  1.00  0.00    -0.206 F 
ATOM    103  C   UNL A   1      46.903  34.986  35.620  1.00  0.00     0.060 A 
BRANCH 103 104
ATOM    104  S   UNL A   1      47.945  36.223  36.402  1.00  0.00     0.124 S 
ATOM    105  O   UNL A   1      49.012  35.391  36.954  1.00  0.00    -0.237 OA
ATOM    106  O   UNL A   1      48.317  37.081  35.293  1.00  0.00    -0.237 OA
ATOM    107  O   UNL A   1      47.054  36.837  37.392  1.00  0.00    -0.744 OA
ENDBRANCH 103 104
ENDBRANCH  71  96
ENDBRANCH  45  46
ENDBRANCH  38  40
ENDBRANCH  37  38
ENDBRANCH  36  37
ENDBRANCH  35  36
ENDBRANCH  34  35
ENDBRANCH  33  34
ENDBRANCH   1  33
TORSDOF 25
ENDMDL
MODEL 3
REMARK VINA RESULT:      -9.5      5.906     10.450
REMARK SMILES Cc1ccc(-c2cc(Cl)cc3c2O[C@@H](C(F)(F)F)C(C(=O)OCCOCCOCCOCCOC(=O)c2ccc(-c4c5nc(c(-c6c(F)cc(S(=O)(=O)[O-])cc6F)c6ccc([nH]6)c(-c6c(F)cc(S(=O)(=O)[O-])cc6F)c6nc(c(-c7c(F)cc(S(=O)(=O)[O-])cc7F)c7ccc4[nH]7)C=C6)C=C5)cc2)=C3)cc1
REMARK SMILES IDX 29 1 28 2 27 3 26 4 25 5 24 6 23 7 22 8 20 9 21 10 19 11
REMARK SMILES IDX 6 12 7 13 12 14 8 15 11 16 13 17 9 18 10 19 103 20 14 21
REMARK SMILES IDX 5 22 1 23 2 24 3 25 105 26 4 27 104 28 15 29 16 30 17 31
REMARK SMILES IDX 18 32 30 33 31 34 32 35 33 36 34 37 35 38 36 39 37 40 38 41
REMARK SMILES IDX 102 42 39 43 101 44 40 45 41 46 42 47 95 48 43 49 100 50
REMARK SMILES IDX 94 51 96 52 44 53 99 54 93 55 92 56 45 58 79 59 58 60 78 61
REMARK SMILES IDX 59 62 62 63 77 64 97 65 60 66 61 67 76 69 98 70 63 71 46 72
REMARK SMILES IDX 47 73 56 74 48 75 49 76 55 77 57 78 50 79 51 80 52 81 53 82
REMARK SMILES IDX 54 83 80 84 81 85 90 86 82 87 83 88 89 89 91 90 84 91 85 92
REMARK SMILES IDX 86 93 87 94 88 95 64 96 65 97 74 98 66 99 67 100 73 101
REMARK SMILES IDX 75 102 68 103 69 104 70 105 71 106 72 107
REMARK H PARENT 96 57 62 68
REMARK Flexibility Score: inf
ROOT
ATOM      1  C   UNL A   1      33.336  30.903  27.460  1.00  0.00     0.188 C 
ENDROOT
BRANCH   1   2
ATOM      2  O   UNL A   1      33.080  29.679  26.821  1.00  0.00    -0.377 OA
BRANCH   2   3
ATOM      3  C   UNL A   1      32.619  29.731  25.486  1.00  0.00     0.188 C 
BRANCH   3   4
ATOM      4  C   UNL A   1      31.269  29.041  25.147  1.00  0.00     0.188 C 
BRANCH   4   5
ATOM      5  O   UNL A   1      31.525  27.747  24.652  1.00  0.00    -0.376 OA
BRANCH   5   6
ATOM      6  C   UNL A   1      31.341  26.613  25.449  1.00  0.00     0.202 C 
BRANCH   6   7
ATOM      7  C   UNL A   1      32.612  26.329  26.156  1.00  0.00     0.261 C 
BRANCH   7   8
ATOM      8  O   UNL A   1      32.807  24.964  26.505  1.00  0.00    -0.460 OA
BRANCH   8   9
ATOM      9  C   UNL A   1      32.917  24.142  25.473  1.00  0.00     0.338 C 
ATOM     10  O   UNL A   1      32.228  23.122  25.208  1.00  0.00    -0.246 OA
BRANCH   9  11
ATOM     11  C   UNL A   1      33.951  24.711  24.588  1.00  0.00     0.087 C 
ATOM     12  C   UNL A   1      35.548  20.887  24.578  1.00  0.00     0.026 A 
ATOM     13  C   UNL A   1      36.867  20.748  25.046  1.00  0.00     0.033 A 
ATOM     14  C   UNL A   1      35.116  22.245  24.323  1.00  0.00     0.135 A 
ATOM     15  C   UNL A   1      37.627  21.847  25.433  1.00  0.00     0.042 A 
ATOM     16  C   UNL A   1      35.820  23.325  24.918  1.00  0.00     0.019 A 
ATOM     17  O   UNL A   1      34.133  22.615  23.385  1.00  0.00    -0.475 OA
ATOM     18  Cl  UNL A   1      39.223  21.603  26.014  1.00  0.00    -0.084 Cl
ATOM     19  C   UNL A   1      37.085  23.121  25.441  1.00  0.00     0.032 A 
ATOM     20  C   UNL A   1      35.221  24.687  25.036  1.00  0.00     0.027 C 
ATOM     21  C   UNL A   1      33.857  24.067  23.220  1.00  0.00     0.316 C 
BRANCH  12  22
ATOM     22  C   UNL A   1      34.759  19.613  24.847  1.00  0.00    -0.015 A 
ATOM     23  C   UNL A   1      32.634  15.757  25.221  1.00  0.00     0.044 C 
ATOM     24  C   UNL A   1      33.334  17.082  25.065  1.00  0.00    -0.051 A 
ATOM     25  C   UNL A   1      32.691  18.294  25.292  1.00  0.00     0.004 A 
ATOM     26  C   UNL A   1      34.670  17.148  24.686  1.00  0.00     0.004 A 
ATOM     27  C   UNL A   1      33.375  19.535  25.134  1.00  0.00     0.009 A 
ATOM     28  C   UNL A   1      35.376  18.368  24.604  1.00  0.00     0.009 A 
ENDBRANCH  12  22
BRANCH  21  29
ATOM     29  C   UNL A   1      32.713  24.665  22.315  1.00  0.00     0.430 C 
ATOM     30  F   UNL A   1      33.016  24.398  21.002  1.00  0.00    -0.167 F 
ATOM     31  F   UNL A   1      31.534  24.026  22.537  1.00  0.00    -0.167 F 
ATOM     32  F   UNL A   1      32.431  25.967  22.339  1.00  0.00    -0.167 F 
ENDBRANCH  21  29
ENDBRANCH   9  11
ENDBRANCH   8   9
ENDBRANCH   7   8
ENDBRANCH   6   7
ENDBRANCH   5   6
ENDBRANCH   4   5
ENDBRANCH   3   4
ENDBRANCH   2   3
ENDBRANCH   1   2
BRANCH   1  33
ATOM     33  C   UNL A   1      34.820  31.252  27.540  1.00  0.00     0.188 C 
BRANCH  33  34
ATOM     34  O   UNL A   1      35.606  30.566  28.497  1.00  0.00    -0.376 OA
BRANCH  34  35
ATOM     35  C   UNL A   1      36.985  30.926  28.601  1.00  0.00     0.202 C 
BRANCH  35  36
ATOM     36  C   UNL A   1      37.395  32.431  28.635  1.00  0.00     0.261 C 
BRANCH  36  37
ATOM     37  O   UNL A   1      37.617  32.928  29.989  1.00  0.00    -0.460 OA
BRANCH  37  38
ATOM     38  C   UNL A   1      36.637  33.628  30.627  1.00  0.00     0.338 C 
ATOM     39  O   UNL A   1      35.696  34.175  30.038  1.00  0.00    -0.246 OA
BRANCH  38  40
ATOM     40  C   UNL A   1      36.538  33.350  32.095  1.00  0.00     0.060 A 
ATOM     41  C   UNL A   1      36.429  34.383  33.022  1.00  0.00     0.016 A 
ATOM     42  C   UNL A   1      36.563  32.044  32.593  1.00  0.00     0.016 A 
ATOM     43  C   UNL A   1      36.605  34.111  34.394  1.00  0.00     0.010 A 
ATOM     44  C   UNL A   1      36.948  31.803  33.925  1.00  0.00     0.010 A 
ATOM     45  C   UNL A   1      37.174  32.877  34.792  1.00  0.00    -0.014 A 
BRANCH  45  46
ATOM     46  C   UNL A   1      38.504  32.877  35.590  1.00  0.00     0.031 A 
ATOM     47  C   UNL A   1      38.536  32.964  37.174  1.00  0.00     0.074 A 
ATOM     48  C   UNL A   1      39.404  32.394  34.669  1.00  0.00     0.049 A 
ATOM     49  N   UNL A   1      39.541  33.098  38.015  1.00  0.00    -0.248 NA
ATOM     50  C   UNL A   1      37.275  33.092  37.914  1.00  0.00     0.031 C 
ATOM     51  C   UNL A   1      40.475  31.418  34.531  1.00  0.00     0.029 A 
ATOM     52  N   UNL A   1      39.864  33.307  33.713  1.00  0.00    -0.354 N 
ATOM     53  C   UNL A   1      39.075  33.118  39.361  1.00  0.00     0.074 A 
ATOM     54  C   UNL A   1      37.646  33.145  39.200  1.00  0.00     0.031 C 
ATOM     55  C   UNL A   1      41.575  31.956  34.010  1.00  0.00     0.029 A 
ATOM     56  C   UNL A   1      41.240  33.331  33.815  1.00  0.00     0.049 A 
ATOM     57  H   UNL A   1      39.313  33.830  33.087  1.00  0.00     0.167 HD
ATOM     58  C   UNL A   1      39.880  33.163  40.500  1.00  0.00     0.037 A 
ATOM     59  C   UNL A   1      42.126  34.110  33.207  1.00  0.00     0.037 A 
ATOM     60  C   UNL A   1      41.254  33.603  40.183  1.00  0.00     0.049 A 
ATOM     61  C   UNL A   1      42.915  34.679  34.414  1.00  0.00     0.074 A 
ATOM     62  C   UNL A   1      42.526  33.220  40.583  1.00  0.00     0.029 A 
ATOM     63  N   UNL A   1      41.468  34.587  39.199  1.00  0.00    -0.354 N 
ATOM     64  N   UNL A   1      42.684  34.449  35.717  1.00  0.00    -0.248 NA
ATOM     65  C   UNL A   1      43.933  35.704  34.235  1.00  0.00     0.031 C 
ATOM     66  C   UNL A   1      43.468  33.819  39.713  1.00  0.00     0.029 A 
ATOM     67  C   UNL A   1      42.793  34.635  38.810  1.00  0.00     0.049 A 
ATOM     68  H   UNL A   1      40.761  35.168  38.834  1.00  0.00     0.167 HD
ATOM     69  C   UNL A   1      43.389  35.384  36.501  1.00  0.00     0.074 A 
ATOM     70  C   UNL A   1      44.175  36.096  35.499  1.00  0.00     0.031 C 
ATOM     71  C   UNL A   1      43.324  35.624  37.875  1.00  0.00     0.037 A 
BRANCH  58  72
ATOM     72  C   UNL A   1      39.508  32.650  41.990  1.00  0.00     0.058 A 
ATOM     73  C   UNL A   1      39.914  31.377  42.503  1.00  0.00     0.135 A 
ATOM     74  C   UNL A   1      38.656  33.296  42.914  1.00  0.00     0.135 A 
ATOM     75  F   UNL A   1      40.957  30.711  42.002  1.00  0.00    -0.206 F 
ATOM     76  C   UNL A   1      39.362  30.733  43.635  1.00  0.00     0.059 A 
ATOM     77  C   UNL A   1      38.107  32.689  44.078  1.00  0.00     0.059 A 
ATOM     78  F   UNL A   1      38.301  34.573  42.759  1.00  0.00    -0.206 F 
ATOM     79  C   UNL A   1      38.424  31.383  44.407  1.00  0.00     0.060 A 
BRANCH  79  80
ATOM     80  S   UNL A   1      37.701  30.552  45.846  1.00  0.00     0.124 S 
ATOM     81  O   UNL A   1      38.891  30.087  46.570  1.00  0.00    -0.237 OA
ATOM     82  O   UNL A   1      36.969  31.643  46.498  1.00  0.00    -0.237 OA
ATOM     83  O   UNL A   1      36.881  29.511  45.271  1.00  0.00    -0.744 OA
ENDBRANCH  79  80
ENDBRANCH  58  72
BRANCH  59  84
ATOM     84  C   UNL A   1      42.119  33.775  31.710  1.00  0.00     0.058 A 
ATOM     85  C   UNL A   1      41.165  34.376  30.848  1.00  0.00     0.135 A 
ATOM     86  C   UNL A   1      43.404  33.613  31.106  1.00  0.00     0.135 A 
ATOM     87  F   UNL A   1      39.912  34.569  31.284  1.00  0.00    -0.206 F 
ATOM     88  C   UNL A   1      41.513  34.979  29.609  1.00  0.00     0.059 A 
ATOM     89  C   UNL A   1      43.777  34.228  29.891  1.00  0.00     0.059 A 
ATOM     90  F   UNL A   1      44.409  33.092  31.832  1.00  0.00    -0.206 F 
ATOM     91  C   UNL A   1      42.837  34.960  29.174  1.00  0.00     0.060 A 
BRANCH  91  92
ATOM     92  S   UNL A   1      43.388  36.079  27.836  1.00  0.00     0.124 S 
ATOM     93  O   UNL A   1      43.399  35.188  26.679  1.00  0.00    -0.237 OA
ATOM     94  O   UNL A   1      42.375  37.121  27.831  1.00  0.00    -0.237 OA
ATOM     95  O   UNL A   1      44.699  36.516  28.317  1.00  0.00    -0.744 OA
ENDBRANCH  91  92
ENDBRANCH  59  84
BRANCH  71  96
ATOM     96  C   UNL A   1      43.804  36.895  38.630  1.00  0.00     0.058 A 
ATOM     97  C   UNL A   1      45.154  37.237  38.768  1.00  0.00     0.135 A 
ATOM     98  C   UNL A   1      42.902  37.961  38.960  1.00  0.00     0.135 A 
ATOM     99  F   UNL A   1      46.126  36.367  38.463  1.00  0.00    -0.206 F 
ATOM    100  C   UNL A   1      45.570  38.515  39.172  1.00  0.00     0.059 A 
ATOM    101  C   UNL A   1      43.292  39.257  39.262  1.00  0.00     0.059 A 
ATOM    102  F   UNL A   1      41.574  37.815  39.019  1.00  0.00    -0.206 F 
ATOM    103  C   UNL A   1      44.633  39.526  39.382  1.00  0.00     0.060 A 
BRANCH 103 104
ATOM    104  S   UNL A   1      45.151  41.203  39.768  1.00  0.00     0.124 S 
ATOM    105  O   UNL A   1      46.376  41.313  38.980  1.00  0.00    -0.237 OA
ATOM    106  O   UNL A   1      44.027  42.000  39.315  1.00  0.00    -0.237 OA
ATOM    107  O   UNL A   1      45.343  41.169  41.222  1.00  0.00    -0.744 OA
ENDBRANCH 103 104
ENDBRANCH  71  96
ENDBRANCH  45  46
ENDBRANCH  38  40
ENDBRANCH  37  38
ENDBRANCH  36  37
ENDBRANCH  35  36
ENDBRANCH  34  35
ENDBRANCH  33  34
ENDBRANCH   1  33
TORSDOF 25
ENDMDL
