MODEL 1
REMARK VINA RESULT:     -10.2      0.000      0.000
REMARK SMILES O=C(OCCOCCOCCOCCOC(=O)c1ccc(-c2c3nc(c(-c4c(F)cc(S(=O)(=O)[O-])cc4F)c4ccc([nH]4)c(-c4c(F)cc(S(=O)(=O)[O-])cc4F)c4nc(c(-c5c(F)cc(S(=O)(=O)[O-])cc5F)c5ccc2[nH]5)C=C4)C=C3)cc1)C1=Cc2c(cc(Cl)c(Cl)c2Cl)O[C@H]1C(F)(F)F
REMARK SMILES IDX 10 1 9 2 8 3 7 4 6 5 5 6 4 7 3 8 2 9 1 10 84 11 85 12 96 13
REMARK SMILES IDX 86 14 95 15 87 16 93 17 88 18 91 19 94 20 89 21 92 22 90 23
REMARK SMILES IDX 97 24 98 25 99 26 100 27 11 28 12 29 13 30 14 31 15 32 16 33
REMARK SMILES IDX 17 34 18 35 19 36 83 37 20 38 82 39 21 40 22 41 23 42 76 43
REMARK SMILES IDX 24 44 81 45 75 46 77 47 25 48 80 49 74 50 73 51 26 53 60 54
REMARK SMILES IDX 39 55 59 56 40 57 43 58 58 59 78 60 41 61 42 62 57 64 79 65
REMARK SMILES IDX 44 66 27 67 28 68 37 69 29 70 30 71 36 72 38 73 31 74 32 75
REMARK SMILES IDX 33 76 34 77 35 78 61 79 62 80 71 81 63 82 64 83 70 84 72 85
REMARK SMILES IDX 65 86 66 87 67 88 68 89 69 90 45 91 46 92 55 93 47 94 48 95
REMARK SMILES IDX 54 96 56 97 49 98 50 99 51 100 52 101 53 102
REMARK H PARENT 77 52 43 63
REMARK Flexibility Score: inf
ROOT
ATOM      1  C   UNL A   1      34.366  35.603  28.175  1.00  0.00     0.188 C 
ENDROOT
BRANCH   1   2
ATOM      2  O   UNL A   1      34.420  34.255  27.713  1.00  0.00    -0.377 OA
BRANCH   2   3
ATOM      3  C   UNL A   1      33.301  33.417  27.954  1.00  0.00     0.188 C 
BRANCH   3   4
ATOM      4  C   UNL A   1      33.536  31.924  27.714  1.00  0.00     0.188 C 
BRANCH   4   5
ATOM      5  O   UNL A   1      32.543  31.346  26.882  1.00  0.00    -0.376 OA
BRANCH   5   6
ATOM      6  C   UNL A   1      32.387  29.941  27.046  1.00  0.00     0.202 C 
BRANCH   6   7
ATOM      7  C   UNL A   1      33.723  29.231  27.237  1.00  0.00     0.261 C 
BRANCH   7   8
ATOM      8  O   UNL A   1      34.305  28.770  25.993  1.00  0.00    -0.460 OA
BRANCH   8   9
ATOM      9  C   UNL A   1      33.694  28.240  24.905  1.00  0.00     0.338 C 
ATOM     10  O   UNL A   1      33.506  28.947  23.919  1.00  0.00    -0.246 OA
BRANCH   9  11
ATOM     11  C   UNL A   1      33.388  26.793  24.804  1.00  0.00     0.087 C 
ATOM     12  C   UNL A   1      34.043  25.835  25.454  1.00  0.00     0.029 C 
ATOM     13  C   UNL A   1      32.014  26.415  24.278  1.00  0.00     0.316 C 
ATOM     14  C   UNL A   1      33.925  24.450  25.087  1.00  0.00     0.038 A 
ATOM     15  O   UNL A   1      31.786  24.972  24.086  1.00  0.00    -0.475 OA
ATOM     16  C   UNL A   1      32.750  24.075  24.458  1.00  0.00     0.131 A 
ATOM     17  C   UNL A   1      34.957  23.516  25.335  1.00  0.00     0.072 A 
ATOM     18  C   UNL A   1      32.549  22.729  24.177  1.00  0.00     0.069 A 
ATOM     19  C   UNL A   1      34.749  22.161  25.071  1.00  0.00     0.079 A 
ATOM     20  Cl  UNL A   1      36.521  24.065  25.875  1.00  0.00    -0.082 Cl
ATOM     21  C   UNL A   1      33.529  21.775  24.501  1.00  0.00     0.064 A 
ATOM     22  Cl  UNL A   1      35.967  20.989  25.467  1.00  0.00    -0.081 Cl
ATOM     23  Cl  UNL A   1      33.170  20.120  24.152  1.00  0.00    -0.083 Cl
BRANCH  13  24
ATOM     24  C   UNL A   1      30.933  26.978  25.258  1.00  0.00     0.430 C 
ATOM     25  F   UNL A   1      29.755  26.307  25.181  1.00  0.00    -0.167 F 
ATOM     26  F   UNL A   1      31.342  26.932  26.546  1.00  0.00    -0.167 F 
ATOM     27  F   UNL A   1      30.639  28.276  24.994  1.00  0.00    -0.167 F 
ENDBRANCH  13  24
ENDBRANCH   9  11
ENDBRANCH   8   9
ENDBRANCH   7   8
ENDBRANCH   6   7
ENDBRANCH   5   6
ENDBRANCH   4   5
ENDBRANCH   3   4
ENDBRANCH   2   3
ENDBRANCH   1   2
BRANCH   1  28
ATOM     28  C   UNL A   1      33.017  35.994  28.824  1.00  0.00     0.188 C 
BRANCH  28  29
ATOM     29  O   UNL A   1      32.975  36.838  29.978  1.00  0.00    -0.376 OA
BRANCH  29  30
ATOM     30  C   UNL A   1      32.600  36.255  31.216  1.00  0.00     0.202 C 
BRANCH  30  31
ATOM     31  C   UNL A   1      33.720  35.403  31.851  1.00  0.00     0.261 C 
BRANCH  31  32
ATOM     32  O   UNL A   1      33.769  34.034  31.398  1.00  0.00    -0.460 OA
BRANCH  32  33
ATOM     33  C   UNL A   1      34.299  33.145  32.283  1.00  0.00     0.338 C 
ATOM     34  O   UNL A   1      33.819  32.816  33.345  1.00  0.00    -0.246 OA
BRANCH  33  35
ATOM     35  C   UNL A   1      35.513  32.496  31.698  1.00  0.00     0.060 A 
ATOM     36  C   UNL A   1      36.356  31.793  32.569  1.00  0.00     0.016 A 
ATOM     37  C   UNL A   1      35.841  32.571  30.339  1.00  0.00     0.016 A 
ATOM     38  C   UNL A   1      37.551  31.229  32.106  1.00  0.00     0.010 A 
ATOM     39  C   UNL A   1      37.044  32.007  29.876  1.00  0.00     0.010 A 
ATOM     40  C   UNL A   1      37.932  31.374  30.766  1.00  0.00    -0.014 A 
BRANCH  40  41
ATOM     41  C   UNL A   1      39.342  31.076  30.371  1.00  0.00     0.031 A 
ATOM     42  C   UNL A   1      40.384  32.149  30.587  1.00  0.00     0.074 A 
ATOM     43  C   UNL A   1      39.724  29.870  29.906  1.00  0.00     0.049 A 
ATOM     44  N   UNL A   1      41.669  32.129  30.338  1.00  0.00    -0.248 NA
ATOM     45  C   UNL A   1      39.909  33.417  31.168  1.00  0.00     0.031 C 
ATOM     46  C   UNL A   1      38.843  28.724  29.691  1.00  0.00     0.029 A 
ATOM     47  N   UNL A   1      40.967  29.408  29.532  1.00  0.00    -0.354 N 
ATOM     48  C   UNL A   1      42.153  33.372  30.733  1.00  0.00     0.074 A 
ATOM     49  C   UNL A   1      41.019  34.138  31.200  1.00  0.00     0.031 C 
ATOM     50  C   UNL A   1      39.570  27.695  29.217  1.00  0.00     0.029 A 
ATOM     51  C   UNL A   1      40.966  28.111  29.070  1.00  0.00     0.049 A 
ATOM     52  H   UNL A   1      41.783  29.955  29.592  1.00  0.00     0.167 HD
ATOM     53  C   UNL A   1      43.426  33.834  30.726  1.00  0.00     0.037 A 
ATOM     54  C   UNL A   1      41.967  27.353  28.571  1.00  0.00     0.037 A 
ATOM     55  C   UNL A   1      44.563  33.080  30.266  1.00  0.00     0.049 A 
ATOM     56  C   UNL A   1      43.369  27.920  28.503  1.00  0.00     0.074 A 
ATOM     57  C   UNL A   1      45.892  33.468  30.222  1.00  0.00     0.029 A 
ATOM     58  N   UNL A   1      44.510  31.787  29.768  1.00  0.00    -0.354 N 
ATOM     59  N   UNL A   1      43.809  29.092  28.894  1.00  0.00    -0.248 NA
ATOM     60  C   UNL A   1      44.411  27.054  27.927  1.00  0.00     0.031 C 
ATOM     61  C   UNL A   1      46.633  32.431  29.647  1.00  0.00     0.029 A 
ATOM     62  C   UNL A   1      45.778  31.372  29.391  1.00  0.00     0.049 A 
ATOM     63  H   UNL A   1      43.693  31.244  29.694  1.00  0.00     0.167 HD
ATOM     64  C   UNL A   1      45.179  29.092  28.638  1.00  0.00     0.074 A 
ATOM     65  C   UNL A   1      45.499  27.795  28.081  1.00  0.00     0.031 C 
ATOM     66  C   UNL A   1      46.090  30.077  28.842  1.00  0.00     0.037 A 
BRANCH  53  67
ATOM     67  C   UNL A   1      43.666  35.236  31.220  1.00  0.00     0.058 A 
ATOM     68  C   UNL A   1      43.917  35.510  32.574  1.00  0.00     0.135 A 
ATOM     69  C   UNL A   1      43.708  36.312  30.317  1.00  0.00     0.135 A 
ATOM     70  F   UNL A   1      43.868  34.524  33.484  1.00  0.00    -0.206 F 
ATOM     71  C   UNL A   1      44.189  36.801  33.017  1.00  0.00     0.059 A 
ATOM     72  C   UNL A   1      44.005  37.606  30.733  1.00  0.00     0.059 A 
ATOM     73  F   UNL A   1      43.470  36.107  29.011  1.00  0.00    -0.206 F 
ATOM     74  C   UNL A   1      44.238  37.841  32.087  1.00  0.00     0.060 A 
BRANCH  74  75
ATOM     75  S   UNL A   1      44.630  39.503  32.674  1.00  0.00     0.124 S 
ATOM     76  O   UNL A   1      45.733  39.237  33.591  1.00  0.00    -0.237 OA
ATOM     77  O   UNL A   1      44.986  40.192  31.438  1.00  0.00    -0.237 OA
ATOM     78  O   UNL A   1      43.388  39.946  33.299  1.00  0.00    -0.744 OA
ENDBRANCH  74  75
ENDBRANCH  53  67
BRANCH  54  79
ATOM     79  C   UNL A   1      41.696  25.978  28.058  1.00  0.00     0.058 A 
ATOM     80  C   UNL A   1      40.953  25.763  26.885  1.00  0.00     0.135 A 
ATOM     81  C   UNL A   1      42.127  24.844  28.766  1.00  0.00     0.135 A 
ATOM     82  F   UNL A   1      40.497  26.809  26.179  1.00  0.00    -0.206 F 
ATOM     83  C   UNL A   1      40.624  24.481  26.451  1.00  0.00     0.059 A 
ATOM     84  C   UNL A   1      41.839  23.553  28.334  1.00  0.00     0.059 A 
ATOM     85  F   UNL A   1      42.843  24.987  29.892  1.00  0.00    -0.206 F 
ATOM     86  C   UNL A   1      41.071  23.381  27.184  1.00  0.00     0.060 A 
BRANCH  86  87
ATOM     87  S   UNL A   1      40.664  21.720  26.602  1.00  0.00     0.124 S 
ATOM     88  O   UNL A   1      39.352  21.931  26.001  1.00  0.00    -0.237 OA
ATOM     89  O   UNL A   1      41.756  21.443  25.674  1.00  0.00    -0.237 OA
ATOM     90  O   UNL A   1      40.676  20.924  27.827  1.00  0.00    -0.744 OA
ENDBRANCH  86  87
ENDBRANCH  54  79
BRANCH  66  91
ATOM     91  C   UNL A   1      47.528  29.783  28.496  1.00  0.00     0.058 A 
ATOM     92  C   UNL A   1      48.092  30.175  27.271  1.00  0.00     0.135 A 
ATOM     93  C   UNL A   1      48.364  29.128  29.416  1.00  0.00     0.135 A 
ATOM     94  F   UNL A   1      47.342  30.807  26.353  1.00  0.00    -0.206 F 
ATOM     95  C   UNL A   1      49.417  29.891  26.953  1.00  0.00     0.059 A 
ATOM     96  C   UNL A   1      49.702  28.863  29.134  1.00  0.00     0.059 A 
ATOM     97  F   UNL A   1      47.886  28.744  30.610  1.00  0.00    -0.206 F 
ATOM     98  C   UNL A   1      50.214  29.231  27.890  1.00  0.00     0.060 A 
BRANCH  98  99
ATOM     99  S   UNL A   1      51.931  28.869  27.466  1.00  0.00     0.124 S 
ATOM    100  O   UNL A   1      51.871  28.819  26.010  1.00  0.00    -0.237 OA
ATOM    101  O   UNL A   1      52.641  30.013  28.033  1.00  0.00    -0.237 OA
ATOM    102  O   UNL A   1      52.185  27.592  28.128  1.00  0.00    -0.744 OA
ENDBRANCH  98  99
ENDBRANCH  66  91
ENDBRANCH  40  41
ENDBRANCH  33  35
ENDBRANCH  32  33
ENDBRANCH  31  32
ENDBRANCH  30  31
ENDBRANCH  29  30
ENDBRANCH  28  29
ENDBRANCH   1  28
TORSDOF 24
ENDMDL
MODEL 2
REMARK VINA RESULT:      -9.9      1.310      2.034
REMARK SMILES O=C(OCCOCCOCCOCCOC(=O)c1ccc(-c2c3nc(c(-c4c(F)cc(S(=O)(=O)[O-])cc4F)c4ccc([nH]4)c(-c4c(F)cc(S(=O)(=O)[O-])cc4F)c4nc(c(-c5c(F)cc(S(=O)(=O)[O-])cc5F)c5ccc2[nH]5)C=C4)C=C3)cc1)C1=Cc2c(cc(Cl)c(Cl)c2Cl)O[C@H]1C(F)(F)F
REMARK SMILES IDX 10 1 9 2 8 3 7 4 6 5 5 6 4 7 3 8 2 9 1 10 84 11 85 12 96 13
REMARK SMILES IDX 86 14 95 15 87 16 93 17 88 18 91 19 94 20 89 21 92 22 90 23
REMARK SMILES IDX 97 24 98 25 99 26 100 27 11 28 12 29 13 30 14 31 15 32 16 33
REMARK SMILES IDX 17 34 18 35 19 36 83 37 20 38 82 39 21 40 22 41 23 42 76 43
REMARK SMILES IDX 24 44 81 45 75 46 77 47 25 48 80 49 74 50 73 51 26 53 60 54
REMARK SMILES IDX 39 55 59 56 40 57 43 58 58 59 78 60 41 61 42 62 57 64 79 65
REMARK SMILES IDX 44 66 27 67 28 68 37 69 29 70 30 71 36 72 38 73 31 74 32 75
REMARK SMILES IDX 33 76 34 77 35 78 61 79 62 80 71 81 63 82 64 83 70 84 72 85
REMARK SMILES IDX 65 86 66 87 67 88 68 89 69 90 45 91 46 92 55 93 47 94 48 95
REMARK SMILES IDX 54 96 56 97 49 98 50 99 51 100 52 101 53 102
REMARK H PARENT 77 52 43 63
REMARK Flexibility Score: inf
ROOT
ATOM      1  C   UNL A   1      34.442  35.073  28.250  1.00  0.00     0.188 C 
ENDROOT
BRANCH   1   2
ATOM      2  O   UNL A   1      34.350  33.814  27.585  1.00  0.00    -0.377 OA
BRANCH   2   3
ATOM      3  C   UNL A   1      34.111  32.656  28.371  1.00  0.00     0.188 C 
BRANCH   3   4
ATOM      4  C   UNL A   1      34.316  31.322  27.650  1.00  0.00     0.188 C 
BRANCH   4   5
ATOM      5  O   UNL A   1      33.194  30.953  26.864  1.00  0.00    -0.376 OA
BRANCH   5   6
ATOM      6  C   UNL A   1      32.646  29.680  27.186  1.00  0.00     0.202 C 
BRANCH   6   7
ATOM      7  C   UNL A   1      33.692  28.572  27.126  1.00  0.00     0.261 C 
BRANCH   7   8
ATOM      8  O   UNL A   1      34.171  28.314  25.783  1.00  0.00    -0.460 OA
BRANCH   8   9
ATOM      9  C   UNL A   1      33.539  27.709  24.748  1.00  0.00     0.338 C 
ATOM     10  O   UNL A   1      33.294  28.357  23.734  1.00  0.00    -0.246 OA
BRANCH   9  11
ATOM     11  C   UNL A   1      33.276  26.250  24.734  1.00  0.00     0.087 C 
ATOM     12  C   UNL A   1      34.079  25.332  25.264  1.00  0.00     0.029 C 
ATOM     13  C   UNL A   1      31.843  25.812  24.487  1.00  0.00     0.316 C 
ATOM     14  C   UNL A   1      33.947  23.935  24.952  1.00  0.00     0.038 A 
ATOM     15  O   UNL A   1      31.638  24.358  24.368  1.00  0.00    -0.475 OA
ATOM     16  C   UNL A   1      32.689  23.505  24.565  1.00  0.00     0.131 A 
ATOM     17  C   UNL A   1      35.043  23.044  25.015  1.00  0.00     0.072 A 
ATOM     18  C   UNL A   1      32.490  22.146  24.353  1.00  0.00     0.069 A 
ATOM     19  C   UNL A   1      34.841  21.677  24.820  1.00  0.00     0.079 A 
ATOM     20  Cl  UNL A   1      36.658  23.660  25.237  1.00  0.00    -0.082 Cl
ATOM     21  C   UNL A   1      33.551  21.235  24.501  1.00  0.00     0.064 A 
ATOM     22  Cl  UNL A   1      36.156  20.557  24.998  1.00  0.00    -0.081 Cl
ATOM     23  Cl  UNL A   1      33.196  19.560  24.257  1.00  0.00    -0.083 Cl
BRANCH  13  24
ATOM     24  C   UNL A   1      30.946  26.362  25.644  1.00  0.00     0.430 C 
ATOM     25  F   UNL A   1      29.743  25.737  25.718  1.00  0.00    -0.167 F 
ATOM     26  F   UNL A   1      31.543  26.236  26.852  1.00  0.00    -0.167 F 
ATOM     27  F   UNL A   1      30.671  27.681  25.487  1.00  0.00    -0.167 F 
ENDBRANCH  13  24
ENDBRANCH   9  11
ENDBRANCH   8   9
ENDBRANCH   7   8
ENDBRANCH   6   7
ENDBRANCH   5   6
ENDBRANCH   4   5
ENDBRANCH   3   4
ENDBRANCH   2   3
ENDBRANCH   1   2
BRANCH   1  28
ATOM     28  C   UNL A   1      33.320  35.324  29.286  1.00  0.00     0.188 C 
BRANCH  28  29
ATOM     29  O   UNL A   1      33.601  35.973  30.529  1.00  0.00    -0.376 OA
BRANCH  29  30
ATOM     30  C   UNL A   1      33.125  35.367  31.720  1.00  0.00     0.202 C 
BRANCH  30  31
ATOM     31  C   UNL A   1      34.244  34.708  32.555  1.00  0.00     0.261 C 
BRANCH  31  32
ATOM     32  O   UNL A   1      34.971  33.663  31.875  1.00  0.00    -0.460 OA
BRANCH  32  33
ATOM     33  C   UNL A   1      35.675  32.821  32.682  1.00  0.00     0.338 C 
ATOM     34  O   UNL A   1      35.436  32.572  33.842  1.00  0.00    -0.246 OA
BRANCH  33  35
ATOM     35  C   UNL A   1      36.728  32.111  31.892  1.00  0.00     0.060 A 
ATOM     36  C   UNL A   1      37.485  31.133  32.552  1.00  0.00     0.016 A 
ATOM     37  C   UNL A   1      36.990  32.386  30.545  1.00  0.00     0.016 A 
ATOM     38  C   UNL A   1      38.540  30.485  31.899  1.00  0.00     0.010 A 
ATOM     39  C   UNL A   1      38.054  31.738  29.890  1.00  0.00     0.010 A 
ATOM     40  C   UNL A   1      38.868  30.817  30.577  1.00  0.00    -0.014 A 
BRANCH  40  41
ATOM     41  C   UNL A   1      40.183  30.381  30.020  1.00  0.00     0.031 A 
ATOM     42  C   UNL A   1      41.311  31.386  29.984  1.00  0.00     0.074 A 
ATOM     43  C   UNL A   1      40.417  29.113  29.624  1.00  0.00     0.049 A 
ATOM     44  N   UNL A   1      42.542  31.248  29.560  1.00  0.00    -0.248 NA
ATOM     45  C   UNL A   1      41.006  32.732  30.500  1.00  0.00     0.031 C 
ATOM     46  C   UNL A   1      39.444  28.023  29.645  1.00  0.00     0.029 A 
ATOM     47  N   UNL A   1      41.561  28.528  29.125  1.00  0.00    -0.354 N 
ATOM     48  C   UNL A   1      43.155  32.479  29.762  1.00  0.00     0.074 A 
ATOM     49  C   UNL A   1      42.152  33.366  30.308  1.00  0.00     0.031 C 
ATOM     50  C   UNL A   1      40.028  26.905  29.175  1.00  0.00     0.029 A 
ATOM     51  C   UNL A   1      41.410  27.200  28.795  1.00  0.00     0.049 A 
ATOM     52  H   UNL A   1      42.409  29.015  29.018  1.00  0.00     0.167 HD
ATOM     53  C   UNL A   1      44.440  32.842  29.532  1.00  0.00     0.037 A 
ATOM     54  C   UNL A   1      42.278  26.328  28.236  1.00  0.00     0.037 A 
ATOM     55  C   UNL A   1      45.448  31.966  28.992  1.00  0.00     0.049 A 
ATOM     56  C   UNL A   1      43.688  26.779  27.918  1.00  0.00     0.074 A 
ATOM     57  C   UNL A   1      46.777  32.248  28.726  1.00  0.00     0.029 A 
ATOM     58  N   UNL A   1      45.242  30.643  28.633  1.00  0.00    -0.354 N 
ATOM     59  N   UNL A   1      44.253  27.944  28.129  1.00  0.00    -0.248 NA
ATOM     60  C   UNL A   1      44.578  25.791  27.288  1.00  0.00     0.031 C 
ATOM     61  C   UNL A   1      47.360  31.112  28.155  1.00  0.00     0.029 A 
ATOM     62  C   UNL A   1      46.412  30.103  28.124  1.00  0.00     0.049 A 
ATOM     63  H   UNL A   1      44.390  30.159  28.727  1.00  0.00     0.167 HD
ATOM     64  C   UNL A   1      45.568  27.818  27.685  1.00  0.00     0.074 A 
ATOM     65  C   UNL A   1      45.721  26.458  27.216  1.00  0.00     0.031 C 
ATOM     66  C   UNL A   1      46.559  28.745  27.664  1.00  0.00     0.037 A 
BRANCH  53  67
ATOM     67  C   UNL A   1      44.837  34.259  29.851  1.00  0.00     0.058 A 
ATOM     68  C   UNL A   1      44.791  35.275  28.883  1.00  0.00     0.135 A 
ATOM     69  C   UNL A   1      45.209  34.617  31.158  1.00  0.00     0.135 A 
ATOM     70  F   UNL A   1      44.464  34.986  27.614  1.00  0.00    -0.206 F 
ATOM     71  C   UNL A   1      45.110  36.592  29.196  1.00  0.00     0.059 A 
ATOM     72  C   UNL A   1      45.504  35.933  31.500  1.00  0.00     0.059 A 
ATOM     73  F   UNL A   1      45.275  33.684  32.121  1.00  0.00    -0.206 F 
ATOM     74  C   UNL A   1      45.458  36.913  30.510  1.00  0.00     0.060 A 
BRANCH  74  75
ATOM     75  S   UNL A   1      45.831  38.634  30.907  1.00  0.00     0.124 S 
ATOM     76  O   UNL A   1      44.527  39.265  30.730  1.00  0.00    -0.237 OA
ATOM     77  O   UNL A   1      46.309  38.539  32.282  1.00  0.00    -0.237 OA
ATOM     78  O   UNL A   1      46.842  39.001  29.920  1.00  0.00    -0.744 OA
ENDBRANCH  74  75
ENDBRANCH  53  67
BRANCH  54  79
ATOM     79  C   UNL A   1      41.850  24.938  27.900  1.00  0.00     0.058 A 
ATOM     80  C   UNL A   1      42.258  23.836  28.669  1.00  0.00     0.135 A 
ATOM     81  C   UNL A   1      41.069  24.679  26.762  1.00  0.00     0.135 A 
ATOM     82  F   UNL A   1      43.024  24.022  29.755  1.00  0.00    -0.206 F 
ATOM     83  C   UNL A   1      41.933  22.530  28.307  1.00  0.00     0.059 A 
ATOM     84  C   UNL A   1      40.704  23.386  26.399  1.00  0.00     0.059 A 
ATOM     85  F   UNL A   1      40.647  25.693  25.990  1.00  0.00    -0.206 F 
ATOM     86  C   UNL A   1      41.155  22.315  27.169  1.00  0.00     0.060 A 
BRANCH  86  87
ATOM     87  S   UNL A   1      40.715  20.622  26.719  1.00  0.00     0.124 S 
ATOM     88  O   UNL A   1      39.376  20.801  26.170  1.00  0.00    -0.237 OA
ATOM     89  O   UNL A   1      41.760  20.278  25.759  1.00  0.00    -0.237 OA
ATOM     90  O   UNL A   1      40.785  19.909  27.991  1.00  0.00    -0.744 OA
ENDBRANCH  86  87
ENDBRANCH  54  79
BRANCH  66  91
ATOM     91  C   UNL A   1      47.910  28.314  27.150  1.00  0.00     0.058 A 
ATOM     92  C   UNL A   1      48.193  28.244  25.776  1.00  0.00     0.135 A 
ATOM     93  C   UNL A   1      48.946  27.998  28.044  1.00  0.00     0.135 A 
ATOM     94  F   UNL A   1      47.242  28.537  24.874  1.00  0.00    -0.206 F 
ATOM     95  C   UNL A   1      49.439  27.835  25.308  1.00  0.00     0.059 A 
ATOM     96  C   UNL A   1      50.210  27.619  27.599  1.00  0.00     0.059 A 
ATOM     97  F   UNL A   1      48.740  28.064  29.369  1.00  0.00    -0.206 F 
ATOM     98  C   UNL A   1      50.441  27.521  26.228  1.00  0.00     0.060 A 
BRANCH  98  99
ATOM     99  S   UNL A   1      52.052  26.992  25.607  1.00  0.00     0.124 S 
ATOM    100  O   UNL A   1      52.841  26.956  26.833  1.00  0.00    -0.237 OA
ATOM    101  O   UNL A   1      51.746  25.695  25.011  1.00  0.00    -0.237 OA
ATOM    102  O   UNL A   1      52.413  28.041  24.659  1.00  0.00    -0.744 OA
ENDBRANCH  98  99
ENDBRANCH  66  91
ENDBRANCH  40  41
ENDBRANCH  33  35
ENDBRANCH  32  33
ENDBRANCH  31  32
ENDBRANCH  30  31
ENDBRANCH  29  30
ENDBRANCH  28  29
ENDBRANCH   1  28
TORSDOF 24
ENDMDL
MODEL 3
REMARK VINA RESULT:      -9.9      5.339     10.763
REMARK SMILES O=C(OCCOCCOCCOCCOC(=O)c1ccc(-c2c3nc(c(-c4c(F)cc(S(=O)(=O)[O-])cc4F)c4ccc([nH]4)c(-c4c(F)cc(S(=O)(=O)[O-])cc4F)c4nc(c(-c5c(F)cc(S(=O)(=O)[O-])cc5F)c5ccc2[nH]5)C=C4)C=C3)cc1)C1=Cc2c(cc(Cl)c(Cl)c2Cl)O[C@H]1C(F)(F)F
REMARK SMILES IDX 10 1 9 2 8 3 7 4 6 5 5 6 4 7 3 8 2 9 1 10 84 11 85 12 96 13
REMARK SMILES IDX 86 14 95 15 87 16 93 17 88 18 91 19 94 20 89 21 92 22 90 23
REMARK SMILES IDX 97 24 98 25 99 26 100 27 11 28 12 29 13 30 14 31 15 32 16 33
REMARK SMILES IDX 17 34 18 35 19 36 83 37 20 38 82 39 21 40 22 41 23 42 76 43
REMARK SMILES IDX 24 44 81 45 75 46 77 47 25 48 80 49 74 50 73 51 26 53 60 54
REMARK SMILES IDX 39 55 59 56 40 57 43 58 58 59 78 60 41 61 42 62 57 64 79 65
REMARK SMILES IDX 44 66 27 67 28 68 37 69 29 70 30 71 36 72 38 73 31 74 32 75
REMARK SMILES IDX 33 76 34 77 35 78 61 79 62 80 71 81 63 82 64 83 70 84 72 85
REMARK SMILES IDX 65 86 66 87 67 88 68 89 69 90 45 91 46 92 55 93 47 94 48 95
REMARK SMILES IDX 54 96 56 97 49 98 50 99 51 100 52 101 53 102
REMARK H PARENT 77 52 43 63
REMARK Flexibility Score: inf
ROOT
ATOM      1  C   UNL A   1      40.256  22.168  26.908  1.00  0.00     0.188 C 
ENDROOT
BRANCH   1   2
ATOM      2  O   UNL A   1      39.072  22.379  26.140  1.00  0.00    -0.377 OA
BRANCH   2   3
ATOM      3  C   UNL A   1      38.392  21.243  25.629  1.00  0.00     0.188 C 
BRANCH   3   4
ATOM      4  C   UNL A   1      37.236  21.547  24.674  1.00  0.00     0.188 C 
BRANCH   4   5
ATOM      5  O   UNL A   1      35.980  21.152  25.200  1.00  0.00    -0.376 OA
BRANCH   5   6
ATOM      6  C   UNL A   1      35.331  22.150  25.980  1.00  0.00     0.202 C 
BRANCH   6   7
ATOM      7  C   UNL A   1      34.223  21.568  26.853  1.00  0.00     0.261 C 
BRANCH   7   8
ATOM      8  O   UNL A   1      32.959  22.260  26.703  1.00  0.00    -0.460 OA
BRANCH   8   9
ATOM      9  C   UNL A   1      32.108  22.272  25.648  1.00  0.00     0.338 C 
ATOM     10  O   UNL A   1      31.408  21.286  25.432  1.00  0.00    -0.246 OA
BRANCH   9  11
ATOM     11  C   UNL A   1      31.876  23.493  24.840  1.00  0.00     0.087 C 
ATOM     12  C   UNL A   1      32.299  24.709  25.171  1.00  0.00     0.029 C 
ATOM     13  C   UNL A   1      31.515  23.292  23.379  1.00  0.00     0.316 C 
ATOM     14  C   UNL A   1      31.786  25.891  24.535  1.00  0.00     0.038 A 
ATOM     15  O   UNL A   1      31.183  24.520  22.636  1.00  0.00    -0.475 OA
ATOM     16  C   UNL A   1      31.295  25.738  23.249  1.00  0.00     0.131 A 
ATOM     17  C   UNL A   1      31.763  27.146  25.186  1.00  0.00     0.072 A 
ATOM     18  C   UNL A   1      30.883  26.871  22.557  1.00  0.00     0.069 A 
ATOM     19  C   UNL A   1      31.367  28.287  24.486  1.00  0.00     0.079 A 
ATOM     20  Cl  UNL A   1      32.130  27.254  26.887  1.00  0.00    -0.082 Cl
ATOM     21  C   UNL A   1      30.940  28.139  23.161  1.00  0.00     0.064 A 
ATOM     22  Cl  UNL A   1      31.432  29.850  25.240  1.00  0.00    -0.081 Cl
ATOM     23  Cl  UNL A   1      30.446  29.494  22.206  1.00  0.00    -0.083 Cl
BRANCH  13  24
ATOM     24  C   UNL A   1      32.705  22.569  22.666  1.00  0.00     0.430 C 
ATOM     25  F   UNL A   1      33.047  23.156  21.490  1.00  0.00    -0.167 F 
ATOM     26  F   UNL A   1      33.814  22.536  23.439  1.00  0.00    -0.167 F 
ATOM     27  F   UNL A   1      32.406  21.281  22.365  1.00  0.00    -0.167 F 
ENDBRANCH  13  24
ENDBRANCH   9  11
ENDBRANCH   8   9
ENDBRANCH   7   8
ENDBRANCH   6   7
ENDBRANCH   5   6
ENDBRANCH   4   5
ENDBRANCH   3   4
ENDBRANCH   2   3
ENDBRANCH   1   2
BRANCH   1  28
ATOM     28  C   UNL A   1      41.324  21.303  26.197  1.00  0.00     0.188 C 
BRANCH  28  29
ATOM     29  O   UNL A   1      42.694  21.349  26.604  1.00  0.00    -0.376 OA
BRANCH  29  30
ATOM     30  C   UNL A   1      43.634  21.929  25.714  1.00  0.00     0.202 C 
BRANCH  30  31
ATOM     31  C   UNL A   1      44.191  23.280  26.215  1.00  0.00     0.261 C 
BRANCH  31  32
ATOM     32  O   UNL A   1      43.257  24.072  26.979  1.00  0.00    -0.460 OA
BRANCH  32  33
ATOM     33  C   UNL A   1      42.823  25.211  26.371  1.00  0.00     0.338 C 
ATOM     34  O   UNL A   1      42.770  25.411  25.178  1.00  0.00    -0.246 OA
BRANCH  33  35
ATOM     35  C   UNL A   1      42.267  26.158  27.386  1.00  0.00     0.060 A 
ATOM     36  C   UNL A   1      42.829  27.440  27.452  1.00  0.00     0.016 A 
ATOM     37  C   UNL A   1      41.232  25.817  28.265  1.00  0.00     0.016 A 
ATOM     38  C   UNL A   1      42.413  28.352  28.431  1.00  0.00     0.010 A 
ATOM     39  C   UNL A   1      40.818  26.732  29.251  1.00  0.00     0.010 A 
ATOM     40  C   UNL A   1      41.440  27.989  29.372  1.00  0.00    -0.014 A 
BRANCH  40  41
ATOM     41  C   UNL A   1      41.261  28.826  30.596  1.00  0.00     0.031 A 
ATOM     42  C   UNL A   1      40.150  29.850  30.604  1.00  0.00     0.074 A 
ATOM     43  C   UNL A   1      42.000  28.647  31.710  1.00  0.00     0.049 A 
ATOM     44  N   UNL A   1      39.788  30.685  31.546  1.00  0.00    -0.248 NA
ATOM     45  C   UNL A   1      39.335  29.941  29.380  1.00  0.00     0.031 C 
ATOM     46  C   UNL A   1      43.074  27.668  31.869  1.00  0.00     0.029 A 
ATOM     47  N   UNL A   1      41.954  29.289  32.928  1.00  0.00    -0.354 N 
ATOM     48  C   UNL A   1      38.706  31.392  31.032  1.00  0.00     0.074 A 
ATOM     49  C   UNL A   1      38.495  30.920  29.682  1.00  0.00     0.031 C 
ATOM     50  C   UNL A   1      43.588  27.778  33.108  1.00  0.00     0.029 A 
ATOM     51  C   UNL A   1      42.900  28.852  33.827  1.00  0.00     0.049 A 
ATOM     52  H   UNL A   1      41.301  29.995  33.137  1.00  0.00     0.167 HD
ATOM     53  C   UNL A   1      37.942  32.338  31.631  1.00  0.00     0.037 A 
ATOM     54  C   UNL A   1      43.190  29.277  35.077  1.00  0.00     0.037 A 
ATOM     55  C   UNL A   1      38.141  32.813  32.975  1.00  0.00     0.049 A 
ATOM     56  C   UNL A   1      42.370  30.389  35.695  1.00  0.00     0.074 A 
ATOM     57  C   UNL A   1      37.416  33.770  33.665  1.00  0.00     0.029 A 
ATOM     58  N   UNL A   1      39.137  32.373  33.835  1.00  0.00    -0.354 N 
ATOM     59  N   UNL A   1      41.342  31.036  35.199  1.00  0.00    -0.248 NA
ATOM     60  C   UNL A   1      42.751  30.824  37.049  1.00  0.00     0.031 C 
ATOM     61  C   UNL A   1      38.006  33.947  34.920  1.00  0.00     0.029 A 
ATOM     62  C   UNL A   1      39.059  33.057  35.038  1.00  0.00     0.049 A 
ATOM     63  H   UNL A   1      39.799  31.677  33.621  1.00  0.00     0.167 HD
ATOM     64  C   UNL A   1      40.939  31.931  36.189  1.00  0.00     0.074 A 
ATOM     65  C   UNL A   1      41.818  31.726  37.319  1.00  0.00     0.031 C 
ATOM     66  C   UNL A   1      39.934  32.843  36.163  1.00  0.00     0.037 A 
BRANCH  53  67
ATOM     67  C   UNL A   1      36.819  32.941  30.831  1.00  0.00     0.058 A 
ATOM     68  C   UNL A   1      37.044  33.959  29.889  1.00  0.00     0.135 A 
ATOM     69  C   UNL A   1      35.508  32.451  30.962  1.00  0.00     0.135 A 
ATOM     70  F   UNL A   1      38.272  34.479  29.738  1.00  0.00    -0.206 F 
ATOM     71  C   UNL A   1      36.010  34.477  29.117  1.00  0.00     0.059 A 
ATOM     72  C   UNL A   1      34.464  32.935  30.180  1.00  0.00     0.059 A 
ATOM     73  F   UNL A   1      35.235  31.483  31.851  1.00  0.00    -0.206 F 
ATOM     74  C   UNL A   1      34.724  33.953  29.264  1.00  0.00     0.060 A 
BRANCH  74  75
ATOM     75  S   UNL A   1      33.403  34.611  28.225  1.00  0.00     0.124 S 
ATOM     76  O   UNL A   1      32.682  35.459  29.169  1.00  0.00    -0.237 OA
ATOM     77  O   UNL A   1      34.147  35.311  27.183  1.00  0.00    -0.237 OA
ATOM     78  O   UNL A   1      32.688  33.416  27.785  1.00  0.00    -0.744 OA
ENDBRANCH  74  75
ENDBRANCH  53  67
BRANCH  54  79
ATOM     79  C   UNL A   1      44.330  28.684  35.836  1.00  0.00     0.058 A 
ATOM     80  C   UNL A   1      44.141  27.628  36.742  1.00  0.00     0.135 A 
ATOM     81  C   UNL A   1      45.628  29.206  35.714  1.00  0.00     0.135 A 
ATOM     82  F   UNL A   1      42.918  27.104  36.916  1.00  0.00    -0.206 F 
ATOM     83  C   UNL A   1      45.187  27.131  37.517  1.00  0.00     0.059 A 
ATOM     84  C   UNL A   1      46.696  28.705  36.453  1.00  0.00     0.059 A 
ATOM     85  F   UNL A   1      45.870  30.215  34.862  1.00  0.00    -0.206 F 
ATOM     86  C   UNL A   1      46.462  27.678  37.366  1.00  0.00     0.060 A 
BRANCH  86  87
ATOM     87  S   UNL A   1      47.820  27.013  38.354  1.00  0.00     0.124 S 
ATOM     88  O   UNL A   1      47.984  25.685  37.775  1.00  0.00    -0.237 OA
ATOM     89  O   UNL A   1      48.892  27.966  38.083  1.00  0.00    -0.237 OA
ATOM     90  O   UNL A   1      47.292  27.048  39.715  1.00  0.00    -0.744 OA
ENDBRANCH  86  87
ENDBRANCH  54  79
BRANCH  66  91
ATOM     91  C   UNL A   1      39.704  33.666  37.405  1.00  0.00     0.058 A 
ATOM     92  C   UNL A   1      40.348  34.897  37.610  1.00  0.00     0.135 A 
ATOM     93  C   UNL A   1      38.801  33.234  38.390  1.00  0.00     0.135 A 
ATOM     94  F   UNL A   1      41.221  35.363  36.701  1.00  0.00    -0.206 F 
ATOM     95  C   UNL A   1      40.140  35.647  38.764  1.00  0.00     0.059 A 
ATOM     96  C   UNL A   1      38.550  33.983  39.537  1.00  0.00     0.059 A 
ATOM     97  F   UNL A   1      38.142  32.074  38.241  1.00  0.00    -0.206 F 
ATOM     98  C   UNL A   1      39.241  35.180  39.725  1.00  0.00     0.060 A 
BRANCH  98  99
ATOM     99  S   UNL A   1      38.979  36.162  41.217  1.00  0.00     0.124 S 
ATOM    100  O   UNL A   1      37.761  35.564  41.752  1.00  0.00    -0.237 OA
ATOM    101  O   UNL A   1      40.199  35.905  41.978  1.00  0.00    -0.237 OA
ATOM    102  O   UNL A   1      38.839  37.523  40.709  1.00  0.00    -0.744 OA
ENDBRANCH  98  99
ENDBRANCH  66  91
ENDBRANCH  40  41
ENDBRANCH  33  35
ENDBRANCH  32  33
ENDBRANCH  31  32
ENDBRANCH  30  31
ENDBRANCH  29  30
ENDBRANCH  28  29
ENDBRANCH   1  28
TORSDOF 24
ENDMDL
