MODEL 1
REMARK VINA RESULT:      -9.2      0.000      0.000
REMARK SMILES O=C(CCc1ccc(S(=O)(=O)Nc2cccc(I)c2)cc1)OCCOCCOCCOCCOC(=O)c1ccc(-c2c3nc(c(-c4c(F)cc(S(=O)(=O)[O-])cc4F)c4ccc([nH]4)c(-c4c(F)cc(S(=O)(=O)[O-])cc4F)c4nc(c(-c5c(F)cc(S(=O)(=O)[O-])cc5F)c5ccc2[nH]5)C=C4)C=C3)cc1
REMARK SMILES IDX 27 1 26 2 25 3 24 4 23 5 22 6 2 7 1 8 3 9 4 10 5 11 6 12
REMARK SMILES IDX 21 13 7 14 20 15 8 16 9 17 10 18 11 19 12 20 13 22 14 23
REMARK SMILES IDX 19 24 15 25 17 26 16 27 18 28 28 29 29 30 30 31 31 32 32 33
REMARK SMILES IDX 33 34 34 35 35 36 36 37 37 38 38 39 102 40 39 41 101 42
REMARK SMILES IDX 40 43 41 44 42 45 95 46 43 47 100 48 94 49 96 50 44 51 99 52
REMARK SMILES IDX 93 53 92 54 45 56 79 57 58 58 78 59 59 60 62 61 77 62 97 63
REMARK SMILES IDX 60 64 61 65 76 67 98 68 63 69 46 70 47 71 56 72 48 73 49 74
REMARK SMILES IDX 55 75 57 76 50 77 51 78 52 79 53 80 54 81 80 82 81 83 90 84
REMARK SMILES IDX 82 85 83 86 89 87 91 88 84 89 85 90 86 91 87 92 88 93 64 94
REMARK SMILES IDX 65 95 74 96 66 97 67 98 73 99 75 100 68 101 69 102 70 103
REMARK SMILES IDX 71 104 72 105
REMARK H PARENT 12 21 96 55 62 66
REMARK Flexibility Score: inf
ROOT
ATOM      1  C   UNL A   1      33.227  22.751  21.888  1.00  0.00     0.188 C 
ENDROOT
BRANCH   1   2
ATOM      2  C   UNL A   1      32.026  22.292  22.718  1.00  0.00     0.188 C 
BRANCH   2   3
ATOM      3  O   UNL A   1      32.298  21.536  23.894  1.00  0.00    -0.376 OA
BRANCH   3   4
ATOM      4  C   UNL A   1      32.292  20.115  23.775  1.00  0.00     0.202 C 
BRANCH   4   5
ATOM      5  C   UNL A   1      33.000  19.325  24.866  1.00  0.00     0.261 C 
BRANCH   5   6
ATOM      6  O   UNL A   1      34.362  18.930  24.595  1.00  0.00    -0.463 OA
BRANCH   6   7
ATOM      7  C   UNL A   1      35.462  19.692  24.743  1.00  0.00     0.306 C 
ATOM      8  O   UNL A   1      36.564  19.158  24.873  1.00  0.00    -0.252 OA
BRANCH   7   9
ATOM      9  C   UNL A   1      35.322  21.182  24.911  1.00  0.00     0.127 C 
BRANCH   9  10
ATOM     10  C   UNL A   1      35.273  21.638  26.369  1.00  0.00     0.047 C 
BRANCH  10  11
ATOM     11  C   UNL A   1      34.237  22.700  26.641  1.00  0.00    -0.047 A 
ATOM     12  C   UNL A   1      33.080  22.424  27.382  1.00  0.00     0.005 A 
ATOM     13  C   UNL A   1      34.379  23.965  26.067  1.00  0.00     0.005 A 
ATOM     14  C   UNL A   1      32.002  23.314  27.361  1.00  0.00     0.022 A 
ATOM     15  C   UNL A   1      33.331  24.884  26.114  1.00  0.00     0.022 A 
ATOM     16  C   UNL A   1      32.102  24.520  26.658  1.00  0.00     0.087 A 
BRANCH  16  17
ATOM     17  S   UNL A   1      30.562  25.349  26.271  1.00  0.00     0.261 S 
ATOM     18  O   UNL A   1      29.524  24.467  26.762  1.00  0.00    -0.201 OA
ATOM     19  O   UNL A   1      30.702  26.695  26.787  1.00  0.00    -0.201 OA
BRANCH  17  20
ATOM     20  N   UNL A   1      30.401  25.517  24.615  1.00  0.00    -0.280 N 
ATOM     21  H   UNL A   1      30.983  24.969  24.040  1.00  0.00     0.180 HD
BRANCH  20  22
ATOM     22  C   UNL A   1      29.484  26.395  23.977  1.00  0.00     0.050 A 
ATOM     23  C   UNL A   1      28.125  26.146  24.203  1.00  0.00     0.027 A 
ATOM     24  C   UNL A   1      29.880  27.550  23.301  1.00  0.00     0.041 A 
ATOM     25  C   UNL A   1      27.170  27.106  23.868  1.00  0.00     0.003 A 
ATOM     26  C   UNL A   1      28.919  28.511  22.976  1.00  0.00     0.015 A 
ATOM     27  C   UNL A   1      27.571  28.304  23.277  1.00  0.00     0.015 A 
ATOM     28  I   UNL A   1      29.509  30.316  22.127  1.00  0.00    -0.044 I 
ENDBRANCH  20  22
ENDBRANCH  17  20
ENDBRANCH  16  17
ENDBRANCH  10  11
ENDBRANCH   9  10
ENDBRANCH   7   9
ENDBRANCH   6   7
ENDBRANCH   5   6
ENDBRANCH   4   5
ENDBRANCH   3   4
ENDBRANCH   2   3
ENDBRANCH   1   2
BRANCH   1  29
ATOM     29  O   UNL A   1      33.141  24.117  21.506  1.00  0.00    -0.377 OA
BRANCH  29  30
ATOM     30  C   UNL A   1      32.903  25.005  22.602  1.00  0.00     0.188 C 
BRANCH  30  31
ATOM     31  C   UNL A   1      33.139  26.508  22.336  1.00  0.00     0.188 C 
BRANCH  31  32
ATOM     32  O   UNL A   1      34.053  27.098  23.266  1.00  0.00    -0.376 OA
BRANCH  32  33
ATOM     33  C   UNL A   1      33.484  27.490  24.513  1.00  0.00     0.202 C 
BRANCH  33  34
ATOM     34  C   UNL A   1      33.545  29.008  24.727  1.00  0.00     0.261 C 
BRANCH  34  35
ATOM     35  O   UNL A   1      34.568  29.422  25.647  1.00  0.00    -0.460 OA
BRANCH  35  36
ATOM     36  C   UNL A   1      34.231  29.403  26.960  1.00  0.00     0.338 C 
ATOM     37  O   UNL A   1      33.140  29.138  27.419  1.00  0.00    -0.246 OA
BRANCH  36  38
ATOM     38  C   UNL A   1      35.473  29.527  27.766  1.00  0.00     0.060 A 
ATOM     39  C   UNL A   1      36.621  30.007  27.124  1.00  0.00     0.016 A 
ATOM     40  C   UNL A   1      35.511  29.202  29.127  1.00  0.00     0.016 A 
ATOM     41  C   UNL A   1      37.829  30.080  27.818  1.00  0.00     0.010 A 
ATOM     42  C   UNL A   1      36.723  29.270  29.821  1.00  0.00     0.010 A 
ATOM     43  C   UNL A   1      37.898  29.647  29.149  1.00  0.00    -0.014 A 
BRANCH  43  44
ATOM     44  C   UNL A   1      39.223  29.280  29.706  1.00  0.00     0.031 A 
ATOM     45  C   UNL A   1      39.691  30.045  30.919  1.00  0.00     0.074 A 
ATOM     46  C   UNL A   1      39.965  28.277  29.206  1.00  0.00     0.049 A 
ATOM     47  N   UNL A   1      40.765  29.880  31.646  1.00  0.00    -0.248 NA
ATOM     48  C   UNL A   1      38.823  31.147  31.373  1.00  0.00     0.031 C 
ATOM     49  C   UNL A   1      39.614  27.449  28.055  1.00  0.00     0.029 A 
ATOM     50  N   UNL A   1      41.176  27.782  29.621  1.00  0.00    -0.354 N 
ATOM     51  C   UNL A   1      40.695  30.847  32.643  1.00  0.00     0.074 A 
ATOM     52  C   UNL A   1      39.498  31.622  32.406  1.00  0.00     0.031 C 
ATOM     53  C   UNL A   1      40.591  26.545  27.855  1.00  0.00     0.029 A 
ATOM     54  C   UNL A   1      41.638  26.735  28.860  1.00  0.00     0.049 A 
ATOM     55  H   UNL A   1      41.670  28.145  30.392  1.00  0.00     0.167 HD
ATOM     56  C   UNL A   1      41.540  31.065  33.676  1.00  0.00     0.037 A 
ATOM     57  C   UNL A   1      42.773  26.015  28.971  1.00  0.00     0.037 A 
ATOM     58  C   UNL A   1      42.733  30.302  33.911  1.00  0.00     0.049 A 
ATOM     59  C   UNL A   1      43.727  26.307  30.103  1.00  0.00     0.074 A 
ATOM     60  C   UNL A   1      43.652  30.435  34.935  1.00  0.00     0.029 A 
ATOM     61  N   UNL A   1      43.177  29.268  33.101  1.00  0.00    -0.354 N 
ATOM     62  N   UNL A   1      43.625  27.193  31.065  1.00  0.00    -0.248 NA
ATOM     63  C   UNL A   1      44.948  25.489  30.171  1.00  0.00     0.031 C 
ATOM     64  C   UNL A   1      44.675  29.502  34.724  1.00  0.00     0.029 A 
ATOM     65  C   UNL A   1      44.367  28.763  33.591  1.00  0.00     0.049 A 
ATOM     66  H   UNL A   1      42.712  28.941  32.296  1.00  0.00     0.167 HD
ATOM     67  C   UNL A   1      44.745  27.014  31.873  1.00  0.00     0.074 A 
ATOM     68  C   UNL A   1      45.512  25.934  31.286  1.00  0.00     0.031 C 
ATOM     69  C   UNL A   1      45.106  27.677  33.000  1.00  0.00     0.037 A 
BRANCH  56  70
ATOM     70  C   UNL A   1      41.203  32.193  34.608  1.00  0.00     0.058 A 
ATOM     71  C   UNL A   1      40.419  31.990  35.757  1.00  0.00     0.135 A 
ATOM     72  C   UNL A   1      41.653  33.494  34.342  1.00  0.00     0.135 A 
ATOM     73  F   UNL A   1      39.939  30.768  36.041  1.00  0.00    -0.206 F 
ATOM     74  C   UNL A   1      40.068  33.044  36.591  1.00  0.00     0.059 A 
ATOM     75  C   UNL A   1      41.335  34.561  35.176  1.00  0.00     0.059 A 
ATOM     76  F   UNL A   1      42.395  33.742  33.251  1.00  0.00    -0.206 F 
ATOM     77  C   UNL A   1      40.527  34.328  36.291  1.00  0.00     0.060 A 
BRANCH  77  78
ATOM     78  S   UNL A   1      40.055  35.693  37.373  1.00  0.00     0.124 S 
ATOM     79  O   UNL A   1      39.636  36.700  36.403  1.00  0.00    -0.237 OA
ATOM     80  O   UNL A   1      38.987  35.103  38.174  1.00  0.00    -0.237 OA
ATOM     81  O   UNL A   1      41.285  35.993  38.098  1.00  0.00    -0.744 OA
ENDBRANCH  77  78
ENDBRANCH  56  70
BRANCH  57  82
ATOM     82  C   UNL A   1      43.066  24.924  28.001  1.00  0.00     0.058 A 
ATOM     83  C   UNL A   1      42.725  23.594  28.283  1.00  0.00     0.135 A 
ATOM     84  C   UNL A   1      43.708  25.189  26.782  1.00  0.00     0.135 A 
ATOM     85  F   UNL A   1      42.124  23.287  29.443  1.00  0.00    -0.206 F 
ATOM     86  C   UNL A   1      43.020  22.560  27.399  1.00  0.00     0.059 A 
ATOM     87  C   UNL A   1      43.996  24.176  25.871  1.00  0.00     0.059 A 
ATOM     88  F   UNL A   1      44.055  26.445  26.463  1.00  0.00    -0.206 F 
ATOM     89  C   UNL A   1      43.654  22.863  26.192  1.00  0.00     0.060 A 
BRANCH  89  90
ATOM     90  S   UNL A   1      43.987  21.520  25.030  1.00  0.00     0.124 S 
ATOM     91  O   UNL A   1      43.904  22.210  23.748  1.00  0.00    -0.237 OA
ATOM     92  O   UNL A   1      45.321  21.086  25.435  1.00  0.00    -0.237 OA
ATOM     93  O   UNL A   1      42.918  20.565  25.304  1.00  0.00    -0.744 OA
ENDBRANCH  89  90
ENDBRANCH  57  82
BRANCH  69  94
ATOM     94  C   UNL A   1      46.355  27.225  33.703  1.00  0.00     0.058 A 
ATOM     95  C   UNL A   1      46.330  26.227  34.689  1.00  0.00     0.135 A 
ATOM     96  C   UNL A   1      47.603  27.764  33.345  1.00  0.00     0.135 A 
ATOM     97  F   UNL A   1      45.165  25.680  35.067  1.00  0.00    -0.206 F 
ATOM     98  C   UNL A   1      47.496  25.796  35.315  1.00  0.00     0.059 A 
ATOM     99  C   UNL A   1      48.782  27.332  33.941  1.00  0.00     0.059 A 
ATOM    100  F   UNL A   1      47.683  28.711  32.396  1.00  0.00    -0.206 F 
ATOM    101  C   UNL A   1      48.718  26.358  34.937  1.00  0.00     0.060 A 
BRANCH 101 102
ATOM    102  S   UNL A   1      50.228  25.779  35.739  1.00  0.00     0.124 S 
ATOM    103  O   UNL A   1      50.040  26.266  37.102  1.00  0.00    -0.237 OA
ATOM    104  O   UNL A   1      50.144  24.332  35.567  1.00  0.00    -0.237 OA
ATOM    105  O   UNL A   1      51.287  26.434  34.979  1.00  0.00    -0.744 OA
ENDBRANCH 101 102
ENDBRANCH  69  94
ENDBRANCH  43  44
ENDBRANCH  36  38
ENDBRANCH  35  36
ENDBRANCH  34  35
ENDBRANCH  33  34
ENDBRANCH  32  33
ENDBRANCH  31  32
ENDBRANCH  30  31
ENDBRANCH  29  30
ENDBRANCH   1  29
TORSDOF 28
ENDMDL
MODEL 2
REMARK VINA RESULT:      -7.6      4.403      9.090
REMARK SMILES O=C(CCc1ccc(S(=O)(=O)Nc2cccc(I)c2)cc1)OCCOCCOCCOCCOC(=O)c1ccc(-c2c3nc(c(-c4c(F)cc(S(=O)(=O)[O-])cc4F)c4ccc([nH]4)c(-c4c(F)cc(S(=O)(=O)[O-])cc4F)c4nc(c(-c5c(F)cc(S(=O)(=O)[O-])cc5F)c5ccc2[nH]5)C=C4)C=C3)cc1
REMARK SMILES IDX 27 1 26 2 25 3 24 4 23 5 22 6 2 7 1 8 3 9 4 10 5 11 6 12
REMARK SMILES IDX 21 13 7 14 20 15 8 16 9 17 10 18 11 19 12 20 13 22 14 23
REMARK SMILES IDX 19 24 15 25 17 26 16 27 18 28 28 29 29 30 30 31 31 32 32 33
REMARK SMILES IDX 33 34 34 35 35 36 36 37 37 38 38 39 102 40 39 41 101 42
REMARK SMILES IDX 40 43 41 44 42 45 95 46 43 47 100 48 94 49 96 50 44 51 99 52
REMARK SMILES IDX 93 53 92 54 45 56 79 57 58 58 78 59 59 60 62 61 77 62 97 63
REMARK SMILES IDX 60 64 61 65 76 67 98 68 63 69 46 70 47 71 56 72 48 73 49 74
REMARK SMILES IDX 55 75 57 76 50 77 51 78 52 79 53 80 54 81 80 82 81 83 90 84
REMARK SMILES IDX 82 85 83 86 89 87 91 88 84 89 85 90 86 91 87 92 88 93 64 94
REMARK SMILES IDX 65 95 74 96 66 97 67 98 73 99 75 100 68 101 69 102 70 103
REMARK SMILES IDX 71 104 72 105
REMARK H PARENT 12 21 96 55 62 66
REMARK Flexibility Score: inf
ROOT
ATOM      1  C   UNL A   1      32.920  22.155  20.858  1.00  0.00     0.188 C 
ENDROOT
BRANCH   1   2
ATOM      2  C   UNL A   1      31.791  21.516  21.672  1.00  0.00     0.188 C 
BRANCH   2   3
ATOM      3  O   UNL A   1      32.097  21.105  23.000  1.00  0.00    -0.376 OA
BRANCH   3   4
ATOM      4  C   UNL A   1      32.215  19.705  23.242  1.00  0.00     0.202 C 
BRANCH   4   5
ATOM      5  C   UNL A   1      33.491  19.221  23.916  1.00  0.00     0.261 C 
BRANCH   5   6
ATOM      6  O   UNL A   1      34.583  20.164  23.978  1.00  0.00    -0.463 OA
BRANCH   6   7
ATOM      7  C   UNL A   1      35.412  20.363  25.020  1.00  0.00     0.306 C 
ATOM      8  O   UNL A   1      36.527  19.840  25.023  1.00  0.00    -0.252 OA
BRANCH   7   9
ATOM      9  C   UNL A   1      34.915  21.086  26.244  1.00  0.00     0.127 C 
BRANCH   9  10
ATOM     10  C   UNL A   1      33.452  20.795  26.582  1.00  0.00     0.047 C 
BRANCH  10  11
ATOM     11  C   UNL A   1      32.579  22.024  26.618  1.00  0.00    -0.047 A 
ATOM     12  C   UNL A   1      31.424  22.127  25.832  1.00  0.00     0.005 A 
ATOM     13  C   UNL A   1      32.973  23.127  27.378  1.00  0.00     0.005 A 
ATOM     14  C   UNL A   1      30.809  23.369  25.644  1.00  0.00     0.022 A 
ATOM     15  C   UNL A   1      32.310  24.347  27.250  1.00  0.00     0.022 A 
ATOM     16  C   UNL A   1      31.304  24.502  26.300  1.00  0.00     0.087 A 
BRANCH  16  17
ATOM     17  S   UNL A   1      30.796  26.090  25.644  1.00  0.00     0.261 S 
ATOM     18  O   UNL A   1      29.912  25.778  24.539  1.00  0.00    -0.201 OA
ATOM     19  O   UNL A   1      30.325  26.852  26.781  1.00  0.00    -0.201 OA
BRANCH  17  20
ATOM     20  N   UNL A   1      32.125  26.923  25.063  1.00  0.00    -0.280 N 
ATOM     21  H   UNL A   1      32.699  26.468  24.405  1.00  0.00     0.180 HD
BRANCH  20  22
ATOM     22  C   UNL A   1      32.485  28.241  25.451  1.00  0.00     0.050 A 
ATOM     23  C   UNL A   1      31.524  29.236  25.241  1.00  0.00     0.027 A 
ATOM     24  C   UNL A   1      33.650  28.534  26.161  1.00  0.00     0.041 A 
ATOM     25  C   UNL A   1      31.663  30.486  25.845  1.00  0.00     0.003 A 
ATOM     26  C   UNL A   1      33.780  29.786  26.769  1.00  0.00     0.015 A 
ATOM     27  C   UNL A   1      32.781  30.753  26.633  1.00  0.00     0.015 A 
ATOM     28  I   UNL A   1      35.426  30.182  27.977  1.00  0.00    -0.044 I 
ENDBRANCH  20  22
ENDBRANCH  17  20
ENDBRANCH  16  17
ENDBRANCH  10  11
ENDBRANCH   9  10
ENDBRANCH   7   9
ENDBRANCH   6   7
ENDBRANCH   5   6
ENDBRANCH   4   5
ENDBRANCH   3   4
ENDBRANCH   2   3
ENDBRANCH   1   2
BRANCH   1  29
ATOM     29  O   UNL A   1      33.011  23.559  21.055  1.00  0.00    -0.377 OA
BRANCH  29  30
ATOM     30  C   UNL A   1      32.588  23.985  22.354  1.00  0.00     0.188 C 
BRANCH  30  31
ATOM     31  C   UNL A   1      33.629  24.746  23.203  1.00  0.00     0.188 C 
BRANCH  31  32
ATOM     32  O   UNL A   1      34.308  23.898  24.136  1.00  0.00    -0.376 OA
BRANCH  32  33
ATOM     33  C   UNL A   1      35.275  24.549  24.958  1.00  0.00     0.202 C 
BRANCH  33  34
ATOM     34  C   UNL A   1      36.613  23.800  24.985  1.00  0.00     0.261 C 
BRANCH  34  35
ATOM     35  O   UNL A   1      37.230  23.764  26.282  1.00  0.00    -0.460 OA
BRANCH  35  36
ATOM     36  C   UNL A   1      38.487  23.256  26.329  1.00  0.00     0.338 C 
ATOM     37  O   UNL A   1      38.875  22.246  25.783  1.00  0.00    -0.246 OA
BRANCH  36  38
ATOM     38  C   UNL A   1      39.376  24.261  26.966  1.00  0.00     0.060 A 
ATOM     39  C   UNL A   1      38.981  24.793  28.199  1.00  0.00     0.016 A 
ATOM     40  C   UNL A   1      40.584  24.661  26.381  1.00  0.00     0.016 A 
ATOM     41  C   UNL A   1      39.747  25.789  28.807  1.00  0.00     0.010 A 
ATOM     42  C   UNL A   1      41.349  25.662  26.987  1.00  0.00     0.010 A 
ATOM     43  C   UNL A   1      40.896  26.274  28.169  1.00  0.00    -0.014 A 
BRANCH  43  44
ATOM     44  C   UNL A   1      41.412  27.609  28.558  1.00  0.00     0.031 A 
ATOM     45  C   UNL A   1      42.882  27.866  28.338  1.00  0.00     0.074 A 
ATOM     46  C   UNL A   1      40.614  28.582  29.032  1.00  0.00     0.049 A 
ATOM     47  N   UNL A   1      43.574  28.960  28.519  1.00  0.00    -0.248 NA
ATOM     48  C   UNL A   1      43.679  26.728  27.845  1.00  0.00     0.031 C 
ATOM     49  C   UNL A   1      39.177  28.468  29.267  1.00  0.00     0.029 A 
ATOM     50  N   UNL A   1      40.914  29.872  29.395  1.00  0.00    -0.354 N 
ATOM     51  C   UNL A   1      44.878  28.644  28.154  1.00  0.00     0.074 A 
ATOM     52  C   UNL A   1      44.893  27.248  27.782  1.00  0.00     0.031 C 
ATOM     53  C   UNL A   1      38.717  29.643  29.735  1.00  0.00     0.029 A 
ATOM     54  C   UNL A   1      39.829  30.590  29.839  1.00  0.00     0.049 A 
ATOM     55  H   UNL A   1      41.823  30.248  29.343  1.00  0.00     0.167 HD
ATOM     56  C   UNL A   1      45.967  29.446  28.114  1.00  0.00     0.037 A 
ATOM     57  C   UNL A   1      39.749  31.864  30.272  1.00  0.00     0.037 A 
ATOM     58  C   UNL A   1      45.957  30.831  28.490  1.00  0.00     0.049 A 
ATOM     59  C   UNL A   1      40.988  32.728  30.265  1.00  0.00     0.074 A 
ATOM     60  C   UNL A   1      47.004  31.734  28.475  1.00  0.00     0.029 A 
ATOM     61  N   UNL A   1      44.844  31.511  28.958  1.00  0.00    -0.354 N 
ATOM     62  N   UNL A   1      42.204  32.429  29.873  1.00  0.00    -0.248 NA
ATOM     63  C   UNL A   1      40.838  34.108  30.750  1.00  0.00     0.031 C 
ATOM     64  C   UNL A   1      46.531  32.955  28.972  1.00  0.00     0.029 A 
ATOM     65  C   UNL A   1      45.180  32.819  29.254  1.00  0.00     0.049 A 
ATOM     66  H   UNL A   1      43.946  31.120  29.063  1.00  0.00     0.167 HD
ATOM     67  C   UNL A   1      42.953  33.592  30.027  1.00  0.00     0.074 A 
ATOM     68  C   UNL A   1      42.052  34.601  30.548  1.00  0.00     0.031 C 
ATOM     69  C   UNL A   1      44.264  33.811  29.756  1.00  0.00     0.037 A 
BRANCH  56  70
ATOM     70  C   UNL A   1      47.257  28.821  27.669  1.00  0.00     0.058 A 
ATOM     71  C   UNL A   1      47.582  28.691  26.308  1.00  0.00     0.135 A 
ATOM     72  C   UNL A   1      48.173  28.333  28.612  1.00  0.00     0.135 A 
ATOM     73  F   UNL A   1      46.726  29.117  25.365  1.00  0.00    -0.206 F 
ATOM     74  C   UNL A   1      48.755  28.069  25.898  1.00  0.00     0.059 A 
ATOM     75  C   UNL A   1      49.366  27.728  28.225  1.00  0.00     0.059 A 
ATOM     76  F   UNL A   1      47.905  28.423  29.924  1.00  0.00    -0.206 F 
ATOM     77  C   UNL A   1      49.640  27.586  26.865  1.00  0.00     0.060 A 
BRANCH  77  78
ATOM     78  S   UNL A   1      51.154  26.768  26.322  1.00  0.00     0.124 S 
ATOM     79  O   UNL A   1      52.175  27.604  26.947  1.00  0.00    -0.237 OA
ATOM     80  O   UNL A   1      51.004  25.428  26.880  1.00  0.00    -0.237 OA
ATOM     81  O   UNL A   1      51.080  26.849  24.867  1.00  0.00    -0.744 OA
ENDBRANCH  77  78
ENDBRANCH  56  70
BRANCH  57  82
ATOM     82  C   UNL A   1      38.445  32.421  30.725  1.00  0.00     0.058 A 
ATOM     83  C   UNL A   1      37.562  33.025  29.819  1.00  0.00     0.135 A 
ATOM     84  C   UNL A   1      38.066  32.376  32.075  1.00  0.00     0.135 A 
ATOM     85  F   UNL A   1      37.887  33.109  28.520  1.00  0.00    -0.206 F 
ATOM     86  C   UNL A   1      36.353  33.577  30.234  1.00  0.00     0.059 A 
ATOM     87  C   UNL A   1      36.853  32.902  32.512  1.00  0.00     0.059 A 
ATOM     88  F   UNL A   1      38.874  31.808  32.983  1.00  0.00    -0.206 F 
ATOM     89  C   UNL A   1      36.007  33.507  31.585  1.00  0.00     0.060 A 
BRANCH  89  90
ATOM     90  S   UNL A   1      34.413  34.182  32.104  1.00  0.00     0.124 S 
ATOM     91  O   UNL A   1      33.821  33.044  32.799  1.00  0.00    -0.237 OA
ATOM     92  O   UNL A   1      34.813  35.306  32.945  1.00  0.00    -0.237 OA
ATOM     93  O   UNL A   1      33.777  34.552  30.843  1.00  0.00    -0.744 OA
ENDBRANCH  89  90
ENDBRANCH  57  82
BRANCH  69  94
ATOM     94  C   UNL A   1      44.796  35.201  29.970  1.00  0.00     0.058 A 
ATOM     95  C   UNL A   1      45.336  35.605  31.199  1.00  0.00     0.135 A 
ATOM     96  C   UNL A   1      44.813  36.122  28.909  1.00  0.00     0.135 A 
ATOM     97  F   UNL A   1      45.344  34.763  32.244  1.00  0.00    -0.206 F 
ATOM     98  C   UNL A   1      45.851  36.886  31.380  1.00  0.00     0.059 A 
ATOM     99  C   UNL A   1      45.344  37.399  29.060  1.00  0.00     0.059 A 
ATOM    100  F   UNL A   1      44.323  35.779  27.707  1.00  0.00    -0.206 F 
ATOM    101  C   UNL A   1      45.847  37.777  30.304  1.00  0.00     0.060 A 
BRANCH 101 102
ATOM    102  S   UNL A   1      46.536  39.430  30.540  1.00  0.00     0.124 S 
ATOM    103  O   UNL A   1      45.973  39.799  31.835  1.00  0.00    -0.237 OA
ATOM    104  O   UNL A   1      47.974  39.179  30.523  1.00  0.00    -0.237 OA
ATOM    105  O   UNL A   1      46.023  40.176  29.395  1.00  0.00    -0.744 OA
ENDBRANCH 101 102
ENDBRANCH  69  94
ENDBRANCH  43  44
ENDBRANCH  36  38
ENDBRANCH  35  36
ENDBRANCH  34  35
ENDBRANCH  33  34
ENDBRANCH  32  33
ENDBRANCH  31  32
ENDBRANCH  30  31
ENDBRANCH  29  30
ENDBRANCH   1  29
TORSDOF 28
ENDMDL
MODEL 3
REMARK VINA RESULT:      -7.3      6.602     13.396
REMARK SMILES O=C(CCc1ccc(S(=O)(=O)Nc2cccc(I)c2)cc1)OCCOCCOCCOCCOC(=O)c1ccc(-c2c3nc(c(-c4c(F)cc(S(=O)(=O)[O-])cc4F)c4ccc([nH]4)c(-c4c(F)cc(S(=O)(=O)[O-])cc4F)c4nc(c(-c5c(F)cc(S(=O)(=O)[O-])cc5F)c5ccc2[nH]5)C=C4)C=C3)cc1
REMARK SMILES IDX 27 1 26 2 25 3 24 4 23 5 22 6 2 7 1 8 3 9 4 10 5 11 6 12
REMARK SMILES IDX 21 13 7 14 20 15 8 16 9 17 10 18 11 19 12 20 13 22 14 23
REMARK SMILES IDX 19 24 15 25 17 26 16 27 18 28 28 29 29 30 30 31 31 32 32 33
REMARK SMILES IDX 33 34 34 35 35 36 36 37 37 38 38 39 102 40 39 41 101 42
REMARK SMILES IDX 40 43 41 44 42 45 95 46 43 47 100 48 94 49 96 50 44 51 99 52
REMARK SMILES IDX 93 53 92 54 45 56 79 57 58 58 78 59 59 60 62 61 77 62 97 63
REMARK SMILES IDX 60 64 61 65 76 67 98 68 63 69 46 70 47 71 56 72 48 73 49 74
REMARK SMILES IDX 55 75 57 76 50 77 51 78 52 79 53 80 54 81 80 82 81 83 90 84
REMARK SMILES IDX 82 85 83 86 89 87 91 88 84 89 85 90 86 91 87 92 88 93 64 94
REMARK SMILES IDX 65 95 74 96 66 97 67 98 73 99 75 100 68 101 69 102 70 103
REMARK SMILES IDX 71 104 72 105
REMARK H PARENT 12 21 96 55 62 66
REMARK Flexibility Score: inf
ROOT
ATOM      1  C   UNL A   1      44.264  33.796  42.723  1.00  0.00     0.188 C 
ENDROOT
BRANCH   1   2
ATOM      2  C   UNL A   1      42.991  33.116  42.214  1.00  0.00     0.188 C 
BRANCH   2   3
ATOM      3  O   UNL A   1      42.787  33.087  40.805  1.00  0.00    -0.376 OA
BRANCH   3   4
ATOM      4  C   UNL A   1      41.666  32.350  40.321  1.00  0.00     0.202 C 
BRANCH   4   5
ATOM      5  C   UNL A   1      40.312  33.044  40.356  1.00  0.00     0.261 C 
BRANCH   5   6
ATOM      6  O   UNL A   1      39.194  32.304  39.820  1.00  0.00    -0.463 OA
BRANCH   6   7
ATOM      7  C   UNL A   1      38.551  32.548  38.663  1.00  0.00     0.306 C 
ATOM      8  O   UNL A   1      37.360  32.254  38.551  1.00  0.00    -0.252 OA
BRANCH   7   9
ATOM      9  C   UNL A   1      39.325  33.029  37.464  1.00  0.00     0.127 C 
BRANCH   9  10
ATOM     10  C   UNL A   1      38.456  33.304  36.236  1.00  0.00     0.047 C 
BRANCH  10  11
ATOM     11  C   UNL A   1      38.809  32.459  35.038  1.00  0.00    -0.047 A 
ATOM     12  C   UNL A   1      39.625  32.949  34.010  1.00  0.00     0.005 A 
ATOM     13  C   UNL A   1      38.239  31.192  34.896  1.00  0.00     0.005 A 
ATOM     14  C   UNL A   1      39.687  32.282  32.782  1.00  0.00     0.022 A 
ATOM     15  C   UNL A   1      38.368  30.490  33.697  1.00  0.00     0.022 A 
ATOM     16  C   UNL A   1      38.991  31.081  32.601  1.00  0.00     0.087 A 
BRANCH  16  17
ATOM     17  S   UNL A   1      38.720  30.563  30.908  1.00  0.00     0.261 S 
ATOM     18  O   UNL A   1      37.320  30.195  30.845  1.00  0.00    -0.201 OA
ATOM     19  O   UNL A   1      39.248  31.628  30.082  1.00  0.00    -0.201 OA
BRANCH  17  20
ATOM     20  N   UNL A   1      39.655  29.220  30.562  1.00  0.00    -0.280 N 
ATOM     21  H   UNL A   1      40.177  28.824  31.297  1.00  0.00     0.180 HD
BRANCH  20  22
ATOM     22  C   UNL A   1      39.751  28.610  29.283  1.00  0.00     0.050 A 
ATOM     23  C   UNL A   1      40.411  29.344  28.291  1.00  0.00     0.027 A 
ATOM     24  C   UNL A   1      39.375  27.288  29.040  1.00  0.00     0.041 A 
ATOM     25  C   UNL A   1      40.809  28.725  27.106  1.00  0.00     0.003 A 
ATOM     26  C   UNL A   1      39.783  26.672  27.853  1.00  0.00     0.015 A 
ATOM     27  C   UNL A   1      40.517  27.378  26.898  1.00  0.00     0.015 A 
ATOM     28  I   UNL A   1      39.385  24.653  27.548  1.00  0.00    -0.044 I 
ENDBRANCH  20  22
ENDBRANCH  17  20
ENDBRANCH  16  17
ENDBRANCH  10  11
ENDBRANCH   9  10
ENDBRANCH   7   9
ENDBRANCH   6   7
ENDBRANCH   5   6
ENDBRANCH   4   5
ENDBRANCH   3   4
ENDBRANCH   2   3
ENDBRANCH   1   2
BRANCH   1  29
ATOM     29  O   UNL A   1      44.039  34.586  43.882  1.00  0.00    -0.377 OA
BRANCH  29  30
ATOM     30  C   UNL A   1      42.654  34.790  44.177  1.00  0.00     0.188 C 
BRANCH  30  31
ATOM     31  C   UNL A   1      42.023  36.099  43.655  1.00  0.00     0.188 C 
BRANCH  31  32
ATOM     32  O   UNL A   1      40.646  35.944  43.297  1.00  0.00    -0.376 OA
BRANCH  32  33
ATOM     33  C   UNL A   1      40.262  36.568  42.073  1.00  0.00     0.202 C 
BRANCH  33  34
ATOM     34  C   UNL A   1      41.423  36.652  41.074  1.00  0.00     0.261 C 
BRANCH  34  35
ATOM     35  O   UNL A   1      41.121  36.089  39.787  1.00  0.00    -0.460 OA
BRANCH  35  36
ATOM     36  C   UNL A   1      40.627  36.949  38.862  1.00  0.00     0.338 C 
ATOM     37  O   UNL A   1      39.902  37.896  39.076  1.00  0.00    -0.246 OA
BRANCH  36  38
ATOM     38  C   UNL A   1      41.307  36.687  37.568  1.00  0.00     0.060 A 
ATOM     39  C   UNL A   1      40.507  36.372  36.463  1.00  0.00     0.016 A 
ATOM     40  C   UNL A   1      42.698  36.769  37.429  1.00  0.00     0.016 A 
ATOM     41  C   UNL A   1      41.099  36.053  35.241  1.00  0.00     0.010 A 
ATOM     42  C   UNL A   1      43.292  36.445  36.206  1.00  0.00     0.010 A 
ATOM     43  C   UNL A   1      42.496  36.022  35.128  1.00  0.00    -0.014 A 
BRANCH  43  44
ATOM     44  C   UNL A   1      43.099  35.242  34.020  1.00  0.00     0.031 A 
ATOM     45  C   UNL A   1      43.239  33.754  34.227  1.00  0.00     0.074 A 
ATOM     46  C   UNL A   1      43.459  35.803  32.852  1.00  0.00     0.049 A 
ATOM     47  N   UNL A   1      43.661  32.833  33.402  1.00  0.00    -0.248 NA
ATOM     48  C   UNL A   1      42.847  33.239  35.552  1.00  0.00     0.031 C 
ATOM     49  C   UNL A   1      43.353  37.222  32.520  1.00  0.00     0.029 A 
ATOM     50  N   UNL A   1      43.984  35.229  31.721  1.00  0.00    -0.354 N 
ATOM     51  C   UNL A   1      43.575  31.634  34.102  1.00  0.00     0.074 A 
ATOM     52  C   UNL A   1      43.103  31.947  35.431  1.00  0.00     0.031 C 
ATOM     53  C   UNL A   1      43.800  37.408  31.263  1.00  0.00     0.029 A 
ATOM     54  C   UNL A   1      44.229  36.125  30.707  1.00  0.00     0.049 A 
ATOM     55  H   UNL A   1      44.170  34.265  31.644  1.00  0.00     0.167 HD
ATOM     56  C   UNL A   1      43.847  30.380  33.676  1.00  0.00     0.037 A 
ATOM     57  C   UNL A   1      44.735  35.923  29.474  1.00  0.00     0.037 A 
ATOM     58  C   UNL A   1      44.323  30.066  32.358  1.00  0.00     0.049 A 
ATOM     59  C   UNL A   1      45.079  34.520  29.035  1.00  0.00     0.074 A 
ATOM     60  C   UNL A   1      44.619  28.827  31.822  1.00  0.00     0.029 A 
ATOM     61  N   UNL A   1      44.582  31.005  31.372  1.00  0.00    -0.354 N 
ATOM     62  N   UNL A   1      44.949  33.391  29.691  1.00  0.00    -0.248 NA
ATOM     63  C   UNL A   1      45.629  34.363  27.680  1.00  0.00     0.031 C 
ATOM     64  C   UNL A   1      45.094  29.019  30.519  1.00  0.00     0.029 A 
ATOM     65  C   UNL A   1      45.052  30.376  30.233  1.00  0.00     0.049 A 
ATOM     66  H   UNL A   1      44.449  31.977  31.467  1.00  0.00     0.167 HD
ATOM     67  C   UNL A   1      45.362  32.389  28.817  1.00  0.00     0.074 A 
ATOM     68  C   UNL A   1      45.747  33.046  27.584  1.00  0.00     0.031 C 
ATOM     69  C   UNL A   1      45.414  31.047  29.012  1.00  0.00     0.037 A 
BRANCH  56  70
ATOM     70  C   UNL A   1      43.656  29.267  34.664  1.00  0.00     0.058 A 
ATOM     71  C   UNL A   1      44.732  28.740  35.398  1.00  0.00     0.135 A 
ATOM     72  C   UNL A   1      42.385  28.709  34.869  1.00  0.00     0.135 A 
ATOM     73  F   UNL A   1      45.973  29.220  35.217  1.00  0.00    -0.206 F 
ATOM     74  C   UNL A   1      44.560  27.677  36.277  1.00  0.00     0.059 A 
ATOM     75  C   UNL A   1      42.185  27.660  35.762  1.00  0.00     0.059 A 
ATOM     76  F   UNL A   1      41.326  29.168  34.184  1.00  0.00    -0.206 F 
ATOM     77  C   UNL A   1      43.283  27.140  36.450  1.00  0.00     0.060 A 
BRANCH  77  78
ATOM     78  S   UNL A   1      43.073  25.751  37.583  1.00  0.00     0.124 S 
ATOM     79  O   UNL A   1      41.673  25.403  37.357  1.00  0.00    -0.237 OA
ATOM     80  O   UNL A   1      44.052  24.790  37.086  1.00  0.00    -0.237 OA
ATOM     81  O   UNL A   1      43.373  26.330  38.888  1.00  0.00    -0.744 OA
ENDBRANCH  77  78
ENDBRANCH  56  70
BRANCH  57  82
ATOM     82  C   UNL A   1      44.926  37.070  28.546  1.00  0.00     0.058 A 
ATOM     83  C   UNL A   1      46.148  37.757  28.486  1.00  0.00     0.135 A 
ATOM     84  C   UNL A   1      43.887  37.514  27.714  1.00  0.00     0.135 A 
ATOM     85  F   UNL A   1      47.168  37.382  29.273  1.00  0.00    -0.206 F 
ATOM     86  C   UNL A   1      46.331  38.851  27.644  1.00  0.00     0.059 A 
ATOM     87  C   UNL A   1      44.051  38.592  26.849  1.00  0.00     0.059 A 
ATOM     88  F   UNL A   1      42.698  36.891  27.733  1.00  0.00    -0.206 F 
ATOM     89  C   UNL A   1      45.275  39.259  26.827  1.00  0.00     0.060 A 
BRANCH  89  90
ATOM     90  S   UNL A   1      45.540  40.648  25.702  1.00  0.00     0.124 S 
ATOM     91  O   UNL A   1      44.175  40.973  25.304  1.00  0.00    -0.237 OA
ATOM     92  O   UNL A   1      46.202  41.622  26.566  1.00  0.00    -0.237 OA
ATOM     93  O   UNL A   1      46.384  40.078  24.656  1.00  0.00    -0.744 OA
ENDBRANCH  89  90
ENDBRANCH  57  82
BRANCH  69  94
ATOM     94  C   UNL A   1      45.855  30.193  27.856  1.00  0.00     0.058 A 
ATOM     95  C   UNL A   1      44.962  29.786  26.854  1.00  0.00     0.135 A 
ATOM     96  C   UNL A   1      47.204  29.823  27.725  1.00  0.00     0.135 A 
ATOM     97  F   UNL A   1      43.663  30.114  26.932  1.00  0.00    -0.206 F 
ATOM     98  C   UNL A   1      45.385  29.018  25.773  1.00  0.00     0.059 A 
ATOM     99  C   UNL A   1      47.653  29.076  26.641  1.00  0.00     0.059 A 
ATOM    100  F   UNL A   1      48.102  30.201  28.649  1.00  0.00    -0.206 F 
ATOM    101  C   UNL A   1      46.733  28.664  25.678  1.00  0.00     0.060 A 
BRANCH 101 102
ATOM    102  S   UNL A   1      47.279  27.685  24.262  1.00  0.00     0.124 S 
ATOM    103  O   UNL A   1      46.569  26.429  24.485  1.00  0.00    -0.237 OA
ATOM    104  O   UNL A   1      46.816  28.481  23.129  1.00  0.00    -0.237 OA
ATOM    105  O   UNL A   1      48.727  27.627  24.429  1.00  0.00    -0.744 OA
ENDBRANCH 101 102
ENDBRANCH  69  94
ENDBRANCH  43  44
ENDBRANCH  36  38
ENDBRANCH  35  36
ENDBRANCH  34  35
ENDBRANCH  33  34
ENDBRANCH  32  33
ENDBRANCH  31  32
ENDBRANCH  30  31
ENDBRANCH  29  30
ENDBRANCH   1  29
TORSDOF 28
ENDMDL
