MODEL 1
REMARK VINA RESULT:      -8.2      0.000      0.000
REMARK SMILES CC1(C)COCCN1C(=O)N1CCO[C@@H](CC(=O)OCCOCCOCCOCCOC(=O)c2ccc(-c3c4nc(c(-c5c(F)cc(S(=O)(=O)[O-])cc5F)c5ccc([nH]5)c(-c5c(F)cc(S(=O)(=O)[O-])cc5F)c5nc(c(-c6c(F)cc(S(=O)(=O)[O-])cc6F)c6ccc3[nH]6)C=C5)C=C4)cc2)C1
REMARK SMILES IDX 25 1 24 2 23 3 22 4 21 5 20 6 19 7 17 8 18 9 16 10 15 11
REMARK SMILES IDX 11 12 12 13 100 14 13 15 14 16 9 17 10 18 8 19 1 20 2 21
REMARK SMILES IDX 3 22 4 23 5 24 7 25 6 26 26 27 27 28 28 29 29 30 30 31 31 32
REMARK SMILES IDX 32 33 33 34 34 35 35 36 99 37 36 38 98 39 37 40 38 41 39 42
REMARK SMILES IDX 92 43 40 44 97 45 91 46 93 47 41 48 96 49 90 50 89 51 42 53
REMARK SMILES IDX 76 54 55 55 75 56 56 57 59 58 74 59 94 60 57 61 58 62 73 64
REMARK SMILES IDX 95 65 60 66 43 67 44 68 53 69 45 70 46 71 52 72 54 73 47 74
REMARK SMILES IDX 48 75 49 76 50 77 51 78 77 79 78 80 87 81 79 82 80 83 86 84
REMARK SMILES IDX 88 85 81 86 82 87 83 88 84 89 85 90 61 91 62 92 71 93 63 94
REMARK SMILES IDX 64 95 70 96 72 97 65 98 66 99 67 100 68 101 69 102
REMARK H PARENT 93 52 59 63
REMARK Flexibility Score: inf
ROOT
ATOM      1  O   UNL A   1      41.937  20.968  27.146  1.00  0.00    -0.377 OA
ENDROOT
BRANCH   1   2
ATOM      2  C   UNL A   1      40.788  21.618  27.667  1.00  0.00     0.188 C 
BRANCH   2   3
ATOM      3  C   UNL A   1      40.201  22.852  26.955  1.00  0.00     0.188 C 
BRANCH   3   4
ATOM      4  O   UNL A   1      38.912  22.703  26.413  1.00  0.00    -0.376 OA
BRANCH   4   5
ATOM      5  C   UNL A   1      38.566  21.534  25.696  1.00  0.00     0.202 C 
BRANCH   5   6
ATOM      6  C   UNL A   1      37.383  21.443  24.726  1.00  0.00     0.261 C 
BRANCH   6   7
ATOM      7  O   UNL A   1      37.029  22.610  23.962  1.00  0.00    -0.463 OA
BRANCH   7   8
ATOM      8  C   UNL A   1      35.730  22.794  23.624  1.00  0.00     0.308 C 
ATOM      9  O   UNL A   1      35.355  23.526  22.713  1.00  0.00    -0.252 OA
BRANCH   8  10
ATOM     10  C   UNL A   1      34.756  21.941  24.413  1.00  0.00     0.156 C 
BRANCH  10  11
ATOM     11  C   UNL A   1      34.099  22.529  25.675  1.00  0.00     0.149 C 
ATOM     12  N   UNL A   1      32.960  24.643  24.978  1.00  0.00    -0.320 N 
ATOM     13  C   UNL A   1      31.666  24.042  25.275  1.00  0.00     0.150 C 
ATOM     14  C   UNL A   1      34.002  24.067  25.831  1.00  0.00     0.154 C 
ATOM     15  C   UNL A   1      31.740  22.526  25.081  1.00  0.00     0.182 C 
ATOM     16  O   UNL A   1      32.788  21.919  25.861  1.00  0.00    -0.374 OA
BRANCH  12  17
ATOM     17  C   UNL A   1      32.960  26.006  24.746  1.00  0.00     0.320 C 
ATOM     18  O   UNL A   1      34.027  26.614  24.687  1.00  0.00    -0.248 OA
BRANCH  17  19
ATOM     19  N   UNL A   1      31.707  26.626  24.577  1.00  0.00    -0.315 N 
ATOM     20  C   UNL A   1      29.636  27.492  23.303  1.00  0.00     0.037 C 
ATOM     21  C   UNL A   1      31.167  27.236  23.319  1.00  0.00     0.062 C 
ATOM     22  C   UNL A   1      31.368  26.367  22.077  1.00  0.00     0.037 C 
ATOM     23  C   UNL A   1      31.825  28.626  23.284  1.00  0.00     0.188 C 
ATOM     24  O   UNL A   1      31.418  29.435  24.411  1.00  0.00    -0.377 OA
ATOM     25  C   UNL A   1      31.244  27.352  25.768  1.00  0.00     0.150 C 
ATOM     26  C   UNL A   1      31.737  28.812  25.678  1.00  0.00     0.182 C 
ENDBRANCH  17  19
ENDBRANCH  12  17
ENDBRANCH  10  11
ENDBRANCH   8  10
ENDBRANCH   7   8
ENDBRANCH   6   7
ENDBRANCH   5   6
ENDBRANCH   4   5
ENDBRANCH   3   4
ENDBRANCH   2   3
ENDBRANCH   1   2
BRANCH   1  27
ATOM     27  C   UNL A   1      41.811  20.009  26.099  1.00  0.00     0.188 C 
BRANCH  27  28
ATOM     28  C   UNL A   1      42.751  18.789  26.035  1.00  0.00     0.188 C 
BRANCH  28  29
ATOM     29  O   UNL A   1      44.135  19.091  26.014  1.00  0.00    -0.376 OA
BRANCH  29  30
ATOM     30  C   UNL A   1      44.924  18.541  24.966  1.00  0.00     0.202 C 
BRANCH  30  31
ATOM     31  C   UNL A   1      45.513  19.499  23.914  1.00  0.00     0.261 C 
BRANCH  31  32
ATOM     32  O   UNL A   1      45.865  20.813  24.378  1.00  0.00    -0.460 OA
BRANCH  32  33
ATOM     33  C   UNL A   1      45.077  21.838  23.984  1.00  0.00     0.338 C 
ATOM     34  O   UNL A   1      44.383  21.893  22.990  1.00  0.00    -0.246 OA
BRANCH  33  35
ATOM     35  C   UNL A   1      45.039  22.827  25.079  1.00  0.00     0.060 A 
ATOM     36  C   UNL A   1      44.848  24.176  24.756  1.00  0.00     0.016 A 
ATOM     37  C   UNL A   1      45.240  22.431  26.403  1.00  0.00     0.016 A 
ATOM     38  C   UNL A   1      44.915  25.142  25.752  1.00  0.00     0.010 A 
ATOM     39  C   UNL A   1      45.337  23.406  27.399  1.00  0.00     0.010 A 
ATOM     40  C   UNL A   1      45.223  24.767  27.066  1.00  0.00    -0.014 A 
BRANCH  40  41
ATOM     41  C   UNL A   1      45.655  25.823  28.011  1.00  0.00     0.031 A 
ATOM     42  C   UNL A   1      47.111  26.207  28.031  1.00  0.00     0.074 A 
ATOM     43  C   UNL A   1      44.761  26.488  28.762  1.00  0.00     0.049 A 
ATOM     44  N   UNL A   1      47.715  27.137  28.723  1.00  0.00    -0.248 NA
ATOM     45  C   UNL A   1      48.004  25.444  27.142  1.00  0.00     0.031 C 
ATOM     46  C   UNL A   1      43.322  26.231  28.790  1.00  0.00     0.029 A 
ATOM     47  N   UNL A   1      44.936  27.526  29.641  1.00  0.00    -0.354 N 
ATOM     48  C   UNL A   1      49.055  27.070  28.355  1.00  0.00     0.074 A 
ATOM     49  C   UNL A   1      49.183  25.986  27.406  1.00  0.00     0.031 C 
ATOM     50  C   UNL A   1      42.743  27.091  29.646  1.00  0.00     0.029 A 
ATOM     51  C   UNL A   1      43.773  27.939  30.243  1.00  0.00     0.049 A 
ATOM     52  H   UNL A   1      45.812  27.936  29.823  1.00  0.00     0.167 HD
ATOM     53  C   UNL A   1      50.084  27.849  28.764  1.00  0.00     0.037 A 
ATOM     54  C   UNL A   1      43.569  28.889  31.179  1.00  0.00     0.037 A 
ATOM     55  C   UNL A   1      49.949  28.923  29.714  1.00  0.00     0.049 A 
ATOM     56  C   UNL A   1      44.741  29.704  31.662  1.00  0.00     0.074 A 
ATOM     57  C   UNL A   1      50.925  29.778  30.192  1.00  0.00     0.029 A 
ATOM     58  N   UNL A   1      48.763  29.284  30.337  1.00  0.00    -0.354 N 
ATOM     59  N   UNL A   1      46.000  29.642  31.295  1.00  0.00    -0.248 NA
ATOM     60  C   UNL A   1      44.461  30.726  32.679  1.00  0.00     0.031 C 
ATOM     61  C   UNL A   1      50.341  30.619  31.147  1.00  0.00     0.029 A 
ATOM     62  C   UNL A   1      48.987  30.331  31.216  1.00  0.00     0.049 A 
ATOM     63  H   UNL A   1      47.888  28.858  30.179  1.00  0.00     0.167 HD
ATOM     64  C   UNL A   1      46.657  30.634  32.019  1.00  0.00     0.074 A 
ATOM     65  C   UNL A   1      45.649  31.294  32.823  1.00  0.00     0.031 C 
ATOM     66  C   UNL A   1      47.973  30.969  32.020  1.00  0.00     0.037 A 
BRANCH  53  67
ATOM     67  C   UNL A   1      51.451  27.545  28.211  1.00  0.00     0.058 A 
ATOM     68  C   UNL A   1      52.330  26.653  28.847  1.00  0.00     0.135 A 
ATOM     69  C   UNL A   1      51.877  28.137  27.011  1.00  0.00     0.135 A 
ATOM     70  F   UNL A   1      51.985  26.076  30.009  1.00  0.00    -0.206 F 
ATOM     71  C   UNL A   1      53.590  26.378  28.326  1.00  0.00     0.059 A 
ATOM     72  C   UNL A   1      53.122  27.854  26.456  1.00  0.00     0.059 A 
ATOM     73  F   UNL A   1      51.082  29.004  26.365  1.00  0.00    -0.206 F 
ATOM     74  C   UNL A   1      53.976  26.982  27.127  1.00  0.00     0.060 A 
BRANCH  74  75
ATOM     75  S   UNL A   1      55.610  26.604  26.457  1.00  0.00     0.124 S 
ATOM     76  O   UNL A   1      56.459  27.504  27.231  1.00  0.00    -0.237 OA
ATOM     77  O   UNL A   1      55.749  25.183  26.761  1.00  0.00    -0.237 OA
ATOM     78  O   UNL A   1      55.481  26.928  25.040  1.00  0.00    -0.744 OA
ENDBRANCH  74  75
ENDBRANCH  53  67
BRANCH  54  79
ATOM     79  C   UNL A   1      42.203  29.117  31.722  1.00  0.00     0.058 A 
ATOM     80  C   UNL A   1      41.358  30.101  31.189  1.00  0.00     0.135 A 
ATOM     81  C   UNL A   1      41.716  28.353  32.796  1.00  0.00     0.135 A 
ATOM     82  F   UNL A   1      41.779  30.867  30.170  1.00  0.00    -0.206 F 
ATOM     83  C   UNL A   1      40.087  30.331  31.708  1.00  0.00     0.059 A 
ATOM     84  C   UNL A   1      40.439  28.543  33.312  1.00  0.00     0.059 A 
ATOM     85  F   UNL A   1      42.481  27.393  33.339  1.00  0.00    -0.206 F 
ATOM     86  C   UNL A   1      39.634  29.542  32.767  1.00  0.00     0.060 A 
BRANCH  86  87
ATOM     87  S   UNL A   1      37.962  29.811  33.394  1.00  0.00     0.124 S 
ATOM     88  O   UNL A   1      37.370  28.488  33.235  1.00  0.00    -0.237 OA
ATOM     89  O   UNL A   1      38.217  30.237  34.767  1.00  0.00    -0.237 OA
ATOM     90  O   UNL A   1      37.436  30.849  32.513  1.00  0.00    -0.744 OA
ENDBRANCH  86  87
ENDBRANCH  54  79
BRANCH  66  91
ATOM     91  C   UNL A   1      48.386  32.120  32.899  1.00  0.00     0.058 A 
ATOM     92  C   UNL A   1      48.400  33.444  32.429  1.00  0.00     0.135 A 
ATOM     93  C   UNL A   1      48.775  31.897  34.230  1.00  0.00     0.135 A 
ATOM     94  F   UNL A   1      48.036  33.717  31.165  1.00  0.00    -0.206 F 
ATOM     95  C   UNL A   1      48.840  34.496  33.227  1.00  0.00     0.059 A 
ATOM     96  C   UNL A   1      49.185  32.938  35.057  1.00  0.00     0.059 A 
ATOM     97  F   UNL A   1      48.763  30.655  34.740  1.00  0.00    -0.206 F 
ATOM     98  C   UNL A   1      49.239  34.230  34.538  1.00  0.00     0.060 A 
BRANCH  98  99
ATOM     99  S   UNL A   1      49.836  35.597  35.555  1.00  0.00     0.124 S 
ATOM    100  O   UNL A   1      49.681  36.728  34.647  1.00  0.00    -0.237 OA
ATOM    101  O   UNL A   1      48.920  35.565  36.692  1.00  0.00    -0.237 OA
ATOM    102  O   UNL A   1      51.214  35.218  35.858  1.00  0.00    -0.744 OA
ENDBRANCH  98  99
ENDBRANCH  66  91
ENDBRANCH  40  41
ENDBRANCH  33  35
ENDBRANCH  32  33
ENDBRANCH  31  32
ENDBRANCH  30  31
ENDBRANCH  29  30
ENDBRANCH  28  29
ENDBRANCH  27  28
ENDBRANCH   1  27
TORSDOF 26
ENDMDL
MODEL 2
REMARK VINA RESULT:      -8.2      1.567      7.903
REMARK SMILES CC1(C)COCCN1C(=O)N1CCO[C@@H](CC(=O)OCCOCCOCCOCCOC(=O)c2ccc(-c3c4nc(c(-c5c(F)cc(S(=O)(=O)[O-])cc5F)c5ccc([nH]5)c(-c5c(F)cc(S(=O)(=O)[O-])cc5F)c5nc(c(-c6c(F)cc(S(=O)(=O)[O-])cc6F)c6ccc3[nH]6)C=C5)C=C4)cc2)C1
REMARK SMILES IDX 25 1 24 2 23 3 22 4 21 5 20 6 19 7 17 8 18 9 16 10 15 11
REMARK SMILES IDX 11 12 12 13 100 14 13 15 14 16 9 17 10 18 8 19 1 20 2 21
REMARK SMILES IDX 3 22 4 23 5 24 7 25 6 26 26 27 27 28 28 29 29 30 30 31 31 32
REMARK SMILES IDX 32 33 33 34 34 35 35 36 99 37 36 38 98 39 37 40 38 41 39 42
REMARK SMILES IDX 92 43 40 44 97 45 91 46 93 47 41 48 96 49 90 50 89 51 42 53
REMARK SMILES IDX 76 54 55 55 75 56 56 57 59 58 74 59 94 60 57 61 58 62 73 64
REMARK SMILES IDX 95 65 60 66 43 67 44 68 53 69 45 70 46 71 52 72 54 73 47 74
REMARK SMILES IDX 48 75 49 76 50 77 51 78 77 79 78 80 87 81 79 82 80 83 86 84
REMARK SMILES IDX 88 85 81 86 82 87 83 88 84 89 85 90 61 91 62 92 71 93 63 94
REMARK SMILES IDX 64 95 70 96 72 97 65 98 66 99 67 100 68 101 69 102
REMARK H PARENT 93 52 59 63
REMARK Flexibility Score: inf
ROOT
ATOM      1  O   UNL A   1      41.826  20.972  27.290  1.00  0.00    -0.377 OA
ENDROOT
BRANCH   1   2
ATOM      2  C   UNL A   1      40.759  21.801  27.727  1.00  0.00     0.188 C 
BRANCH   2   3
ATOM      3  C   UNL A   1      40.291  22.988  26.864  1.00  0.00     0.188 C 
BRANCH   3   4
ATOM      4  O   UNL A   1      38.993  22.896  26.329  1.00  0.00    -0.376 OA
BRANCH   4   5
ATOM      5  C   UNL A   1      38.558  21.702  25.707  1.00  0.00     0.202 C 
BRANCH   5   6
ATOM      6  C   UNL A   1      37.347  21.618  24.770  1.00  0.00     0.261 C 
BRANCH   6   7
ATOM      7  O   UNL A   1      36.928  22.810  24.081  1.00  0.00    -0.463 OA
BRANCH   7   8
ATOM      8  C   UNL A   1      35.642  22.898  23.661  1.00  0.00     0.308 C 
ATOM      9  O   UNL A   1      35.269  23.614  22.737  1.00  0.00    -0.252 OA
BRANCH   8  10
ATOM     10  C   UNL A   1      34.691  21.958  24.376  1.00  0.00     0.156 C 
BRANCH  10  11
ATOM     11  C   UNL A   1      33.865  22.489  25.562  1.00  0.00     0.149 C 
ATOM     12  N   UNL A   1      32.865  24.662  24.830  1.00  0.00    -0.320 N 
ATOM     13  C   UNL A   1      31.535  24.072  24.903  1.00  0.00     0.150 C 
ATOM     14  C   UNL A   1      33.765  24.018  25.790  1.00  0.00     0.154 C 
ATOM     15  C   UNL A   1      31.617  22.568  24.634  1.00  0.00     0.182 C 
ATOM     16  O   UNL A   1      32.533  21.898  25.521  1.00  0.00    -0.374 OA
BRANCH  12  17
ATOM     17  C   UNL A   1      32.916  26.035  24.680  1.00  0.00     0.320 C 
ATOM     18  O   UNL A   1      34.006  26.602  24.615  1.00  0.00    -0.248 OA
BRANCH  17  19
ATOM     19  N   UNL A   1      31.685  26.715  24.598  1.00  0.00    -0.315 N 
ATOM     20  C   UNL A   1      29.629  27.778  23.457  1.00  0.00     0.037 C 
ATOM     21  C   UNL A   1      31.148  27.465  23.416  1.00  0.00     0.062 C 
ATOM     22  C   UNL A   1      31.294  26.714  22.092  1.00  0.00     0.037 C 
ATOM     23  C   UNL A   1      31.860  28.826  23.502  1.00  0.00     0.188 C 
ATOM     24  O   UNL A   1      31.505  29.536  24.710  1.00  0.00    -0.377 OA
ATOM     25  C   UNL A   1      31.272  27.339  25.862  1.00  0.00     0.150 C 
ATOM     26  C   UNL A   1      31.820  28.781  25.903  1.00  0.00     0.182 C 
ENDBRANCH  17  19
ENDBRANCH  12  17
ENDBRANCH  10  11
ENDBRANCH   8  10
ENDBRANCH   7   8
ENDBRANCH   6   7
ENDBRANCH   5   6
ENDBRANCH   4   5
ENDBRANCH   3   4
ENDBRANCH   2   3
ENDBRANCH   1   2
BRANCH   1  27
ATOM     27  C   UNL A   1      41.635  20.060  26.212  1.00  0.00     0.188 C 
BRANCH  27  28
ATOM     28  C   UNL A   1      42.570  18.848  26.035  1.00  0.00     0.188 C 
BRANCH  28  29
ATOM     29  O   UNL A   1      43.956  19.141  26.066  1.00  0.00    -0.376 OA
BRANCH  29  30
ATOM     30  C   UNL A   1      44.744  18.772  24.942  1.00  0.00     0.202 C 
BRANCH  30  31
ATOM     31  C   UNL A   1      45.372  19.890  24.089  1.00  0.00     0.261 C 
BRANCH  31  32
ATOM     32  O   UNL A   1      45.581  21.150  24.749  1.00  0.00    -0.460 OA
BRANCH  32  33
ATOM     33  C   UNL A   1      44.842  22.199  24.325  1.00  0.00     0.338 C 
ATOM     34  O   UNL A   1      44.193  22.276  23.303  1.00  0.00    -0.246 OA
BRANCH  33  35
ATOM     35  C   UNL A   1      44.787  23.186  25.420  1.00  0.00     0.060 A 
ATOM     36  C   UNL A   1      44.890  24.545  25.102  1.00  0.00     0.016 A 
ATOM     37  C   UNL A   1      44.684  22.770  26.749  1.00  0.00     0.016 A 
ATOM     38  C   UNL A   1      44.949  25.492  26.118  1.00  0.00     0.010 A 
ATOM     39  C   UNL A   1      44.774  23.720  27.770  1.00  0.00     0.010 A 
ATOM     40  C   UNL A   1      44.956  25.077  27.455  1.00  0.00    -0.014 A 
BRANCH  40  41
ATOM     41  C   UNL A   1      45.393  26.048  28.486  1.00  0.00     0.031 A 
ATOM     42  C   UNL A   1      44.342  26.896  29.154  1.00  0.00     0.074 A 
ATOM     43  C   UNL A   1      46.675  26.106  28.884  1.00  0.00     0.049 A 
ATOM     44  N   UNL A   1      44.470  27.768  30.119  1.00  0.00    -0.248 NA
ATOM     45  C   UNL A   1      42.961  26.730  28.672  1.00  0.00     0.031 C 
ATOM     46  C   UNL A   1      47.767  25.300  28.339  1.00  0.00     0.029 A 
ATOM     47  N   UNL A   1      47.271  26.874  29.851  1.00  0.00    -0.354 N 
ATOM     48  C   UNL A   1      43.189  28.254  30.359  1.00  0.00     0.074 A 
ATOM     49  C   UNL A   1      42.304  27.608  29.415  1.00  0.00     0.031 C 
ATOM     50  C   UNL A   1      48.904  25.618  28.982  1.00  0.00     0.029 A 
ATOM     51  C   UNL A   1      48.624  26.665  29.963  1.00  0.00     0.049 A 
ATOM     52  H   UNL A   1      46.776  27.515  30.411  1.00  0.00     0.167 HD
ATOM     53  C   UNL A   1      42.786  29.151  31.289  1.00  0.00     0.037 A 
ATOM     54  C   UNL A   1      49.532  27.262  30.762  1.00  0.00     0.037 A 
ATOM     55  C   UNL A   1      43.675  29.794  32.222  1.00  0.00     0.049 A 
ATOM     56  C   UNL A   1      49.066  28.301  31.749  1.00  0.00     0.074 A 
ATOM     57  C   UNL A   1      43.369  30.713  33.209  1.00  0.00     0.029 A 
ATOM     58  N   UNL A   1      45.047  29.592  32.276  1.00  0.00    -0.354 N 
ATOM     59  N   UNL A   1      47.851  28.741  31.978  1.00  0.00    -0.248 NA
ATOM     60  C   UNL A   1      50.097  28.917  32.596  1.00  0.00     0.031 C 
ATOM     61  C   UNL A   1      44.563  31.109  33.824  1.00  0.00     0.029 A 
ATOM     62  C   UNL A   1      45.606  30.388  33.262  1.00  0.00     0.049 A 
ATOM     63  H   UNL A   1      45.550  28.972  31.698  1.00  0.00     0.167 HD
ATOM     64  C   UNL A   1      47.968  29.667  33.012  1.00  0.00     0.074 A 
ATOM     65  C   UNL A   1      49.370  29.701  33.377  1.00  0.00     0.031 C 
ATOM     66  C   UNL A   1      47.007  30.420  33.605  1.00  0.00     0.037 A 
BRANCH  53  67
ATOM     67  C   UNL A   1      41.325  29.513  31.321  1.00  0.00     0.058 A 
ATOM     68  C   UNL A   1      40.795  30.540  30.522  1.00  0.00     0.135 A 
ATOM     69  C   UNL A   1      40.436  28.804  32.146  1.00  0.00     0.135 A 
ATOM     70  F   UNL A   1      41.601  31.267  29.732  1.00  0.00    -0.206 F 
ATOM     71  C   UNL A   1      39.442  30.865  30.557  1.00  0.00     0.059 A 
ATOM     72  C   UNL A   1      39.075  29.092  32.175  1.00  0.00     0.059 A 
ATOM     73  F   UNL A   1      40.889  27.818  32.936  1.00  0.00    -0.206 F 
ATOM     74  C   UNL A   1      38.589  30.133  31.386  1.00  0.00     0.060 A 
BRANCH  74  75
ATOM     75  S   UNL A   1      36.835  30.559  31.411  1.00  0.00     0.124 S 
ATOM     76  O   UNL A   1      36.227  29.319  30.938  1.00  0.00    -0.237 OA
ATOM     77  O   UNL A   1      36.612  30.878  32.817  1.00  0.00    -0.237 OA
ATOM     78  O   UNL A   1      36.745  31.690  30.493  1.00  0.00    -0.744 OA
ENDBRANCH  74  75
ENDBRANCH  53  67
BRANCH  54  79
ATOM     79  C   UNL A   1      50.970  26.896  30.657  1.00  0.00     0.058 A 
ATOM     80  C   UNL A   1      51.809  27.491  29.704  1.00  0.00     0.135 A 
ATOM     81  C   UNL A   1      51.534  25.934  31.511  1.00  0.00     0.135 A 
ATOM     82  F   UNL A   1      51.317  28.407  28.855  1.00  0.00    -0.206 F 
ATOM     83  C   UNL A   1      53.150  27.137  29.590  1.00  0.00     0.059 A 
ATOM     84  C   UNL A   1      52.879  25.585  31.437  1.00  0.00     0.059 A 
ATOM     85  F   UNL A   1      50.777  25.339  32.446  1.00  0.00    -0.206 F 
ATOM     86  C   UNL A   1      53.677  26.185  30.466  1.00  0.00     0.060 A 
BRANCH  86  87
ATOM     87  S   UNL A   1      55.432  25.775  30.346  1.00  0.00     0.124 S 
ATOM     88  O   UNL A   1      55.537  25.332  28.961  1.00  0.00    -0.237 OA
ATOM     89  O   UNL A   1      56.065  27.053  30.658  1.00  0.00    -0.237 OA
ATOM     90  O   UNL A   1      55.604  24.737  31.357  1.00  0.00    -0.744 OA
ENDBRANCH  86  87
ENDBRANCH  54  79
BRANCH  66  91
ATOM     91  C   UNL A   1      47.440  31.322  34.731  1.00  0.00     0.058 A 
ATOM     92  C   UNL A   1      47.850  32.646  34.503  1.00  0.00     0.135 A 
ATOM     93  C   UNL A   1      47.448  30.855  36.055  1.00  0.00     0.135 A 
ATOM     94  F   UNL A   1      47.862  33.146  33.258  1.00  0.00    -0.206 F 
ATOM     95  C   UNL A   1      48.307  33.455  35.540  1.00  0.00     0.059 A 
ATOM     96  C   UNL A   1      47.866  31.658  37.112  1.00  0.00     0.059 A 
ATOM     97  F   UNL A   1      47.047  29.604  36.335  1.00  0.00    -0.206 F 
ATOM     98  C   UNL A   1      48.319  32.947  36.841  1.00  0.00     0.060 A 
BRANCH  98  99
ATOM     99  S   UNL A   1      48.941  33.994  38.173  1.00  0.00     0.124 S 
ATOM    100  O   UNL A   1      48.987  35.299  37.524  1.00  0.00    -0.237 OA
ATOM    101  O   UNL A   1      47.918  33.832  39.203  1.00  0.00    -0.237 OA
ATOM    102  O   UNL A   1      50.239  33.405  38.491  1.00  0.00    -0.744 OA
ENDBRANCH  98  99
ENDBRANCH  66  91
ENDBRANCH  40  41
ENDBRANCH  33  35
ENDBRANCH  32  33
ENDBRANCH  31  32
ENDBRANCH  30  31
ENDBRANCH  29  30
ENDBRANCH  28  29
ENDBRANCH  27  28
ENDBRANCH   1  27
TORSDOF 26
ENDMDL
MODEL 3
REMARK VINA RESULT:      -8.0      0.745      7.937
REMARK SMILES CC1(C)COCCN1C(=O)N1CCO[C@@H](CC(=O)OCCOCCOCCOCCOC(=O)c2ccc(-c3c4nc(c(-c5c(F)cc(S(=O)(=O)[O-])cc5F)c5ccc([nH]5)c(-c5c(F)cc(S(=O)(=O)[O-])cc5F)c5nc(c(-c6c(F)cc(S(=O)(=O)[O-])cc6F)c6ccc3[nH]6)C=C5)C=C4)cc2)C1
REMARK SMILES IDX 25 1 24 2 23 3 22 4 21 5 20 6 19 7 17 8 18 9 16 10 15 11
REMARK SMILES IDX 11 12 12 13 100 14 13 15 14 16 9 17 10 18 8 19 1 20 2 21
REMARK SMILES IDX 3 22 4 23 5 24 7 25 6 26 26 27 27 28 28 29 29 30 30 31 31 32
REMARK SMILES IDX 32 33 33 34 34 35 35 36 99 37 36 38 98 39 37 40 38 41 39 42
REMARK SMILES IDX 92 43 40 44 97 45 91 46 93 47 41 48 96 49 90 50 89 51 42 53
REMARK SMILES IDX 76 54 55 55 75 56 56 57 59 58 74 59 94 60 57 61 58 62 73 64
REMARK SMILES IDX 95 65 60 66 43 67 44 68 53 69 45 70 46 71 52 72 54 73 47 74
REMARK SMILES IDX 48 75 49 76 50 77 51 78 77 79 78 80 87 81 79 82 80 83 86 84
REMARK SMILES IDX 88 85 81 86 82 87 83 88 84 89 85 90 61 91 62 92 71 93 63 94
REMARK SMILES IDX 64 95 70 96 72 97 65 98 66 99 67 100 68 101 69 102
REMARK H PARENT 93 52 59 63
REMARK Flexibility Score: inf
ROOT
ATOM      1  O   UNL A   1      41.977  20.909  27.129  1.00  0.00    -0.377 OA
ENDROOT
BRANCH   1   2
ATOM      2  C   UNL A   1      40.886  21.526  27.796  1.00  0.00     0.188 C 
BRANCH   2   3
ATOM      3  C   UNL A   1      40.380  22.909  27.346  1.00  0.00     0.188 C 
BRANCH   3   4
ATOM      4  O   UNL A   1      39.085  22.950  26.796  1.00  0.00    -0.376 OA
BRANCH   4   5
ATOM      5  C   UNL A   1      38.750  22.130  25.694  1.00  0.00     0.202 C 
BRANCH   5   6
ATOM      6  C   UNL A   1      37.330  21.993  25.130  1.00  0.00     0.261 C 
BRANCH   6   7
ATOM      7  O   UNL A   1      36.892  22.936  24.134  1.00  0.00    -0.463 OA
BRANCH   7   8
ATOM      8  C   UNL A   1      35.611  22.868  23.697  1.00  0.00     0.308 C 
ATOM      9  O   UNL A   1      35.191  23.463  22.709  1.00  0.00    -0.252 OA
BRANCH   8  10
ATOM     10  C   UNL A   1      34.736  21.914  24.486  1.00  0.00     0.156 C 
BRANCH  10  11
ATOM     11  C   UNL A   1      33.915  22.456  25.670  1.00  0.00     0.149 C 
ATOM     12  N   UNL A   1      32.880  24.602  24.907  1.00  0.00    -0.320 N 
ATOM     13  C   UNL A   1      31.558  23.996  25.004  1.00  0.00     0.150 C 
ATOM     14  C   UNL A   1      33.797  23.987  25.870  1.00  0.00     0.154 C 
ATOM     15  C   UNL A   1      31.657  22.489  24.763  1.00  0.00     0.182 C 
ATOM     16  O   UNL A   1      32.590  21.847  25.653  1.00  0.00    -0.374 OA
BRANCH  12  17
ATOM     17  C   UNL A   1      32.911  25.973  24.731  1.00  0.00     0.320 C 
ATOM     18  O   UNL A   1      33.993  26.555  24.670  1.00  0.00    -0.248 OA
BRANCH  17  19
ATOM     19  N   UNL A   1      31.672  26.631  24.618  1.00  0.00    -0.315 N 
ATOM     20  C   UNL A   1      29.612  27.633  23.427  1.00  0.00     0.037 C 
ATOM     21  C   UNL A   1      31.137  27.342  23.411  1.00  0.00     0.062 C 
ATOM     22  C   UNL A   1      31.309  26.560  22.108  1.00  0.00     0.037 C 
ATOM     23  C   UNL A   1      31.827  28.716  23.471  1.00  0.00     0.188 C 
ATOM     24  O   UNL A   1      31.446  29.450  24.656  1.00  0.00    -0.377 OA
ATOM     25  C   UNL A   1      31.234  27.280  25.861  1.00  0.00     0.150 C 
ATOM     26  C   UNL A   1      31.760  28.731  25.872  1.00  0.00     0.182 C 
ENDBRANCH  17  19
ENDBRANCH  12  17
ENDBRANCH  10  11
ENDBRANCH   8  10
ENDBRANCH   7   8
ENDBRANCH   6   7
ENDBRANCH   5   6
ENDBRANCH   4   5
ENDBRANCH   3   4
ENDBRANCH   2   3
ENDBRANCH   1   2
BRANCH   1  27
ATOM     27  C   UNL A   1      41.744  19.961  26.090  1.00  0.00     0.188 C 
BRANCH  27  28
ATOM     28  C   UNL A   1      42.684  18.754  25.904  1.00  0.00     0.188 C 
BRANCH  28  29
ATOM     29  O   UNL A   1      44.067  19.041  26.008  1.00  0.00    -0.376 OA
BRANCH  29  30
ATOM     30  C   UNL A   1      44.936  18.520  25.010  1.00  0.00     0.202 C 
BRANCH  30  31
ATOM     31  C   UNL A   1      45.690  19.512  24.105  1.00  0.00     0.261 C 
BRANCH  31  32
ATOM     32  O   UNL A   1      45.914  20.823  24.649  1.00  0.00    -0.460 OA
BRANCH  32  33
ATOM     33  C   UNL A   1      45.105  21.817  24.218  1.00  0.00     0.338 C 
ATOM     34  O   UNL A   1      44.370  21.800  23.253  1.00  0.00    -0.246 OA
BRANCH  33  35
ATOM     35  C   UNL A   1      45.109  22.880  25.241  1.00  0.00     0.060 A 
ATOM     36  C   UNL A   1      45.150  24.214  24.819  1.00  0.00     0.016 A 
ATOM     37  C   UNL A   1      45.121  22.560  26.600  1.00  0.00     0.016 A 
ATOM     38  C   UNL A   1      45.263  25.234  25.757  1.00  0.00     0.010 A 
ATOM     39  C   UNL A   1      45.264  23.584  27.540  1.00  0.00     0.010 A 
ATOM     40  C   UNL A   1      45.385  24.918  27.116  1.00  0.00    -0.014 A 
BRANCH  40  41
ATOM     41  C   UNL A   1      45.874  25.971  28.036  1.00  0.00     0.031 A 
ATOM     42  C   UNL A   1      44.862  26.709  28.874  1.00  0.00     0.074 A 
ATOM     43  C   UNL A   1      47.189  26.197  28.194  1.00  0.00     0.049 A 
ATOM     44  N   UNL A   1      45.050  27.624  29.788  1.00  0.00    -0.248 NA
ATOM     45  C   UNL A   1      43.448  26.360  28.654  1.00  0.00     0.031 C 
ATOM     46  C   UNL A   1      48.258  25.511  27.470  1.00  0.00     0.029 A 
ATOM     47  N   UNL A   1      47.847  27.066  29.025  1.00  0.00    -0.354 N 
ATOM     48  C   UNL A   1      43.782  27.960  30.251  1.00  0.00     0.074 A 
ATOM     49  C   UNL A   1      42.831  27.178  29.493  1.00  0.00     0.031 C 
ATOM     50  C   UNL A   1      49.443  25.987  27.890  1.00  0.00     0.029 A 
ATOM     51  C   UNL A   1      49.214  27.027  28.892  1.00  0.00     0.049 A 
ATOM     52  H   UNL A   1      47.385  27.662  29.658  1.00  0.00     0.167 HD
ATOM     53  C   UNL A   1      43.443  28.834  31.228  1.00  0.00     0.037 A 
ATOM     54  C   UNL A   1      50.168  27.757  29.504  1.00  0.00     0.037 A 
ATOM     55  C   UNL A   1      44.397  29.613  31.974  1.00  0.00     0.049 A 
ATOM     56  C   UNL A   1      49.760  28.767  30.546  1.00  0.00     0.074 A 
ATOM     57  C   UNL A   1      44.161  30.522  32.988  1.00  0.00     0.029 A 
ATOM     58  N   UNL A   1      45.771  29.580  31.780  1.00  0.00    -0.354 N 
ATOM     59  N   UNL A   1      48.560  29.064  30.987  1.00  0.00    -0.248 NA
ATOM     60  C   UNL A   1      50.841  29.533  31.183  1.00  0.00     0.031 C 
ATOM     61  C   UNL A   1      45.386  31.082  33.369  1.00  0.00     0.029 A 
ATOM     62  C   UNL A   1      46.393  30.473  32.637  1.00  0.00     0.049 A 
ATOM     63  H   UNL A   1      46.236  29.006  31.128  1.00  0.00     0.167 HD
ATOM     64  C   UNL A   1      48.744  30.034  31.969  1.00  0.00     0.074 A 
ATOM     65  C   UNL A   1      50.173  30.251  32.073  1.00  0.00     0.031 C 
ATOM     66  C   UNL A   1      47.818  30.686  32.718  1.00  0.00     0.037 A 
BRANCH  53  67
ATOM     67  C   UNL A   1      41.977  29.018  31.520  1.00  0.00     0.058 A 
ATOM     68  C   UNL A   1      41.191  29.950  30.825  1.00  0.00     0.135 A 
ATOM     69  C   UNL A   1      41.345  28.229  32.495  1.00  0.00     0.135 A 
ATOM     70  F   UNL A   1      41.747  30.748  29.898  1.00  0.00    -0.206 F 
ATOM     71  C   UNL A   1      39.837  30.111  31.102  1.00  0.00     0.059 A 
ATOM     72  C   UNL A   1      39.986  28.351  32.768  1.00  0.00     0.059 A 
ATOM     73  F   UNL A   1      42.050  27.327  33.197  1.00  0.00    -0.206 F 
ATOM     74  C   UNL A   1      39.242  29.304  32.074  1.00  0.00     0.060 A 
BRANCH  74  75
ATOM     75  S   UNL A   1      37.482  29.515  32.413  1.00  0.00     0.124 S 
ATOM     76  O   UNL A   1      37.440  30.890  32.900  1.00  0.00    -0.237 OA
ATOM     77  O   UNL A   1      36.884  29.289  31.101  1.00  0.00    -0.237 OA
ATOM     78  O   UNL A   1      37.200  28.488  33.411  1.00  0.00    -0.744 OA
ENDBRANCH  74  75
ENDBRANCH  53  67
BRANCH  54  79
ATOM     79  C   UNL A   1      51.599  27.564  29.143  1.00  0.00     0.058 A 
ATOM     80  C   UNL A   1      52.198  28.298  28.109  1.00  0.00     0.135 A 
ATOM     81  C   UNL A   1      52.397  26.634  29.829  1.00  0.00     0.135 A 
ATOM     82  F   UNL A   1      51.477  29.191  27.414  1.00  0.00    -0.206 F 
ATOM     83  C   UNL A   1      53.530  28.105  27.755  1.00  0.00     0.059 A 
ATOM     84  C   UNL A   1      53.738  26.446  29.515  1.00  0.00     0.059 A 
ATOM     85  F   UNL A   1      51.874  25.911  30.833  1.00  0.00    -0.206 F 
ATOM     86  C   UNL A   1      54.294  27.180  28.470  1.00  0.00     0.060 A 
BRANCH  86  87
ATOM     87  S   UNL A   1      56.037  26.980  28.040  1.00  0.00     0.124 S 
ATOM     88  O   UNL A   1      56.608  28.227  28.536  1.00  0.00    -0.237 OA
ATOM     89  O   UNL A   1      56.396  25.773  28.777  1.00  0.00    -0.237 OA
ATOM     90  O   UNL A   1      56.010  26.832  26.588  1.00  0.00    -0.744 OA
ENDBRANCH  86  87
ENDBRANCH  54  79
BRANCH  66  91
ATOM     91  C   UNL A   1      48.330  31.673  33.734  1.00  0.00     0.058 A 
ATOM     92  C   UNL A   1      48.668  31.284  35.041  1.00  0.00     0.135 A 
ATOM     93  C   UNL A   1      48.483  33.028  33.396  1.00  0.00     0.135 A 
ATOM     94  F   UNL A   1      48.542  30.002  35.418  1.00  0.00    -0.206 F 
ATOM     95  C   UNL A   1      49.083  32.212  35.992  1.00  0.00     0.059 A 
ATOM     96  C   UNL A   1      48.930  33.967  34.321  1.00  0.00     0.059 A 
ATOM     97  F   UNL A   1      48.194  33.454  32.156  1.00  0.00    -0.206 F 
ATOM     98  C   UNL A   1      49.202  33.553  35.624  1.00  0.00     0.060 A 
BRANCH  98  99
ATOM     99  S   UNL A   1      49.712  34.752  36.873  1.00  0.00     0.124 S 
ATOM    100  O   UNL A   1      51.014  35.169  36.364  1.00  0.00    -0.237 OA
ATOM    101  O   UNL A   1      48.651  35.753  36.799  1.00  0.00    -0.237 OA
ATOM    102  O   UNL A   1      49.741  33.968  38.104  1.00  0.00    -0.744 OA
ENDBRANCH  98  99
ENDBRANCH  66  91
ENDBRANCH  40  41
ENDBRANCH  33  35
ENDBRANCH  32  33
ENDBRANCH  31  32
ENDBRANCH  30  31
ENDBRANCH  29  30
ENDBRANCH  28  29
ENDBRANCH  27  28
ENDBRANCH   1  27
TORSDOF 26
ENDMDL
