MODEL 1
REMARK VINA RESULT:      -9.4      0.000      0.000
REMARK SMILES O=C(OCCOCCOCCOCCOC(=O)C1CCN(c2ccc(C(F)(F)F)cc2[N+](=O)[O-])CC1)c1ccc(-c2c3nc(c(-c4c(F)cc(S(=O)(=O)[O-])cc4F)c4ccc([nH]4)c(-c4c(F)cc(S(=O)(=O)[O-])cc4F)c4nc(c(-c5c(F)cc(S(=O)(=O)[O-])cc5F)c5ccc2[nH]5)C=C4)C=C3)cc1
REMARK SMILES IDX 8 1 7 2 6 3 5 4 4 5 3 6 2 7 1 8 37 9 38 10 102 11 39 12
REMARK SMILES IDX 101 13 40 14 41 15 42 16 95 17 43 18 100 19 94 20 96 21
REMARK SMILES IDX 44 22 99 23 93 24 92 25 45 27 79 28 58 29 78 30 59 31 62 32
REMARK SMILES IDX 77 33 97 34 60 35 61 36 76 38 98 39 63 40 46 41 47 42 56 43
REMARK SMILES IDX 48 44 49 45 55 46 57 47 50 48 51 49 52 50 53 51 54 52 80 53
REMARK SMILES IDX 81 54 90 55 82 56 83 57 89 58 91 59 84 60 85 61 86 62 87 63
REMARK SMILES IDX 88 64 64 65 65 66 74 67 66 68 67 69 73 70 75 71 68 72 69 73
REMARK SMILES IDX 70 74 71 75 72 76 9 77 10 78 11 79 12 80 13 81 14 82 15 83
REMARK SMILES IDX 16 84 17 85 18 86 19 87 36 88 20 89 35 90 21 91 22 92 23 93
REMARK SMILES IDX 31 94 24 95 30 96 25 97 32 98 33 99 34 100 26 101 27 102
REMARK SMILES IDX 28 103 29 104
REMARK H PARENT 96 26 62 37
REMARK Flexibility Score: inf
ROOT
ATOM      1  C   UNL A   1      39.679  25.525  27.218  1.00  0.00     0.188 C 
ENDROOT
BRANCH   1   2
ATOM      2  C   UNL A   1      40.850  25.475  26.256  1.00  0.00     0.188 C 
BRANCH   2   3
ATOM      3  O   UNL A   1      41.532  24.241  26.467  1.00  0.00    -0.376 OA
BRANCH   3   4
ATOM      4  C   UNL A   1      42.627  24.001  25.590  1.00  0.00     0.202 C 
BRANCH   4   5
ATOM      5  C   UNL A   1      43.928  23.677  26.326  1.00  0.00     0.261 C 
BRANCH   5   6
ATOM      6  O   UNL A   1      44.216  24.605  27.383  1.00  0.00    -0.460 OA
BRANCH   6   7
ATOM      7  C   UNL A   1      44.374  25.951  27.306  1.00  0.00     0.338 C 
ATOM      8  O   UNL A   1      45.066  26.394  26.389  1.00  0.00    -0.246 OA
BRANCH   7   9
ATOM      9  C   UNL A   1      43.795  26.943  28.274  1.00  0.00     0.060 A 
ATOM     10  C   UNL A   1      44.053  28.315  28.287  1.00  0.00     0.016 A 
ATOM     11  C   UNL A   1      42.870  26.453  29.215  1.00  0.00     0.016 A 
ATOM     12  C   UNL A   1      43.443  29.174  29.182  1.00  0.00     0.010 A 
ATOM     13  C   UNL A   1      42.269  27.304  30.151  1.00  0.00     0.010 A 
ATOM     14  C   UNL A   1      42.583  28.666  30.144  1.00  0.00    -0.014 A 
BRANCH  14  15
ATOM     15  C   UNL A   1      42.283  29.559  31.271  1.00  0.00     0.031 A 
ATOM     16  C   UNL A   1      40.994  30.323  31.202  1.00  0.00     0.074 A 
ATOM     17  C   UNL A   1      43.023  29.498  32.391  1.00  0.00     0.049 A 
ATOM     18  N   UNL A   1      40.499  31.193  32.034  1.00  0.00    -0.248 NA
ATOM     19  C   UNL A   1      40.130  30.046  30.037  1.00  0.00     0.031 C 
ATOM     20  C   UNL A   1      44.177  28.617  32.593  1.00  0.00     0.029 A 
ATOM     21  N   UNL A   1      42.893  30.156  33.583  1.00  0.00    -0.354 N 
ATOM     22  C   UNL A   1      39.292  31.596  31.475  1.00  0.00     0.074 A 
ATOM     23  C   UNL A   1      39.119  30.873  30.240  1.00  0.00     0.031 C 
ATOM     24  C   UNL A   1      44.645  28.788  33.840  1.00  0.00     0.029 A 
ATOM     25  C   UNL A   1      43.874  29.839  34.492  1.00  0.00     0.049 A 
ATOM     26  H   UNL A   1      42.167  30.793  33.771  1.00  0.00     0.167 HD
ATOM     27  C   UNL A   1      38.419  32.507  31.960  1.00  0.00     0.037 A 
ATOM     28  C   UNL A   1      44.130  30.385  35.696  1.00  0.00     0.037 A 
ATOM     29  C   UNL A   1      38.641  33.197  33.199  1.00  0.00     0.049 A 
ATOM     30  C   UNL A   1      43.214  31.487  36.161  1.00  0.00     0.074 A 
ATOM     31  C   UNL A   1      37.900  34.211  33.773  1.00  0.00     0.029 A 
ATOM     32  N   UNL A   1      39.700  32.929  34.060  1.00  0.00    -0.354 N 
ATOM     33  N   UNL A   1      42.132  31.958  35.578  1.00  0.00    -0.248 NA
ATOM     34  C   UNL A   1      43.553  32.147  37.425  1.00  0.00     0.031 C 
ATOM     35  C   UNL A   1      38.541  34.589  34.959  1.00  0.00     0.029 A 
ATOM     36  C   UNL A   1      39.645  33.769  35.154  1.00  0.00     0.049 A 
ATOM     37  H   UNL A   1      40.387  32.241  33.911  1.00  0.00     0.167 HD
ATOM     38  C   UNL A   1      41.650  32.956  36.414  1.00  0.00     0.074 A 
ATOM     39  C   UNL A   1      42.552  33.008  37.550  1.00  0.00     0.031 C 
ATOM     40  C   UNL A   1      40.569  33.763  36.264  1.00  0.00     0.037 A 
BRANCH  27  41
ATOM     41  C   UNL A   1      37.240  32.856  31.096  1.00  0.00     0.058 A 
ATOM     42  C   UNL A   1      35.963  32.313  31.308  1.00  0.00     0.135 A 
ATOM     43  C   UNL A   1      37.410  33.711  29.994  1.00  0.00     0.135 A 
ATOM     44  F   UNL A   1      35.752  31.455  32.320  1.00  0.00    -0.206 F 
ATOM     45  C   UNL A   1      34.904  32.583  30.445  1.00  0.00     0.059 A 
ATOM     46  C   UNL A   1      36.360  34.015  29.133  1.00  0.00     0.059 A 
ATOM     47  F   UNL A   1      38.615  34.240  29.729  1.00  0.00    -0.206 F 
ATOM     48  C   UNL A   1      35.114  33.434  29.358  1.00  0.00     0.060 A 
BRANCH  48  49
ATOM     49  S   UNL A   1      33.736  33.764  28.239  1.00  0.00     0.124 S 
ATOM     50  O   UNL A   1      34.362  34.646  27.258  1.00  0.00    -0.237 OA
ATOM     51  O   UNL A   1      33.395  32.429  27.762  1.00  0.00    -0.237 OA
ATOM     52  O   UNL A   1      32.740  34.392  29.101  1.00  0.00    -0.744 OA
ENDBRANCH  48  49
ENDBRANCH  27  41
BRANCH  28  53
ATOM     53  C   UNL A   1      45.323  29.963  36.482  1.00  0.00     0.058 A 
ATOM     54  C   UNL A   1      45.275  28.881  37.374  1.00  0.00     0.135 A 
ATOM     55  C   UNL A   1      46.547  30.644  36.361  1.00  0.00     0.135 A 
ATOM     56  F   UNL A   1      44.131  28.198  37.538  1.00  0.00    -0.206 F 
ATOM     57  C   UNL A   1      46.385  28.501  38.126  1.00  0.00     0.059 A 
ATOM     58  C   UNL A   1      47.678  30.264  37.078  1.00  0.00     0.059 A 
ATOM     59  F   UNL A   1      46.659  31.684  35.521  1.00  0.00    -0.206 F 
ATOM     60  C   UNL A   1      47.584  29.200  37.970  1.00  0.00     0.060 A 
BRANCH  60  61
ATOM     61  S   UNL A   1      49.021  28.691  38.940  1.00  0.00     0.124 S 
ATOM     62  O   UNL A   1      49.121  27.285  38.610  1.00  0.00    -0.237 OA
ATOM     63  O   UNL A   1      50.073  29.556  38.404  1.00  0.00    -0.237 OA
ATOM     64  O   UNL A   1      48.620  28.996  40.317  1.00  0.00    -0.744 OA
ENDBRANCH  60  61
ENDBRANCH  28  53
BRANCH  40  65
ATOM     65  C   UNL A   1      40.288  34.731  37.374  1.00  0.00     0.058 A 
ATOM     66  C   UNL A   1      39.401  34.419  38.414  1.00  0.00     0.135 A 
ATOM     67  C   UNL A   1      40.974  35.954  37.427  1.00  0.00     0.135 A 
ATOM     68  F   UNL A   1      38.719  33.263  38.401  1.00  0.00    -0.206 F 
ATOM     69  C   UNL A   1      39.184  35.303  39.463  1.00  0.00     0.059 A 
ATOM     70  C   UNL A   1      40.797  36.837  38.484  1.00  0.00     0.059 A 
ATOM     71  F   UNL A   1      41.843  36.286  36.460  1.00  0.00    -0.206 F 
ATOM     72  C   UNL A   1      39.892  36.507  39.491  1.00  0.00     0.060 A 
BRANCH  72  73
ATOM     73  S   UNL A   1      39.637  37.625  40.882  1.00  0.00     0.124 S 
ATOM     74  O   UNL A   1      40.953  38.243  41.006  1.00  0.00    -0.237 OA
ATOM     75  O   UNL A   1      38.571  38.494  40.393  1.00  0.00    -0.237 OA
ATOM     76  O   UNL A   1      39.257  36.731  41.972  1.00  0.00    -0.744 OA
ENDBRANCH  72  73
ENDBRANCH  40  65
ENDBRANCH  14  15
ENDBRANCH   7   9
ENDBRANCH   6   7
ENDBRANCH   5   6
ENDBRANCH   4   5
ENDBRANCH   3   4
ENDBRANCH   2   3
ENDBRANCH   1   2
BRANCH   1  77
ATOM     77  O   UNL A   1      39.038  24.265  27.392  1.00  0.00    -0.377 OA
BRANCH  77  78
ATOM     78  C   UNL A   1      37.980  23.926  26.508  1.00  0.00     0.188 C 
BRANCH  78  79
ATOM     79  C   UNL A   1      38.045  22.689  25.623  1.00  0.00     0.188 C 
BRANCH  79  80
ATOM     80  O   UNL A   1      37.166  21.594  25.811  1.00  0.00    -0.376 OA
BRANCH  80  81
ATOM     81  C   UNL A   1      35.870  21.601  25.241  1.00  0.00     0.202 C 
BRANCH  81  82
ATOM     82  C   UNL A   1      34.774  22.119  26.187  1.00  0.00     0.261 C 
BRANCH  82  83
ATOM     83  O   UNL A   1      33.656  22.808  25.570  1.00  0.00    -0.463 OA
BRANCH  83  84
ATOM     84  C   UNL A   1      32.535  22.082  25.317  1.00  0.00     0.309 C 
ATOM     85  O   UNL A   1      32.449  20.866  25.450  1.00  0.00    -0.252 OA
BRANCH  84  86
ATOM     86  C   UNL A   1      31.330  22.925  24.873  1.00  0.00     0.103 C 
ATOM     87  C   UNL A   1      31.519  23.635  23.529  1.00  0.00     0.037 C 
ATOM     88  C   UNL A   1      30.672  23.823  25.951  1.00  0.00     0.037 C 
ATOM     89  C   UNL A   1      32.028  25.066  23.672  1.00  0.00     0.117 C 
ATOM     90  C   UNL A   1      31.052  25.314  25.929  1.00  0.00     0.117 C 
ATOM     91  N   UNL A   1      31.112  25.780  24.555  1.00  0.00    -0.366 N 
BRANCH  91  92
ATOM     92  C   UNL A   1      30.705  27.060  24.231  1.00  0.00     0.116 A 
ATOM     93  C   UNL A   1      29.502  27.166  23.515  1.00  0.00     0.034 A 
ATOM     94  C   UNL A   1      31.335  28.267  24.571  1.00  0.00     0.293 A 
ATOM     95  C   UNL A   1      28.939  28.403  23.180  1.00  0.00     0.016 A 
ATOM     96  C   UNL A   1      30.780  29.524  24.244  1.00  0.00     0.101 A 
ATOM     97  C   UNL A   1      29.568  29.599  23.548  1.00  0.00     0.062 A 
BRANCH  94  98
ATOM     98  N   UNL A   1      32.603  28.291  25.277  1.00  0.00     0.064 N 
ATOM     99  O   UNL A   1      33.619  28.071  24.600  1.00  0.00    -0.258 OA
ATOM    100  O   UNL A   1      32.583  28.443  26.505  1.00  0.00    -0.258 OA
ENDBRANCH  94  98
BRANCH  97 101
ATOM    101  C   UNL A   1      28.933  30.921  23.196  1.00  0.00     0.416 C 
ATOM    102  F   UNL A   1      27.578  30.895  23.317  1.00  0.00    -0.166 F 
ATOM    103  F   UNL A   1      29.360  31.932  24.004  1.00  0.00    -0.166 F 
ATOM    104  F   UNL A   1      29.189  31.328  21.922  1.00  0.00    -0.166 F 
ENDBRANCH  97 101
ENDBRANCH  91  92
ENDBRANCH  84  86
ENDBRANCH  83  84
ENDBRANCH  82  83
ENDBRANCH  81  82
ENDBRANCH  80  81
ENDBRANCH  79  80
ENDBRANCH  78  79
ENDBRANCH  77  78
ENDBRANCH   1  77
TORSDOF 26
ENDMDL
MODEL 2
REMARK VINA RESULT:      -8.2      4.741      8.327
REMARK SMILES O=C(OCCOCCOCCOCCOC(=O)C1CCN(c2ccc(C(F)(F)F)cc2[N+](=O)[O-])CC1)c1ccc(-c2c3nc(c(-c4c(F)cc(S(=O)(=O)[O-])cc4F)c4ccc([nH]4)c(-c4c(F)cc(S(=O)(=O)[O-])cc4F)c4nc(c(-c5c(F)cc(S(=O)(=O)[O-])cc5F)c5ccc2[nH]5)C=C4)C=C3)cc1
REMARK SMILES IDX 8 1 7 2 6 3 5 4 4 5 3 6 2 7 1 8 37 9 38 10 102 11 39 12
REMARK SMILES IDX 101 13 40 14 41 15 42 16 95 17 43 18 100 19 94 20 96 21
REMARK SMILES IDX 44 22 99 23 93 24 92 25 45 27 79 28 58 29 78 30 59 31 62 32
REMARK SMILES IDX 77 33 97 34 60 35 61 36 76 38 98 39 63 40 46 41 47 42 56 43
REMARK SMILES IDX 48 44 49 45 55 46 57 47 50 48 51 49 52 50 53 51 54 52 80 53
REMARK SMILES IDX 81 54 90 55 82 56 83 57 89 58 91 59 84 60 85 61 86 62 87 63
REMARK SMILES IDX 88 64 64 65 65 66 74 67 66 68 67 69 73 70 75 71 68 72 69 73
REMARK SMILES IDX 70 74 71 75 72 76 9 77 10 78 11 79 12 80 13 81 14 82 15 83
REMARK SMILES IDX 16 84 17 85 18 86 19 87 36 88 20 89 35 90 21 91 22 92 23 93
REMARK SMILES IDX 31 94 24 95 30 96 25 97 32 98 33 99 34 100 26 101 27 102
REMARK SMILES IDX 28 103 29 104
REMARK H PARENT 96 26 62 37
REMARK Flexibility Score: inf
ROOT
ATOM      1  C   UNL A   1      39.058  27.668  28.810  1.00  0.00     0.188 C 
ENDROOT
BRANCH   1   2
ATOM      2  C   UNL A   1      38.941  28.976  28.051  1.00  0.00     0.188 C 
BRANCH   2   3
ATOM      3  O   UNL A   1      37.837  29.696  28.594  1.00  0.00    -0.376 OA
BRANCH   3   4
ATOM      4  C   UNL A   1      36.861  30.108  27.642  1.00  0.00     0.202 C 
BRANCH   4   5
ATOM      5  C   UNL A   1      35.542  30.540  28.283  1.00  0.00     0.261 C 
BRANCH   5   6
ATOM      6  O   UNL A   1      35.658  30.774  29.695  1.00  0.00    -0.460 OA
BRANCH   6   7
ATOM      7  C   UNL A   1      35.503  31.939  30.374  1.00  0.00     0.338 C 
ATOM      8  O   UNL A   1      34.427  32.529  30.259  1.00  0.00    -0.246 OA
BRANCH   7   9
ATOM      9  C   UNL A   1      36.554  32.584  31.230  1.00  0.00     0.060 A 
ATOM     10  C   UNL A   1      36.588  33.928  31.606  1.00  0.00     0.016 A 
ATOM     11  C   UNL A   1      37.563  31.747  31.743  1.00  0.00     0.016 A 
ATOM     12  C   UNL A   1      37.566  34.440  32.438  1.00  0.00     0.010 A 
ATOM     13  C   UNL A   1      38.580  32.256  32.561  1.00  0.00     0.010 A 
ATOM     14  C   UNL A   1      38.588  33.616  32.884  1.00  0.00    -0.014 A 
BRANCH  14  15
ATOM     15  C   UNL A   1      39.769  34.298  33.432  1.00  0.00     0.031 A 
ATOM     16  C   UNL A   1      39.829  34.447  34.923  1.00  0.00     0.074 A 
ATOM     17  C   UNL A   1      40.824  34.554  32.640  1.00  0.00     0.049 A 
ATOM     18  N   UNL A   1      40.730  35.025  35.663  1.00  0.00    -0.248 NA
ATOM     19  C   UNL A   1      38.727  33.832  35.688  1.00  0.00     0.031 C 
ATOM     20  C   UNL A   1      40.901  34.242  31.209  1.00  0.00     0.029 A 
ATOM     21  N   UNL A   1      42.046  35.094  32.931  1.00  0.00    -0.354 N 
ATOM     22  C   UNL A   1      40.284  34.882  36.971  1.00  0.00     0.074 A 
ATOM     23  C   UNL A   1      39.039  34.154  36.932  1.00  0.00     0.031 C 
ATOM     24  C   UNL A   1      42.113  34.593  30.750  1.00  0.00     0.029 A 
ATOM     25  C   UNL A   1      42.863  35.220  31.832  1.00  0.00     0.049 A 
ATOM     26  H   UNL A   1      42.314  35.366  33.838  1.00  0.00     0.167 HD
ATOM     27  C   UNL A   1      40.869  35.339  38.100  1.00  0.00     0.037 A 
ATOM     28  C   UNL A   1      44.062  35.823  31.725  1.00  0.00     0.037 A 
ATOM     29  C   UNL A   1      42.112  36.057  38.083  1.00  0.00     0.049 A 
ATOM     30  C   UNL A   1      44.639  36.434  32.975  1.00  0.00     0.074 A 
ATOM     31  C   UNL A   1      42.780  36.663  39.128  1.00  0.00     0.029 A 
ATOM     32  N   UNL A   1      42.877  36.260  36.938  1.00  0.00    -0.354 N 
ATOM     33  N   UNL A   1      44.161  36.405  34.201  1.00  0.00    -0.248 NA
ATOM     34  C   UNL A   1      45.897  37.174  32.836  1.00  0.00     0.031 C 
ATOM     35  C   UNL A   1      43.925  37.275  38.605  1.00  0.00     0.029 A 
ATOM     36  C   UNL A   1      44.002  36.997  37.246  1.00  0.00     0.049 A 
ATOM     37  H   UNL A   1      42.648  35.927  36.041  1.00  0.00     0.167 HD
ATOM     38  C   UNL A   1      45.069  37.106  34.983  1.00  0.00     0.074 A 
ATOM     39  C   UNL A   1      46.133  37.533  34.092  1.00  0.00     0.031 C 
ATOM     40  C   UNL A   1      45.035  37.381  36.311  1.00  0.00     0.037 A 
BRANCH  27  41
ATOM     41  C   UNL A   1      40.114  35.158  39.387  1.00  0.00     0.058 A 
ATOM     42  C   UNL A   1      40.269  34.024  40.200  1.00  0.00     0.135 A 
ATOM     43  C   UNL A   1      39.171  36.120  39.785  1.00  0.00     0.135 A 
ATOM     44  F   UNL A   1      41.125  33.051  39.847  1.00  0.00    -0.206 F 
ATOM     45  C   UNL A   1      39.498  33.837  41.344  1.00  0.00     0.059 A 
ATOM     46  C   UNL A   1      38.407  35.966  40.938  1.00  0.00     0.059 A 
ATOM     47  F   UNL A   1      38.963  37.214  39.034  1.00  0.00    -0.206 F 
ATOM     48  C   UNL A   1      38.567  34.813  41.702  1.00  0.00     0.060 A 
BRANCH  48  49
ATOM     49  S   UNL A   1      37.563  34.551  43.181  1.00  0.00     0.124 S 
ATOM     50  O   UNL A   1      38.128  33.309  43.700  1.00  0.00    -0.237 OA
ATOM     51  O   UNL A   1      37.843  35.749  43.963  1.00  0.00    -0.237 OA
ATOM     52  O   UNL A   1      36.205  34.450  42.656  1.00  0.00    -0.744 OA
ENDBRANCH  48  49
ENDBRANCH  27  41
BRANCH  28  53
ATOM     53  C   UNL A   1      44.736  35.942  30.402  1.00  0.00     0.058 A 
ATOM     54  C   UNL A   1      45.719  35.031  29.988  1.00  0.00     0.135 A 
ATOM     55  C   UNL A   1      44.411  36.986  29.517  1.00  0.00     0.135 A 
ATOM     56  F   UNL A   1      46.077  34.020  30.795  1.00  0.00    -0.206 F 
ATOM     57  C   UNL A   1      46.365  35.157  28.760  1.00  0.00     0.059 A 
ATOM     58  C   UNL A   1      45.020  37.115  28.271  1.00  0.00     0.059 A 
ATOM     59  F   UNL A   1      43.475  37.887  29.852  1.00  0.00    -0.206 F 
ATOM     60  C   UNL A   1      46.007  36.204  27.907  1.00  0.00     0.060 A 
BRANCH  60  61
ATOM     61  S   UNL A   1      46.841  36.351  26.311  1.00  0.00     0.124 S 
ATOM     62  O   UNL A   1      48.186  35.927  26.637  1.00  0.00    -0.237 OA
ATOM     63  O   UNL A   1      46.061  35.438  25.473  1.00  0.00    -0.237 OA
ATOM     64  O   UNL A   1      46.682  37.771  25.980  1.00  0.00    -0.744 OA
ENDBRANCH  60  61
ENDBRANCH  28  53
BRANCH  40  65
ATOM     65  C   UNL A   1      46.200  38.139  36.876  1.00  0.00     0.058 A 
ATOM     66  C   UNL A   1      47.350  37.483  37.336  1.00  0.00     0.135 A 
ATOM     67  C   UNL A   1      46.183  39.542  36.886  1.00  0.00     0.135 A 
ATOM     68  F   UNL A   1      47.407  36.142  37.350  1.00  0.00    -0.206 F 
ATOM     69  C   UNL A   1      48.442  38.197  37.812  1.00  0.00     0.059 A 
ATOM     70  C   UNL A   1      47.277  40.275  37.326  1.00  0.00     0.059 A 
ATOM     71  F   UNL A   1      45.108  40.211  36.441  1.00  0.00    -0.206 F 
ATOM     72  C   UNL A   1      48.398  39.593  37.797  1.00  0.00     0.060 A 
BRANCH  72  73
ATOM     73  S   UNL A   1      49.840  40.508  38.374  1.00  0.00     0.124 S 
ATOM     74  O   UNL A   1      50.924  39.802  37.698  1.00  0.00    -0.237 OA
ATOM     75  O   UNL A   1      49.565  41.859  37.894  1.00  0.00    -0.237 OA
ATOM     76  O   UNL A   1      49.790  40.343  39.824  1.00  0.00    -0.744 OA
ENDBRANCH  72  73
ENDBRANCH  40  65
ENDBRANCH  14  15
ENDBRANCH   7   9
ENDBRANCH   6   7
ENDBRANCH   5   6
ENDBRANCH   4   5
ENDBRANCH   3   4
ENDBRANCH   2   3
ENDBRANCH   1   2
BRANCH   1  77
ATOM     77  O   UNL A   1      40.263  26.961  28.532  1.00  0.00    -0.377 OA
BRANCH  77  78
ATOM     78  C   UNL A   1      40.419  26.392  27.240  1.00  0.00     0.188 C 
BRANCH  78  79
ATOM     79  C   UNL A   1      40.289  24.892  27.009  1.00  0.00     0.188 C 
BRANCH  79  80
ATOM     80  O   UNL A   1      39.030  24.281  26.792  1.00  0.00    -0.376 OA
BRANCH  80  81
ATOM     81  C   UNL A   1      38.937  22.899  26.500  1.00  0.00     0.202 C 
BRANCH  81  82
ATOM     82  C   UNL A   1      38.081  22.576  25.265  1.00  0.00     0.261 C 
BRANCH  82  83
ATOM     83  O   UNL A   1      37.253  23.650  24.750  1.00  0.00    -0.463 OA
BRANCH  83  84
ATOM     84  C   UNL A   1      36.294  23.323  23.844  1.00  0.00     0.309 C 
ATOM     85  O   UNL A   1      36.519  22.875  22.724  1.00  0.00    -0.252 OA
BRANCH  84  86
ATOM     86  C   UNL A   1      34.858  23.525  24.352  1.00  0.00     0.103 C 
ATOM     87  C   UNL A   1      33.789  23.466  23.257  1.00  0.00     0.037 C 
ATOM     88  C   UNL A   1      34.632  24.675  25.365  1.00  0.00     0.037 C 
ATOM     89  C   UNL A   1      33.418  24.838  22.705  1.00  0.00     0.117 C 
ATOM     90  C   UNL A   1      34.053  25.984  24.801  1.00  0.00     0.117 C 
ATOM     91  N   UNL A   1      33.018  25.679  23.829  1.00  0.00    -0.366 N 
BRANCH  91  92
ATOM     92  C   UNL A   1      31.900  26.482  23.721  1.00  0.00     0.116 A 
ATOM     93  C   UNL A   1      31.857  27.340  22.610  1.00  0.00     0.034 A 
ATOM     94  C   UNL A   1      30.783  26.509  24.570  1.00  0.00     0.293 A 
ATOM     95  C   UNL A   1      30.754  28.159  22.341  1.00  0.00     0.016 A 
ATOM     96  C   UNL A   1      29.661  27.326  24.312  1.00  0.00     0.101 A 
ATOM     97  C   UNL A   1      29.637  28.156  23.185  1.00  0.00     0.062 A 
BRANCH  94  98
ATOM     98  N   UNL A   1      30.721  25.697  25.771  1.00  0.00     0.064 N 
ATOM     99  O   UNL A   1      30.046  24.659  25.705  1.00  0.00    -0.258 OA
ATOM    100  O   UNL A   1      31.268  26.129  26.795  1.00  0.00    -0.258 OA
ENDBRANCH  94  98
BRANCH  97 101
ATOM    101  C   UNL A   1      28.450  29.030  22.865  1.00  0.00     0.416 C 
ATOM    102  F   UNL A   1      28.448  30.185  23.583  1.00  0.00    -0.166 F 
ATOM    103  F   UNL A   1      28.421  29.405  21.556  1.00  0.00    -0.166 F 
ATOM    104  F   UNL A   1      27.251  28.434  23.109  1.00  0.00    -0.166 F 
ENDBRANCH  97 101
ENDBRANCH  91  92
ENDBRANCH  84  86
ENDBRANCH  83  84
ENDBRANCH  82  83
ENDBRANCH  81  82
ENDBRANCH  80  81
ENDBRANCH  79  80
ENDBRANCH  78  79
ENDBRANCH  77  78
ENDBRANCH   1  77
TORSDOF 26
ENDMDL
MODEL 3
REMARK VINA RESULT:      -8.0      1.542      2.292
REMARK SMILES O=C(OCCOCCOCCOCCOC(=O)C1CCN(c2ccc(C(F)(F)F)cc2[N+](=O)[O-])CC1)c1ccc(-c2c3nc(c(-c4c(F)cc(S(=O)(=O)[O-])cc4F)c4ccc([nH]4)c(-c4c(F)cc(S(=O)(=O)[O-])cc4F)c4nc(c(-c5c(F)cc(S(=O)(=O)[O-])cc5F)c5ccc2[nH]5)C=C4)C=C3)cc1
REMARK SMILES IDX 8 1 7 2 6 3 5 4 4 5 3 6 2 7 1 8 37 9 38 10 102 11 39 12
REMARK SMILES IDX 101 13 40 14 41 15 42 16 95 17 43 18 100 19 94 20 96 21
REMARK SMILES IDX 44 22 99 23 93 24 92 25 45 27 79 28 58 29 78 30 59 31 62 32
REMARK SMILES IDX 77 33 97 34 60 35 61 36 76 38 98 39 63 40 46 41 47 42 56 43
REMARK SMILES IDX 48 44 49 45 55 46 57 47 50 48 51 49 52 50 53 51 54 52 80 53
REMARK SMILES IDX 81 54 90 55 82 56 83 57 89 58 91 59 84 60 85 61 86 62 87 63
REMARK SMILES IDX 88 64 64 65 65 66 74 67 66 68 67 69 73 70 75 71 68 72 69 73
REMARK SMILES IDX 70 74 71 75 72 76 9 77 10 78 11 79 12 80 13 81 14 82 15 83
REMARK SMILES IDX 16 84 17 85 18 86 19 87 36 88 20 89 35 90 21 91 22 92 23 93
REMARK SMILES IDX 31 94 24 95 30 96 25 97 32 98 33 99 34 100 26 101 27 102
REMARK SMILES IDX 28 103 29 104
REMARK H PARENT 96 26 62 37
REMARK Flexibility Score: inf
ROOT
ATOM      1  C   UNL A   1      40.143  25.120  27.351  1.00  0.00     0.188 C 
ENDROOT
BRANCH   1   2
ATOM      2  C   UNL A   1      41.369  24.802  26.517  1.00  0.00     0.188 C 
BRANCH   2   3
ATOM      3  O   UNL A   1      41.510  23.384  26.477  1.00  0.00    -0.376 OA
BRANCH   3   4
ATOM      4  C   UNL A   1      42.377  22.894  25.460  1.00  0.00     0.202 C 
BRANCH   4   5
ATOM      5  C   UNL A   1      43.551  22.084  26.010  1.00  0.00     0.261 C 
BRANCH   5   6
ATOM      6  O   UNL A   1      44.237  22.752  27.080  1.00  0.00    -0.460 OA
BRANCH   6   7
ATOM      7  C   UNL A   1      44.781  23.996  27.089  1.00  0.00     0.338 C 
ATOM      8  O   UNL A   1      45.673  24.236  26.274  1.00  0.00    -0.246 OA
BRANCH   7   9
ATOM      9  C   UNL A   1      44.400  25.095  28.038  1.00  0.00     0.060 A 
ATOM     10  C   UNL A   1      44.810  26.427  27.951  1.00  0.00     0.016 A 
ATOM     11  C   UNL A   1      43.508  24.764  29.076  1.00  0.00     0.016 A 
ATOM     12  C   UNL A   1      44.377  27.395  28.838  1.00  0.00     0.010 A 
ATOM     13  C   UNL A   1      43.086  25.725  30.003  1.00  0.00     0.010 A 
ATOM     14  C   UNL A   1      43.549  27.039  29.891  1.00  0.00    -0.014 A 
BRANCH  14  15
ATOM     15  C   UNL A   1      43.446  28.016  30.984  1.00  0.00     0.031 A 
ATOM     16  C   UNL A   1      42.212  28.868  31.013  1.00  0.00     0.074 A 
ATOM     17  C   UNL A   1      44.309  27.966  32.012  1.00  0.00     0.049 A 
ATOM     18  N   UNL A   1      41.879  29.818  31.837  1.00  0.00    -0.248 NA
ATOM     19  C   UNL A   1      41.198  28.587  29.977  1.00  0.00     0.031 C 
ATOM     20  C   UNL A   1      45.419  27.015  32.138  1.00  0.00     0.029 A 
ATOM     21  N   UNL A   1      44.367  28.700  33.165  1.00  0.00    -0.354 N 
ATOM     22  C   UNL A   1      40.643  30.276  31.396  1.00  0.00     0.074 A 
ATOM     23  C   UNL A   1      40.275  29.497  30.240  1.00  0.00     0.031 C 
ATOM     24  C   UNL A   1      46.043  27.224  33.308  1.00  0.00     0.029 A 
ATOM     25  C   UNL A   1      45.427  28.365  33.974  1.00  0.00     0.049 A 
ATOM     26  H   UNL A   1      43.713  29.399  33.392  1.00  0.00     0.167 HD
ATOM     27  C   UNL A   1      39.897  31.276  31.916  1.00  0.00     0.037 A 
ATOM     28  C   UNL A   1      45.861  28.960  35.100  1.00  0.00     0.037 A 
ATOM     29  C   UNL A   1      40.311  32.019  33.073  1.00  0.00     0.049 A 
ATOM     30  C   UNL A   1      45.082  30.151  35.594  1.00  0.00     0.074 A 
ATOM     31  C   UNL A   1      39.713  33.116  33.660  1.00  0.00     0.029 A 
ATOM     32  N   UNL A   1      41.445  31.724  33.822  1.00  0.00    -0.354 N 
ATOM     33  N   UNL A   1      43.972  30.666  35.110  1.00  0.00    -0.248 NA
ATOM     34  C   UNL A   1      45.614  30.857  36.764  1.00  0.00     0.031 C 
ATOM     35  C   UNL A   1      40.515  33.514  34.736  1.00  0.00     0.029 A 
ATOM     36  C   UNL A   1      41.578  32.628  34.857  1.00  0.00     0.049 A 
ATOM     37  H   UNL A   1      42.063  30.979  33.640  1.00  0.00     0.167 HD
ATOM     38  C   UNL A   1      43.662  31.744  35.927  1.00  0.00     0.074 A 
ATOM     39  C   UNL A   1      44.694  31.796  36.946  1.00  0.00     0.031 C 
ATOM     40  C   UNL A   1      42.626  32.618  35.850  1.00  0.00     0.037 A 
BRANCH  27  41
ATOM     41  C   UNL A   1      38.649  31.660  31.173  1.00  0.00     0.058 A 
ATOM     42  C   UNL A   1      37.388  31.131  31.493  1.00  0.00     0.135 A 
ATOM     43  C   UNL A   1      38.729  32.535  30.077  1.00  0.00     0.135 A 
ATOM     44  F   UNL A   1      37.258  30.256  32.503  1.00  0.00    -0.206 F 
ATOM     45  C   UNL A   1      36.258  31.435  30.738  1.00  0.00     0.059 A 
ATOM     46  C   UNL A   1      37.609  32.872  29.324  1.00  0.00     0.059 A 
ATOM     47  F   UNL A   1      39.913  33.052  29.711  1.00  0.00    -0.206 F 
ATOM     48  C   UNL A   1      36.380  32.305  29.652  1.00  0.00     0.060 A 
BRANCH  48  49
ATOM     49  S   UNL A   1      34.910  32.679  28.673  1.00  0.00     0.124 S 
ATOM     50  O   UNL A   1      34.165  33.544  29.583  1.00  0.00    -0.237 OA
ATOM     51  O   UNL A   1      35.476  33.333  27.499  1.00  0.00    -0.237 OA
ATOM     52  O   UNL A   1      34.318  31.366  28.432  1.00  0.00    -0.744 OA
ENDBRANCH  48  49
ENDBRANCH  27  41
BRANCH  28  53
ATOM     53  C   UNL A   1      47.109  28.497  35.771  1.00  0.00     0.058 A 
ATOM     54  C   UNL A   1      48.371  28.991  35.406  1.00  0.00     0.135 A 
ATOM     55  C   UNL A   1      47.064  27.537  36.797  1.00  0.00     0.135 A 
ATOM     56  F   UNL A   1      48.476  29.902  34.427  1.00  0.00    -0.206 F 
ATOM     57  C   UNL A   1      49.538  28.541  36.019  1.00  0.00     0.059 A 
ATOM     58  C   UNL A   1      48.213  27.095  37.446  1.00  0.00     0.059 A 
ATOM     59  F   UNL A   1      45.887  27.031  37.195  1.00  0.00    -0.206 F 
ATOM     60  C   UNL A   1      49.449  27.591  37.039  1.00  0.00     0.060 A 
BRANCH  60  61
ATOM     61  S   UNL A   1      50.968  27.023  37.836  1.00  0.00     0.124 S 
ATOM     62  O   UNL A   1      50.489  26.631  39.146  1.00  0.00    -0.237 OA
ATOM     63  O   UNL A   1      51.389  25.936  36.951  1.00  0.00    -0.237 OA
ATOM     64  O   UNL A   1      51.828  28.210  37.801  1.00  0.00    -0.744 OA
ENDBRANCH  60  61
ENDBRANCH  28  53
BRANCH  40  65
ATOM     65  C   UNL A   1      42.545  33.667  36.919  1.00  0.00     0.058 A 
ATOM     66  C   UNL A   1      43.113  34.937  36.747  1.00  0.00     0.135 A 
ATOM     67  C   UNL A   1      41.827  33.412  38.097  1.00  0.00     0.135 A 
ATOM     68  F   UNL A   1      43.814  35.223  35.639  1.00  0.00    -0.206 F 
ATOM     69  C   UNL A   1      42.991  35.917  37.723  1.00  0.00     0.059 A 
ATOM     70  C   UNL A   1      41.664  34.388  39.071  1.00  0.00     0.059 A 
ATOM     71  F   UNL A   1      41.254  32.215  38.296  1.00  0.00    -0.206 F 
ATOM     72  C   UNL A   1      42.259  35.634  38.880  1.00  0.00     0.060 A 
BRANCH  72  73
ATOM     73  S   UNL A   1      42.068  36.930  40.119  1.00  0.00     0.124 S 
ATOM     74  O   UNL A   1      43.240  36.705  40.959  1.00  0.00    -0.237 OA
ATOM     75  O   UNL A   1      42.092  38.143  39.307  1.00  0.00    -0.237 OA
ATOM     76  O   UNL A   1      40.782  36.622  40.737  1.00  0.00    -0.744 OA
ENDBRANCH  72  73
ENDBRANCH  40  65
ENDBRANCH  14  15
ENDBRANCH   7   9
ENDBRANCH   6   7
ENDBRANCH   5   6
ENDBRANCH   4   5
ENDBRANCH   3   4
ENDBRANCH   2   3
ENDBRANCH   1   2
BRANCH   1  77
ATOM     77  O   UNL A   1      39.221  24.037  27.434  1.00  0.00    -0.377 OA
BRANCH  77  78
ATOM     78  C   UNL A   1      38.211  23.944  26.440  1.00  0.00     0.188 C 
BRANCH  78  79
ATOM     79  C   UNL A   1      38.143  22.762  25.481  1.00  0.00     0.188 C 
BRANCH  79  80
ATOM     80  O   UNL A   1      37.443  21.576  25.813  1.00  0.00    -0.376 OA
BRANCH  80  81
ATOM     81  C   UNL A   1      36.248  21.228  25.139  1.00  0.00     0.202 C 
BRANCH  81  82
ATOM     82  C   UNL A   1      34.967  21.637  25.884  1.00  0.00     0.261 C 
BRANCH  82  83
ATOM     83  O   UNL A   1      33.957  22.330  25.108  1.00  0.00    -0.463 OA
BRANCH  83  84
ATOM     84  C   UNL A   1      32.896  21.603  24.668  1.00  0.00     0.309 C 
ATOM     85  O   UNL A   1      32.876  20.379  24.590  1.00  0.00    -0.252 OA
BRANCH  84  86
ATOM     86  C   UNL A   1      31.667  22.449  24.298  1.00  0.00     0.103 C 
ATOM     87  C   UNL A   1      31.818  23.242  22.997  1.00  0.00     0.037 C 
ATOM     88  C   UNL A   1      31.014  23.266  25.441  1.00  0.00     0.037 C 
ATOM     89  C   UNL A   1      32.304  24.671  23.218  1.00  0.00     0.117 C 
ATOM     90  C   UNL A   1      31.366  24.763  25.503  1.00  0.00     0.117 C 
ATOM     91  N   UNL A   1      31.392  25.313  24.159  1.00  0.00    -0.366 N 
BRANCH  91  92
ATOM     92  C   UNL A   1      30.956  26.602  23.921  1.00  0.00     0.116 A 
ATOM     93  C   UNL A   1      29.597  26.748  23.601  1.00  0.00     0.034 A 
ATOM     94  C   UNL A   1      31.706  27.785  24.005  1.00  0.00     0.293 A 
ATOM     95  C   UNL A   1      29.008  28.002  23.401  1.00  0.00     0.016 A 
ATOM     96  C   UNL A   1      31.128  29.058  23.810  1.00  0.00     0.101 A 
ATOM     97  C   UNL A   1      29.765  29.175  23.512  1.00  0.00     0.062 A 
BRANCH  94  98
ATOM     98  N   UNL A   1      33.129  27.765  24.291  1.00  0.00     0.064 N 
ATOM     99  O   UNL A   1      33.892  27.862  23.319  1.00  0.00    -0.258 OA
ATOM    100  O   UNL A   1      33.485  27.571  25.461  1.00  0.00    -0.258 OA
ENDBRANCH  94  98
BRANCH  97 101
ATOM    101  C   UNL A   1      29.105  30.517  23.315  1.00  0.00     0.416 C 
ATOM    102  F   UNL A   1      27.747  30.433  23.322  1.00  0.00    -0.166 F 
ATOM    103  F   UNL A   1      29.429  31.403  24.298  1.00  0.00    -0.166 F 
ATOM    104  F   UNL A   1      29.438  31.122  22.142  1.00  0.00    -0.166 F 
ENDBRANCH  97 101
ENDBRANCH  91  92
ENDBRANCH  84  86
ENDBRANCH  83  84
ENDBRANCH  82  83
ENDBRANCH  81  82
ENDBRANCH  80  81
ENDBRANCH  79  80
ENDBRANCH  78  79
ENDBRANCH  77  78
ENDBRANCH   1  77
TORSDOF 26
ENDMDL
