MODEL 1
REMARK VINA RESULT:     -11.4      0.000      0.000
REMARK SMILES O=C(OCCOCCOCCOCCOC(=O)c1nnn(-c2cccc(C(F)(F)F)c2)c1[C@@H]1COc2ccccc2O1)c1ccc(-c2c3nc(c(-c4c(F)cc(S(=O)(=O)[O-])cc4F)c4ccc([nH]4)c(-c4c(F)cc(S(=O)(=O)[O-])cc4F)c4nc(c(-c5c(F)cc(S(=O)(=O)[O-])cc5F)c5ccc2[nH]5)C=C4)C=C3)cc1
REMARK SMILES IDX 8 1 7 2 6 3 5 4 4 5 3 6 2 7 1 8 43 9 44 10 108 11 45 12
REMARK SMILES IDX 107 13 46 14 47 15 48 16 101 17 49 18 106 19 100 20 102 21
REMARK SMILES IDX 50 22 105 23 99 24 98 25 51 27 85 28 64 29 84 30 65 31 68 32
REMARK SMILES IDX 83 33 103 34 66 35 67 36 82 38 104 39 69 40 52 41 53 42
REMARK SMILES IDX 62 43 54 44 55 45 61 46 63 47 56 48 57 49 58 50 59 51 60 52
REMARK SMILES IDX 86 53 87 54 96 55 88 56 89 57 95 58 97 59 90 60 91 61 92 62
REMARK SMILES IDX 93 63 94 64 70 65 71 66 80 67 72 68 73 69 79 70 81 71 74 72
REMARK SMILES IDX 75 73 76 74 77 75 78 76 9 77 10 78 11 79 12 80 13 81 14 82
REMARK SMILES IDX 15 83 16 84 17 85 18 86 19 87 32 88 20 89 21 90 33 91 34 92
REMARK SMILES IDX 42 93 35 94 41 95 36 96 40 97 37 98 39 99 38 100 22 101
REMARK SMILES IDX 23 102 31 103 24 104 26 105 25 106 27 107 28 108 29 109
REMARK SMILES IDX 30 110
REMARK H PARENT 102 26 68 37
REMARK Flexibility Score: inf
ROOT
ATOM      1  C   UNL A   1      34.241  22.395  27.212  1.00  0.00     0.188 C 
ENDROOT
BRANCH   1   2
ATOM      2  C   UNL A   1      35.117  23.063  26.143  1.00  0.00     0.188 C 
BRANCH   2   3
ATOM      3  O   UNL A   1      35.662  22.356  25.042  1.00  0.00    -0.376 OA
BRANCH   3   4
ATOM      4  C   UNL A   1      36.543  21.255  25.113  1.00  0.00     0.202 C 
BRANCH   4   5
ATOM      5  C   UNL A   1      38.049  21.361  25.359  1.00  0.00     0.261 C 
BRANCH   5   6
ATOM      6  O   UNL A   1      38.492  22.343  26.291  1.00  0.00    -0.460 OA
BRANCH   6   7
ATOM      7  C   UNL A   1      39.656  22.472  26.959  1.00  0.00     0.338 C 
ATOM      8  O   UNL A   1      40.190  21.442  27.370  1.00  0.00    -0.246 OA
BRANCH   7   9
ATOM      9  C   UNL A   1      40.273  23.776  27.334  1.00  0.00     0.060 A 
ATOM     10  C   UNL A   1      41.392  23.953  28.146  1.00  0.00     0.016 A 
ATOM     11  C   UNL A   1      39.627  24.922  26.825  1.00  0.00     0.016 A 
ATOM     12  C   UNL A   1      41.785  25.225  28.535  1.00  0.00     0.010 A 
ATOM     13  C   UNL A   1      40.030  26.199  27.196  1.00  0.00     0.010 A 
ATOM     14  C   UNL A   1      41.067  26.340  28.110  1.00  0.00    -0.014 A 
BRANCH  14  15
ATOM     15  C   UNL A   1      41.394  27.603  28.756  1.00  0.00     0.031 A 
ATOM     16  C   UNL A   1      42.665  28.268  28.366  1.00  0.00     0.074 A 
ATOM     17  C   UNL A   1      40.597  28.143  29.697  1.00  0.00     0.049 A 
ATOM     18  N   UNL A   1      43.715  28.485  29.093  1.00  0.00    -0.248 NA
ATOM     19  C   UNL A   1      42.803  28.695  26.969  1.00  0.00     0.031 C 
ATOM     20  C   UNL A   1      39.216  27.784  30.032  1.00  0.00     0.029 A 
ATOM     21  N   UNL A   1      40.851  29.206  30.507  1.00  0.00    -0.354 N 
ATOM     22  C   UNL A   1      44.578  29.245  28.306  1.00  0.00     0.074 A 
ATOM     23  C   UNL A   1      44.015  29.253  26.980  1.00  0.00     0.031 C 
ATOM     24  C   UNL A   1      38.687  28.749  30.814  1.00  0.00     0.029 A 
ATOM     25  C   UNL A   1      39.730  29.702  31.150  1.00  0.00     0.049 A 
ATOM     26  H   UNL A   1      41.750  29.589  30.626  1.00  0.00     0.167 HD
ATOM     27  C   UNL A   1      45.612  29.961  28.831  1.00  0.00     0.037 A 
ATOM     28  C   UNL A   1      39.647  30.855  31.850  1.00  0.00     0.037 A 
ATOM     29  C   UNL A   1      45.967  29.518  30.152  1.00  0.00     0.049 A 
ATOM     30  C   UNL A   1      41.019  31.218  32.289  1.00  0.00     0.074 A 
ATOM     31  C   UNL A   1      46.428  28.333  30.690  1.00  0.00     0.029 A 
ATOM     32  N   UNL A   1      45.589  30.288  31.223  1.00  0.00    -0.354 N 
ATOM     33  N   UNL A   1      41.716  30.543  33.163  1.00  0.00    -0.248 NA
ATOM     34  C   UNL A   1      41.782  32.146  31.469  1.00  0.00     0.031 C 
ATOM     35  C   UNL A   1      45.866  28.272  31.998  1.00  0.00     0.029 A 
ATOM     36  C   UNL A   1      45.111  29.431  32.181  1.00  0.00     0.049 A 
ATOM     37  H   UNL A   1      45.649  31.269  31.291  1.00  0.00     0.167 HD
ATOM     38  C   UNL A   1      43.032  30.664  32.743  1.00  0.00     0.074 A 
ATOM     39  C   UNL A   1      43.020  31.751  31.770  1.00  0.00     0.031 C 
ATOM     40  C   UNL A   1      43.962  29.705  33.020  1.00  0.00     0.037 A 
BRANCH  27  41
ATOM     41  C   UNL A   1      46.120  31.259  28.255  1.00  0.00     0.058 A 
ATOM     42  C   UNL A   1      45.303  32.409  28.269  1.00  0.00     0.135 A 
ATOM     43  C   UNL A   1      47.273  31.339  27.442  1.00  0.00     0.135 A 
ATOM     44  F   UNL A   1      44.172  32.434  28.993  1.00  0.00    -0.206 F 
ATOM     45  C   UNL A   1      45.579  33.531  27.486  1.00  0.00     0.059 A 
ATOM     46  C   UNL A   1      47.595  32.466  26.696  1.00  0.00     0.059 A 
ATOM     47  F   UNL A   1      48.083  30.287  27.263  1.00  0.00    -0.206 F 
ATOM     48  C   UNL A   1      46.719  33.540  26.687  1.00  0.00     0.060 A 
BRANCH  48  49
ATOM     49  S   UNL A   1      47.013  34.928  25.575  1.00  0.00     0.124 S 
ATOM     50  O   UNL A   1      47.027  36.047  26.510  1.00  0.00    -0.237 OA
ATOM     51  O   UNL A   1      48.297  34.577  24.977  1.00  0.00    -0.237 OA
ATOM     52  O   UNL A   1      45.870  34.876  24.667  1.00  0.00    -0.744 OA
ENDBRANCH  48  49
ENDBRANCH  27  41
BRANCH  28  53
ATOM     53  C   UNL A   1      38.512  31.809  31.840  1.00  0.00     0.058 A 
ATOM     54  C   UNL A   1      38.057  32.387  30.645  1.00  0.00     0.135 A 
ATOM     55  C   UNL A   1      37.680  31.972  32.970  1.00  0.00     0.135 A 
ATOM     56  F   UNL A   1      38.773  32.254  29.517  1.00  0.00    -0.206 F 
ATOM     57  C   UNL A   1      36.832  33.055  30.563  1.00  0.00     0.059 A 
ATOM     58  C   UNL A   1      36.465  32.648  32.917  1.00  0.00     0.059 A 
ATOM     59  F   UNL A   1      37.982  31.398  34.145  1.00  0.00    -0.206 F 
ATOM     60  C   UNL A   1      36.035  33.165  31.703  1.00  0.00     0.060 A 
BRANCH  60  61
ATOM     61  S   UNL A   1      34.379  33.875  31.564  1.00  0.00     0.124 S 
ATOM     62  O   UNL A   1      33.653  33.147  32.599  1.00  0.00    -0.237 OA
ATOM     63  O   UNL A   1      34.628  35.287  31.831  1.00  0.00    -0.237 OA
ATOM     64  O   UNL A   1      33.991  33.562  30.191  1.00  0.00    -0.744 OA
ENDBRANCH  60  61
ENDBRANCH  28  53
BRANCH  40  65
ATOM     65  C   UNL A   1      43.647  28.675  34.072  1.00  0.00     0.058 A 
ATOM     66  C   UNL A   1      44.021  28.796  35.421  1.00  0.00     0.135 A 
ATOM     67  C   UNL A   1      42.765  27.633  33.741  1.00  0.00     0.135 A 
ATOM     68  F   UNL A   1      44.779  29.822  35.835  1.00  0.00    -0.206 F 
ATOM     69  C   UNL A   1      43.555  27.910  36.394  1.00  0.00     0.059 A 
ATOM     70  C   UNL A   1      42.265  26.754  34.700  1.00  0.00     0.059 A 
ATOM     71  F   UNL A   1      42.322  27.502  32.478  1.00  0.00    -0.206 F 
ATOM     72  C   UNL A   1      42.666  26.898  36.026  1.00  0.00     0.060 A 
BRANCH  72  73
ATOM     73  S   UNL A   1      41.952  25.848  37.311  1.00  0.00     0.124 S 
ATOM     74  O   UNL A   1      42.050  24.522  36.715  1.00  0.00    -0.237 OA
ATOM     75  O   UNL A   1      42.831  26.098  38.452  1.00  0.00    -0.237 OA
ATOM     76  O   UNL A   1      40.595  26.369  37.461  1.00  0.00    -0.744 OA
ENDBRANCH  72  73
ENDBRANCH  40  65
ENDBRANCH  14  15
ENDBRANCH   7   9
ENDBRANCH   6   7
ENDBRANCH   5   6
ENDBRANCH   4   5
ENDBRANCH   3   4
ENDBRANCH   2   3
ENDBRANCH   1   2
BRANCH   1  77
ATOM     77  O   UNL A   1      33.386  21.359  26.746  1.00  0.00    -0.377 OA
BRANCH  77  78
ATOM     78  C   UNL A   1      32.438  21.758  25.777  1.00  0.00     0.188 C 
BRANCH  78  79
ATOM     79  C   UNL A   1      32.388  20.906  24.498  1.00  0.00     0.188 C 
BRANCH  79  80
ATOM     80  O   UNL A   1      32.559  21.459  23.194  1.00  0.00    -0.376 OA
BRANCH  80  81
ATOM     81  C   UNL A   1      32.877  22.829  23.028  1.00  0.00     0.202 C 
BRANCH  81  82
ATOM     82  C   UNL A   1      31.632  23.716  22.903  1.00  0.00     0.261 C 
BRANCH  82  83
ATOM     83  O   UNL A   1      31.823  25.053  23.395  1.00  0.00    -0.458 OA
BRANCH  83  84
ATOM     84  C   UNL A   1      32.174  25.978  22.453  1.00  0.00     0.361 C 
ATOM     85  O   UNL A   1      32.098  25.799  21.242  1.00  0.00    -0.244 OA
BRANCH  84  86
ATOM     86  C   UNL A   1      32.629  27.235  23.038  1.00  0.00     0.198 A 
ATOM     87  N   UNL A   1      33.889  27.715  22.765  1.00  0.00    -0.122 NA
ATOM     88  C   UNL A   1      31.960  28.169  23.828  1.00  0.00     0.123 A 
ATOM     89  N   UNL A   1      34.030  28.884  23.366  1.00  0.00    -0.061 NA
ATOM     90  N   UNL A   1      32.969  29.052  24.187  1.00  0.00    -0.213 N 
BRANCH  88  91
ATOM     91  C   UNL A   1      30.512  28.336  24.191  1.00  0.00     0.262 C 
ATOM     92  C   UNL A   1      29.539  27.684  23.194  1.00  0.00     0.281 C 
ATOM     93  O   UNL A   1      30.221  29.715  24.453  1.00  0.00    -0.477 OA
ATOM     94  O   UNL A   1      29.424  28.434  21.983  1.00  0.00    -0.485 OA
ATOM     95  C   UNL A   1      29.467  30.334  23.489  1.00  0.00     0.162 A 
ATOM     96  C   UNL A   1      29.114  29.735  22.277  1.00  0.00     0.161 A 
ATOM     97  C   UNL A   1      29.122  31.664  23.726  1.00  0.00     0.050 A 
ATOM     98  C   UNL A   1      28.479  30.473  21.282  1.00  0.00     0.050 A 
ATOM     99  C   UNL A   1      28.462  32.399  22.740  1.00  0.00     0.004 A 
ATOM    100  C   UNL A   1      28.152  31.808  21.514  1.00  0.00     0.004 A 
ENDBRANCH  88  91
BRANCH  90 101
ATOM    101  C   UNL A   1      33.227  29.616  25.450  1.00  0.00     0.067 A 
ATOM    102  C   UNL A   1      32.346  30.555  25.985  1.00  0.00     0.028 A 
ATOM    103  C   UNL A   1      34.421  29.283  26.105  1.00  0.00     0.041 A 
ATOM    104  C   UNL A   1      32.624  31.101  27.237  1.00  0.00     0.003 A 
ATOM    105  C   UNL A   1      34.730  29.875  27.335  1.00  0.00     0.058 A 
ATOM    106  C   UNL A   1      33.805  30.763  27.909  1.00  0.00     0.013 A 
BRANCH 105 107
ATOM    107  C   UNL A   1      36.028  29.559  28.033  1.00  0.00     0.416 C 
ATOM    108  F   UNL A   1      35.860  29.305  29.361  1.00  0.00    -0.166 F 
ATOM    109  F   UNL A   1      36.645  28.461  27.518  1.00  0.00    -0.166 F 
ATOM    110  F   UNL A   1      36.942  30.567  27.964  1.00  0.00    -0.166 F 
ENDBRANCH 105 107
ENDBRANCH  90 101
ENDBRANCH  84  86
ENDBRANCH  83  84
ENDBRANCH  82  83
ENDBRANCH  81  82
ENDBRANCH  80  81
ENDBRANCH  79  80
ENDBRANCH  78  79
ENDBRANCH  77  78
ENDBRANCH   1  77
TORSDOF 26
ENDMDL
MODEL 2
REMARK VINA RESULT:     -10.1      3.914      9.920
REMARK SMILES O=C(OCCOCCOCCOCCOC(=O)c1nnn(-c2cccc(C(F)(F)F)c2)c1[C@@H]1COc2ccccc2O1)c1ccc(-c2c3nc(c(-c4c(F)cc(S(=O)(=O)[O-])cc4F)c4ccc([nH]4)c(-c4c(F)cc(S(=O)(=O)[O-])cc4F)c4nc(c(-c5c(F)cc(S(=O)(=O)[O-])cc5F)c5ccc2[nH]5)C=C4)C=C3)cc1
REMARK SMILES IDX 8 1 7 2 6 3 5 4 4 5 3 6 2 7 1 8 43 9 44 10 108 11 45 12
REMARK SMILES IDX 107 13 46 14 47 15 48 16 101 17 49 18 106 19 100 20 102 21
REMARK SMILES IDX 50 22 105 23 99 24 98 25 51 27 85 28 64 29 84 30 65 31 68 32
REMARK SMILES IDX 83 33 103 34 66 35 67 36 82 38 104 39 69 40 52 41 53 42
REMARK SMILES IDX 62 43 54 44 55 45 61 46 63 47 56 48 57 49 58 50 59 51 60 52
REMARK SMILES IDX 86 53 87 54 96 55 88 56 89 57 95 58 97 59 90 60 91 61 92 62
REMARK SMILES IDX 93 63 94 64 70 65 71 66 80 67 72 68 73 69 79 70 81 71 74 72
REMARK SMILES IDX 75 73 76 74 77 75 78 76 9 77 10 78 11 79 12 80 13 81 14 82
REMARK SMILES IDX 15 83 16 84 17 85 18 86 19 87 32 88 20 89 21 90 33 91 34 92
REMARK SMILES IDX 42 93 35 94 41 95 36 96 40 97 37 98 39 99 38 100 22 101
REMARK SMILES IDX 23 102 31 103 24 104 26 105 25 106 27 107 28 108 29 109
REMARK SMILES IDX 30 110
REMARK H PARENT 102 26 68 37
REMARK Flexibility Score: inf
ROOT
ATOM      1  C   UNL A   1      35.164  33.525  28.127  1.00  0.00     0.188 C 
ENDROOT
BRANCH   1   2
ATOM      2  C   UNL A   1      34.407  34.084  29.341  1.00  0.00     0.188 C 
BRANCH   2   3
ATOM      3  O   UNL A   1      34.879  33.950  30.670  1.00  0.00    -0.376 OA
BRANCH   3   4
ATOM      4  C   UNL A   1      34.660  32.847  31.525  1.00  0.00     0.202 C 
BRANCH   4   5
ATOM      5  C   UNL A   1      35.360  32.636  32.869  1.00  0.00     0.261 C 
BRANCH   5   6
ATOM      6  O   UNL A   1      36.479  31.755  32.893  1.00  0.00    -0.460 OA
BRANCH   6   7
ATOM      7  C   UNL A   1      37.801  32.002  32.981  1.00  0.00     0.338 C 
ATOM      8  O   UNL A   1      38.185  33.138  32.700  1.00  0.00    -0.246 OA
BRANCH   7   9
ATOM      9  C   UNL A   1      38.834  30.969  33.276  1.00  0.00     0.060 A 
ATOM     10  C   UNL A   1      40.044  31.180  33.936  1.00  0.00     0.016 A 
ATOM     11  C   UNL A   1      38.544  29.669  32.809  1.00  0.00     0.016 A 
ATOM     12  C   UNL A   1      40.984  30.165  34.025  1.00  0.00     0.010 A 
ATOM     13  C   UNL A   1      39.475  28.643  32.914  1.00  0.00     0.010 A 
ATOM     14  C   UNL A   1      40.723  28.919  33.461  1.00  0.00    -0.014 A 
BRANCH  14  15
ATOM     15  C   UNL A   1      41.846  27.996  33.384  1.00  0.00     0.031 A 
ATOM     16  C   UNL A   1      42.344  27.408  34.655  1.00  0.00     0.074 A 
ATOM     17  C   UNL A   1      42.443  27.704  32.213  1.00  0.00     0.049 A 
ATOM     18  N   UNL A   1      43.494  27.583  35.227  1.00  0.00    -0.248 NA
ATOM     19  C   UNL A   1      41.418  26.560  35.415  1.00  0.00     0.031 C 
ATOM     20  C   UNL A   1      41.959  27.974  30.855  1.00  0.00     0.029 A 
ATOM     21  N   UNL A   1      43.597  27.014  32.003  1.00  0.00    -0.354 N 
ATOM     22  C   UNL A   1      43.515  26.721  36.321  1.00  0.00     0.074 A 
ATOM     23  C   UNL A   1      42.178  26.198  36.451  1.00  0.00     0.031 C 
ATOM     24  C   UNL A   1      42.698  27.266  29.975  1.00  0.00     0.029 A 
ATOM     25  C   UNL A   1      43.786  26.623  30.690  1.00  0.00     0.049 A 
ATOM     26  H   UNL A   1      44.239  26.812  32.721  1.00  0.00     0.167 HD
ATOM     27  C   UNL A   1      44.669  26.360  36.951  1.00  0.00     0.037 A 
ATOM     28  C   UNL A   1      44.729  25.769  30.231  1.00  0.00     0.037 A 
ATOM     29  C   UNL A   1      45.751  27.260  36.662  1.00  0.00     0.049 A 
ATOM     30  C   UNL A   1      45.841  25.752  31.215  1.00  0.00     0.074 A 
ATOM     31  C   UNL A   1      45.981  28.606  36.870  1.00  0.00     0.029 A 
ATOM     32  N   UNL A   1      46.726  26.851  35.787  1.00  0.00    -0.354 N 
ATOM     33  N   UNL A   1      46.633  26.764  31.449  1.00  0.00    -0.248 NA
ATOM     34  C   UNL A   1      45.849  24.709  32.230  1.00  0.00     0.031 C 
ATOM     35  C   UNL A   1      46.770  29.028  35.762  1.00  0.00     0.029 A 
ATOM     36  C   UNL A   1      46.986  27.909  34.955  1.00  0.00     0.049 A 
ATOM     37  H   UNL A   1      47.157  25.965  35.761  1.00  0.00     0.167 HD
ATOM     38  C   UNL A   1      46.934  26.679  32.800  1.00  0.00     0.074 A 
ATOM     39  C   UNL A   1      46.519  25.338  33.196  1.00  0.00     0.031 C 
ATOM     40  C   UNL A   1      47.244  27.786  33.535  1.00  0.00     0.037 A 
BRANCH  27  41
ATOM     41  C   UNL A   1      44.891  25.021  37.607  1.00  0.00     0.058 A 
ATOM     42  C   UNL A   1      45.132  24.942  38.994  1.00  0.00     0.135 A 
ATOM     43  C   UNL A   1      45.150  23.841  36.873  1.00  0.00     0.135 A 
ATOM     44  F   UNL A   1      44.938  26.011  39.783  1.00  0.00    -0.206 F 
ATOM     45  C   UNL A   1      45.651  23.795  39.598  1.00  0.00     0.059 A 
ATOM     46  C   UNL A   1      45.615  22.672  37.463  1.00  0.00     0.059 A 
ATOM     47  F   UNL A   1      45.054  23.807  35.538  1.00  0.00    -0.206 F 
ATOM     48  C   UNL A   1      45.907  22.671  38.818  1.00  0.00     0.060 A 
BRANCH  48  49
ATOM     49  S   UNL A   1      46.699  21.233  39.563  1.00  0.00     0.124 S 
ATOM     50  O   UNL A   1      46.821  20.345  38.413  1.00  0.00    -0.237 OA
ATOM     51  O   UNL A   1      47.944  21.797  40.072  1.00  0.00    -0.237 OA
ATOM     52  O   UNL A   1      45.742  20.818  40.585  1.00  0.00    -0.744 OA
ENDBRANCH  48  49
ENDBRANCH  27  41
BRANCH  28  53
ATOM     53  C   UNL A   1      44.540  24.729  29.191  1.00  0.00     0.058 A 
ATOM     54  C   UNL A   1      43.747  23.596  29.429  1.00  0.00     0.135 A 
ATOM     55  C   UNL A   1      44.924  24.955  27.851  1.00  0.00     0.135 A 
ATOM     56  F   UNL A   1      43.315  23.325  30.670  1.00  0.00    -0.206 F 
ATOM     57  C   UNL A   1      43.324  22.757  28.394  1.00  0.00     0.059 A 
ATOM     58  C   UNL A   1      44.530  24.123  26.807  1.00  0.00     0.059 A 
ATOM     59  F   UNL A   1      45.620  26.047  27.500  1.00  0.00    -0.206 F 
ATOM     60  C   UNL A   1      43.708  23.039  27.083  1.00  0.00     0.060 A 
BRANCH  60  61
ATOM     61  S   UNL A   1      43.027  22.059  25.726  1.00  0.00     0.124 S 
ATOM     62  O   UNL A   1      41.685  21.763  26.215  1.00  0.00    -0.237 OA
ATOM     63  O   UNL A   1      43.109  22.988  24.605  1.00  0.00    -0.237 OA
ATOM     64  O   UNL A   1      43.930  20.913  25.651  1.00  0.00    -0.744 OA
ENDBRANCH  60  61
ENDBRANCH  28  53
BRANCH  40  65
ATOM     65  C   UNL A   1      47.593  29.059  32.810  1.00  0.00     0.058 A 
ATOM     66  C   UNL A   1      48.891  29.381  32.378  1.00  0.00     0.135 A 
ATOM     67  C   UNL A   1      46.546  29.882  32.364  1.00  0.00     0.135 A 
ATOM     68  F   UNL A   1      49.932  28.590  32.677  1.00  0.00    -0.206 F 
ATOM     69  C   UNL A   1      49.139  30.481  31.555  1.00  0.00     0.059 A 
ATOM     70  C   UNL A   1      46.766  30.968  31.520  1.00  0.00     0.059 A 
ATOM     71  F   UNL A   1      45.275  29.590  32.693  1.00  0.00    -0.206 F 
ATOM     72  C   UNL A   1      48.068  31.263  31.121  1.00  0.00     0.060 A 
BRANCH  72  73
ATOM     73  S   UNL A   1      48.376  32.595  29.939  1.00  0.00     0.124 S 
ATOM     74  O   UNL A   1      47.574  32.182  28.794  1.00  0.00    -0.237 OA
ATOM     75  O   UNL A   1      47.897  33.775  30.656  1.00  0.00    -0.237 OA
ATOM     76  O   UNL A   1      49.822  32.547  29.741  1.00  0.00    -0.744 OA
ENDBRANCH  72  73
ENDBRANCH  40  65
ENDBRANCH  14  15
ENDBRANCH   7   9
ENDBRANCH   6   7
ENDBRANCH   5   6
ENDBRANCH   4   5
ENDBRANCH   3   4
ENDBRANCH   2   3
ENDBRANCH   1   2
BRANCH   1  77
ATOM     77  O   UNL A   1      36.226  32.629  28.425  1.00  0.00    -0.377 OA
BRANCH  77  78
ATOM     78  C   UNL A   1      35.924  31.261  28.231  1.00  0.00     0.188 C 
BRANCH  78  79
ATOM     79  C   UNL A   1      34.559  30.961  27.591  1.00  0.00     0.188 C 
BRANCH  79  80
ATOM     80  O   UNL A   1      34.361  29.902  26.655  1.00  0.00    -0.376 OA
BRANCH  80  81
ATOM     81  C   UNL A   1      34.133  28.578  27.103  1.00  0.00     0.202 C 
BRANCH  81  82
ATOM     82  C   UNL A   1      32.801  28.004  26.603  1.00  0.00     0.261 C 
BRANCH  82  83
ATOM     83  O   UNL A   1      32.804  26.574  26.464  1.00  0.00    -0.458 OA
BRANCH  83  84
ATOM     84  C   UNL A   1      31.571  25.991  26.385  1.00  0.00     0.361 C 
ATOM     85  O   UNL A   1      30.510  26.606  26.405  1.00  0.00    -0.244 OA
BRANCH  84  86
ATOM     86  C   UNL A   1      31.639  24.541  26.240  1.00  0.00     0.198 A 
ATOM     87  N   UNL A   1      31.453  23.723  27.330  1.00  0.00    -0.122 NA
ATOM     88  C   UNL A   1      31.796  23.743  25.108  1.00  0.00     0.123 A 
ATOM     89  N   UNL A   1      31.509  22.466  26.924  1.00  0.00    -0.061 NA
ATOM     90  N   UNL A   1      31.941  22.470  25.643  1.00  0.00    -0.213 N 
BRANCH  88  91
ATOM     91  C   UNL A   1      31.745  24.050  23.638  1.00  0.00     0.262 C 
ATOM     92  C   UNL A   1      33.122  24.324  23.009  1.00  0.00     0.281 C 
ATOM     93  O   UNL A   1      30.783  25.080  23.379  1.00  0.00    -0.477 OA
ATOM     94  O   UNL A   1      33.628  25.613  23.361  1.00  0.00    -0.485 OA
ATOM     95  C   UNL A   1      31.323  26.294  23.038  1.00  0.00     0.162 A 
ATOM     96  C   UNL A   1      32.693  26.569  23.067  1.00  0.00     0.161 A 
ATOM     97  C   UNL A   1      30.422  27.313  22.732  1.00  0.00     0.050 A 
ATOM     98  C   UNL A   1      33.159  27.864  22.857  1.00  0.00     0.050 A 
ATOM     99  C   UNL A   1      30.889  28.607  22.495  1.00  0.00     0.004 A 
ATOM    100  C   UNL A   1      32.254  28.886  22.569  1.00  0.00     0.004 A 
ENDBRANCH  88  91
BRANCH  90 101
ATOM    101  C   UNL A   1      32.863  21.470  25.280  1.00  0.00     0.067 A 
ATOM    102  C   UNL A   1      32.424  20.164  25.065  1.00  0.00     0.028 A 
ATOM    103  C   UNL A   1      34.225  21.798  25.231  1.00  0.00     0.041 A 
ATOM    104  C   UNL A   1      33.358  19.192  24.708  1.00  0.00     0.003 A 
ATOM    105  C   UNL A   1      35.169  20.810  24.931  1.00  0.00     0.058 A 
ATOM    106  C   UNL A   1      34.718  19.511  24.639  1.00  0.00     0.013 A 
BRANCH 105 107
ATOM    107  C   UNL A   1      36.640  21.135  24.913  1.00  0.00     0.416 C 
ATOM    108  F   UNL A   1      37.034  21.843  26.010  1.00  0.00    -0.166 F 
ATOM    109  F   UNL A   1      37.423  20.022  24.889  1.00  0.00    -0.166 F 
ATOM    110  F   UNL A   1      37.020  21.881  23.838  1.00  0.00    -0.166 F 
ENDBRANCH 105 107
ENDBRANCH  90 101
ENDBRANCH  84  86
ENDBRANCH  83  84
ENDBRANCH  82  83
ENDBRANCH  81  82
ENDBRANCH  80  81
ENDBRANCH  79  80
ENDBRANCH  78  79
ENDBRANCH  77  78
ENDBRANCH   1  77
TORSDOF 26
ENDMDL
MODEL 3
REMARK VINA RESULT:      -9.9      3.404      9.594
REMARK SMILES O=C(OCCOCCOCCOCCOC(=O)c1nnn(-c2cccc(C(F)(F)F)c2)c1[C@@H]1COc2ccccc2O1)c1ccc(-c2c3nc(c(-c4c(F)cc(S(=O)(=O)[O-])cc4F)c4ccc([nH]4)c(-c4c(F)cc(S(=O)(=O)[O-])cc4F)c4nc(c(-c5c(F)cc(S(=O)(=O)[O-])cc5F)c5ccc2[nH]5)C=C4)C=C3)cc1
REMARK SMILES IDX 8 1 7 2 6 3 5 4 4 5 3 6 2 7 1 8 43 9 44 10 108 11 45 12
REMARK SMILES IDX 107 13 46 14 47 15 48 16 101 17 49 18 106 19 100 20 102 21
REMARK SMILES IDX 50 22 105 23 99 24 98 25 51 27 85 28 64 29 84 30 65 31 68 32
REMARK SMILES IDX 83 33 103 34 66 35 67 36 82 38 104 39 69 40 52 41 53 42
REMARK SMILES IDX 62 43 54 44 55 45 61 46 63 47 56 48 57 49 58 50 59 51 60 52
REMARK SMILES IDX 86 53 87 54 96 55 88 56 89 57 95 58 97 59 90 60 91 61 92 62
REMARK SMILES IDX 93 63 94 64 70 65 71 66 80 67 72 68 73 69 79 70 81 71 74 72
REMARK SMILES IDX 75 73 76 74 77 75 78 76 9 77 10 78 11 79 12 80 13 81 14 82
REMARK SMILES IDX 15 83 16 84 17 85 18 86 19 87 32 88 20 89 21 90 33 91 34 92
REMARK SMILES IDX 42 93 35 94 41 95 36 96 40 97 37 98 39 99 38 100 22 101
REMARK SMILES IDX 23 102 31 103 24 104 26 105 25 106 27 107 28 108 29 109
REMARK SMILES IDX 30 110
REMARK H PARENT 102 26 68 37
REMARK Flexibility Score: inf
ROOT
ATOM      1  C   UNL A   1      32.494  30.885  26.892  1.00  0.00     0.188 C 
ENDROOT
BRANCH   1   2
ATOM      2  C   UNL A   1      31.601  32.133  26.852  1.00  0.00     0.188 C 
BRANCH   2   3
ATOM      3  O   UNL A   1      32.099  33.443  27.061  1.00  0.00    -0.376 OA
BRANCH   3   4
ATOM      4  C   UNL A   1      32.977  33.845  28.092  1.00  0.00     0.202 C 
BRANCH   4   5
ATOM      5  C   UNL A   1      34.503  33.828  27.989  1.00  0.00     0.261 C 
BRANCH   5   6
ATOM      6  O   UNL A   1      35.163  32.595  28.263  1.00  0.00    -0.460 OA
BRANCH   6   7
ATOM      7  C   UNL A   1      35.460  31.988  29.430  1.00  0.00     0.338 C 
ATOM      8  O   UNL A   1      34.586  31.966  30.296  1.00  0.00    -0.246 OA
BRANCH   7   9
ATOM      9  C   UNL A   1      36.806  31.452  29.782  1.00  0.00     0.060 A 
ATOM     10  C   UNL A   1      38.017  32.131  29.668  1.00  0.00     0.016 A 
ATOM     11  C   UNL A   1      36.826  30.120  30.246  1.00  0.00     0.016 A 
ATOM     12  C   UNL A   1      39.217  31.474  29.896  1.00  0.00     0.010 A 
ATOM     13  C   UNL A   1      38.026  29.463  30.495  1.00  0.00     0.010 A 
ATOM     14  C   UNL A   1      39.221  30.127  30.248  1.00  0.00    -0.014 A 
BRANCH  14  15
ATOM     15  C   UNL A   1      40.514  29.457  30.227  1.00  0.00     0.031 A 
ATOM     16  C   UNL A   1      41.247  29.335  31.515  1.00  0.00     0.074 A 
ATOM     17  C   UNL A   1      41.051  28.991  29.085  1.00  0.00     0.049 A 
ATOM     18  N   UNL A   1      42.374  29.877  31.854  1.00  0.00    -0.248 NA
ATOM     19  C   UNL A   1      40.613  28.551  32.582  1.00  0.00     0.031 C 
ATOM     20  C   UNL A   1      40.396  28.794  27.788  1.00  0.00     0.029 A 
ATOM     21  N   UNL A   1      42.308  28.513  28.877  1.00  0.00    -0.354 N 
ATOM     22  C   UNL A   1      42.691  29.356  33.106  1.00  0.00     0.074 A 
ATOM     23  C   UNL A   1      41.526  28.632  33.550  1.00  0.00     0.031 C 
ATOM     24  C   UNL A   1      41.193  28.040  27.001  1.00  0.00     0.029 A 
ATOM     25  C   UNL A   1      42.460  27.835  27.681  1.00  0.00     0.049 A 
ATOM     26  H   UNL A   1      43.043  28.637  29.520  1.00  0.00     0.167 HD
ATOM     27  C   UNL A   1      43.949  29.409  33.627  1.00  0.00     0.037 A 
ATOM     28  C   UNL A   1      43.527  27.094  27.305  1.00  0.00     0.037 A 
ATOM     29  C   UNL A   1      44.767  30.396  32.977  1.00  0.00     0.049 A 
ATOM     30  C   UNL A   1      44.699  27.557  28.091  1.00  0.00     0.074 A 
ATOM     31  C   UNL A   1      44.701  31.767  32.825  1.00  0.00     0.029 A 
ATOM     32  N   UNL A   1      45.725  29.972  32.091  1.00  0.00    -0.354 N 
ATOM     33  N   UNL A   1      45.257  28.730  27.960  1.00  0.00    -0.248 NA
ATOM     34  C   UNL A   1      45.038  26.841  29.311  1.00  0.00     0.031 C 
ATOM     35  C   UNL A   1      45.268  32.030  31.545  1.00  0.00     0.029 A 
ATOM     36  C   UNL A   1      45.659  30.804  31.004  1.00  0.00     0.049 A 
ATOM     37  H   UNL A   1      46.342  29.214  32.213  1.00  0.00     0.167 HD
ATOM     38  C   UNL A   1      45.692  29.065  29.233  1.00  0.00     0.074 A 
ATOM     39  C   UNL A   1      45.633  27.821  29.992  1.00  0.00     0.031 C 
ATOM     40  C   UNL A   1      45.807  30.365  29.631  1.00  0.00     0.037 A 
BRANCH  27  41
ATOM     41  C   UNL A   1      44.530  28.360  34.542  1.00  0.00     0.058 A 
ATOM     42  C   UNL A   1      44.629  27.020  34.113  1.00  0.00     0.135 A 
ATOM     43  C   UNL A   1      44.735  28.576  35.923  1.00  0.00     0.135 A 
ATOM     44  F   UNL A   1      44.431  26.699  32.824  1.00  0.00    -0.206 F 
ATOM     45  C   UNL A   1      44.854  25.966  35.001  1.00  0.00     0.059 A 
ATOM     46  C   UNL A   1      45.014  27.548  36.816  1.00  0.00     0.059 A 
ATOM     47  F   UNL A   1      44.577  29.785  36.479  1.00  0.00    -0.206 F 
ATOM     48  C   UNL A   1      45.025  26.241  36.354  1.00  0.00     0.060 A 
BRANCH  48  49
ATOM     49  S   UNL A   1      45.184  24.879  37.524  1.00  0.00     0.124 S 
ATOM     50  O   UNL A   1      45.821  25.544  38.655  1.00  0.00    -0.237 OA
ATOM     51  O   UNL A   1      43.795  24.477  37.719  1.00  0.00    -0.237 OA
ATOM     52  O   UNL A   1      46.014  23.916  36.806  1.00  0.00    -0.744 OA
ENDBRANCH  48  49
ENDBRANCH  27  41
BRANCH  28  53
ATOM     53  C   UNL A   1      43.486  25.802  26.579  1.00  0.00     0.058 A 
ATOM     54  C   UNL A   1      44.240  25.598  25.413  1.00  0.00     0.135 A 
ATOM     55  C   UNL A   1      42.908  24.652  27.159  1.00  0.00     0.135 A 
ATOM     56  F   UNL A   1      44.848  26.633  24.814  1.00  0.00    -0.206 F 
ATOM     57  C   UNL A   1      44.443  24.324  24.875  1.00  0.00     0.059 A 
ATOM     58  C   UNL A   1      43.082  23.376  26.632  1.00  0.00     0.059 A 
ATOM     59  F   UNL A   1      42.229  24.722  28.315  1.00  0.00    -0.206 F 
ATOM     60  C   UNL A   1      43.873  23.216  25.503  1.00  0.00     0.060 A 
BRANCH  60  61
ATOM     61  S   UNL A   1      44.271  21.556  24.911  1.00  0.00     0.124 S 
ATOM     62  O   UNL A   1      44.435  21.780  23.479  1.00  0.00    -0.237 OA
ATOM     63  O   UNL A   1      45.488  21.250  25.653  1.00  0.00    -0.237 OA
ATOM     64  O   UNL A   1      43.098  20.772  25.290  1.00  0.00    -0.744 OA
ENDBRANCH  60  61
ENDBRANCH  28  53
BRANCH  40  65
ATOM     65  C   UNL A   1      45.789  31.446  28.582  1.00  0.00     0.058 A 
ATOM     66  C   UNL A   1      44.610  32.010  28.063  1.00  0.00     0.135 A 
ATOM     67  C   UNL A   1      47.002  32.066  28.242  1.00  0.00     0.135 A 
ATOM     68  F   UNL A   1      43.407  31.538  28.420  1.00  0.00    -0.206 F 
ATOM     69  C   UNL A   1      44.638  33.129  27.229  1.00  0.00     0.059 A 
ATOM     70  C   UNL A   1      47.052  33.200  27.434  1.00  0.00     0.059 A 
ATOM     71  F   UNL A   1      48.157  31.610  28.756  1.00  0.00    -0.206 F 
ATOM     72  C   UNL A   1      45.864  33.726  26.929  1.00  0.00     0.060 A 
BRANCH  72  73
ATOM     73  S   UNL A   1      45.883  35.258  25.971  1.00  0.00     0.124 S 
ATOM     74  O   UNL A   1      46.279  34.789  24.649  1.00  0.00    -0.237 OA
ATOM     75  O   UNL A   1      44.504  35.726  26.092  1.00  0.00    -0.237 OA
ATOM     76  O   UNL A   1      46.870  36.081  26.665  1.00  0.00    -0.744 OA
ENDBRANCH  72  73
ENDBRANCH  40  65
ENDBRANCH  14  15
ENDBRANCH   7   9
ENDBRANCH   6   7
ENDBRANCH   5   6
ENDBRANCH   4   5
ENDBRANCH   3   4
ENDBRANCH   2   3
ENDBRANCH   1   2
BRANCH   1  77
ATOM     77  O   UNL A   1      32.612  30.174  25.667  1.00  0.00    -0.377 OA
BRANCH  77  78
ATOM     78  C   UNL A   1      31.452  29.467  25.273  1.00  0.00     0.188 C 
BRANCH  78  79
ATOM     79  C   UNL A   1      31.373  29.088  23.785  1.00  0.00     0.188 C 
BRANCH  79  80
ATOM     80  O   UNL A   1      32.531  28.852  22.986  1.00  0.00    -0.376 OA
BRANCH  80  81
ATOM     81  C   UNL A   1      32.754  27.584  22.395  1.00  0.00     0.202 C 
BRANCH  81  82
ATOM     82  C   UNL A   1      34.058  26.931  22.867  1.00  0.00     0.261 C 
BRANCH  82  83
ATOM     83  O   UNL A   1      33.873  25.635  23.460  1.00  0.00    -0.458 OA
BRANCH  83  84
ATOM     84  C   UNL A   1      33.988  25.592  24.820  1.00  0.00     0.361 C 
ATOM     85  O   UNL A   1      33.659  26.504  25.573  1.00  0.00    -0.244 OA
BRANCH  84  86
ATOM     86  C   UNL A   1      34.519  24.323  25.304  1.00  0.00     0.198 A 
ATOM     87  N   UNL A   1      35.843  24.212  25.661  1.00  0.00    -0.122 NA
ATOM     88  C   UNL A   1      33.885  23.111  25.571  1.00  0.00     0.123 A 
ATOM     89  N   UNL A   1      36.053  22.988  26.113  1.00  0.00    -0.061 NA
ATOM     90  N   UNL A   1      34.946  22.259  25.848  1.00  0.00    -0.213 N 
BRANCH  88  91
ATOM     91  C   UNL A   1      32.435  22.724  25.661  1.00  0.00     0.262 C 
ATOM     92  C   UNL A   1      31.841  22.214  24.338  1.00  0.00     0.281 C 
ATOM     93  O   UNL A   1      31.675  23.783  26.258  1.00  0.00    -0.477 OA
ATOM     94  O   UNL A   1      31.603  23.274  23.409  1.00  0.00    -0.485 OA
ATOM     95  C   UNL A   1      30.857  24.460  25.389  1.00  0.00     0.162 A 
ATOM     96  C   UNL A   1      30.847  24.246  24.008  1.00  0.00     0.161 A 
ATOM     97  C   UNL A   1      30.065  25.468  25.936  1.00  0.00     0.050 A 
ATOM     98  C   UNL A   1      30.104  25.073  23.170  1.00  0.00     0.050 A 
ATOM     99  C   UNL A   1      29.298  26.281  25.101  1.00  0.00     0.004 A 
ATOM    100  C   UNL A   1      29.327  26.094  23.718  1.00  0.00     0.004 A 
ENDBRANCH  88  91
BRANCH  90 101
ATOM    101  C   UNL A   1      35.146  20.939  25.400  1.00  0.00     0.067 A 
ATOM    102  C   UNL A   1      36.437  20.478  25.149  1.00  0.00     0.028 A 
ATOM    103  C   UNL A   1      34.024  20.144  25.129  1.00  0.00     0.041 A 
ATOM    104  C   UNL A   1      36.608  19.168  24.705  1.00  0.00     0.003 A 
ATOM    105  C   UNL A   1      34.192  18.849  24.627  1.00  0.00     0.058 A 
ATOM    106  C   UNL A   1      35.496  18.359  24.448  1.00  0.00     0.013 A 
BRANCH 105 107
ATOM    107  C   UNL A   1      32.996  17.995  24.293  1.00  0.00     0.416 C 
ATOM    108  F   UNL A   1      32.159  17.825  25.355  1.00  0.00    -0.166 F 
ATOM    109  F   UNL A   1      32.233  18.528  23.299  1.00  0.00    -0.166 F 
ATOM    110  F   UNL A   1      33.323  16.739  23.877  1.00  0.00    -0.166 F 
ENDBRANCH 105 107
ENDBRANCH  90 101
ENDBRANCH  84  86
ENDBRANCH  83  84
ENDBRANCH  82  83
ENDBRANCH  81  82
ENDBRANCH  80  81
ENDBRANCH  79  80
ENDBRANCH  78  79
ENDBRANCH  77  78
ENDBRANCH   1  77
TORSDOF 26
ENDMDL
