MODEL 1
REMARK VINA RESULT:      -9.3      0.000      0.000
REMARK SMILES N#CCSc1nnnn1-c1ccc(C(=O)OCCOCCOCCOCCOC(=O)c2ccc(-c3c4nc(c(-c5c(F)cc(S(=O)(=O)[O-])cc5F)c5ccc([nH]5)c(-c5c(F)cc(S(=O)(=O)[O-])cc5F)c5nc(c(-c6c(F)cc(S(=O)(=O)[O-])cc6F)c6ccc3[nH]6)C=C5)C=C4)cc2)cc1
REMARK SMILES IDX 21 1 20 2 19 3 18 4 17 5 16 6 14 7 15 8 13 9 10 10 11 11
REMARK SMILES IDX 98 12 12 13 97 14 9 15 5 16 6 17 7 18 8 19 4 20 3 21 2 22
REMARK SMILES IDX 1 23 22 24 23 25 24 26 25 27 26 28 27 29 28 30 29 31 30 32
REMARK SMILES IDX 31 33 32 34 96 35 33 36 95 37 34 38 35 39 36 40 89 41 37 42
REMARK SMILES IDX 94 43 88 44 90 45 38 46 93 47 87 48 86 49 39 51 73 52 52 53
REMARK SMILES IDX 72 54 53 55 56 56 71 57 91 58 54 59 55 60 70 62 92 63 57 64
REMARK SMILES IDX 40 65 41 66 50 67 42 68 43 69 49 70 51 71 44 72 45 73 46 74
REMARK SMILES IDX 47 75 48 76 74 77 75 78 84 79 76 80 77 81 83 82 85 83 78 84
REMARK SMILES IDX 79 85 80 86 81 87 82 88 58 89 59 90 68 91 60 92 61 93 67 94
REMARK SMILES IDX 69 95 62 96 63 97 64 98 65 99 66 100
REMARK H PARENT 90 50 56 61
REMARK Flexibility Score: inf
ROOT
ATOM      1  C   UNL A   1      36.689  20.894  25.094  1.00  0.00     0.188 C 
ENDROOT
BRANCH   1   2
ATOM      2  C   UNL A   1      35.168  20.726  25.320  1.00  0.00     0.188 C 
BRANCH   2   3
ATOM      3  O   UNL A   1      34.369  19.820  24.566  1.00  0.00    -0.376 OA
BRANCH   3   4
ATOM      4  C   UNL A   1      32.994  20.042  24.296  1.00  0.00     0.202 C 
BRANCH   4   5
ATOM      5  C   UNL A   1      32.046  20.657  25.334  1.00  0.00     0.261 C 
BRANCH   5   6
ATOM      6  O   UNL A   1      31.903  22.072  25.257  1.00  0.00    -0.460 OA
BRANCH   6   7
ATOM      7  C   UNL A   1      32.207  22.741  26.384  1.00  0.00     0.338 C 
ATOM      8  O   UNL A   1      32.736  22.296  27.392  1.00  0.00    -0.246 OA
BRANCH   7   9
ATOM      9  C   UNL A   1      31.921  24.180  26.183  1.00  0.00     0.060 A 
ATOM     10  C   UNL A   1      31.383  26.784  25.472  1.00  0.00     0.069 A 
ATOM     11  C   UNL A   1      30.352  25.845  25.402  1.00  0.00     0.029 A 
ATOM     12  C   UNL A   1      32.614  26.493  26.069  1.00  0.00     0.029 A 
ATOM     13  C   UNL A   1      30.633  24.532  25.754  1.00  0.00     0.018 A 
ATOM     14  C   UNL A   1      32.883  25.174  26.425  1.00  0.00     0.018 A 
BRANCH  10  15
ATOM     15  N   UNL A   1      31.352  27.838  24.551  1.00  0.00    -0.187 N 
ATOM     16  C   UNL A   1      31.324  27.723  23.169  1.00  0.00     0.215 A 
ATOM     17  N   UNL A   1      31.083  28.914  22.666  1.00  0.00    -0.101 NA
ATOM     18  N   UNL A   1      30.893  29.750  23.741  1.00  0.00    -0.022 NA
ATOM     19  N   UNL A   1      30.971  29.085  24.886  1.00  0.00    -0.039 NA
BRANCH  16  20
ATOM     20  S   UNL A   1      31.167  26.239  22.265  1.00  0.00    -0.069 SA
BRANCH  20  21
ATOM     21  C   UNL A   1      32.823  25.817  21.640  1.00  0.00     0.198 C 
BRANCH  21  22
ATOM     22  C   UNL A   1      33.677  25.091  22.666  1.00  0.00     0.074 C 
ATOM     23  N   UNL A   1      34.387  24.489  23.517  1.00  0.00    -0.197 NA
ENDBRANCH  21  22
ENDBRANCH  20  21
ENDBRANCH  16  20
ENDBRANCH  10  15
ENDBRANCH   7   9
ENDBRANCH   6   7
ENDBRANCH   5   6
ENDBRANCH   4   5
ENDBRANCH   3   4
ENDBRANCH   2   3
ENDBRANCH   1   2
BRANCH   1  24
ATOM     24  O   UNL A   1      37.040  21.840  24.104  1.00  0.00    -0.377 OA
BRANCH  24  25
ATOM     25  C   UNL A   1      37.754  22.981  24.582  1.00  0.00     0.188 C 
BRANCH  25  26
ATOM     26  C   UNL A   1      37.694  23.295  26.102  1.00  0.00     0.188 C 
BRANCH  26  27
ATOM     27  O   UNL A   1      38.930  23.153  26.795  1.00  0.00    -0.376 OA
BRANCH  27  28
ATOM     28  C   UNL A   1      39.792  22.045  26.593  1.00  0.00     0.202 C 
BRANCH  28  29
ATOM     29  C   UNL A   1      41.006  21.911  27.505  1.00  0.00     0.261 C 
BRANCH  29  30
ATOM     30  O   UNL A   1      41.880  20.867  27.133  1.00  0.00    -0.460 OA
BRANCH  30  31
ATOM     31  C   UNL A   1      42.584  21.095  26.015  1.00  0.00     0.338 C 
ATOM     32  O   UNL A   1      42.776  20.315  25.083  1.00  0.00    -0.246 OA
BRANCH  31  33
ATOM     33  C   UNL A   1      43.218  22.399  26.137  1.00  0.00     0.060 A 
ATOM     34  C   UNL A   1      43.928  22.625  27.316  1.00  0.00     0.016 A 
ATOM     35  C   UNL A   1      42.739  23.434  25.320  1.00  0.00     0.016 A 
ATOM     36  C   UNL A   1      43.896  23.893  27.832  1.00  0.00     0.010 A 
ATOM     37  C   UNL A   1      42.675  24.688  25.855  1.00  0.00     0.010 A 
ATOM     38  C   UNL A   1      43.168  24.868  27.143  1.00  0.00    -0.014 A 
BRANCH  38  39
ATOM     39  C   UNL A   1      43.016  26.158  27.765  1.00  0.00     0.031 A 
ATOM     40  C   UNL A   1      44.140  27.046  27.413  1.00  0.00     0.074 A 
ATOM     41  C   UNL A   1      41.920  26.478  28.473  1.00  0.00     0.049 A 
ATOM     42  N   UNL A   1      45.125  27.394  28.168  1.00  0.00    -0.248 NA
ATOM     43  C   UNL A   1      44.336  27.359  25.985  1.00  0.00     0.031 C 
ATOM     44  C   UNL A   1      40.672  25.718  28.601  1.00  0.00     0.029 A 
ATOM     45  N   UNL A   1      41.650  27.619  29.155  1.00  0.00    -0.354 N 
ATOM     46  C   UNL A   1      45.908  28.215  27.367  1.00  0.00     0.074 A 
ATOM     47  C   UNL A   1      45.543  27.920  26.010  1.00  0.00     0.031 C 
ATOM     48  C   UNL A   1      39.714  26.521  29.116  1.00  0.00     0.029 A 
ATOM     49  C   UNL A   1      40.308  27.800  29.467  1.00  0.00     0.049 A 
ATOM     50  H   UNL A   1      42.347  28.267  29.408  1.00  0.00     0.167 HD
ATOM     51  C   UNL A   1      46.521  29.306  27.897  1.00  0.00     0.037 A 
ATOM     52  C   UNL A   1      39.739  28.957  29.896  1.00  0.00     0.037 A 
ATOM     53  C   UNL A   1      46.596  29.196  29.335  1.00  0.00     0.049 A 
ATOM     54  C   UNL A   1      40.843  29.812  30.416  1.00  0.00     0.074 A 
ATOM     55  C   UNL A   1      47.176  28.301  30.211  1.00  0.00     0.029 A 
ATOM     56  N   UNL A   1      45.659  29.896  30.056  1.00  0.00    -0.354 N 
ATOM     57  N   UNL A   1      41.549  29.521  31.476  1.00  0.00    -0.248 NA
ATOM     58  C   UNL A   1      41.473  30.747  29.495  1.00  0.00     0.031 C 
ATOM     59  C   UNL A   1      46.279  28.222  31.316  1.00  0.00     0.029 A 
ATOM     60  C   UNL A   1      45.230  29.118  31.100  1.00  0.00     0.049 A 
ATOM     61  H   UNL A   1      45.346  30.808  29.856  1.00  0.00     0.167 HD
ATOM     62  C   UNL A   1      42.850  29.880  31.152  1.00  0.00     0.074 A 
ATOM     63  C   UNL A   1      42.723  30.723  29.966  1.00  0.00     0.031 C 
ATOM     64  C   UNL A   1      43.914  29.221  31.699  1.00  0.00     0.037 A 
BRANCH  51  65
ATOM     65  C   UNL A   1      46.634  30.633  27.178  1.00  0.00     0.058 A 
ATOM     66  C   UNL A   1      47.899  31.248  27.095  1.00  0.00     0.135 A 
ATOM     67  C   UNL A   1      45.537  31.455  26.820  1.00  0.00     0.135 A 
ATOM     68  F   UNL A   1      49.011  30.567  27.413  1.00  0.00    -0.206 F 
ATOM     69  C   UNL A   1      48.054  32.593  26.763  1.00  0.00     0.059 A 
ATOM     70  C   UNL A   1      45.677  32.780  26.433  1.00  0.00     0.059 A 
ATOM     71  F   UNL A   1      44.264  31.060  26.914  1.00  0.00    -0.206 F 
ATOM     72  C   UNL A   1      46.934  33.353  26.447  1.00  0.00     0.060 A 
BRANCH  72  73
ATOM     73  S   UNL A   1      47.116  35.109  26.105  1.00  0.00     0.124 S 
ATOM     74  O   UNL A   1      47.391  35.635  27.436  1.00  0.00    -0.237 OA
ATOM     75  O   UNL A   1      48.232  35.116  25.166  1.00  0.00    -0.237 OA
ATOM     76  O   UNL A   1      45.822  35.475  25.535  1.00  0.00    -0.744 OA
ENDBRANCH  72  73
ENDBRANCH  51  65
BRANCH  52  77
ATOM     77  C   UNL A   1      38.396  29.497  29.548  1.00  0.00     0.058 A 
ATOM     78  C   UNL A   1      37.497  29.924  30.542  1.00  0.00     0.135 A 
ATOM     79  C   UNL A   1      38.069  29.858  28.225  1.00  0.00     0.135 A 
ATOM     80  F   UNL A   1      37.742  29.656  31.833  1.00  0.00    -0.206 F 
ATOM     81  C   UNL A   1      36.362  30.691  30.244  1.00  0.00     0.059 A 
ATOM     82  C   UNL A   1      36.942  30.610  27.903  1.00  0.00     0.059 A 
ATOM     83  F   UNL A   1      38.890  29.565  27.205  1.00  0.00    -0.206 F 
ATOM     84  C   UNL A   1      36.101  31.042  28.921  1.00  0.00     0.060 A 
BRANCH  84  85
ATOM     85  S   UNL A   1      34.724  32.154  28.543  1.00  0.00     0.124 S 
ATOM     86  O   UNL A   1      35.379  33.187  27.749  1.00  0.00    -0.237 OA
ATOM     87  O   UNL A   1      33.809  31.278  27.821  1.00  0.00    -0.237 OA
ATOM     88  O   UNL A   1      34.262  32.581  29.862  1.00  0.00    -0.744 OA
ENDBRANCH  84  85
ENDBRANCH  52  77
BRANCH  64  89
ATOM     89  C   UNL A   1      43.670  28.375  32.924  1.00  0.00     0.058 A 
ATOM     90  C   UNL A   1      43.527  26.976  32.925  1.00  0.00     0.135 A 
ATOM     91  C   UNL A   1      43.737  29.012  34.173  1.00  0.00     0.135 A 
ATOM     92  F   UNL A   1      43.552  26.280  31.779  1.00  0.00    -0.206 F 
ATOM     93  C   UNL A   1      43.423  26.250  34.115  1.00  0.00     0.059 A 
ATOM     94  C   UNL A   1      43.670  28.306  35.369  1.00  0.00     0.059 A 
ATOM     95  F   UNL A   1      43.931  30.340  34.240  1.00  0.00    -0.206 F 
ATOM     96  C   UNL A   1      43.500  26.925  35.333  1.00  0.00     0.060 A 
BRANCH  96  97
ATOM     97  S   UNL A   1      43.446  25.983  36.873  1.00  0.00     0.124 S 
ATOM     98  O   UNL A   1      42.629  26.838  37.728  1.00  0.00    -0.237 OA
ATOM     99  O   UNL A   1      42.831  24.727  36.456  1.00  0.00    -0.237 OA
ATOM    100  O   UNL A   1      44.852  25.879  37.259  1.00  0.00    -0.744 OA
ENDBRANCH  96  97
ENDBRANCH  64  89
ENDBRANCH  38  39
ENDBRANCH  31  33
ENDBRANCH  30  31
ENDBRANCH  29  30
ENDBRANCH  28  29
ENDBRANCH  27  28
ENDBRANCH  26  27
ENDBRANCH  25  26
ENDBRANCH  24  25
ENDBRANCH   1  24
TORSDOF 27
ENDMDL
MODEL 2
REMARK VINA RESULT:      -8.8      2.953      9.013
REMARK SMILES N#CCSc1nnnn1-c1ccc(C(=O)OCCOCCOCCOCCOC(=O)c2ccc(-c3c4nc(c(-c5c(F)cc(S(=O)(=O)[O-])cc5F)c5ccc([nH]5)c(-c5c(F)cc(S(=O)(=O)[O-])cc5F)c5nc(c(-c6c(F)cc(S(=O)(=O)[O-])cc6F)c6ccc3[nH]6)C=C5)C=C4)cc2)cc1
REMARK SMILES IDX 21 1 20 2 19 3 18 4 17 5 16 6 14 7 15 8 13 9 10 10 11 11
REMARK SMILES IDX 98 12 12 13 97 14 9 15 5 16 6 17 7 18 8 19 4 20 3 21 2 22
REMARK SMILES IDX 1 23 22 24 23 25 24 26 25 27 26 28 27 29 28 30 29 31 30 32
REMARK SMILES IDX 31 33 32 34 96 35 33 36 95 37 34 38 35 39 36 40 89 41 37 42
REMARK SMILES IDX 94 43 88 44 90 45 38 46 93 47 87 48 86 49 39 51 73 52 52 53
REMARK SMILES IDX 72 54 53 55 56 56 71 57 91 58 54 59 55 60 70 62 92 63 57 64
REMARK SMILES IDX 40 65 41 66 50 67 42 68 43 69 49 70 51 71 44 72 45 73 46 74
REMARK SMILES IDX 47 75 48 76 74 77 75 78 84 79 76 80 77 81 83 82 85 83 78 84
REMARK SMILES IDX 79 85 80 86 81 87 82 88 58 89 59 90 68 91 60 92 61 93 67 94
REMARK SMILES IDX 69 95 62 96 63 97 64 98 65 99 66 100
REMARK H PARENT 90 50 56 61
REMARK Flexibility Score: inf
ROOT
ATOM      1  C   UNL A   1      33.499  34.551  29.831  1.00  0.00     0.188 C 
ENDROOT
BRANCH   1   2
ATOM      2  C   UNL A   1      34.813  33.861  29.397  1.00  0.00     0.188 C 
BRANCH   2   3
ATOM      3  O   UNL A   1      34.994  32.449  29.430  1.00  0.00    -0.376 OA
BRANCH   3   4
ATOM      4  C   UNL A   1      34.796  31.618  28.298  1.00  0.00     0.202 C 
BRANCH   4   5
ATOM      5  C   UNL A   1      33.529  31.696  27.437  1.00  0.00     0.261 C 
BRANCH   5   6
ATOM      6  O   UNL A   1      32.796  30.479  27.330  1.00  0.00    -0.460 OA
BRANCH   6   7
ATOM      7  C   UNL A   1      32.003  30.383  26.247  1.00  0.00     0.338 C 
ATOM      8  O   UNL A   1      31.238  31.228  25.809  1.00  0.00    -0.246 OA
BRANCH   7   9
ATOM      9  C   UNL A   1      32.291  29.106  25.552  1.00  0.00     0.060 A 
ATOM     10  C   UNL A   1      32.849  26.922  23.974  1.00  0.00     0.069 A 
ATOM     11  C   UNL A   1      33.888  27.798  24.296  1.00  0.00     0.029 A 
ATOM     12  C   UNL A   1      31.591  27.008  24.578  1.00  0.00     0.029 A 
ATOM     13  C   UNL A   1      33.597  28.902  25.085  1.00  0.00     0.018 A 
ATOM     14  C   UNL A   1      31.311  28.116  25.374  1.00  0.00     0.018 A 
BRANCH  10  15
ATOM     15  N   UNL A   1      32.922  26.270  22.737  1.00  0.00    -0.187 N 
ATOM     16  C   UNL A   1      33.609  25.097  22.463  1.00  0.00     0.215 A 
ATOM     17  N   UNL A   1      33.264  24.694  21.260  1.00  0.00    -0.101 NA
ATOM     18  N   UNL A   1      32.311  25.582  20.820  1.00  0.00    -0.022 NA
ATOM     19  N   UNL A   1      32.038  26.492  21.746  1.00  0.00    -0.039 NA
BRANCH  16  20
ATOM     20  S   UNL A   1      34.412  24.082  23.632  1.00  0.00    -0.069 SA
BRANCH  20  21
ATOM     21  C   UNL A   1      33.331  22.647  23.925  1.00  0.00     0.198 C 
BRANCH  21  22
ATOM     22  C   UNL A   1      31.922  23.040  24.337  1.00  0.00     0.074 C 
ATOM     23  N   UNL A   1      30.753  23.366  24.679  1.00  0.00    -0.197 NA
ENDBRANCH  21  22
ENDBRANCH  20  21
ENDBRANCH  16  20
ENDBRANCH  10  15
ENDBRANCH   7   9
ENDBRANCH   6   7
ENDBRANCH   5   6
ENDBRANCH   4   5
ENDBRANCH   3   4
ENDBRANCH   2   3
ENDBRANCH   1   2
BRANCH   1  24
ATOM     24  O   UNL A   1      33.632  35.916  30.174  1.00  0.00    -0.377 OA
BRANCH  24  25
ATOM     25  C   UNL A   1      32.967  36.305  31.376  1.00  0.00     0.188 C 
BRANCH  25  26
ATOM     26  C   UNL A   1      33.839  36.687  32.603  1.00  0.00     0.188 C 
BRANCH  26  27
ATOM     27  O   UNL A   1      34.738  35.674  33.042  1.00  0.00    -0.376 OA
BRANCH  27  28
ATOM     28  C   UNL A   1      34.321  34.341  33.284  1.00  0.00     0.202 C 
BRANCH  28  29
ATOM     29  C   UNL A   1      35.385  33.321  33.674  1.00  0.00     0.261 C 
BRANCH  29  30
ATOM     30  O   UNL A   1      35.878  32.574  32.582  1.00  0.00    -0.460 OA
BRANCH  30  31
ATOM     31  C   UNL A   1      37.120  32.898  32.194  1.00  0.00     0.338 C 
ATOM     32  O   UNL A   1      37.474  33.920  31.606  1.00  0.00    -0.246 OA
BRANCH  31  33
ATOM     33  C   UNL A   1      37.990  31.764  32.462  1.00  0.00     0.060 A 
ATOM     34  C   UNL A   1      39.102  32.022  33.261  1.00  0.00     0.016 A 
ATOM     35  C   UNL A   1      37.905  30.661  31.598  1.00  0.00     0.016 A 
ATOM     36  C   UNL A   1      40.254  31.341  32.969  1.00  0.00     0.010 A 
ATOM     37  C   UNL A   1      39.063  30.011  31.283  1.00  0.00     0.010 A 
ATOM     38  C   UNL A   1      40.233  30.434  31.905  1.00  0.00    -0.014 A 
BRANCH  38  39
ATOM     39  C   UNL A   1      41.480  29.831  31.510  1.00  0.00     0.031 A 
ATOM     40  C   UNL A   1      42.195  30.686  30.545  1.00  0.00     0.074 A 
ATOM     41  C   UNL A   1      41.921  28.690  32.066  1.00  0.00     0.049 A 
ATOM     42  N   UNL A   1      42.318  30.495  29.276  1.00  0.00    -0.248 NA
ATOM     43  C   UNL A   1      42.577  32.039  30.991  1.00  0.00     0.031 C 
ATOM     44  C   UNL A   1      41.369  27.974  33.221  1.00  0.00     0.029 A 
ATOM     45  N   UNL A   1      43.036  27.975  31.773  1.00  0.00    -0.354 N 
ATOM     46  C   UNL A   1      43.057  31.582  28.828  1.00  0.00     0.074 A 
ATOM     47  C   UNL A   1      42.929  32.598  29.834  1.00  0.00     0.031 C 
ATOM     48  C   UNL A   1      42.278  27.075  33.663  1.00  0.00     0.029 A 
ATOM     49  C   UNL A   1      43.411  27.065  32.753  1.00  0.00     0.049 A 
ATOM     50  H   UNL A   1      43.540  28.093  30.935  1.00  0.00     0.167 HD
ATOM     51  C   UNL A   1      43.988  31.421  27.852  1.00  0.00     0.037 A 
ATOM     52  C   UNL A   1      44.610  26.431  32.833  1.00  0.00     0.037 A 
ATOM     53  C   UNL A   1      43.759  30.191  27.131  1.00  0.00     0.049 A 
ATOM     54  C   UNL A   1      45.230  26.509  31.481  1.00  0.00     0.074 A 
ATOM     55  C   UNL A   1      42.717  29.686  26.380  1.00  0.00     0.029 A 
ATOM     56  N   UNL A   1      44.548  29.119  27.475  1.00  0.00    -0.354 N 
ATOM     57  N   UNL A   1      44.748  25.910  30.425  1.00  0.00    -0.248 NA
ATOM     58  C   UNL A   1      46.116  27.631  31.201  1.00  0.00     0.031 C 
ATOM     59  C   UNL A   1      42.704  28.286  26.649  1.00  0.00     0.029 A 
ATOM     60  C   UNL A   1      43.774  27.988  27.495  1.00  0.00     0.049 A 
ATOM     61  H   UNL A   1      45.511  29.158  27.674  1.00  0.00     0.167 HD
ATOM     62  C   UNL A   1      44.912  26.819  29.389  1.00  0.00     0.074 A 
ATOM     63  C   UNL A   1      45.851  27.812  29.904  1.00  0.00     0.031 C 
ATOM     64  C   UNL A   1      44.047  26.836  28.331  1.00  0.00     0.037 A 
BRANCH  51  65
ATOM     65  C   UNL A   1      45.329  32.123  27.853  1.00  0.00     0.058 A 
ATOM     66  C   UNL A   1      45.714  32.840  26.703  1.00  0.00     0.135 A 
ATOM     67  C   UNL A   1      46.360  31.899  28.798  1.00  0.00     0.135 A 
ATOM     68  F   UNL A   1      44.822  33.111  25.737  1.00  0.00    -0.206 F 
ATOM     69  C   UNL A   1      47.033  33.230  26.472  1.00  0.00     0.059 A 
ATOM     70  C   UNL A   1      47.666  32.327  28.612  1.00  0.00     0.059 A 
ATOM     71  F   UNL A   1      46.191  31.172  29.906  1.00  0.00    -0.206 F 
ATOM     72  C   UNL A   1      48.004  32.955  27.428  1.00  0.00     0.060 A 
BRANCH  72  73
ATOM     73  S   UNL A   1      49.721  33.373  27.101  1.00  0.00     0.124 S 
ATOM     74  O   UNL A   1      49.781  34.745  27.591  1.00  0.00    -0.237 OA
ATOM     75  O   UNL A   1      50.428  32.375  27.895  1.00  0.00    -0.237 OA
ATOM     76  O   UNL A   1      49.836  33.212  25.655  1.00  0.00    -0.744 OA
ENDBRANCH  72  73
ENDBRANCH  51  65
BRANCH  52  77
ATOM     77  C   UNL A   1      45.389  26.104  34.060  1.00  0.00     0.058 A 
ATOM     78  C   UNL A   1      45.636  27.070  35.052  1.00  0.00     0.135 A 
ATOM     79  C   UNL A   1      45.675  24.770  34.414  1.00  0.00     0.135 A 
ATOM     80  F   UNL A   1      45.363  28.362  34.818  1.00  0.00    -0.206 F 
ATOM     81  C   UNL A   1      46.106  26.729  36.328  1.00  0.00     0.059 A 
ATOM     82  C   UNL A   1      46.153  24.407  35.672  1.00  0.00     0.059 A 
ATOM     83  F   UNL A   1      45.412  23.758  33.572  1.00  0.00    -0.206 F 
ATOM     84  C   UNL A   1      46.348  25.390  36.633  1.00  0.00     0.060 A 
BRANCH  84  85
ATOM     85  S   UNL A   1      46.812  24.925  38.319  1.00  0.00     0.124 S 
ATOM     86  O   UNL A   1      48.114  25.566  38.461  1.00  0.00    -0.237 OA
ATOM     87  O   UNL A   1      45.728  25.500  39.107  1.00  0.00    -0.237 OA
ATOM     88  O   UNL A   1      46.838  23.465  38.273  1.00  0.00    -0.744 OA
ENDBRANCH  84  85
ENDBRANCH  52  77
BRANCH  64  89
ATOM     89  C   UNL A   1      43.163  25.632  28.119  1.00  0.00     0.058 A 
ATOM     90  C   UNL A   1      41.811  25.546  28.497  1.00  0.00     0.135 A 
ATOM     91  C   UNL A   1      43.683  24.575  27.356  1.00  0.00     0.135 A 
ATOM     92  F   UNL A   1      41.209  26.555  29.143  1.00  0.00    -0.206 F 
ATOM     93  C   UNL A   1      41.024  24.441  28.159  1.00  0.00     0.059 A 
ATOM     94  C   UNL A   1      42.909  23.483  26.980  1.00  0.00     0.059 A 
ATOM     95  F   UNL A   1      44.950  24.626  26.915  1.00  0.00    -0.206 F 
ATOM     96  C   UNL A   1      41.583  23.416  27.395  1.00  0.00     0.060 A 
BRANCH  96  97
ATOM     97  S   UNL A   1      40.548  22.025  26.888  1.00  0.00     0.124 S 
ATOM     98  O   UNL A   1      40.712  21.097  28.002  1.00  0.00    -0.237 OA
ATOM     99  O   UNL A   1      39.230  22.639  26.760  1.00  0.00    -0.237 OA
ATOM    100  O   UNL A   1      41.149  21.595  25.626  1.00  0.00    -0.744 OA
ENDBRANCH  96  97
ENDBRANCH  64  89
ENDBRANCH  38  39
ENDBRANCH  31  33
ENDBRANCH  30  31
ENDBRANCH  29  30
ENDBRANCH  28  29
ENDBRANCH  27  28
ENDBRANCH  26  27
ENDBRANCH  25  26
ENDBRANCH  24  25
ENDBRANCH   1  24
TORSDOF 27
ENDMDL
MODEL 3
REMARK VINA RESULT:      -8.7      3.377      9.424
REMARK SMILES N#CCSc1nnnn1-c1ccc(C(=O)OCCOCCOCCOCCOC(=O)c2ccc(-c3c4nc(c(-c5c(F)cc(S(=O)(=O)[O-])cc5F)c5ccc([nH]5)c(-c5c(F)cc(S(=O)(=O)[O-])cc5F)c5nc(c(-c6c(F)cc(S(=O)(=O)[O-])cc6F)c6ccc3[nH]6)C=C5)C=C4)cc2)cc1
REMARK SMILES IDX 21 1 20 2 19 3 18 4 17 5 16 6 14 7 15 8 13 9 10 10 11 11
REMARK SMILES IDX 98 12 12 13 97 14 9 15 5 16 6 17 7 18 8 19 4 20 3 21 2 22
REMARK SMILES IDX 1 23 22 24 23 25 24 26 25 27 26 28 27 29 28 30 29 31 30 32
REMARK SMILES IDX 31 33 32 34 96 35 33 36 95 37 34 38 35 39 36 40 89 41 37 42
REMARK SMILES IDX 94 43 88 44 90 45 38 46 93 47 87 48 86 49 39 51 73 52 52 53
REMARK SMILES IDX 72 54 53 55 56 56 71 57 91 58 54 59 55 60 70 62 92 63 57 64
REMARK SMILES IDX 40 65 41 66 50 67 42 68 43 69 49 70 51 71 44 72 45 73 46 74
REMARK SMILES IDX 47 75 48 76 74 77 75 78 84 79 76 80 77 81 83 82 85 83 78 84
REMARK SMILES IDX 79 85 80 86 81 87 82 88 58 89 59 90 68 91 60 92 61 93 67 94
REMARK SMILES IDX 69 95 62 96 63 97 64 98 65 99 66 100
REMARK H PARENT 90 50 56 61
REMARK Flexibility Score: inf
ROOT
ATOM      1  C   UNL A   1      30.429  28.642  23.593  1.00  0.00     0.188 C 
ENDROOT
BRANCH   1   2
ATOM      2  C   UNL A   1      30.392  27.468  22.586  1.00  0.00     0.188 C 
BRANCH   2   3
ATOM      3  O   UNL A   1      31.527  27.063  21.828  1.00  0.00    -0.376 OA
BRANCH   3   4
ATOM      4  C   UNL A   1      32.799  26.825  22.408  1.00  0.00     0.202 C 
BRANCH   4   5
ATOM      5  C   UNL A   1      33.092  25.578  23.252  1.00  0.00     0.261 C 
BRANCH   5   6
ATOM      6  O   UNL A   1      34.044  24.679  22.690  1.00  0.00    -0.460 OA
BRANCH   6   7
ATOM      7  C   UNL A   1      33.906  23.393  23.063  1.00  0.00     0.338 C 
ATOM      8  O   UNL A   1      33.055  22.600  22.691  1.00  0.00    -0.246 OA
BRANCH   7   9
ATOM      9  C   UNL A   1      35.051  23.016  23.923  1.00  0.00     0.060 A 
ATOM     10  C   UNL A   1      37.205  22.650  25.598  1.00  0.00     0.069 A 
ATOM     11  C   UNL A   1      35.951  22.897  26.163  1.00  0.00     0.029 A 
ATOM     12  C   UNL A   1      37.365  22.391  24.233  1.00  0.00     0.029 A 
ATOM     13  C   UNL A   1      34.872  23.090  25.312  1.00  0.00     0.018 A 
ATOM     14  C   UNL A   1      36.274  22.580  23.388  1.00  0.00     0.018 A 
BRANCH  10  15
ATOM     15  N   UNL A   1      38.325  23.112  26.299  1.00  0.00    -0.187 N 
ATOM     16  C   UNL A   1      39.488  22.401  26.553  1.00  0.00     0.215 A 
ATOM     17  N   UNL A   1      40.378  23.237  27.042  1.00  0.00    -0.101 NA
ATOM     18  N   UNL A   1      39.785  24.477  27.024  1.00  0.00    -0.022 NA
ATOM     19  N   UNL A   1      38.569  24.422  26.495  1.00  0.00    -0.039 NA
BRANCH  16  20
ATOM     20  S   UNL A   1      39.884  20.822  25.926  1.00  0.00    -0.069 SA
BRANCH  20  21
ATOM     21  C   UNL A   1      41.685  20.620  26.087  1.00  0.00     0.198 C 
BRANCH  21  22
ATOM     22  C   UNL A   1      42.075  19.560  27.105  1.00  0.00     0.074 C 
ATOM     23  N   UNL A   1      42.398  18.681  27.949  1.00  0.00    -0.197 NA
ENDBRANCH  21  22
ENDBRANCH  20  21
ENDBRANCH  16  20
ENDBRANCH  10  15
ENDBRANCH   7   9
ENDBRANCH   6   7
ENDBRANCH   5   6
ENDBRANCH   4   5
ENDBRANCH   3   4
ENDBRANCH   2   3
ENDBRANCH   1   2
BRANCH   1  24
ATOM     24  O   UNL A   1      31.040  28.340  24.833  1.00  0.00    -0.377 OA
BRANCH  24  25
ATOM     25  C   UNL A   1      31.519  29.469  25.562  1.00  0.00     0.188 C 
BRANCH  25  26
ATOM     26  C   UNL A   1      31.992  29.247  27.025  1.00  0.00     0.188 C 
BRANCH  26  27
ATOM     27  O   UNL A   1      33.213  28.527  27.160  1.00  0.00    -0.376 OA
BRANCH  27  28
ATOM     28  C   UNL A   1      34.375  28.855  26.416  1.00  0.00     0.202 C 
BRANCH  28  29
ATOM     29  C   UNL A   1      35.621  29.273  27.189  1.00  0.00     0.261 C 
BRANCH  29  30
ATOM     30  O   UNL A   1      35.339  29.818  28.461  1.00  0.00    -0.460 OA
BRANCH  30  31
ATOM     31  C   UNL A   1      36.007  30.944  28.750  1.00  0.00     0.338 C 
ATOM     32  O   UNL A   1      35.826  32.062  28.267  1.00  0.00    -0.246 OA
BRANCH  31  33
ATOM     33  C   UNL A   1      37.098  30.606  29.650  1.00  0.00     0.060 A 
ATOM     34  C   UNL A   1      38.048  31.605  29.861  1.00  0.00     0.016 A 
ATOM     35  C   UNL A   1      37.352  29.245  29.882  1.00  0.00     0.016 A 
ATOM     36  C   UNL A   1      39.349  31.208  30.018  1.00  0.00     0.010 A 
ATOM     37  C   UNL A   1      38.654  28.852  30.000  1.00  0.00     0.010 A 
ATOM     38  C   UNL A   1      39.633  29.839  29.965  1.00  0.00    -0.014 A 
BRANCH  38  39
ATOM     39  C   UNL A   1      41.016  29.438  29.984  1.00  0.00     0.031 A 
ATOM     40  C   UNL A   1      41.513  29.330  31.368  1.00  0.00     0.074 A 
ATOM     41  C   UNL A   1      41.675  29.119  28.857  1.00  0.00     0.049 A 
ATOM     42  N   UNL A   1      42.299  30.149  31.980  1.00  0.00    -0.248 NA
ATOM     43  C   UNL A   1      40.848  28.357  32.254  1.00  0.00     0.031 C 
ATOM     44  C   UNL A   1      41.128  28.947  27.507  1.00  0.00     0.029 A 
ATOM     45  N   UNL A   1      42.978  28.774  28.701  1.00  0.00    -0.354 N 
ATOM     46  C   UNL A   1      42.445  29.608  33.251  1.00  0.00     0.074 A 
ATOM     47  C   UNL A   1      41.338  28.714  33.439  1.00  0.00     0.031 C 
ATOM     48  C   UNL A   1      42.040  28.312  26.736  1.00  0.00     0.029 A 
ATOM     49  C   UNL A   1      43.268  28.148  27.496  1.00  0.00     0.049 A 
ATOM     50  H   UNL A   1      43.662  28.953  29.387  1.00  0.00     0.167 HD
ATOM     51  C   UNL A   1      43.644  29.673  33.889  1.00  0.00     0.037 A 
ATOM     52  C   UNL A   1      44.410  27.473  27.204  1.00  0.00     0.037 A 
ATOM     53  C   UNL A   1      44.481  30.687  33.291  1.00  0.00     0.049 A 
ATOM     54  C   UNL A   1      45.439  27.926  28.181  1.00  0.00     0.074 A 
ATOM     55  C   UNL A   1      44.375  32.051  33.109  1.00  0.00     0.029 A 
ATOM     56  N   UNL A   1      45.447  30.251  32.415  1.00  0.00    -0.354 N 
ATOM     57  N   UNL A   1      45.919  29.141  28.221  1.00  0.00    -0.248 NA
ATOM     58  C   UNL A   1      45.592  27.164  29.413  1.00  0.00     0.031 C 
ATOM     59  C   UNL A   1      44.988  32.311  31.850  1.00  0.00     0.029 A 
ATOM     60  C   UNL A   1      45.501  31.112  31.351  1.00  0.00     0.049 A 
ATOM     61  H   UNL A   1      46.008  29.451  32.533  1.00  0.00     0.167 HD
ATOM     62  C   UNL A   1      46.034  29.439  29.572  1.00  0.00     0.074 A 
ATOM     63  C   UNL A   1      45.919  28.151  30.253  1.00  0.00     0.031 C 
ATOM     64  C   UNL A   1      45.916  30.725  30.016  1.00  0.00     0.037 A 
BRANCH  51  65
ATOM     65  C   UNL A   1      44.208  28.543  34.723  1.00  0.00     0.058 A 
ATOM     66  C   UNL A   1      44.359  27.276  34.126  1.00  0.00     0.135 A 
ATOM     67  C   UNL A   1      44.342  28.567  36.133  1.00  0.00     0.135 A 
ATOM     68  F   UNL A   1      44.250  27.131  32.796  1.00  0.00    -0.206 F 
ATOM     69  C   UNL A   1      44.544  26.115  34.876  1.00  0.00     0.059 A 
ATOM     70  C   UNL A   1      44.583  27.431  36.891  1.00  0.00     0.059 A 
ATOM     71  F   UNL A   1      44.154  29.668  36.868  1.00  0.00    -0.206 F 
ATOM     72  C   UNL A   1      44.640  26.203  36.260  1.00  0.00     0.060 A 
BRANCH  72  73
ATOM     73  S   UNL A   1      44.790  24.704  37.241  1.00  0.00     0.124 S 
ATOM     74  O   UNL A   1      46.232  24.490  37.221  1.00  0.00    -0.237 OA
ATOM     75  O   UNL A   1      44.219  25.123  38.515  1.00  0.00    -0.237 OA
ATOM     76  O   UNL A   1      43.997  23.733  36.493  1.00  0.00    -0.744 OA
ENDBRANCH  72  73
ENDBRANCH  51  65
BRANCH  52  77
ATOM     77  C   UNL A   1      44.555  26.229  26.400  1.00  0.00     0.058 A 
ATOM     78  C   UNL A   1      45.623  26.055  25.501  1.00  0.00     0.135 A 
ATOM     79  C   UNL A   1      43.802  25.073  26.692  1.00  0.00     0.135 A 
ATOM     80  F   UNL A   1      46.415  27.091  25.188  1.00  0.00    -0.206 F 
ATOM     81  C   UNL A   1      45.945  24.806  24.953  1.00  0.00     0.059 A 
ATOM     82  C   UNL A   1      44.096  23.822  26.152  1.00  0.00     0.059 A 
ATOM     83  F   UNL A   1      42.805  25.105  27.590  1.00  0.00    -0.206 F 
ATOM     84  C   UNL A   1      45.182  23.691  25.298  1.00  0.00     0.060 A 
BRANCH  84  85
ATOM     85  S   UNL A   1      45.679  22.051  24.715  1.00  0.00     0.124 S 
ATOM     86  O   UNL A   1      46.757  22.374  23.788  1.00  0.00    -0.237 OA
ATOM     87  O   UNL A   1      46.077  21.390  25.952  1.00  0.00    -0.237 OA
ATOM     88  O   UNL A   1      44.462  21.528  24.097  1.00  0.00    -0.744 OA
ENDBRANCH  84  85
ENDBRANCH  52  77
BRANCH  64  89
ATOM     89  C   UNL A   1      46.040  31.838  29.006  1.00  0.00     0.058 A 
ATOM     90  C   UNL A   1      47.252  32.413  28.583  1.00  0.00     0.135 A 
ATOM     91  C   UNL A   1      44.875  32.229  28.328  1.00  0.00     0.135 A 
ATOM     92  F   UNL A   1      48.422  32.024  29.111  1.00  0.00    -0.206 F 
ATOM     93  C   UNL A   1      47.295  33.359  27.555  1.00  0.00     0.059 A 
ATOM     94  C   UNL A   1      44.900  33.142  27.280  1.00  0.00     0.059 A 
ATOM     95  F   UNL A   1      43.695  31.672  28.646  1.00  0.00    -0.206 F 
ATOM     96  C   UNL A   1      46.112  33.713  26.906  1.00  0.00     0.060 A 
BRANCH  96  97
ATOM     97  S   UNL A   1      46.173  34.874  25.523  1.00  0.00     0.124 S 
ATOM     98  O   UNL A   1      47.547  34.724  25.056  1.00  0.00    -0.237 OA
ATOM     99  O   UNL A   1      45.138  34.361  24.632  1.00  0.00    -0.237 OA
ATOM    100  O   UNL A   1      45.865  36.162  26.145  1.00  0.00    -0.744 OA
ENDBRANCH  96  97
ENDBRANCH  64  89
ENDBRANCH  38  39
ENDBRANCH  31  33
ENDBRANCH  30  31
ENDBRANCH  29  30
ENDBRANCH  28  29
ENDBRANCH  27  28
ENDBRANCH  26  27
ENDBRANCH  25  26
ENDBRANCH  24  25
ENDBRANCH   1  24
TORSDOF 27
ENDMDL
