MODEL 1
REMARK VINA RESULT:     -10.0      0.000      0.000
REMARK SMILES Cc1c(NC(=O)[C@@H]2CC=CC[C@@H]2C(=O)OCCOCCOCCOCCOC(=O)c2ccc(-c3c4nc(c(-c5c(F)cc(S(=O)(=O)[O-])cc5F)c5ccc([nH]5)c(-c5c(F)cc(S(=O)(=O)[O-])cc5F)c5nc(c(-c6c(F)cc(S(=O)(=O)[O-])cc6F)c6ccc3[nH]6)C=C5)C=C4)cc2)cccc1C(=O)N1CCOCC1
REMARK SMILES IDX 21 1 20 2 19 3 18 4 17 5 16 6 15 7 13 8 14 9 12 10 7 11 8 12
REMARK SMILES IDX 9 13 11 14 10 15 5 16 4 17 6 19 3 20 1 21 2 22 99 23 96 24
REMARK SMILES IDX 98 25 97 26 100 27 101 28 102 29 103 30 107 31 104 32 106 33
REMARK SMILES IDX 105 34 22 35 23 36 24 37 25 38 26 39 27 40 28 41 29 42 30 43
REMARK SMILES IDX 31 44 95 45 32 46 94 47 33 48 34 49 35 50 88 51 36 52 93 53
REMARK SMILES IDX 87 54 89 55 37 56 92 57 86 58 85 59 38 61 72 62 51 63 71 64
REMARK SMILES IDX 52 65 55 66 70 67 90 68 53 69 54 70 69 72 91 73 56 74 39 75
REMARK SMILES IDX 40 76 49 77 41 78 42 79 48 80 50 81 43 82 44 83 45 84 46 85
REMARK SMILES IDX 47 86 73 87 74 88 83 89 75 90 76 91 82 92 84 93 77 94 78 95
REMARK SMILES IDX 79 96 80 97 81 98 57 99 58 100 67 101 59 102 60 103 66 104
REMARK SMILES IDX 68 105 61 106 62 107 63 108 64 109 65 110
REMARK H PARENT 4 18 89 60 55 71
REMARK Flexibility Score: inf
ROOT
ATOM      1  O   UNL A   1      43.350  38.499  27.105  1.00  0.00    -0.377 OA
ENDROOT
BRANCH   1   2
ATOM      2  C   UNL A   1      42.343  37.507  27.319  1.00  0.00     0.188 C 
BRANCH   2   3
ATOM      3  C   UNL A   1      42.429  36.480  28.641  1.00  0.00     0.188 C 
BRANCH   3   4
ATOM      4  O   UNL A   1      41.817  34.948  28.895  1.00  0.00    -0.376 OA
BRANCH   4   5
ATOM      5  C   UNL A   1      40.803  34.115  29.991  1.00  0.00     0.202 C 
BRANCH   5   6
ATOM      6  C   UNL A   1      39.263  34.534  31.044  1.00  0.00     0.261 C 
BRANCH   6   7
ATOM      7  O   UNL A   1      38.311  33.564  32.238  1.00  0.00    -0.463 OA
BRANCH   7   8
ATOM      8  C   UNL A   1      37.249  32.625  32.478  1.00  0.00     0.310 C 
ATOM      9  O   UNL A   1      37.244  31.741  33.354  1.00  0.00    -0.252 OA
BRANCH   8  10
ATOM     10  C   UNL A   1      35.691  32.706  31.928  1.00  0.00     0.116 C 
ATOM     11  C   UNL A   1      34.956  32.948  30.543  1.00  0.00     0.097 C 
ATOM     12  C   UNL A   1      34.424  34.392  30.308  1.00  0.00     0.041 C 
ATOM     13  C   UNL A   1      33.864  35.061  31.525  1.00  0.00    -0.030 C 
ATOM     14  C   UNL A   1      34.812  33.342  33.086  1.00  0.00     0.043 C 
ATOM     15  C   UNL A   1      34.009  34.570  32.758  1.00  0.00    -0.030 C 
BRANCH  11  16
ATOM     16  C   UNL A   1      35.699  32.233  29.430  1.00  0.00     0.228 C 
ATOM     17  N   UNL A   1      35.186  31.813  28.250  1.00  0.00    -0.326 N 
ATOM     18  H   UNL A   1      35.906  31.589  27.616  1.00  0.00     0.169 HD
ATOM     19  O   UNL A   1      36.894  31.953  29.579  1.00  0.00    -0.274 OA
BRANCH  17  20
ATOM     20  C   UNL A   1      33.925  31.604  27.664  1.00  0.00     0.044 A 
ATOM     21  C   UNL A   1      34.604  29.180  27.430  1.00  0.00     0.047 C 
ATOM     22  C   UNL A   1      33.558  30.264  27.349  1.00  0.00    -0.015 A 
ATOM     23  C   UNL A   1      32.245  29.990  26.902  1.00  0.00     0.045 A 
ATOM     24  C   UNL A   1      33.003  32.630  27.466  1.00  0.00     0.026 A 
ATOM     25  C   UNL A   1      31.382  31.059  26.614  1.00  0.00     0.014 A 
ATOM     26  C   UNL A   1      31.763  32.371  26.879  1.00  0.00     0.003 A 
BRANCH  23  27
ATOM     27  C   UNL A   1      31.725  28.634  26.554  1.00  0.00     0.254 C 
ATOM     28  O   UNL A   1      31.450  27.885  27.494  1.00  0.00    -0.269 OA
ATOM     29  N   UNL A   1      31.571  28.224  25.233  1.00  0.00    -0.334 N 
ATOM     30  C   UNL A   1      32.211  28.781  24.033  1.00  0.00     0.148 C 
ATOM     31  C   UNL A   1      30.820  26.994  24.973  1.00  0.00     0.148 C 
ATOM     32  C   UNL A   1      31.213  28.875  22.862  1.00  0.00     0.181 C 
ATOM     33  C   UNL A   1      29.831  27.219  23.829  1.00  0.00     0.181 C 
ATOM     34  O   UNL A   1      30.531  27.627  22.641  1.00  0.00    -0.378 OA
ENDBRANCH  23  27
ENDBRANCH  17  20
ENDBRANCH  11  16
ENDBRANCH   8  10
ENDBRANCH   7   8
ENDBRANCH   6   7
ENDBRANCH   5   6
ENDBRANCH   4   5
ENDBRANCH   3   4
ENDBRANCH   2   3
ENDBRANCH   1   2
BRANCH   1  35
ATOM     35  C   UNL A   1      42.892  39.799  26.817  1.00  0.00     0.188 C 
BRANCH  35  36
ATOM     36  C   UNL A   1      42.989  40.654  28.070  1.00  0.00     0.188 C 
BRANCH  36  37
ATOM     37  O   UNL A   1      42.441  40.139  29.270  1.00  0.00    -0.376 OA
BRANCH  37  38
ATOM     38  C   UNL A   1      43.243  40.222  30.443  1.00  0.00     0.202 C 
BRANCH  38  39
ATOM     39  C   UNL A   1      43.640  41.619  31.001  1.00  0.00     0.261 C 
BRANCH  39  40
ATOM     40  O   UNL A   1      42.573  42.313  31.681  1.00  0.00    -0.460 OA
BRANCH  40  41
ATOM     41  C   UNL A   1      42.860  43.510  32.286  1.00  0.00     0.338 C 
ATOM     42  O   UNL A   1      42.302  44.561  32.006  1.00  0.00    -0.246 OA
BRANCH  41  43
ATOM     43  C   UNL A   1      43.498  43.304  33.606  1.00  0.00     0.060 A 
ATOM     44  C   UNL A   1      44.811  43.576  33.884  1.00  0.00     0.016 A 
ATOM     45  C   UNL A   1      42.750  42.943  34.704  1.00  0.00     0.016 A 
ATOM     46  C   UNL A   1      45.371  43.074  35.082  1.00  0.00     0.010 A 
ATOM     47  C   UNL A   1      43.417  42.414  35.841  1.00  0.00     0.010 A 
ATOM     48  C   UNL A   1      44.766  42.037  35.808  1.00  0.00    -0.014 A 
BRANCH  48  49
ATOM     49  C   UNL A   1      45.638  40.528  36.256  1.00  0.00     0.031 A 
ATOM     50  C   UNL A   1      46.009  38.885  35.229  1.00  0.00     0.074 A 
ATOM     51  C   UNL A   1      45.728  40.690  37.644  1.00  0.00     0.049 A 
ATOM     52  N   UNL A   1      45.262  37.744  35.284  1.00  0.00    -0.248 NA
ATOM     53  C   UNL A   1      46.691  38.536  33.847  1.00  0.00     0.031 C 
ATOM     54  C   UNL A   1      46.239  39.795  38.615  1.00  0.00     0.029 A 
ATOM     55  N   UNL A   1      45.014  41.524  38.556  1.00  0.00    -0.354 N 
ATOM     56  C   UNL A   1      45.410  36.745  34.341  1.00  0.00     0.074 A 
ATOM     57  C   UNL A   1      46.184  37.393  33.364  1.00  0.00     0.031 C 
ATOM     58  C   UNL A   1      45.422  39.692  39.675  1.00  0.00     0.029 A 
ATOM     59  C   UNL A   1      44.480  40.743  39.585  1.00  0.00     0.049 A 
ATOM     60  H   UNL A   1      44.910  42.500  38.472  1.00  0.00     0.167 HD
ATOM     61  C   UNL A   1      44.946  35.447  34.424  1.00  0.00     0.037 A 
ATOM     62  C   UNL A   1      43.214  40.692  40.057  1.00  0.00     0.037 A 
ATOM     63  C   UNL A   1      44.401  35.084  35.752  1.00  0.00     0.049 A 
ATOM     64  C   UNL A   1      42.501  39.344  39.897  1.00  0.00     0.074 A 
ATOM     65  C   UNL A   1      44.914  34.373  36.829  1.00  0.00     0.029 A 
ATOM     66  N   UNL A   1      43.257  35.688  36.260  1.00  0.00    -0.354 N 
ATOM     67  N   UNL A   1      42.981  38.286  39.267  1.00  0.00    -0.248 NA
ATOM     68  C   UNL A   1      41.121  39.136  40.329  1.00  0.00     0.031 C 
ATOM     69  C   UNL A   1      44.198  34.747  38.014  1.00  0.00     0.029 A 
ATOM     70  C   UNL A   1      43.178  35.617  37.661  1.00  0.00     0.049 A 
ATOM     71  H   UNL A   1      42.575  36.121  35.697  1.00  0.00     0.167 HD
ATOM     72  C   UNL A   1      41.986  37.329  39.113  1.00  0.00     0.074 A 
ATOM     73  C   UNL A   1      40.855  37.916  39.833  1.00  0.00     0.031 C 
ATOM     74  C   UNL A   1      42.015  36.149  38.394  1.00  0.00     0.037 A 
BRANCH  61  75
ATOM     75  C   UNL A   1      45.374  34.444  33.321  1.00  0.00     0.058 A 
ATOM     76  C   UNL A   1      46.599  33.745  33.327  1.00  0.00     0.135 A 
ATOM     77  C   UNL A   1      44.609  34.233  32.147  1.00  0.00     0.135 A 
ATOM     78  F   UNL A   1      47.361  33.694  34.427  1.00  0.00    -0.206 F 
ATOM     79  C   UNL A   1      47.102  33.065  32.197  1.00  0.00     0.059 A 
ATOM     80  C   UNL A   1      45.119  33.638  30.980  1.00  0.00     0.059 A 
ATOM     81  F   UNL A   1      43.321  34.613  32.101  1.00  0.00    -0.206 F 
ATOM     82  C   UNL A   1      46.384  33.072  31.005  1.00  0.00     0.060 A 
BRANCH  82  83
ATOM     83  S   UNL A   1      47.103  32.342  29.509  1.00  0.00     0.124 S 
ATOM     84  O   UNL A   1      48.363  31.785  29.996  1.00  0.00    -0.237 OA
ATOM     85  O   UNL A   1      46.088  31.368  29.124  1.00  0.00    -0.237 OA
ATOM     86  O   UNL A   1      47.247  33.482  28.606  1.00  0.00    -0.744 OA
ENDBRANCH  82  83
ENDBRANCH  61  75
BRANCH  62  87
ATOM     87  C   UNL A   1      42.867  41.980  40.755  1.00  0.00     0.058 A 
ATOM     88  C   UNL A   1      41.791  42.681  40.155  1.00  0.00     0.135 A 
ATOM     89  C   UNL A   1      42.988  42.109  42.145  1.00  0.00     0.135 A 
ATOM     90  F   UNL A   1      41.668  42.685  38.818  1.00  0.00    -0.206 F 
ATOM     91  C   UNL A   1      40.704  43.129  40.904  1.00  0.00     0.059 A 
ATOM     92  C   UNL A   1      41.941  42.632  42.919  1.00  0.00     0.059 A 
ATOM     93  F   UNL A   1      44.031  41.561  42.784  1.00  0.00    -0.206 F 
ATOM     94  C   UNL A   1      40.752  43.000  42.287  1.00  0.00     0.060 A 
BRANCH  94  95
ATOM     95  S   UNL A   1      39.170  42.911  43.187  1.00  0.00     0.124 S 
ATOM     96  O   UNL A   1      38.962  41.473  43.312  1.00  0.00    -0.237 OA
ATOM     97  O   UNL A   1      39.485  43.629  44.420  1.00  0.00    -0.237 OA
ATOM     98  O   UNL A   1      38.249  43.621  42.311  1.00  0.00    -0.744 OA
ENDBRANCH  94  95
ENDBRANCH  62  87
BRANCH  74  99
ATOM     99  C   UNL A   1      40.800  35.259  38.345  1.00  0.00     0.058 A 
ATOM    100  C   UNL A   1      40.612  34.191  39.235  1.00  0.00     0.135 A 
ATOM    101  C   UNL A   1      39.873  35.382  37.291  1.00  0.00     0.135 A 
ATOM    102  F   UNL A   1      41.473  33.985  40.246  1.00  0.00    -0.206 F 
ATOM    103  C   UNL A   1      39.530  33.321  39.117  1.00  0.00     0.059 A 
ATOM    104  C   UNL A   1      38.826  34.488  37.114  1.00  0.00     0.059 A 
ATOM    105  F   UNL A   1      39.949  36.401  36.420  1.00  0.00    -0.206 F 
ATOM    106  C   UNL A   1      38.641  33.479  38.052  1.00  0.00     0.060 A 
BRANCH 106 107
ATOM    107  S   UNL A   1      37.220  32.383  37.891  1.00  0.00     0.124 S 
ATOM    108  O   UNL A   1      36.769  32.226  39.271  1.00  0.00    -0.237 OA
ATOM    109  O   UNL A   1      36.348  33.174  37.029  1.00  0.00    -0.237 OA
ATOM    110  O   UNL A   1      37.792  31.185  37.285  1.00  0.00    -0.744 OA
ENDBRANCH 106 107
ENDBRANCH  74  99
ENDBRANCH  48  49
ENDBRANCH  41  43
ENDBRANCH  40  41
ENDBRANCH  39  40
ENDBRANCH  38  39
ENDBRANCH  37  38
ENDBRANCH  36  37
ENDBRANCH  35  36
ENDBRANCH   1  35
TORSDOF 26
ENDMDL
MODEL 2
REMARK VINA RESULT:      -9.7      5.493      8.786
REMARK SMILES Cc1c(NC(=O)[C@@H]2CC=CC[C@@H]2C(=O)OCCOCCOCCOCCOC(=O)c2ccc(-c3c4nc(c(-c5c(F)cc(S(=O)(=O)[O-])cc5F)c5ccc([nH]5)c(-c5c(F)cc(S(=O)(=O)[O-])cc5F)c5nc(c(-c6c(F)cc(S(=O)(=O)[O-])cc6F)c6ccc3[nH]6)C=C5)C=C4)cc2)cccc1C(=O)N1CCOCC1
REMARK SMILES IDX 21 1 20 2 19 3 18 4 17 5 16 6 15 7 13 8 14 9 12 10 7 11 8 12
REMARK SMILES IDX 9 13 11 14 10 15 5 16 4 17 6 19 3 20 1 21 2 22 99 23 96 24
REMARK SMILES IDX 98 25 97 26 100 27 101 28 102 29 103 30 107 31 104 32 106 33
REMARK SMILES IDX 105 34 22 35 23 36 24 37 25 38 26 39 27 40 28 41 29 42 30 43
REMARK SMILES IDX 31 44 95 45 32 46 94 47 33 48 34 49 35 50 88 51 36 52 93 53
REMARK SMILES IDX 87 54 89 55 37 56 92 57 86 58 85 59 38 61 72 62 51 63 71 64
REMARK SMILES IDX 52 65 55 66 70 67 90 68 53 69 54 70 69 72 91 73 56 74 39 75
REMARK SMILES IDX 40 76 49 77 41 78 42 79 48 80 50 81 43 82 44 83 45 84 46 85
REMARK SMILES IDX 47 86 73 87 74 88 83 89 75 90 76 91 82 92 84 93 77 94 78 95
REMARK SMILES IDX 79 96 80 97 81 98 57 99 58 100 67 101 59 102 60 103 66 104
REMARK SMILES IDX 68 105 61 106 62 107 63 108 64 109 65 110
REMARK H PARENT 4 18 89 60 55 71
REMARK Flexibility Score: inf
ROOT
ATOM      1  O   UNL A   1      42.779  39.829  26.244  1.00  0.00    -0.377 OA
ENDROOT
BRANCH   1   2
ATOM      2  C   UNL A   1      41.704  38.949  26.586  1.00  0.00     0.188 C 
BRANCH   2   3
ATOM      3  C   UNL A   1      42.009  37.348  26.975  1.00  0.00     0.188 C 
BRANCH   3   4
ATOM      4  O   UNL A   1      42.252  36.593  28.445  1.00  0.00    -0.376 OA
BRANCH   4   5
ATOM      5  C   UNL A   1      42.067  35.053  29.164  1.00  0.00     0.202 C 
BRANCH   5   6
ATOM      6  C   UNL A   1      40.608  33.961  29.741  1.00  0.00     0.261 C 
BRANCH   6   7
ATOM      7  O   UNL A   1      40.516  32.220  30.227  1.00  0.00    -0.463 OA
BRANCH   7   8
ATOM      8  C   UNL A   1      39.917  31.217  31.066  1.00  0.00     0.310 C 
ATOM      9  O   UNL A   1      39.948  31.197  32.310  1.00  0.00    -0.252 OA
BRANCH   8  10
ATOM     10  C   UNL A   1      38.780  30.096  30.637  1.00  0.00     0.116 C 
ATOM     11  C   UNL A   1      38.415  28.601  31.022  1.00  0.00     0.097 C 
ATOM     12  C   UNL A   1      38.918  27.510  30.031  1.00  0.00     0.041 C 
ATOM     13  C   UNL A   1      38.855  27.897  28.586  1.00  0.00    -0.030 C 
ATOM     14  C   UNL A   1      38.450  30.319  29.101  1.00  0.00     0.043 C 
ATOM     15  C   UNL A   1      38.610  29.144  28.175  1.00  0.00    -0.030 C 
BRANCH  11  16
ATOM     16  C   UNL A   1      38.588  28.393  32.515  1.00  0.00     0.228 C 
ATOM     17  N   UNL A   1      39.755  28.304  33.195  1.00  0.00    -0.326 N 
ATOM     18  H   UNL A   1      39.604  28.400  34.163  1.00  0.00     0.169 HD
ATOM     19  O   UNL A   1      37.587  28.253  33.229  1.00  0.00    -0.274 OA
BRANCH  17  20
ATOM     20  C   UNL A   1      41.121  28.116  32.920  1.00  0.00     0.044 A 
ATOM     21  C   UNL A   1      41.458  28.041  35.426  1.00  0.00     0.047 C 
ATOM     22  C   UNL A   1      41.986  27.862  34.023  1.00  0.00    -0.015 A 
ATOM     23  C   UNL A   1      43.336  27.516  33.783  1.00  0.00     0.045 A 
ATOM     24  C   UNL A   1      41.636  28.081  31.626  1.00  0.00     0.026 A 
ATOM     25  C   UNL A   1      43.841  27.596  32.476  1.00  0.00     0.014 A 
ATOM     26  C   UNL A   1      43.001  27.891  31.406  1.00  0.00     0.003 A 
BRANCH  23  27
ATOM     27  C   UNL A   1      44.343  27.210  34.843  1.00  0.00     0.254 C 
ATOM     28  O   UNL A   1      44.917  28.171  35.359  1.00  0.00    -0.269 OA
ATOM     29  N   UNL A   1      44.635  25.903  35.222  1.00  0.00    -0.334 N 
ATOM     30  C   UNL A   1      44.385  24.666  34.468  1.00  0.00     0.148 C 
ATOM     31  C   UNL A   1      45.432  25.695  36.432  1.00  0.00     0.148 C 
ATOM     32  C   UNL A   1      43.867  23.546  35.391  1.00  0.00     0.181 C 
ATOM     33  C   UNL A   1      44.798  24.600  37.291  1.00  0.00     0.181 C 
ATOM     34  O   UNL A   1      44.709  23.374  36.545  1.00  0.00    -0.378 OA
ENDBRANCH  23  27
ENDBRANCH  17  20
ENDBRANCH  11  16
ENDBRANCH   8  10
ENDBRANCH   7   8
ENDBRANCH   6   7
ENDBRANCH   5   6
ENDBRANCH   4   5
ENDBRANCH   3   4
ENDBRANCH   2   3
ENDBRANCH   1   2
BRANCH   1  35
ATOM     35  C   UNL A   1      42.451  41.192  26.117  1.00  0.00     0.188 C 
BRANCH  35  36
ATOM     36  C   UNL A   1      42.606  41.612  24.664  1.00  0.00     0.188 C 
BRANCH  36  37
ATOM     37  O   UNL A   1      43.479  42.689  24.374  1.00  0.00    -0.376 OA
BRANCH  37  38
ATOM     38  C   UNL A   1      44.300  43.168  25.434  1.00  0.00     0.202 C 
BRANCH  38  39
ATOM     39  C   UNL A   1      45.727  42.578  25.623  1.00  0.00     0.261 C 
BRANCH  39  40
ATOM     40  O   UNL A   1      46.204  42.600  26.985  1.00  0.00    -0.460 OA
BRANCH  40  41
ATOM     41  C   UNL A   1      47.033  41.589  27.399  1.00  0.00     0.338 C 
ATOM     42  O   UNL A   1      48.019  41.765  28.100  1.00  0.00    -0.246 OA
BRANCH  41  43
ATOM     43  C   UNL A   1      46.344  40.279  27.354  1.00  0.00     0.060 A 
ATOM     44  C   UNL A   1      45.500  39.814  28.327  1.00  0.00     0.016 A 
ATOM     45  C   UNL A   1      46.406  39.485  26.232  1.00  0.00     0.016 A 
ATOM     46  C   UNL A   1      45.134  38.448  28.314  1.00  0.00     0.010 A 
ATOM     47  C   UNL A   1      46.049  38.115  26.344  1.00  0.00     0.010 A 
ATOM     48  C   UNL A   1      45.855  37.492  27.584  1.00  0.00    -0.014 A 
BRANCH  48  49
ATOM     49  C   UNL A   1      46.526  36.000  28.334  1.00  0.00     0.031 A 
ATOM     50  C   UNL A   1      46.096  34.095  28.053  1.00  0.00     0.074 A 
ATOM     51  C   UNL A   1      47.232  36.552  29.410  1.00  0.00     0.049 A 
ATOM     52  N   UNL A   1      45.240  33.365  28.826  1.00  0.00    -0.248 NA
ATOM     53  C   UNL A   1      46.037  33.111  26.818  1.00  0.00     0.031 C 
ATOM     54  C   UNL A   1      47.926  35.894  30.452  1.00  0.00     0.029 A 
ATOM     55  N   UNL A   1      47.153  37.826  30.049  1.00  0.00    -0.354 N 
ATOM     56  C   UNL A   1      44.773  32.133  28.410  1.00  0.00     0.074 A 
ATOM     57  C   UNL A   1      45.162  32.126  27.061  1.00  0.00     0.031 C 
ATOM     58  C   UNL A   1      47.640  36.423  31.653  1.00  0.00     0.029 A 
ATOM     59  C   UNL A   1      46.973  37.648  31.424  1.00  0.00     0.049 A 
ATOM     60  H   UNL A   1      47.215  38.696  29.593  1.00  0.00     0.167 HD
ATOM     61  C   UNL A   1      44.149  31.175  29.185  1.00  0.00     0.037 A 
ATOM     62  C   UNL A   1      46.048  38.193  32.247  1.00  0.00     0.037 A 
ATOM     63  C   UNL A   1      44.167  31.466  30.636  1.00  0.00     0.049 A 
ATOM     64  C   UNL A   1      45.090  37.201  32.916  1.00  0.00     0.074 A 
ATOM     65  C   UNL A   1      44.945  31.002  31.690  1.00  0.00     0.029 A 
ATOM     66  N   UNL A   1      43.493  32.557  31.170  1.00  0.00    -0.354 N 
ATOM     67  N   UNL A   1      45.040  35.900  32.685  1.00  0.00    -0.248 NA
ATOM     68  C   UNL A   1      44.018  37.634  33.808  1.00  0.00     0.031 C 
ATOM     69  C   UNL A   1      44.893  31.957  32.758  1.00  0.00     0.029 A 
ATOM     70  C   UNL A   1      44.009  32.967  32.410  1.00  0.00     0.049 A 
ATOM     71  H   UNL A   1      42.732  32.997  30.724  1.00  0.00     0.167 HD
ATOM     72  C   UNL A   1      43.911  35.352  33.281  1.00  0.00     0.074 A 
ATOM     73  C   UNL A   1      43.335  36.492  33.997  1.00  0.00     0.031 C 
ATOM     74  C   UNL A   1      43.400  34.073  33.170  1.00  0.00     0.037 A 
BRANCH  61  75
ATOM     75  C   UNL A   1      43.859  29.791  28.546  1.00  0.00     0.058 A 
ATOM     76  C   UNL A   1      42.576  29.362  28.150  1.00  0.00     0.135 A 
ATOM     77  C   UNL A   1      44.855  28.792  28.414  1.00  0.00     0.135 A 
ATOM     78  F   UNL A   1      41.558  30.227  28.047  1.00  0.00    -0.206 F 
ATOM     79  C   UNL A   1      42.275  28.018  27.842  1.00  0.00     0.059 A 
ATOM     80  C   UNL A   1      44.571  27.432  28.196  1.00  0.00     0.059 A 
ATOM     81  F   UNL A   1      46.156  29.117  28.501  1.00  0.00    -0.206 F 
ATOM     82  C   UNL A   1      43.266  27.046  27.932  1.00  0.00     0.060 A 
BRANCH  82  83
ATOM     83  S   UNL A   1      42.846  25.297  27.699  1.00  0.00     0.124 S 
ATOM     84  O   UNL A   1      43.187  24.709  28.991  1.00  0.00    -0.237 OA
ATOM     85  O   UNL A   1      41.422  25.362  27.389  1.00  0.00    -0.237 OA
ATOM     86  O   UNL A   1      43.706  24.883  26.592  1.00  0.00    -0.744 OA
ENDBRANCH  82  83
ENDBRANCH  61  75
BRANCH  62  87
ATOM     87  C   UNL A   1      46.290  39.672  32.394  1.00  0.00     0.058 A 
ATOM     88  C   UNL A   1      45.126  40.461  32.214  1.00  0.00     0.135 A 
ATOM     89  C   UNL A   1      47.235  40.167  33.303  1.00  0.00     0.135 A 
ATOM     90  F   UNL A   1      44.221  40.102  31.288  1.00  0.00    -0.206 F 
ATOM     91  C   UNL A   1      44.748  41.428  33.143  1.00  0.00     0.059 A 
ATOM     92  C   UNL A   1      46.910  41.197  34.198  1.00  0.00     0.059 A 
ATOM     93  F   UNL A   1      48.408  39.538  33.464  1.00  0.00    -0.206 F 
ATOM     94  C   UNL A   1      45.612  41.711  34.195  1.00  0.00     0.060 A 
BRANCH  94  95
ATOM     95  S   UNL A   1      44.893  42.394  35.724  1.00  0.00     0.124 S 
ATOM     96  O   UNL A   1      44.146  43.546  35.231  1.00  0.00    -0.237 OA
ATOM     97  O   UNL A   1      44.101  41.268  36.212  1.00  0.00    -0.237 OA
ATOM     98  O   UNL A   1      46.064  42.687  36.540  1.00  0.00    -0.744 OA
ENDBRANCH  94  95
ENDBRANCH  62  87
BRANCH  74  99
ATOM     99  C   UNL A   1      42.135  33.694  33.897  1.00  0.00     0.058 A 
ATOM    100  C   UNL A   1      40.879  34.206  33.540  1.00  0.00     0.135 A 
ATOM    101  C   UNL A   1      42.198  32.917  35.071  1.00  0.00     0.135 A 
ATOM    102  F   UNL A   1      40.742  34.983  32.453  1.00  0.00    -0.206 F 
ATOM    103  C   UNL A   1      39.734  33.918  34.281  1.00  0.00     0.059 A 
ATOM    104  C   UNL A   1      41.084  32.673  35.862  1.00  0.00     0.059 A 
ATOM    105  F   UNL A   1      43.351  32.349  35.462  1.00  0.00    -0.206 F 
ATOM    106  C   UNL A   1      39.847  33.149  35.440  1.00  0.00     0.060 A 
BRANCH 106 107
ATOM    107  S   UNL A   1      38.379  32.742  36.402  1.00  0.00     0.124 S 
ATOM    108  O   UNL A   1      37.320  32.737  35.397  1.00  0.00    -0.237 OA
ATOM    109  O   UNL A   1      38.744  31.435  36.938  1.00  0.00    -0.237 OA
ATOM    110  O   UNL A   1      38.307  33.828  37.374  1.00  0.00    -0.744 OA
ENDBRANCH 106 107
ENDBRANCH  74  99
ENDBRANCH  48  49
ENDBRANCH  41  43
ENDBRANCH  40  41
ENDBRANCH  39  40
ENDBRANCH  38  39
ENDBRANCH  37  38
ENDBRANCH  36  37
ENDBRANCH  35  36
ENDBRANCH   1  35
TORSDOF 26
ENDMDL
MODEL 3
REMARK VINA RESULT:      -9.4      6.971     12.058
REMARK SMILES Cc1c(NC(=O)[C@@H]2CC=CC[C@@H]2C(=O)OCCOCCOCCOCCOC(=O)c2ccc(-c3c4nc(c(-c5c(F)cc(S(=O)(=O)[O-])cc5F)c5ccc([nH]5)c(-c5c(F)cc(S(=O)(=O)[O-])cc5F)c5nc(c(-c6c(F)cc(S(=O)(=O)[O-])cc6F)c6ccc3[nH]6)C=C5)C=C4)cc2)cccc1C(=O)N1CCOCC1
REMARK SMILES IDX 21 1 20 2 19 3 18 4 17 5 16 6 15 7 13 8 14 9 12 10 7 11 8 12
REMARK SMILES IDX 9 13 11 14 10 15 5 16 4 17 6 19 3 20 1 21 2 22 99 23 96 24
REMARK SMILES IDX 98 25 97 26 100 27 101 28 102 29 103 30 107 31 104 32 106 33
REMARK SMILES IDX 105 34 22 35 23 36 24 37 25 38 26 39 27 40 28 41 29 42 30 43
REMARK SMILES IDX 31 44 95 45 32 46 94 47 33 48 34 49 35 50 88 51 36 52 93 53
REMARK SMILES IDX 87 54 89 55 37 56 92 57 86 58 85 59 38 61 72 62 51 63 71 64
REMARK SMILES IDX 52 65 55 66 70 67 90 68 53 69 54 70 69 72 91 73 56 74 39 75
REMARK SMILES IDX 40 76 49 77 41 78 42 79 48 80 50 81 43 82 44 83 45 84 46 85
REMARK SMILES IDX 47 86 73 87 74 88 83 89 75 90 76 91 82 92 84 93 77 94 78 95
REMARK SMILES IDX 79 96 80 97 81 98 57 99 58 100 67 101 59 102 60 103 66 104
REMARK SMILES IDX 68 105 61 106 62 107 63 108 64 109 65 110
REMARK H PARENT 4 18 89 60 55 71
REMARK Flexibility Score: inf
ROOT
ATOM      1  O   UNL A   1      50.506  28.451  23.537  1.00  0.00    -0.377 OA
ENDROOT
BRANCH   1   2
ATOM      2  C   UNL A   1      49.730  27.314  23.149  1.00  0.00     0.188 C 
BRANCH   2   3
ATOM      3  C   UNL A   1      48.882  26.434  24.296  1.00  0.00     0.188 C 
BRANCH   3   4
ATOM      4  O   UNL A   1      47.258  26.076  24.438  1.00  0.00    -0.376 OA
BRANCH   4   5
ATOM      5  C   UNL A   1      45.801  26.812  24.946  1.00  0.00     0.202 C 
BRANCH   5   6
ATOM      6  C   UNL A   1      43.987  26.263  25.195  1.00  0.00     0.261 C 
BRANCH   6   7
ATOM      7  O   UNL A   1      43.151  24.681  24.924  1.00  0.00    -0.463 OA
BRANCH   7   8
ATOM      8  C   UNL A   1      43.192  23.247  25.021  1.00  0.00     0.310 C 
ATOM      9  O   UNL A   1      43.436  22.462  24.086  1.00  0.00    -0.252 OA
BRANCH   8  10
ATOM     10  C   UNL A   1      43.288  22.334  26.396  1.00  0.00     0.116 C 
ATOM     11  C   UNL A   1      42.326  21.397  27.241  1.00  0.00     0.097 C 
ATOM     12  C   UNL A   1      41.688  22.051  28.501  1.00  0.00     0.041 C 
ATOM     13  C   UNL A   1      42.587  22.987  29.247  1.00  0.00    -0.030 C 
ATOM     14  C   UNL A   1      44.273  23.079  27.392  1.00  0.00     0.043 C 
ATOM     15  C   UNL A   1      43.756  23.414  28.765  1.00  0.00    -0.030 C 
BRANCH  11  16
ATOM     16  C   UNL A   1      41.463  20.565  26.311  1.00  0.00     0.228 C 
ATOM     17  N   UNL A   1      40.286  20.928  25.752  1.00  0.00    -0.326 N 
ATOM     18  H   UNL A   1      40.043  20.316  25.019  1.00  0.00     0.169 HD
ATOM     19  O   UNL A   1      41.814  19.413  26.025  1.00  0.00    -0.274 OA
BRANCH  17  20
ATOM     20  C   UNL A   1      39.307  21.926  25.911  1.00  0.00     0.044 A 
ATOM     21  C   UNL A   1      37.655  20.235  25.014  1.00  0.00     0.047 C 
ATOM     22  C   UNL A   1      37.952  21.566  25.660  1.00  0.00    -0.015 A 
ATOM     23  C   UNL A   1      36.922  22.489  25.954  1.00  0.00     0.045 A 
ATOM     24  C   UNL A   1      39.599  23.203  26.385  1.00  0.00     0.026 A 
ATOM     25  C   UNL A   1      37.262  23.800  26.326  1.00  0.00     0.014 A 
ATOM     26  C   UNL A   1      38.592  24.159  26.525  1.00  0.00     0.003 A 
BRANCH  23  27
ATOM     27  C   UNL A   1      35.464  22.237  25.754  1.00  0.00     0.254 C 
ATOM     28  O   UNL A   1      34.915  21.479  26.556  1.00  0.00    -0.269 OA
ATOM     29  N   UNL A   1      34.756  22.815  24.705  1.00  0.00    -0.334 N 
ATOM     30  C   UNL A   1      35.290  23.379  23.456  1.00  0.00     0.148 C 
ATOM     31  C   UNL A   1      33.294  22.730  24.725  1.00  0.00     0.148 C 
ATOM     32  C   UNL A   1      34.566  24.687  23.081  1.00  0.00     0.181 C 
ATOM     33  C   UNL A   1      32.689  24.093  24.387  1.00  0.00     0.181 C 
ATOM     34  O   UNL A   1      33.137  24.528  23.092  1.00  0.00    -0.378 OA
ENDBRANCH  23  27
ENDBRANCH  17  20
ENDBRANCH  11  16
ENDBRANCH   8  10
ENDBRANCH   7   8
ENDBRANCH   6   7
ENDBRANCH   5   6
ENDBRANCH   4   5
ENDBRANCH   3   4
ENDBRANCH   2   3
ENDBRANCH   1   2
BRANCH   1  35
ATOM     35  C   UNL A   1      51.905  28.292  23.500  1.00  0.00     0.188 C 
BRANCH  35  36
ATOM     36  C   UNL A   1      52.517  28.953  24.724  1.00  0.00     0.188 C 
BRANCH  36  37
ATOM     37  O   UNL A   1      51.894  28.736  25.977  1.00  0.00    -0.376 OA
BRANCH  37  38
ATOM     38  C   UNL A   1      52.121  27.482  26.611  1.00  0.00     0.202 C 
BRANCH  38  39
ATOM     39  C   UNL A   1      51.088  26.949  27.645  1.00  0.00     0.261 C 
BRANCH  39  40
ATOM     40  O   UNL A   1      49.783  27.557  27.548  1.00  0.00    -0.460 OA
BRANCH  40  41
ATOM     41  C   UNL A   1      49.411  28.452  28.519  1.00  0.00     0.338 C 
ATOM     42  O   UNL A   1      49.820  29.602  28.571  1.00  0.00    -0.246 OA
BRANCH  41  43
ATOM     43  C   UNL A   1      48.126  28.062  29.144  1.00  0.00     0.060 A 
ATOM     44  C   UNL A   1      47.156  27.321  28.524  1.00  0.00     0.016 A 
ATOM     45  C   UNL A   1      47.882  28.314  30.474  1.00  0.00     0.016 A 
ATOM     46  C   UNL A   1      45.870  27.258  29.109  1.00  0.00     0.010 A 
ATOM     47  C   UNL A   1      46.543  28.260  30.945  1.00  0.00     0.010 A 
ATOM     48  C   UNL A   1      45.447  28.182  30.076  1.00  0.00    -0.014 A 
BRANCH  48  49
ATOM     49  C   UNL A   1      43.937  29.145  29.905  1.00  0.00     0.031 A 
ATOM     50  C   UNL A   1      43.624  30.965  29.212  1.00  0.00     0.074 A 
ATOM     51  C   UNL A   1      43.058  28.379  30.682  1.00  0.00     0.049 A 
ATOM     52  N   UNL A   1      43.527  32.088  29.982  1.00  0.00    -0.248 NA
ATOM     53  C   UNL A   1      43.939  31.744  27.874  1.00  0.00     0.031 C 
ATOM     54  C   UNL A   1      41.712  28.643  31.027  1.00  0.00     0.029 A 
ATOM     55  N   UNL A   1      43.288  27.386  31.681  1.00  0.00    -0.354 N 
ATOM     56  C   UNL A   1      43.591  33.349  29.421  1.00  0.00     0.074 A 
ATOM     57  C   UNL A   1      44.042  33.057  28.123  1.00  0.00     0.031 C 
ATOM     58  C   UNL A   1      41.481  28.428  32.332  1.00  0.00     0.029 A 
ATOM     59  C   UNL A   1      42.595  27.726  32.846  1.00  0.00     0.049 A 
ATOM     60  H   UNL A   1      43.849  26.585  31.568  1.00  0.00     0.167 HD
ATOM     61  C   UNL A   1      43.231  34.543  30.014  1.00  0.00     0.037 A 
ATOM     62  C   UNL A   1      43.044  27.809  34.120  1.00  0.00     0.037 A 
ATOM     63  C   UNL A   1      42.543  34.387  31.315  1.00  0.00     0.049 A 
ATOM     64  C   UNL A   1      42.970  29.201  34.758  1.00  0.00     0.074 A 
ATOM     65  C   UNL A   1      41.208  34.443  31.699  1.00  0.00     0.029 A 
ATOM     66  N   UNL A   1      43.190  33.855  32.424  1.00  0.00    -0.354 N 
ATOM     67  N   UNL A   1      42.601  30.313  34.148  1.00  0.00    -0.248 NA
ATOM     68  C   UNL A   1      43.443  29.461  36.116  1.00  0.00     0.031 C 
ATOM     69  C   UNL A   1      41.053  33.735  32.936  1.00  0.00     0.029 A 
ATOM     70  C   UNL A   1      42.302  33.321  33.372  1.00  0.00     0.049 A 
ATOM     71  H   UNL A   1      44.169  33.852  32.532  1.00  0.00     0.167 HD
ATOM     72  C   UNL A   1      42.875  31.413  34.950  1.00  0.00     0.074 A 
ATOM     73  C   UNL A   1      43.371  30.801  36.184  1.00  0.00     0.031 C 
ATOM     74  C   UNL A   1      42.784  32.758  34.646  1.00  0.00     0.037 A 
BRANCH  61  75
ATOM     75  C   UNL A   1      43.224  35.824  29.138  1.00  0.00     0.058 A 
ATOM     76  C   UNL A   1      44.311  36.718  29.048  1.00  0.00     0.135 A 
ATOM     77  C   UNL A   1      42.072  36.262  28.441  1.00  0.00     0.135 A 
ATOM     78  F   UNL A   1      45.525  36.380  29.501  1.00  0.00    -0.206 F 
ATOM     79  C   UNL A   1      44.199  38.009  28.489  1.00  0.00     0.059 A 
ATOM     80  C   UNL A   1      41.905  37.570  27.954  1.00  0.00     0.059 A 
ATOM     81  F   UNL A   1      41.054  35.414  28.215  1.00  0.00    -0.206 F 
ATOM     82  C   UNL A   1      42.973  38.452  28.002  1.00  0.00     0.060 A 
BRANCH  82  83
ATOM     83  S   UNL A   1      42.788  40.165  27.435  1.00  0.00     0.124 S 
ATOM     84  O   UNL A   1      43.241  40.096  26.049  1.00  0.00    -0.237 OA
ATOM     85  O   UNL A   1      41.359  40.397  27.622  1.00  0.00    -0.237 OA
ATOM     86  O   UNL A   1      43.664  40.919  28.329  1.00  0.00    -0.744 OA
ENDBRANCH  82  83
ENDBRANCH  61  75
BRANCH  62  87
ATOM     87  C   UNL A   1      43.392  26.439  34.638  1.00  0.00     0.058 A 
ATOM     88  C   UNL A   1      44.785  26.175  34.660  1.00  0.00     0.135 A 
ATOM     89  C   UNL A   1      42.633  25.829  35.647  1.00  0.00     0.135 A 
ATOM     90  F   UNL A   1      45.562  26.645  33.670  1.00  0.00    -0.206 F 
ATOM     91  C   UNL A   1      45.418  25.692  35.803  1.00  0.00     0.059 A 
ATOM     92  C   UNL A   1      43.247  25.260  36.772  1.00  0.00     0.059 A 
ATOM     93  F   UNL A   1      41.298  25.943  35.647  1.00  0.00    -0.206 F 
ATOM     94  C   UNL A   1      44.636  25.334  36.895  1.00  0.00     0.060 A 
BRANCH  94  95
ATOM     95  S   UNL A   1      45.409  25.381  38.545  1.00  0.00     0.124 S 
ATOM     96  O   UNL A   1      46.823  25.211  38.232  1.00  0.00    -0.237 OA
ATOM     97  O   UNL A   1      45.005  26.699  39.028  1.00  0.00    -0.237 OA
ATOM     98  O   UNL A   1      44.767  24.275  39.244  1.00  0.00    -0.744 OA
ENDBRANCH  94  95
ENDBRANCH  62  87
BRANCH  74  99
ATOM     99  C   UNL A   1      43.155  33.796  35.674  1.00  0.00     0.058 A 
ATOM    100  C   UNL A   1      42.201  34.429  36.485  1.00  0.00     0.135 A 
ATOM    101  C   UNL A   1      44.477  34.280  35.748  1.00  0.00     0.135 A 
ATOM    102  F   UNL A   1      40.913  34.048  36.447  1.00  0.00    -0.206 F 
ATOM    103  C   UNL A   1      42.550  35.452  37.364  1.00  0.00     0.059 A 
ATOM    104  C   UNL A   1      44.835  35.342  36.566  1.00  0.00     0.059 A 
ATOM    105  F   UNL A   1      45.464  33.703  35.042  1.00  0.00    -0.206 F 
ATOM    106  C   UNL A   1      43.871  35.901  37.398  1.00  0.00     0.060 A 
BRANCH 106 107
ATOM    107  S   UNL A   1      44.353  37.207  38.542  1.00  0.00     0.124 S 
ATOM    108  O   UNL A   1      43.636  36.852  39.764  1.00  0.00    -0.237 OA
ATOM    109  O   UNL A   1      45.801  37.025  38.587  1.00  0.00    -0.237 OA
ATOM    110  O   UNL A   1      43.887  38.420  37.878  1.00  0.00    -0.744 OA
ENDBRANCH 106 107
ENDBRANCH  74  99
ENDBRANCH  48  49
ENDBRANCH  41  43
ENDBRANCH  40  41
ENDBRANCH  39  40
ENDBRANCH  38  39
ENDBRANCH  37  38
ENDBRANCH  36  37
ENDBRANCH  35  36
ENDBRANCH   1  35
TORSDOF 26
ENDMDL
