MODEL 1
REMARK VINA RESULT:      -9.7      0.000      0.000
REMARK SMILES Cc1oc(C)c(S(=O)(=O)Nn2c(C)ccc2C)c1C(=O)OCCOCCOCCOCCOC(=O)c1ccc(-c2c3nc(c(-c4c(F)cc(S(=O)(=O)[O-])cc4F)c4ccc([nH]4)c(-c4c(F)cc(S(=O)(=O)[O-])cc4F)c4nc(c(-c5c(F)cc(S(=O)(=O)[O-])cc5F)c5ccc2[nH]5)C=C4)C=C3)cc1
REMARK SMILES IDX 27 1 26 2 25 3 24 4 23 5 22 6 21 7 19 8 20 9 18 10 1 11 2 12
REMARK SMILES IDX 3 13 4 14 6 15 5 16 7 17 8 18 9 19 10 20 11 22 12 23 16 24
REMARK SMILES IDX 13 25 14 26 15 27 17 28 28 29 29 30 30 31 31 32 32 33 33 34
REMARK SMILES IDX 34 35 35 36 36 37 37 38 101 39 38 40 100 41 39 42 40 43
REMARK SMILES IDX 41 44 94 45 42 46 99 47 93 48 95 49 43 50 98 51 92 52 91 53
REMARK SMILES IDX 44 55 78 56 57 57 77 58 58 59 61 60 76 61 96 62 59 63 60 64
REMARK SMILES IDX 75 66 97 67 62 68 45 69 46 70 55 71 47 72 48 73 54 74 56 75
REMARK SMILES IDX 49 76 50 77 51 78 52 79 53 80 79 81 80 82 89 83 81 84 82 85
REMARK SMILES IDX 88 86 90 87 83 88 84 89 85 90 86 91 87 92 63 93 64 94 73 95
REMARK SMILES IDX 65 96 66 97 72 98 74 99 67 100 68 101 69 102 70 103 71 104
REMARK H PARENT 10 21 95 54 61 65
REMARK Flexibility Score: inf
ROOT
ATOM      1  O   UNL A   1      39.740  24.489  27.798  1.00  0.00    -0.377 OA
ENDROOT
BRANCH   1   2
ATOM      2  C   UNL A   1      38.708  24.746  26.847  1.00  0.00     0.188 C 
BRANCH   2   3
ATOM      3  C   UNL A   1      37.700  23.650  26.486  1.00  0.00     0.188 C 
BRANCH   3   4
ATOM      4  O   UNL A   1      37.721  23.353  25.104  1.00  0.00    -0.376 OA
BRANCH   4   5
ATOM      5  C   UNL A   1      37.501  22.051  24.602  1.00  0.00     0.202 C 
BRANCH   5   6
ATOM      6  C   UNL A   1      36.082  21.479  24.673  1.00  0.00     0.261 C 
BRANCH   6   7
ATOM      7  O   UNL A   1      35.053  22.464  24.876  1.00  0.00    -0.460 OA
BRANCH   7   8
ATOM      8  C   UNL A   1      33.984  22.644  24.044  1.00  0.00     0.343 C 
ATOM      9  O   UNL A   1      34.045  22.942  22.871  1.00  0.00    -0.246 OA
BRANCH   8  10
ATOM     10  C   UNL A   1      32.741  22.472  24.801  1.00  0.00     0.122 A 
ATOM     11  C   UNL A   1      32.501  19.823  24.541  1.00  0.00     0.088 C 
ATOM     12  C   UNL A   1      32.156  21.211  24.944  1.00  0.00     0.117 A 
ATOM     13  O   UNL A   1      31.020  21.288  25.667  1.00  0.00    -0.464 OA
ATOM     14  C   UNL A   1      30.836  22.578  26.019  1.00  0.00     0.122 A 
ATOM     15  C   UNL A   1      31.866  23.375  25.525  1.00  0.00     0.145 A 
ATOM     16  C   UNL A   1      29.621  22.784  26.842  1.00  0.00     0.089 C 
BRANCH  15  17
ATOM     17  S   UNL A   1      31.902  25.066  25.894  1.00  0.00     0.279 S 
ATOM     18  O   UNL A   1      31.768  25.099  27.340  1.00  0.00    -0.200 OA
ATOM     19  O   UNL A   1      33.140  25.505  25.286  1.00  0.00    -0.200 OA
BRANCH  17  20
ATOM     20  N   UNL A   1      30.718  26.134  25.436  1.00  0.00    -0.216 N 
ATOM     21  H   UNL A   1      29.781  25.835  25.447  1.00  0.00     0.202 HD
BRANCH  20  22
ATOM     22  N   UNL A   1      31.001  27.419  25.041  1.00  0.00    -0.256 N 
ATOM     23  C   UNL A   1      31.394  28.480  25.808  1.00  0.00     0.038 A 
ATOM     24  C   UNL A   1      31.096  27.741  23.711  1.00  0.00     0.038 A 
ATOM     25  C   UNL A   1      31.770  28.467  27.250  1.00  0.00     0.067 C 
ATOM     26  C   UNL A   1      31.357  29.560  24.946  1.00  0.00     0.025 A 
ATOM     27  C   UNL A   1      31.022  29.113  23.655  1.00  0.00     0.025 A 
ATOM     28  C   UNL A   1      31.208  26.782  22.586  1.00  0.00     0.067 C 
ENDBRANCH  20  22
ENDBRANCH  17  20
ENDBRANCH  15  17
ENDBRANCH   8  10
ENDBRANCH   7   8
ENDBRANCH   6   7
ENDBRANCH   5   6
ENDBRANCH   4   5
ENDBRANCH   3   4
ENDBRANCH   2   3
ENDBRANCH   1   2
BRANCH   1  29
ATOM     29  C   UNL A   1      40.940  23.829  27.396  1.00  0.00     0.188 C 
BRANCH  29  30
ATOM     30  C   UNL A   1      40.844  22.381  26.905  1.00  0.00     0.188 C 
BRANCH  30  31
ATOM     31  O   UNL A   1      41.581  22.163  25.727  1.00  0.00    -0.376 OA
BRANCH  31  32
ATOM     32  C   UNL A   1      42.946  21.795  25.828  1.00  0.00     0.202 C 
BRANCH  32  33
ATOM     33  C   UNL A   1      43.944  22.033  27.023  1.00  0.00     0.261 C 
BRANCH  33  34
ATOM     34  O   UNL A   1      45.385  22.340  26.976  1.00  0.00    -0.460 OA
BRANCH  34  35
ATOM     35  C   UNL A   1      45.732  23.393  26.146  1.00  0.00     0.338 C 
ATOM     36  O   UNL A   1      46.627  23.243  25.315  1.00  0.00    -0.246 OA
BRANCH  35  37
ATOM     37  C   UNL A   1      44.970  24.769  26.192  1.00  0.00     0.060 A 
ATOM     38  C   UNL A   1      44.711  25.261  27.456  1.00  0.00     0.016 A 
ATOM     39  C   UNL A   1      44.324  25.553  25.202  1.00  0.00     0.016 A 
ATOM     40  C   UNL A   1      43.901  26.442  27.690  1.00  0.00     0.010 A 
ATOM     41  C   UNL A   1      43.412  26.766  25.483  1.00  0.00     0.010 A 
ATOM     42  C   UNL A   1      43.132  27.271  26.771  1.00  0.00    -0.014 A 
BRANCH  42  43
ATOM     43  C   UNL A   1      42.065  28.493  27.438  1.00  0.00     0.031 A 
ATOM     44  C   UNL A   1      42.987  29.648  27.551  1.00  0.00     0.074 A 
ATOM     45  C   UNL A   1      40.835  28.885  28.072  1.00  0.00     0.049 A 
ATOM     46  N   UNL A   1      43.941  29.507  28.412  1.00  0.00    -0.248 NA
ATOM     47  C   UNL A   1      43.222  30.686  26.548  1.00  0.00     0.031 C 
ATOM     48  C   UNL A   1      39.670  28.068  28.482  1.00  0.00     0.029 A 
ATOM     49  N   UNL A   1      40.337  30.186  28.596  1.00  0.00    -0.354 N 
ATOM     50  C   UNL A   1      44.884  30.459  28.172  1.00  0.00     0.074 A 
ATOM     51  C   UNL A   1      44.409  31.155  26.974  1.00  0.00     0.031 C 
ATOM     52  C   UNL A   1      38.628  28.810  28.994  1.00  0.00     0.029 A 
ATOM     53  C   UNL A   1      38.943  30.245  29.103  1.00  0.00     0.049 A 
ATOM     54  H   UNL A   1      40.916  30.983  28.608  1.00  0.00     0.167 HD
ATOM     55  C   UNL A   1      45.558  30.867  29.276  1.00  0.00     0.037 A 
ATOM     56  C   UNL A   1      38.165  31.291  29.691  1.00  0.00     0.037 A 
ATOM     57  C   UNL A   1      44.869  31.994  29.845  1.00  0.00     0.049 A 
ATOM     58  C   UNL A   1      39.140  32.088  30.449  1.00  0.00     0.074 A 
ATOM     59  C   UNL A   1      44.266  33.086  29.247  1.00  0.00     0.029 A 
ATOM     60  N   UNL A   1      44.218  31.777  31.044  1.00  0.00    -0.354 N 
ATOM     61  N   UNL A   1      39.654  31.660  31.560  1.00  0.00    -0.248 NA
ATOM     62  C   UNL A   1      39.461  33.467  30.094  1.00  0.00     0.031 C 
ATOM     63  C   UNL A   1      42.960  33.068  29.778  1.00  0.00     0.029 A 
ATOM     64  C   UNL A   1      42.954  32.308  30.943  1.00  0.00     0.049 A 
ATOM     65  H   UNL A   1      44.594  31.323  31.832  1.00  0.00     0.167 HD
ATOM     66  C   UNL A   1      40.729  32.472  31.726  1.00  0.00     0.074 A 
ATOM     67  C   UNL A   1      40.414  33.692  31.000  1.00  0.00     0.031 C 
ATOM     68  C   UNL A   1      41.927  31.850  31.841  1.00  0.00     0.037 A 
BRANCH  55  69
ATOM     69  C   UNL A   1      46.091  29.707  30.109  1.00  0.00     0.058 A 
ATOM     70  C   UNL A   1      47.474  29.556  30.228  1.00  0.00     0.135 A 
ATOM     71  C   UNL A   1      45.288  28.701  30.709  1.00  0.00     0.135 A 
ATOM     72  F   UNL A   1      48.299  30.488  29.724  1.00  0.00    -0.206 F 
ATOM     73  C   UNL A   1      48.037  28.452  30.872  1.00  0.00     0.059 A 
ATOM     74  C   UNL A   1      45.827  27.556  31.287  1.00  0.00     0.059 A 
ATOM     75  F   UNL A   1      43.954  28.826  30.780  1.00  0.00    -0.206 F 
ATOM     76  C   UNL A   1      47.207  27.447  31.376  1.00  0.00     0.060 A 
BRANCH  76  77
ATOM     77  S   UNL A   1      47.960  26.006  32.159  1.00  0.00     0.124 S 
ATOM     78  O   UNL A   1      48.711  26.607  33.259  1.00  0.00    -0.237 OA
ATOM     79  O   UNL A   1      46.782  25.243  32.556  1.00  0.00    -0.237 OA
ATOM     80  O   UNL A   1      48.783  25.426  31.104  1.00  0.00    -0.744 OA
ENDBRANCH  76  77
ENDBRANCH  55  69
BRANCH  56  81
ATOM     81  C   UNL A   1      36.706  31.886  30.154  1.00  0.00     0.058 A 
ATOM     82  C   UNL A   1      36.285  31.930  31.546  1.00  0.00     0.135 A 
ATOM     83  C   UNL A   1      35.974  32.813  29.384  1.00  0.00     0.135 A 
ATOM     84  F   UNL A   1      36.822  31.107  32.458  1.00  0.00    -0.206 F 
ATOM     85  C   UNL A   1      35.359  32.854  32.113  1.00  0.00     0.059 A 
ATOM     86  C   UNL A   1      35.009  33.735  29.932  1.00  0.00     0.059 A 
ATOM     87  F   UNL A   1      36.229  32.927  28.074  1.00  0.00    -0.206 F 
ATOM     88  C   UNL A   1      34.740  33.786  31.303  1.00  0.00     0.060 A 
BRANCH  88  89
ATOM     89  S   UNL A   1      33.716  35.108  32.064  1.00  0.00     0.124 S 
ATOM     90  O   UNL A   1      33.219  35.846  30.908  1.00  0.00    -0.237 OA
ATOM     91  O   UNL A   1      32.710  34.349  32.802  1.00  0.00    -0.237 OA
ATOM     92  O   UNL A   1      34.668  35.835  32.901  1.00  0.00    -0.744 OA
ENDBRANCH  88  89
ENDBRANCH  56  81
BRANCH  68  93
ATOM     93  C   UNL A   1      41.984  30.610  32.718  1.00  0.00     0.058 A 
ATOM     94  C   UNL A   1      41.501  29.324  32.381  1.00  0.00     0.135 A 
ATOM     95  C   UNL A   1      42.482  30.751  34.022  1.00  0.00     0.135 A 
ATOM     96  F   UNL A   1      41.093  29.028  31.140  1.00  0.00    -0.206 F 
ATOM     97  C   UNL A   1      41.425  28.282  33.309  1.00  0.00     0.059 A 
ATOM     98  C   UNL A   1      42.460  29.711  34.954  1.00  0.00     0.059 A 
ATOM     99  F   UNL A   1      43.003  31.928  34.408  1.00  0.00    -0.206 F 
ATOM    100  C   UNL A   1      41.890  28.490  34.601  1.00  0.00     0.060 A 
BRANCH 100 101
ATOM    101  S   UNL A   1      41.753  27.152  35.807  1.00  0.00     0.124 S 
ATOM    102  O   UNL A   1      41.056  27.812  36.910  1.00  0.00    -0.237 OA
ATOM    103  O   UNL A   1      40.974  26.146  35.091  1.00  0.00    -0.237 OA
ATOM    104  O   UNL A   1      43.142  26.800  36.080  1.00  0.00    -0.744 OA
ENDBRANCH 100 101
ENDBRANCH  68  93
ENDBRANCH  42  43
ENDBRANCH  35  37
ENDBRANCH  34  35
ENDBRANCH  33  34
ENDBRANCH  32  33
ENDBRANCH  31  32
ENDBRANCH  30  31
ENDBRANCH  29  30
ENDBRANCH   1  29
TORSDOF 26
ENDMDL
MODEL 2
REMARK VINA RESULT:      -8.6      4.243      6.963
REMARK SMILES Cc1oc(C)c(S(=O)(=O)Nn2c(C)ccc2C)c1C(=O)OCCOCCOCCOCCOC(=O)c1ccc(-c2c3nc(c(-c4c(F)cc(S(=O)(=O)[O-])cc4F)c4ccc([nH]4)c(-c4c(F)cc(S(=O)(=O)[O-])cc4F)c4nc(c(-c5c(F)cc(S(=O)(=O)[O-])cc5F)c5ccc2[nH]5)C=C4)C=C3)cc1
REMARK SMILES IDX 27 1 26 2 25 3 24 4 23 5 22 6 21 7 19 8 20 9 18 10 1 11 2 12
REMARK SMILES IDX 3 13 4 14 6 15 5 16 7 17 8 18 9 19 10 20 11 22 12 23 16 24
REMARK SMILES IDX 13 25 14 26 15 27 17 28 28 29 29 30 30 31 31 32 32 33 33 34
REMARK SMILES IDX 34 35 35 36 36 37 37 38 101 39 38 40 100 41 39 42 40 43
REMARK SMILES IDX 41 44 94 45 42 46 99 47 93 48 95 49 43 50 98 51 92 52 91 53
REMARK SMILES IDX 44 55 78 56 57 57 77 58 58 59 61 60 76 61 96 62 59 63 60 64
REMARK SMILES IDX 75 66 97 67 62 68 45 69 46 70 55 71 47 72 48 73 54 74 56 75
REMARK SMILES IDX 49 76 50 77 51 78 52 79 53 80 79 81 80 82 89 83 81 84 82 85
REMARK SMILES IDX 88 86 90 87 83 88 84 89 85 90 86 91 87 92 63 93 64 94 73 95
REMARK SMILES IDX 65 96 66 97 72 98 74 99 67 100 68 101 69 102 70 103 71 104
REMARK H PARENT 10 21 95 54 61 65
REMARK Flexibility Score: inf
ROOT
ATOM      1  O   UNL A   1      39.154  21.198  25.750  1.00  0.00    -0.377 OA
ENDROOT
BRANCH   1   2
ATOM      2  C   UNL A   1      38.257  22.309  25.753  1.00  0.00     0.188 C 
BRANCH   2   3
ATOM      3  C   UNL A   1      36.743  22.080  25.725  1.00  0.00     0.188 C 
BRANCH   3   4
ATOM      4  O   UNL A   1      36.057  23.176  25.152  1.00  0.00    -0.376 OA
BRANCH   4   5
ATOM      5  C   UNL A   1      35.546  24.242  25.925  1.00  0.00     0.202 C 
BRANCH   5   6
ATOM      6  C   UNL A   1      34.695  25.303  25.220  1.00  0.00     0.261 C 
BRANCH   6   7
ATOM      7  O   UNL A   1      34.395  26.457  26.026  1.00  0.00    -0.460 OA
BRANCH   7   8
ATOM      8  C   UNL A   1      33.134  26.934  26.248  1.00  0.00     0.343 C 
ATOM      9  O   UNL A   1      32.808  27.677  27.148  1.00  0.00    -0.246 OA
BRANCH   8  10
ATOM     10  C   UNL A   1      32.215  26.367  25.257  1.00  0.00     0.122 A 
ATOM     11  C   UNL A   1      31.978  28.514  23.685  1.00  0.00     0.088 C 
ATOM     12  C   UNL A   1      31.746  27.136  24.189  1.00  0.00     0.117 A 
ATOM     13  O   UNL A   1      30.910  26.418  23.411  1.00  0.00    -0.464 OA
ATOM     14  C   UNL A   1      30.816  25.177  23.933  1.00  0.00     0.122 A 
ATOM     15  C   UNL A   1      31.602  25.063  25.077  1.00  0.00     0.145 A 
ATOM     16  C   UNL A   1      29.934  24.284  23.144  1.00  0.00     0.089 C 
BRANCH  15  17
ATOM     17  S   UNL A   1      31.710  23.545  25.902  1.00  0.00     0.279 S 
ATOM     18  O   UNL A   1      32.136  23.917  27.240  1.00  0.00    -0.200 OA
ATOM     19  O   UNL A   1      30.394  22.977  25.709  1.00  0.00    -0.200 OA
BRANCH  17  20
ATOM     20  N   UNL A   1      32.818  22.370  25.526  1.00  0.00    -0.216 N 
ATOM     21  H   UNL A   1      33.612  22.265  26.099  1.00  0.00     0.202 HD
BRANCH  20  22
ATOM     22  N   UNL A   1      32.667  21.538  24.443  1.00  0.00    -0.256 N 
ATOM     23  C   UNL A   1      32.789  21.837  23.114  1.00  0.00     0.038 A 
ATOM     24  C   UNL A   1      32.545  20.182  24.610  1.00  0.00     0.038 A 
ATOM     25  C   UNL A   1      33.277  23.110  22.512  1.00  0.00     0.067 C 
ATOM     26  C   UNL A   1      32.356  20.697  22.464  1.00  0.00     0.025 A 
ATOM     27  C   UNL A   1      32.059  19.704  23.415  1.00  0.00     0.025 A 
ATOM     28  C   UNL A   1      32.841  19.425  25.849  1.00  0.00     0.067 C 
ENDBRANCH  20  22
ENDBRANCH  17  20
ENDBRANCH  15  17
ENDBRANCH   8  10
ENDBRANCH   7   8
ENDBRANCH   6   7
ENDBRANCH   5   6
ENDBRANCH   4   5
ENDBRANCH   3   4
ENDBRANCH   2   3
ENDBRANCH   1   2
BRANCH   1  29
ATOM     29  C   UNL A   1      40.440  21.312  26.356  1.00  0.00     0.188 C 
BRANCH  29  30
ATOM     30  C   UNL A   1      40.774  22.598  27.119  1.00  0.00     0.188 C 
BRANCH  30  31
ATOM     31  O   UNL A   1      41.263  22.344  28.412  1.00  0.00    -0.376 OA
BRANCH  31  32
ATOM     32  C   UNL A   1      42.573  22.767  28.749  1.00  0.00     0.202 C 
BRANCH  32  33
ATOM     33  C   UNL A   1      43.116  23.281  30.135  1.00  0.00     0.261 C 
BRANCH  33  34
ATOM     34  O   UNL A   1      44.380  22.944  30.814  1.00  0.00    -0.460 OA
BRANCH  34  35
ATOM     35  C   UNL A   1      44.546  23.520  32.062  1.00  0.00     0.338 C 
ATOM     36  O   UNL A   1      45.091  22.880  32.960  1.00  0.00    -0.246 OA
BRANCH  35  37
ATOM     37  C   UNL A   1      44.108  25.003  32.355  1.00  0.00     0.060 A 
ATOM     38  C   UNL A   1      43.375  25.188  33.510  1.00  0.00     0.016 A 
ATOM     39  C   UNL A   1      44.154  26.196  31.589  1.00  0.00     0.016 A 
ATOM     40  C   UNL A   1      42.772  26.459  33.866  1.00  0.00     0.010 A 
ATOM     41  C   UNL A   1      43.446  27.517  31.958  1.00  0.00     0.010 A 
ATOM     42  C   UNL A   1      42.687  27.714  33.131  1.00  0.00    -0.014 A 
BRANCH  42  43
ATOM     43  C   UNL A   1      41.665  28.990  33.769  1.00  0.00     0.031 A 
ATOM     44  C   UNL A   1      40.365  28.656  33.140  1.00  0.00     0.074 A 
ATOM     45  C   UNL A   1      41.489  30.254  34.432  1.00  0.00     0.049 A 
ATOM     46  N   UNL A   1      40.327  28.786  31.854  1.00  0.00    -0.248 NA
ATOM     47  C   UNL A   1      39.312  27.808  33.697  1.00  0.00     0.031 C 
ATOM     48  C   UNL A   1      42.495  31.184  34.996  1.00  0.00     0.029 A 
ATOM     49  N   UNL A   1      40.291  31.091  34.712  1.00  0.00    -0.354 N 
ATOM     50  C   UNL A   1      39.227  28.135  31.387  1.00  0.00     0.074 A 
ATOM     51  C   UNL A   1      38.637  27.509  32.572  1.00  0.00     0.031 C 
ATOM     52  C   UNL A   1      41.942  32.274  35.633  1.00  0.00     0.029 A 
ATOM     53  C   UNL A   1      40.473  32.316  35.531  1.00  0.00     0.049 A 
ATOM     54  H   UNL A   1      39.405  30.840  34.363  1.00  0.00     0.167 HD
ATOM     55  C   UNL A   1      38.696  28.676  30.262  1.00  0.00     0.037 A 
ATOM     56  C   UNL A   1      39.575  33.343  35.959  1.00  0.00     0.037 A 
ATOM     57  C   UNL A   1      37.702  29.643  30.642  1.00  0.00     0.049 A 
ATOM     58  C   UNL A   1      38.611  33.466  34.856  1.00  0.00     0.074 A 
ATOM     59  C   UNL A   1      36.739  29.614  31.635  1.00  0.00     0.029 A 
ATOM     60  N   UNL A   1      38.018  30.970  30.422  1.00  0.00    -0.354 N 
ATOM     61  N   UNL A   1      38.931  34.025  33.730  1.00  0.00    -0.248 NA
ATOM     62  C   UNL A   1      37.200  33.124  35.014  1.00  0.00     0.031 C 
ATOM     63  C   UNL A   1      36.981  30.800  32.359  1.00  0.00     0.029 A 
ATOM     64  C   UNL A   1      37.719  31.673  31.565  1.00  0.00     0.049 A 
ATOM     65  H   UNL A   1      38.391  31.346  29.593  1.00  0.00     0.167 HD
ATOM     66  C   UNL A   1      37.941  33.613  32.898  1.00  0.00     0.074 A 
ATOM     67  C   UNL A   1      36.802  33.325  33.756  1.00  0.00     0.031 C 
ATOM     68  C   UNL A   1      38.342  32.952  31.786  1.00  0.00     0.037 A 
BRANCH  55  69
ATOM     69  C   UNL A   1      39.735  28.929  29.177  1.00  0.00     0.058 A 
ATOM     70  C   UNL A   1      39.602  28.257  27.959  1.00  0.00     0.135 A 
ATOM     71  C   UNL A   1      40.894  29.735  29.333  1.00  0.00     0.135 A 
ATOM     72  F   UNL A   1      38.513  27.509  27.720  1.00  0.00    -0.206 F 
ATOM     73  C   UNL A   1      40.578  28.344  26.965  1.00  0.00     0.059 A 
ATOM     74  C   UNL A   1      41.913  29.776  28.388  1.00  0.00     0.059 A 
ATOM     75  F   UNL A   1      41.046  30.536  30.399  1.00  0.00    -0.206 F 
ATOM     76  C   UNL A   1      41.739  29.085  27.197  1.00  0.00     0.060 A 
BRANCH  76  77
ATOM     77  S   UNL A   1      43.008  29.142  25.916  1.00  0.00     0.124 S 
ATOM     78  O   UNL A   1      44.042  28.265  26.461  1.00  0.00    -0.237 OA
ATOM     79  O   UNL A   1      42.285  28.607  24.767  1.00  0.00    -0.237 OA
ATOM     80  O   UNL A   1      43.376  30.552  25.851  1.00  0.00    -0.744 OA
ENDBRANCH  76  77
ENDBRANCH  55  69
BRANCH  56  81
ATOM     81  C   UNL A   1      39.241  34.621  36.935  1.00  0.00     0.058 A 
ATOM     82  C   UNL A   1      38.618  34.466  38.241  1.00  0.00     0.135 A 
ATOM     83  C   UNL A   1      39.927  35.850  36.854  1.00  0.00     0.135 A 
ATOM     84  F   UNL A   1      37.881  33.385  38.532  1.00  0.00    -0.206 F 
ATOM     85  C   UNL A   1      38.766  35.350  39.350  1.00  0.00     0.059 A 
ATOM     86  C   UNL A   1      40.061  36.774  37.954  1.00  0.00     0.059 A 
ATOM     87  F   UNL A   1      40.576  36.168  35.726  1.00  0.00    -0.206 F 
ATOM     88  C   UNL A   1      39.520  36.499  39.213  1.00  0.00     0.060 A 
BRANCH  88  89
ATOM     89  S   UNL A   1      39.886  37.522  40.694  1.00  0.00     0.124 S 
ATOM     90  O   UNL A   1      41.344  37.569  40.711  1.00  0.00    -0.237 OA
ATOM     91  O   UNL A   1      39.223  38.786  40.382  1.00  0.00    -0.237 OA
ATOM     92  O   UNL A   1      39.277  36.768  41.788  1.00  0.00    -0.744 OA
ENDBRANCH  88  89
ENDBRANCH  56  81
BRANCH  68  93
ATOM     93  C   UNL A   1      39.543  33.509  31.041  1.00  0.00     0.058 A 
ATOM     94  C   UNL A   1      40.901  33.347  31.404  1.00  0.00     0.135 A 
ATOM     95  C   UNL A   1      39.303  34.336  29.934  1.00  0.00     0.135 A 
ATOM     96  F   UNL A   1      41.275  32.507  32.377  1.00  0.00    -0.206 F 
ATOM     97  C   UNL A   1      41.935  34.043  30.773  1.00  0.00     0.059 A 
ATOM     98  C   UNL A   1      40.324  35.005  29.256  1.00  0.00     0.059 A 
ATOM     99  F   UNL A   1      38.044  34.505  29.494  1.00  0.00    -0.206 F 
ATOM    100  C   UNL A   1      41.636  34.886  29.710  1.00  0.00     0.060 A 
BRANCH 100 101
ATOM    101  S   UNL A   1      42.973  35.811  28.923  1.00  0.00     0.124 S 
ATOM    102  O   UNL A   1      43.738  34.745  28.280  1.00  0.00    -0.237 OA
ATOM    103  O   UNL A   1      42.261  36.703  28.013  1.00  0.00    -0.237 OA
ATOM    104  O   UNL A   1      43.644  36.458  30.047  1.00  0.00    -0.744 OA
ENDBRANCH 100 101
ENDBRANCH  68  93
ENDBRANCH  42  43
ENDBRANCH  35  37
ENDBRANCH  34  35
ENDBRANCH  33  34
ENDBRANCH  32  33
ENDBRANCH  31  32
ENDBRANCH  30  31
ENDBRANCH  29  30
ENDBRANCH   1  29
TORSDOF 26
ENDMDL
MODEL 3
REMARK VINA RESULT:      -8.5      3.362     10.219
REMARK SMILES Cc1oc(C)c(S(=O)(=O)Nn2c(C)ccc2C)c1C(=O)OCCOCCOCCOCCOC(=O)c1ccc(-c2c3nc(c(-c4c(F)cc(S(=O)(=O)[O-])cc4F)c4ccc([nH]4)c(-c4c(F)cc(S(=O)(=O)[O-])cc4F)c4nc(c(-c5c(F)cc(S(=O)(=O)[O-])cc5F)c5ccc2[nH]5)C=C4)C=C3)cc1
REMARK SMILES IDX 27 1 26 2 25 3 24 4 23 5 22 6 21 7 19 8 20 9 18 10 1 11 2 12
REMARK SMILES IDX 3 13 4 14 6 15 5 16 7 17 8 18 9 19 10 20 11 22 12 23 16 24
REMARK SMILES IDX 13 25 14 26 15 27 17 28 28 29 29 30 30 31 31 32 32 33 33 34
REMARK SMILES IDX 34 35 35 36 36 37 37 38 101 39 38 40 100 41 39 42 40 43
REMARK SMILES IDX 41 44 94 45 42 46 99 47 93 48 95 49 43 50 98 51 92 52 91 53
REMARK SMILES IDX 44 55 78 56 57 57 77 58 58 59 61 60 76 61 96 62 59 63 60 64
REMARK SMILES IDX 75 66 97 67 62 68 45 69 46 70 55 71 47 72 48 73 54 74 56 75
REMARK SMILES IDX 49 76 50 77 51 78 52 79 53 80 79 81 80 82 89 83 81 84 82 85
REMARK SMILES IDX 88 86 90 87 83 88 84 89 85 90 86 91 87 92 63 93 64 94 73 95
REMARK SMILES IDX 65 96 66 97 72 98 74 99 67 100 68 101 69 102 70 103 71 104
REMARK H PARENT 10 21 95 54 61 65
REMARK Flexibility Score: inf
ROOT
ATOM      1  O   UNL A   1      34.157  32.292  28.561  1.00  0.00    -0.377 OA
ENDROOT
BRANCH   1   2
ATOM      2  C   UNL A   1      34.409  31.018  27.969  1.00  0.00     0.188 C 
BRANCH   2   3
ATOM      3  C   UNL A   1      33.319  30.317  27.151  1.00  0.00     0.188 C 
BRANCH   3   4
ATOM      4  O   UNL A   1      33.870  29.508  26.130  1.00  0.00    -0.376 OA
BRANCH   4   5
ATOM      5  C   UNL A   1      33.687  28.108  26.085  1.00  0.00     0.202 C 
BRANCH   5   6
ATOM      6  C   UNL A   1      32.559  27.499  26.923  1.00  0.00     0.261 C 
BRANCH   6   7
ATOM      7  O   UNL A   1      31.269  27.512  26.285  1.00  0.00    -0.460 OA
BRANCH   7   8
ATOM      8  C   UNL A   1      30.672  26.414  25.733  1.00  0.00     0.343 C 
ATOM      9  O   UNL A   1      29.956  25.631  26.318  1.00  0.00    -0.246 OA
BRANCH   8  10
ATOM     10  C   UNL A   1      31.072  26.294  24.329  1.00  0.00     0.122 A 
ATOM     11  C   UNL A   1      29.237  27.922  23.269  1.00  0.00     0.088 C 
ATOM     12  C   UNL A   1      30.374  26.967  23.323  1.00  0.00     0.117 A 
ATOM     13  O   UNL A   1      30.907  26.706  22.111  1.00  0.00    -0.464 OA
ATOM     14  C   UNL A   1      31.956  25.875  22.287  1.00  0.00     0.122 A 
ATOM     15  C   UNL A   1      32.128  25.578  23.637  1.00  0.00     0.145 A 
ATOM     16  C   UNL A   1      32.641  25.534  21.017  1.00  0.00     0.089 C 
BRANCH  15  17
ATOM     17  S   UNL A   1      33.452  24.581  24.139  1.00  0.00     0.279 S 
ATOM     18  O   UNL A   1      34.618  25.394  23.844  1.00  0.00    -0.200 OA
ATOM     19  O   UNL A   1      33.126  24.279  25.516  1.00  0.00    -0.200 OA
BRANCH  17  20
ATOM     20  N   UNL A   1      33.860  23.153  23.401  1.00  0.00    -0.216 N 
ATOM     21  H   UNL A   1      33.668  23.043  22.442  1.00  0.00     0.202 HD
BRANCH  20  22
ATOM     22  N   UNL A   1      34.455  22.119  24.081  1.00  0.00    -0.256 N 
ATOM     23  C   UNL A   1      35.745  22.019  24.523  1.00  0.00     0.038 A 
ATOM     24  C   UNL A   1      33.707  21.081  24.578  1.00  0.00     0.038 A 
ATOM     25  C   UNL A   1      36.791  23.080  24.517  1.00  0.00     0.067 C 
ATOM     26  C   UNL A   1      35.856  20.715  24.969  1.00  0.00     0.025 A 
ATOM     27  C   UNL A   1      34.606  20.079  24.862  1.00  0.00     0.025 A 
ATOM     28  C   UNL A   1      32.232  21.059  24.723  1.00  0.00     0.067 C 
ENDBRANCH  20  22
ENDBRANCH  17  20
ENDBRANCH  15  17
ENDBRANCH   8  10
ENDBRANCH   7   8
ENDBRANCH   6   7
ENDBRANCH   5   6
ENDBRANCH   4   5
ENDBRANCH   3   4
ENDBRANCH   2   3
ENDBRANCH   1   2
BRANCH   1  29
ATOM     29  C   UNL A   1      35.061  33.374  28.347  1.00  0.00     0.188 C 
BRANCH  29  30
ATOM     30  C   UNL A   1      36.026  33.750  29.475  1.00  0.00     0.188 C 
BRANCH  30  31
ATOM     31  O   UNL A   1      37.374  33.614  29.097  1.00  0.00    -0.376 OA
BRANCH  31  32
ATOM     32  C   UNL A   1      38.289  34.643  29.431  1.00  0.00     0.202 C 
BRANCH  32  33
ATOM     33  C   UNL A   1      39.536  34.578  30.391  1.00  0.00     0.261 C 
BRANCH  33  34
ATOM     34  O   UNL A   1      39.569  34.599  31.865  1.00  0.00    -0.460 OA
BRANCH  34  35
ATOM     35  C   UNL A   1      40.831  34.490  32.424  1.00  0.00     0.338 C 
ATOM     36  O   UNL A   1      41.015  34.849  33.587  1.00  0.00    -0.246 OA
BRANCH  35  37
ATOM     37  C   UNL A   1      42.036  33.859  31.632  1.00  0.00     0.060 A 
ATOM     38  C   UNL A   1      41.982  32.490  31.462  1.00  0.00     0.016 A 
ATOM     39  C   UNL A   1      43.281  34.375  31.190  1.00  0.00     0.016 A 
ATOM     40  C   UNL A   1      43.069  31.725  30.879  1.00  0.00     0.010 A 
ATOM     41  C   UNL A   1      44.448  33.529  30.636  1.00  0.00     0.010 A 
ATOM     42  C   UNL A   1      44.407  32.129  30.467  1.00  0.00    -0.014 A 
BRANCH  42  43
ATOM     43  C   UNL A   1      45.557  30.882  30.021  1.00  0.00     0.031 A 
ATOM     44  C   UNL A   1      44.888  30.284  28.841  1.00  0.00     0.074 A 
ATOM     45  C   UNL A   1      46.699  30.056  30.309  1.00  0.00     0.049 A 
ATOM     46  N   UNL A   1      43.781  29.666  29.092  1.00  0.00    -0.248 NA
ATOM     47  C   UNL A   1      45.066  30.669  27.441  1.00  0.00     0.031 C 
ATOM     48  C   UNL A   1      47.572  30.018  31.505  1.00  0.00     0.029 A 
ATOM     49  N   UNL A   1      47.346  28.933  29.576  1.00  0.00    -0.354 N 
ATOM     50  C   UNL A   1      43.117  29.477  27.919  1.00  0.00     0.074 A 
ATOM     51  C   UNL A   1      43.942  30.149  26.914  1.00  0.00     0.031 C 
ATOM     52  C   UNL A   1      48.628  29.140  31.389  1.00  0.00     0.029 A 
ATOM     53  C   UNL A   1      48.601  28.369  30.134  1.00  0.00     0.049 A 
ATOM     54  H   UNL A   1      46.952  28.575  28.748  1.00  0.00     0.167 HD
ATOM     55  C   UNL A   1      42.345  28.362  27.890  1.00  0.00     0.037 A 
ATOM     56  C   UNL A   1      49.452  27.297  29.723  1.00  0.00     0.037 A 
ATOM     57  C   UNL A   1      43.131  27.272  27.377  1.00  0.00     0.049 A 
ATOM     58  C   UNL A   1      48.537  26.314  29.125  1.00  0.00     0.074 A 
ATOM     59  C   UNL A   1      44.047  27.221  26.342  1.00  0.00     0.029 A 
ATOM     60  N   UNL A   1      43.484  26.288  28.281  1.00  0.00    -0.354 N 
ATOM     61  N   UNL A   1      47.745  25.589  29.852  1.00  0.00    -0.248 NA
ATOM     62  C   UNL A   1      48.580  25.975  27.705  1.00  0.00     0.031 C 
ATOM     63  C   UNL A   1      45.198  26.680  26.952  1.00  0.00     0.029 A 
ATOM     64  C   UNL A   1      44.826  26.033  28.127  1.00  0.00     0.049 A 
ATOM     65  H   UNL A   1      42.882  25.847  28.921  1.00  0.00     0.167 HD
ATOM     66  C   UNL A   1      46.849  25.122  28.946  1.00  0.00     0.074 A 
ATOM     67  C   UNL A   1      47.539  25.140  27.666  1.00  0.00     0.031 C 
ATOM     68  C   UNL A   1      45.549  25.404  29.202  1.00  0.00     0.037 A 
BRANCH  55  69
ATOM     69  C   UNL A   1      41.437  28.235  29.107  1.00  0.00     0.058 A 
ATOM     70  C   UNL A   1      40.059  28.135  28.901  1.00  0.00     0.135 A 
ATOM     71  C   UNL A   1      41.873  28.301  30.457  1.00  0.00     0.135 A 
ATOM     72  F   UNL A   1      39.572  28.025  27.654  1.00  0.00    -0.206 F 
ATOM     73  C   UNL A   1      39.157  28.138  29.967  1.00  0.00     0.059 A 
ATOM     74  C   UNL A   1      40.990  28.383  31.528  1.00  0.00     0.059 A 
ATOM     75  F   UNL A   1      43.177  28.251  30.770  1.00  0.00    -0.206 F 
ATOM     76  C   UNL A   1      39.630  28.287  31.273  1.00  0.00     0.060 A 
BRANCH  76  77
ATOM     77  S   UNL A   1      38.441  28.339  32.629  1.00  0.00     0.124 S 
ATOM     78  O   UNL A   1      38.368  26.936  33.033  1.00  0.00    -0.237 OA
ATOM     79  O   UNL A   1      39.115  29.222  33.574  1.00  0.00    -0.237 OA
ATOM     80  O   UNL A   1      37.227  28.858  32.010  1.00  0.00    -0.744 OA
ENDBRANCH  76  77
ENDBRANCH  55  69
BRANCH  56  81
ATOM     81  C   UNL A   1      50.888  26.506  29.823  1.00  0.00     0.058 A 
ATOM     82  C   UNL A   1      51.979  26.744  28.889  1.00  0.00     0.135 A 
ATOM     83  C   UNL A   1      51.373  25.941  31.020  1.00  0.00     0.135 A 
ATOM     84  F   UNL A   1      51.747  27.244  27.667  1.00  0.00    -0.206 F 
ATOM     85  C   UNL A   1      53.367  26.564  29.158  1.00  0.00     0.059 A 
ATOM     86  C   UNL A   1      52.771  25.721  31.300  1.00  0.00     0.059 A 
ATOM     87  F   UNL A   1      50.516  25.661  32.010  1.00  0.00    -0.206 F 
ATOM     88  C   UNL A   1      53.768  26.077  30.387  1.00  0.00     0.060 A 
BRANCH  88  89
ATOM     89  S   UNL A   1      55.556  26.049  30.809  1.00  0.00     0.124 S 
ATOM     90  O   UNL A   1      55.655  27.028  31.887  1.00  0.00    -0.237 OA
ATOM     91  O   UNL A   1      55.769  24.659  31.205  1.00  0.00    -0.237 OA
ATOM     92  O   UNL A   1      56.206  26.435  29.559  1.00  0.00    -0.744 OA
ENDBRANCH  88  89
ENDBRANCH  56  81
BRANCH  68  93
ATOM     93  C   UNL A   1      45.073  25.247  30.636  1.00  0.00     0.058 A 
ATOM     94  C   UNL A   1      44.507  24.084  31.207  1.00  0.00     0.135 A 
ATOM     95  C   UNL A   1      45.110  26.377  31.467  1.00  0.00     0.135 A 
ATOM     96  F   UNL A   1      44.501  22.912  30.559  1.00  0.00    -0.206 F 
ATOM     97  C   UNL A   1      43.926  24.076  32.478  1.00  0.00     0.059 A 
ATOM     98  C   UNL A   1      44.579  26.382  32.759  1.00  0.00     0.059 A 
ATOM     99  F   UNL A   1      45.674  27.511  31.017  1.00  0.00    -0.206 F 
ATOM    100  C   UNL A   1      43.950  25.236  33.241  1.00  0.00     0.060 A 
BRANCH 100 101
ATOM    101  S   UNL A   1      43.164  25.231  34.868  1.00  0.00     0.124 S 
ATOM    102  O   UNL A   1      42.586  23.889  34.918  1.00  0.00    -0.237 OA
ATOM    103  O   UNL A   1      44.285  25.460  35.773  1.00  0.00    -0.237 OA
ATOM    104  O   UNL A   1      42.192  26.315  34.778  1.00  0.00    -0.744 OA
ENDBRANCH 100 101
ENDBRANCH  68  93
ENDBRANCH  42  43
ENDBRANCH  35  37
ENDBRANCH  34  35
ENDBRANCH  33  34
ENDBRANCH  32  33
ENDBRANCH  31  32
ENDBRANCH  30  31
ENDBRANCH  29  30
ENDBRANCH   1  29
TORSDOF 26
ENDMDL
