MODEL 1
REMARK VINA RESULT:      -7.3      0.000      0.000
REMARK SMILES COC(=O)c1c(NC(=O)[C@@H]2C[C@@H]2C(=O)OCCOCCOCCOCCOC(=O)c2ccc(-c3c4nc(c(-c5c(F)cc(S(=O)(=O)[O-])cc5F)c5ccc([nH]5)c(-c5c(F)cc(S(=O)(=O)[O-])cc5F)c5nc(c(-c6c(F)cc(S(=O)(=O)[O-])cc6F)c6ccc3[nH]6)C=C5)C=C4)cc2)sc2c1CC[N@@H+](Cc1ccccc1)C2
REMARK SMILES IDX 20 1 19 2 18 3 17 4 16 5 15 6 13 7 14 8 12 9 10 10 11 11
REMARK SMILES IDX 8 12 7 13 9 15 6 16 5 17 98 18 96 19 97 20 99 21 109 22
REMARK SMILES IDX 100 23 101 24 3 26 4 27 2 28 1 29 102 30 103 31 104 32
REMARK SMILES IDX 108 33 105 34 107 35 106 36 21 37 22 38 23 39 24 40 25 41
REMARK SMILES IDX 26 42 27 43 28 44 29 45 30 46 31 47 95 48 32 49 94 50 33 51
REMARK SMILES IDX 34 52 35 53 88 54 36 55 93 56 87 57 89 58 37 59 92 60 86 61
REMARK SMILES IDX 85 62 38 64 72 65 51 66 71 67 52 68 55 69 70 70 90 71 53 72
REMARK SMILES IDX 54 73 69 75 91 76 56 77 39 78 40 79 49 80 41 81 42 82 48 83
REMARK SMILES IDX 50 84 43 85 44 86 45 87 46 88 47 89 73 90 74 91 83 92 75 93
REMARK SMILES IDX 76 94 82 95 84 96 77 97 78 98 79 99 80 100 81 101 57 102
REMARK SMILES IDX 58 103 67 104 59 105 60 106 66 107 68 108 61 109 62 110
REMARK SMILES IDX 63 111 64 112 65 113
REMARK H PARENT 7 14 101 25 89 63 55 74
REMARK Flexibility Score: inf
ROOT
ATOM      1  C   UNL A   1      43.252  28.448  31.026  1.00  0.00     0.188 C 
ENDROOT
BRANCH   1   2
ATOM      2  C   UNL A   1      42.273  28.304  32.210  1.00  0.00     0.188 C 
BRANCH   2   3
ATOM      3  O   UNL A   1      41.401  29.356  32.562  1.00  0.00    -0.376 OA
BRANCH   3   4
ATOM      4  C   UNL A   1      40.058  29.123  32.975  1.00  0.00     0.202 C 
BRANCH   4   5
ATOM      5  C   UNL A   1      38.953  28.546  32.059  1.00  0.00     0.261 C 
BRANCH   5   6
ATOM      6  O   UNL A   1      38.603  29.319  30.900  1.00  0.00    -0.463 OA
BRANCH   6   7
ATOM      7  C   UNL A   1      37.284  29.294  30.589  1.00  0.00     0.309 C 
ATOM      8  O   UNL A   1      36.390  29.129  31.408  1.00  0.00    -0.252 OA
BRANCH   7   9
ATOM      9  C   UNL A   1      36.916  29.478  29.157  1.00  0.00     0.112 C 
ATOM     10  C   UNL A   1      36.588  30.930  28.806  1.00  0.00     0.094 C 
ATOM     11  C   UNL A   1      35.808  29.856  28.208  1.00  0.00     0.030 C 
BRANCH  10  12
ATOM     12  C   UNL A   1      35.970  31.834  29.805  1.00  0.00     0.229 C 
ATOM     13  N   UNL A   1      36.526  32.362  30.936  1.00  0.00    -0.317 N 
ATOM     14  H   UNL A   1      35.821  32.895  31.368  1.00  0.00     0.170 HD
ATOM     15  O   UNL A   1      34.801  32.156  29.577  1.00  0.00    -0.274 OA
BRANCH  13  16
ATOM     16  C   UNL A   1      37.647  32.474  31.740  1.00  0.00     0.110 A 
ATOM     17  C   UNL A   1      39.032  32.673  31.844  1.00  0.00     0.098 A 
ATOM     18  C   UNL A   1      39.434  32.648  33.246  1.00  0.00    -0.006 A 
ATOM     19  S   UNL A   1      36.941  32.220  33.319  1.00  0.00    -0.116 S 
ATOM     20  C   UNL A   1      38.380  32.496  34.111  1.00  0.00     0.065 A 
ATOM     21  C   UNL A   1      40.815  32.937  33.777  1.00  0.00     0.099 C 
ATOM     22  C   UNL A   1      38.474  32.632  35.591  1.00  0.00     0.310 C 
ATOM     23  C   UNL A   1      40.834  33.077  35.302  1.00  0.00     0.267 C 
ATOM     24  N   UNL A   1      39.586  33.527  35.920  1.00  0.00    -0.326 N 
ATOM     25  H   UNL A   1      39.757  33.448  36.922  1.00  0.00     0.348 HD
BRANCH  17  26
ATOM     26  C   UNL A   1      40.118  32.904  30.875  1.00  0.00     0.341 C 
ATOM     27  O   UNL A   1      40.890  32.016  30.523  1.00  0.00    -0.246 OA
BRANCH  26  28
ATOM     28  O   UNL A   1      40.301  34.207  30.521  1.00  0.00    -0.465 OA
ATOM     29  C   UNL A   1      39.422  34.687  29.498  1.00  0.00     0.282 C 
ENDBRANCH  26  28
ENDBRANCH  17  26
BRANCH  24  30
ATOM     30  C   UNL A   1      39.271  34.946  35.818  1.00  0.00     0.299 C 
BRANCH  30  31
ATOM     31  C   UNL A   1      40.127  36.080  36.393  1.00  0.00     0.006 A 
ATOM     32  C   UNL A   1      41.769  36.444  35.734  1.00  0.00     0.009 A 
ATOM     33  C   UNL A   1      39.771  36.442  38.112  1.00  0.00     0.009 A 
ATOM     34  C   UNL A   1      43.086  37.109  36.844  1.00  0.00     0.001 A 
ATOM     35  C   UNL A   1      41.030  37.100  39.188  1.00  0.00     0.001 A 
ATOM     36  C   UNL A   1      42.699  37.438  38.578  1.00  0.00     0.000 A 
ENDBRANCH  30  31
ENDBRANCH  24  30
ENDBRANCH  13  16
ENDBRANCH  10  12
ENDBRANCH   7   9
ENDBRANCH   6   7
ENDBRANCH   5   6
ENDBRANCH   4   5
ENDBRANCH   3   4
ENDBRANCH   2   3
ENDBRANCH   1   2
BRANCH   1  37
ATOM     37  O   UNL A   1      42.769  28.476  29.578  1.00  0.00    -0.377 OA
BRANCH  37  38
ATOM     38  C   UNL A   1      41.388  29.202  28.327  1.00  0.00     0.188 C 
BRANCH  38  39
ATOM     39  C   UNL A   1      40.079  28.450  27.488  1.00  0.00     0.188 C 
BRANCH  39  40
ATOM     40  O   UNL A   1      39.861  27.082  27.096  1.00  0.00    -0.376 OA
BRANCH  40  41
ATOM     41  C   UNL A   1      40.750  26.213  26.381  1.00  0.00     0.202 C 
BRANCH  41  42
ATOM     42  C   UNL A   1      41.329  24.914  26.916  1.00  0.00     0.261 C 
BRANCH  42  43
ATOM     43  O   UNL A   1      42.430  24.473  26.187  1.00  0.00    -0.460 OA
BRANCH  43  44
ATOM     44  C   UNL A   1      43.309  23.658  26.782  1.00  0.00     0.338 C 
ATOM     45  O   UNL A   1      43.099  22.745  27.570  1.00  0.00    -0.246 OA
BRANCH  44  46
ATOM     46  C   UNL A   1      44.583  24.086  26.218  1.00  0.00     0.060 A 
ATOM     47  C   UNL A   1      45.767  23.409  26.494  1.00  0.00     0.016 A 
ATOM     48  C   UNL A   1      44.561  25.267  25.451  1.00  0.00     0.016 A 
ATOM     49  C   UNL A   1      46.936  24.097  26.255  1.00  0.00     0.010 A 
ATOM     50  C   UNL A   1      45.714  25.832  25.027  1.00  0.00     0.010 A 
ATOM     51  C   UNL A   1      46.831  25.364  25.670  1.00  0.00    -0.014 A 
BRANCH  51  52
ATOM     52  C   UNL A   1      47.737  26.425  26.025  1.00  0.00     0.031 A 
ATOM     53  C   UNL A   1      48.741  26.649  24.986  1.00  0.00     0.074 A 
ATOM     54  C   UNL A   1      47.492  27.143  27.150  1.00  0.00     0.049 A 
ATOM     55  N   UNL A   1      49.927  26.147  24.966  1.00  0.00    -0.248 NA
ATOM     56  C   UNL A   1      48.311  27.212  23.697  1.00  0.00     0.031 C 
ATOM     57  C   UNL A   1      46.337  27.090  28.070  1.00  0.00     0.029 A 
ATOM     58  N   UNL A   1      48.211  28.170  27.668  1.00  0.00    -0.354 N 
ATOM     59  C   UNL A   1      50.511  26.683  23.833  1.00  0.00     0.074 A 
ATOM     60  C   UNL A   1      49.416  27.031  22.968  1.00  0.00     0.031 C 
ATOM     61  C   UNL A   1      46.294  28.205  28.832  1.00  0.00     0.029 A 
ATOM     62  C   UNL A   1      47.519  28.936  28.616  1.00  0.00     0.049 A 
ATOM     63  H   UNL A   1      49.138  28.361  27.400  1.00  0.00     0.167 HD
ATOM     64  C   UNL A   1      51.793  27.137  23.902  1.00  0.00     0.037 A 
ATOM     65  C   UNL A   1      47.977  30.094  29.159  1.00  0.00     0.037 A 
ATOM     66  C   UNL A   1      52.436  26.628  25.104  1.00  0.00     0.049 A 
ATOM     67  C   UNL A   1      49.461  30.063  28.956  1.00  0.00     0.074 A 
ATOM     68  C   UNL A   1      52.647  25.360  25.615  1.00  0.00     0.029 A 
ATOM     69  N   UNL A   1      52.551  27.487  26.176  1.00  0.00    -0.354 N 
ATOM     70  N   UNL A   1      50.235  29.163  29.517  1.00  0.00    -0.248 NA
ATOM     71  C   UNL A   1      49.965  30.622  27.707  1.00  0.00     0.031 C 
ATOM     72  C   UNL A   1      52.394  25.477  27.014  1.00  0.00     0.029 A 
ATOM     73  C   UNL A   1      52.166  26.822  27.315  1.00  0.00     0.049 A 
ATOM     74  H   UNL A   1      52.858  28.422  26.133  1.00  0.00     0.167 HD
ATOM     75  C   UNL A   1      51.091  28.738  28.505  1.00  0.00     0.074 A 
ATOM     76  C   UNL A   1      50.899  29.706  27.421  1.00  0.00     0.031 C 
ATOM     77  C   UNL A   1      51.620  27.473  28.492  1.00  0.00     0.037 A 
BRANCH  64  78
ATOM     78  C   UNL A   1      52.307  28.359  23.175  1.00  0.00     0.058 A 
ATOM     79  C   UNL A   1      53.173  28.158  22.081  1.00  0.00     0.135 A 
ATOM     80  C   UNL A   1      52.229  29.689  23.648  1.00  0.00     0.135 A 
ATOM     81  F   UNL A   1      53.302  26.942  21.524  1.00  0.00    -0.206 F 
ATOM     82  C   UNL A   1      53.989  29.167  21.579  1.00  0.00     0.059 A 
ATOM     83  C   UNL A   1      53.003  30.721  23.132  1.00  0.00     0.059 A 
ATOM     84  F   UNL A   1      51.465  30.058  24.678  1.00  0.00    -0.206 F 
ATOM     85  C   UNL A   1      53.913  30.441  22.129  1.00  0.00     0.060 A 
BRANCH  85  86
ATOM     86  S   UNL A   1      55.035  31.720  21.549  1.00  0.00     0.124 S 
ATOM     87  O   UNL A   1      55.071  31.444  20.118  1.00  0.00    -0.237 OA
ATOM     88  O   UNL A   1      54.333  32.934  21.952  1.00  0.00    -0.237 OA
ATOM     89  O   UNL A   1      56.267  31.442  22.280  1.00  0.00    -0.744 OA
ENDBRANCH  85  86
ENDBRANCH  64  78
BRANCH  65  90
ATOM     90  C   UNL A   1      47.193  31.335  29.423  1.00  0.00     0.058 A 
ATOM     91  C   UNL A   1      47.216  31.957  30.683  1.00  0.00     0.135 A 
ATOM     92  C   UNL A   1      46.628  32.091  28.373  1.00  0.00     0.135 A 
ATOM     93  F   UNL A   1      47.734  31.315  31.740  1.00  0.00    -0.206 F 
ATOM     94  C   UNL A   1      46.767  33.273  30.878  1.00  0.00     0.059 A 
ATOM     95  C   UNL A   1      46.172  33.398  28.544  1.00  0.00     0.059 A 
ATOM     96  F   UNL A   1      46.581  31.613  27.121  1.00  0.00    -0.206 F 
ATOM     97  C   UNL A   1      46.272  33.996  29.793  1.00  0.00     0.060 A 
BRANCH  97  98
ATOM     98  S   UNL A   1      45.878  35.752  29.990  1.00  0.00     0.124 S 
ATOM     99  O   UNL A   1      45.529  36.140  28.628  1.00  0.00    -0.237 OA
ATOM    100  O   UNL A   1      44.776  35.716  30.945  1.00  0.00    -0.237 OA
ATOM    101  O   UNL A   1      47.122  36.324  30.501  1.00  0.00    -0.744 OA
ENDBRANCH  97  98
ENDBRANCH  65  90
BRANCH  77 102
ATOM    102  C   UNL A   1      51.472  26.603  29.725  1.00  0.00     0.058 A 
ATOM    103  C   UNL A   1      50.419  25.697  29.958  1.00  0.00     0.135 A 
ATOM    104  C   UNL A   1      52.553  26.551  30.618  1.00  0.00     0.135 A 
ATOM    105  F   UNL A   1      49.392  25.602  29.105  1.00  0.00    -0.206 F 
ATOM    106  C   UNL A   1      50.426  24.810  31.042  1.00  0.00     0.059 A 
ATOM    107  C   UNL A   1      52.595  25.658  31.686  1.00  0.00     0.059 A 
ATOM    108  F   UNL A   1      53.624  27.337  30.419  1.00  0.00    -0.206 F 
ATOM    109  C   UNL A   1      51.521  24.800  31.904  1.00  0.00     0.060 A 
BRANCH 109 110
ATOM    110  S   UNL A   1      51.561  23.628  33.280  1.00  0.00     0.124 S 
ATOM    111  O   UNL A   1      52.947  23.726  33.726  1.00  0.00    -0.237 OA
ATOM    112  O   UNL A   1      50.561  24.176  34.193  1.00  0.00    -0.237 OA
ATOM    113  O   UNL A   1      51.194  22.358  32.658  1.00  0.00    -0.744 OA
ENDBRANCH 109 110
ENDBRANCH  77 102
ENDBRANCH  51  52
ENDBRANCH  44  46
ENDBRANCH  43  44
ENDBRANCH  42  43
ENDBRANCH  41  42
ENDBRANCH  40  41
ENDBRANCH  39  40
ENDBRANCH  38  39
ENDBRANCH  37  38
ENDBRANCH   1  37
TORSDOF 29
ENDMDL
MODEL 2
REMARK VINA RESULT:      -6.9      5.107     12.947
REMARK SMILES COC(=O)c1c(NC(=O)[C@@H]2C[C@@H]2C(=O)OCCOCCOCCOCCOC(=O)c2ccc(-c3c4nc(c(-c5c(F)cc(S(=O)(=O)[O-])cc5F)c5ccc([nH]5)c(-c5c(F)cc(S(=O)(=O)[O-])cc5F)c5nc(c(-c6c(F)cc(S(=O)(=O)[O-])cc6F)c6ccc3[nH]6)C=C5)C=C4)cc2)sc2c1CC[N@@H+](Cc1ccccc1)C2
REMARK SMILES IDX 20 1 19 2 18 3 17 4 16 5 15 6 13 7 14 8 12 9 10 10 11 11
REMARK SMILES IDX 8 12 7 13 9 15 6 16 5 17 98 18 96 19 97 20 99 21 109 22
REMARK SMILES IDX 100 23 101 24 3 26 4 27 2 28 1 29 102 30 103 31 104 32
REMARK SMILES IDX 108 33 105 34 107 35 106 36 21 37 22 38 23 39 24 40 25 41
REMARK SMILES IDX 26 42 27 43 28 44 29 45 30 46 31 47 95 48 32 49 94 50 33 51
REMARK SMILES IDX 34 52 35 53 88 54 36 55 93 56 87 57 89 58 37 59 92 60 86 61
REMARK SMILES IDX 85 62 38 64 72 65 51 66 71 67 52 68 55 69 70 70 90 71 53 72
REMARK SMILES IDX 54 73 69 75 91 76 56 77 39 78 40 79 49 80 41 81 42 82 48 83
REMARK SMILES IDX 50 84 43 85 44 86 45 87 46 88 47 89 73 90 74 91 83 92 75 93
REMARK SMILES IDX 76 94 82 95 84 96 77 97 78 98 79 99 80 100 81 101 57 102
REMARK SMILES IDX 58 103 67 104 59 105 60 106 66 107 68 108 61 109 62 110
REMARK SMILES IDX 63 111 64 112 65 113
REMARK H PARENT 7 14 101 25 89 63 55 74
REMARK Flexibility Score: inf
ROOT
ATOM      1  C   UNL A   1      43.110  27.391  32.613  1.00  0.00     0.188 C 
ENDROOT
BRANCH   1   2
ATOM      2  C   UNL A   1      43.177  27.034  31.113  1.00  0.00     0.188 C 
BRANCH   2   3
ATOM      3  O   UNL A   1      44.226  26.241  30.602  1.00  0.00    -0.376 OA
BRANCH   3   4
ATOM      4  C   UNL A   1      44.083  24.840  30.387  1.00  0.00     0.202 C 
BRANCH   4   5
ATOM      5  C   UNL A   1      44.950  24.017  29.407  1.00  0.00     0.261 C 
BRANCH   5   6
ATOM      6  O   UNL A   1      44.421  23.814  28.087  1.00  0.00    -0.463 OA
BRANCH   6   7
ATOM      7  C   UNL A   1      45.220  24.265  27.089  1.00  0.00     0.309 C 
ATOM      8  O   UNL A   1      46.431  24.413  27.195  1.00  0.00    -0.252 OA
BRANCH   7   9
ATOM      9  C   UNL A   1      44.571  24.597  25.790  1.00  0.00     0.112 C 
ATOM     10  C   UNL A   1      43.907  25.975  25.789  1.00  0.00     0.094 C 
ATOM     11  C   UNL A   1      43.258  24.867  25.103  1.00  0.00     0.030 C 
BRANCH  10  12
ATOM     12  C   UNL A   1      43.316  26.536  27.026  1.00  0.00     0.229 C 
ATOM     13  N   UNL A   1      43.751  27.593  27.776  1.00  0.00    -0.317 N 
ATOM     14  H   UNL A   1      43.130  27.668  28.536  1.00  0.00     0.170 HD
ATOM     15  O   UNL A   1      42.290  25.979  27.424  1.00  0.00    -0.274 OA
BRANCH  13  16
ATOM     16  C   UNL A   1      44.684  28.604  27.934  1.00  0.00     0.110 A 
ATOM     17  C   UNL A   1      44.989  29.971  27.876  1.00  0.00     0.098 A 
ATOM     18  C   UNL A   1      46.380  30.187  28.258  1.00  0.00    -0.006 A 
ATOM     19  S   UNL A   1      46.094  27.676  28.388  1.00  0.00    -0.116 S 
ATOM     20  C   UNL A   1      47.028  29.035  28.628  1.00  0.00     0.065 A 
ATOM     21  C   UNL A   1      47.055  31.524  28.432  1.00  0.00     0.099 C 
ATOM     22  C   UNL A   1      48.381  28.986  29.246  1.00  0.00     0.310 C 
ATOM     23  C   UNL A   1      48.436  31.398  29.084  1.00  0.00     0.267 C 
ATOM     24  N   UNL A   1      48.628  30.241  29.959  1.00  0.00    -0.326 N 
ATOM     25  H   UNL A   1      49.618  30.268  30.199  1.00  0.00     0.348 HD
BRANCH  17  26
ATOM     26  C   UNL A   1      44.229  31.187  27.536  1.00  0.00     0.341 C 
ATOM     27  O   UNL A   1      43.577  31.813  28.368  1.00  0.00    -0.246 OA
BRANCH  26  28
ATOM     28  O   UNL A   1      44.173  31.474  26.205  1.00  0.00    -0.465 OA
ATOM     29  C   UNL A   1      44.360  32.854  25.874  1.00  0.00     0.282 C 
ENDBRANCH  26  28
ENDBRANCH  17  26
BRANCH  24  30
ATOM     30  C   UNL A   1      48.033  30.309  31.287  1.00  0.00     0.299 C 
BRANCH  30  31
ATOM     31  C   UNL A   1      48.332  29.337  32.435  1.00  0.00     0.006 A 
ATOM     32  C   UNL A   1      49.872  28.394  32.490  1.00  0.00     0.009 A 
ATOM     33  C   UNL A   1      46.859  28.659  33.198  1.00  0.00     0.009 A 
ATOM     34  C   UNL A   1      49.902  26.715  33.257  1.00  0.00     0.001 A 
ATOM     35  C   UNL A   1      46.881  27.046  33.956  1.00  0.00     0.001 A 
ATOM     36  C   UNL A   1      48.391  26.051  33.994  1.00  0.00     0.000 A 
ENDBRANCH  30  31
ENDBRANCH  24  30
ENDBRANCH  13  16
ENDBRANCH  10  12
ENDBRANCH   7   9
ENDBRANCH   6   7
ENDBRANCH   5   6
ENDBRANCH   4   5
ENDBRANCH   3   4
ENDBRANCH   2   3
ENDBRANCH   1   2
BRANCH   1  37
ATOM     37  O   UNL A   1      43.199  26.324  33.702  1.00  0.00    -0.377 OA
BRANCH  37  38
ATOM     38  C   UNL A   1      44.034  24.584  34.223  1.00  0.00     0.188 C 
BRANCH  38  39
ATOM     39  C   UNL A   1      44.078  23.726  35.722  1.00  0.00     0.188 C 
BRANCH  39  40
ATOM     40  O   UNL A   1      44.987  23.805  36.836  1.00  0.00    -0.376 OA
BRANCH  40  41
ATOM     41  C   UNL A   1      45.432  24.975  37.536  1.00  0.00     0.202 C 
BRANCH  41  42
ATOM     42  C   UNL A   1      44.755  25.580  38.753  1.00  0.00     0.261 C 
BRANCH  42  43
ATOM     43  O   UNL A   1      44.435  26.924  38.582  1.00  0.00    -0.460 OA
BRANCH  43  44
ATOM     44  C   UNL A   1      45.340  27.849  38.926  1.00  0.00     0.338 C 
ATOM     45  O   UNL A   1      45.987  27.942  39.961  1.00  0.00    -0.246 OA
BRANCH  44  46
ATOM     46  C   UNL A   1      45.409  28.693  37.741  1.00  0.00     0.060 A 
ATOM     47  C   UNL A   1      46.368  29.693  37.612  1.00  0.00     0.016 A 
ATOM     48  C   UNL A   1      44.402  28.499  36.775  1.00  0.00     0.016 A 
ATOM     49  C   UNL A   1      46.114  30.670  36.676  1.00  0.00     0.010 A 
ATOM     50  C   UNL A   1      44.285  29.342  35.725  1.00  0.00     0.010 A 
ATOM     51  C   UNL A   1      44.974  30.518  35.877  1.00  0.00    -0.014 A 
BRANCH  51  52
ATOM     52  C   UNL A   1      44.202  31.658  35.457  1.00  0.00     0.031 A 
ATOM     53  C   UNL A   1      43.247  32.072  36.484  1.00  0.00     0.074 A 
ATOM     54  C   UNL A   1      44.519  32.264  34.286  1.00  0.00     0.049 A 
ATOM     55  N   UNL A   1      42.008  31.723  36.543  1.00  0.00    -0.248 NA
ATOM     56  C   UNL A   1      43.760  32.660  37.731  1.00  0.00     0.031 C 
ATOM     57  C   UNL A   1      45.646  32.009  33.366  1.00  0.00     0.029 A 
ATOM     58  N   UNL A   1      43.926  33.337  33.705  1.00  0.00    -0.354 N 
ATOM     59  C   UNL A   1      41.510  32.402  37.642  1.00  0.00     0.074 A 
ATOM     60  C   UNL A   1      42.651  32.666  38.476  1.00  0.00     0.031 C 
ATOM     61  C   UNL A   1      45.817  33.058  32.531  1.00  0.00     0.029 A 
ATOM     62  C   UNL A   1      44.695  33.948  32.704  1.00  0.00     0.049 A 
ATOM     63  H   UNL A   1      43.033  33.659  33.964  1.00  0.00     0.167 HD
ATOM     64  C   UNL A   1      40.294  33.006  37.548  1.00  0.00     0.037 A 
ATOM     65  C   UNL A   1      44.377  35.116  32.089  1.00  0.00     0.037 A 
ATOM     66  C   UNL A   1      39.577  32.503  36.387  1.00  0.00     0.049 A 
ATOM     67  C   UNL A   1      42.903  35.283  32.300  1.00  0.00     0.074 A 
ATOM     68  C   UNL A   1      39.204  31.241  35.962  1.00  0.00     0.029 A 
ATOM     69  N   UNL A   1      39.555  33.298  35.260  1.00  0.00    -0.354 N 
ATOM     70  N   UNL A   1      42.017  34.451  31.804  1.00  0.00    -0.248 NA
ATOM     71  C   UNL A   1      42.488  35.980  33.512  1.00  0.00     0.031 C 
ATOM     72  C   UNL A   1      39.451  31.234  34.556  1.00  0.00     0.029 A 
ATOM     73  C   UNL A   1      39.839  32.517  34.166  1.00  0.00     0.049 A 
ATOM     74  H   UNL A   1      39.366  34.265  35.242  1.00  0.00     0.167 HD
ATOM     75  C   UNL A   1      41.128  34.203  32.847  1.00  0.00     0.074 A 
ATOM     76  C   UNL A   1      41.452  35.209  33.862  1.00  0.00     0.031 C 
ATOM     77  C   UNL A   1      40.446  33.018  32.945  1.00  0.00     0.037 A 
BRANCH  64  78
ATOM     78  C   UNL A   1      39.945  34.327  38.196  1.00  0.00     0.058 A 
ATOM     79  C   UNL A   1      40.777  35.433  37.926  1.00  0.00     0.135 A 
ATOM     80  C   UNL A   1      39.032  34.503  39.261  1.00  0.00     0.135 A 
ATOM     81  F   UNL A   1      41.660  35.394  36.914  1.00  0.00    -0.206 F 
ATOM     82  C   UNL A   1      40.789  36.571  38.726  1.00  0.00     0.059 A 
ATOM     83  C   UNL A   1      38.998  35.649  40.046  1.00  0.00     0.059 A 
ATOM     84  F   UNL A   1      38.176  33.559  39.658  1.00  0.00    -0.206 F 
ATOM     85  C   UNL A   1      39.911  36.658  39.800  1.00  0.00     0.060 A 
BRANCH  85  86
ATOM     86  S   UNL A   1      39.993  38.083  40.892  1.00  0.00     0.124 S 
ATOM     87  O   UNL A   1      41.431  38.318  40.952  1.00  0.00    -0.237 OA
ATOM     88  O   UNL A   1      39.211  39.068  40.152  1.00  0.00    -0.237 OA
ATOM     89  O   UNL A   1      39.379  37.598  42.123  1.00  0.00    -0.744 OA
ENDBRANCH  85  86
ENDBRANCH  64  78
BRANCH  65  90
ATOM     90  C   UNL A   1      45.304  36.230  31.739  1.00  0.00     0.058 A 
ATOM     91  C   UNL A   1      45.343  36.766  30.441  1.00  0.00     0.135 A 
ATOM     92  C   UNL A   1      45.972  36.977  32.734  1.00  0.00     0.135 A 
ATOM     93  F   UNL A   1      44.736  36.125  29.430  1.00  0.00    -0.206 F 
ATOM     94  C   UNL A   1      45.948  38.000  30.156  1.00  0.00     0.059 A 
ATOM     95  C   UNL A   1      46.584  38.204  32.474  1.00  0.00     0.059 A 
ATOM     96  F   UNL A   1      45.976  36.580  34.015  1.00  0.00    -0.206 F 
ATOM     97  C   UNL A   1      46.543  38.726  31.188  1.00  0.00     0.060 A 
BRANCH  97  98
ATOM     98  S   UNL A   1      47.149  40.403  30.873  1.00  0.00     0.124 S 
ATOM     99  O   UNL A   1      46.993  40.515  29.426  1.00  0.00    -0.237 OA
ATOM    100  O   UNL A   1      46.242  41.215  31.676  1.00  0.00    -0.237 OA
ATOM    101  O   UNL A   1      48.529  40.360  31.349  1.00  0.00    -0.744 OA
ENDBRANCH  97  98
ENDBRANCH  65  90
BRANCH  77 102
ATOM    102  C   UNL A   1      40.469  32.057  31.772  1.00  0.00     0.058 A 
ATOM    103  C   UNL A   1      41.355  30.972  31.628  1.00  0.00     0.135 A 
ATOM    104  C   UNL A   1      39.415  32.132  30.850  1.00  0.00     0.135 A 
ATOM    105  F   UNL A   1      42.333  30.760  32.518  1.00  0.00    -0.206 F 
ATOM    106  C   UNL A   1      41.220  30.031  30.600  1.00  0.00     0.059 A 
ATOM    107  C   UNL A   1      39.243  31.193  29.836  1.00  0.00     0.059 A 
ATOM    108  F   UNL A   1      38.491  33.100  30.967  1.00  0.00    -0.206 F 
ATOM    109  C   UNL A   1      40.158  30.152  29.705  1.00  0.00     0.060 A 
BRANCH 109 110
ATOM    110  S   UNL A   1      39.947  28.918  28.401  1.00  0.00     0.124 S 
ATOM    111  O   UNL A   1      38.631  29.255  27.870  1.00  0.00    -0.237 OA
ATOM    112  O   UNL A   1      41.077  29.193  27.517  1.00  0.00    -0.237 OA
ATOM    113  O   UNL A   1      40.023  27.647  29.117  1.00  0.00    -0.744 OA
ENDBRANCH 109 110
ENDBRANCH  77 102
ENDBRANCH  51  52
ENDBRANCH  44  46
ENDBRANCH  43  44
ENDBRANCH  42  43
ENDBRANCH  41  42
ENDBRANCH  40  41
ENDBRANCH  39  40
ENDBRANCH  38  39
ENDBRANCH  37  38
ENDBRANCH   1  37
TORSDOF 29
ENDMDL
MODEL 3
REMARK VINA RESULT:      -6.8      4.863     11.146
REMARK SMILES COC(=O)c1c(NC(=O)[C@@H]2C[C@@H]2C(=O)OCCOCCOCCOCCOC(=O)c2ccc(-c3c4nc(c(-c5c(F)cc(S(=O)(=O)[O-])cc5F)c5ccc([nH]5)c(-c5c(F)cc(S(=O)(=O)[O-])cc5F)c5nc(c(-c6c(F)cc(S(=O)(=O)[O-])cc6F)c6ccc3[nH]6)C=C5)C=C4)cc2)sc2c1CC[N@@H+](Cc1ccccc1)C2
REMARK SMILES IDX 20 1 19 2 18 3 17 4 16 5 15 6 13 7 14 8 12 9 10 10 11 11
REMARK SMILES IDX 8 12 7 13 9 15 6 16 5 17 98 18 96 19 97 20 99 21 109 22
REMARK SMILES IDX 100 23 101 24 3 26 4 27 2 28 1 29 102 30 103 31 104 32
REMARK SMILES IDX 108 33 105 34 107 35 106 36 21 37 22 38 23 39 24 40 25 41
REMARK SMILES IDX 26 42 27 43 28 44 29 45 30 46 31 47 95 48 32 49 94 50 33 51
REMARK SMILES IDX 34 52 35 53 88 54 36 55 93 56 87 57 89 58 37 59 92 60 86 61
REMARK SMILES IDX 85 62 38 64 72 65 51 66 71 67 52 68 55 69 70 70 90 71 53 72
REMARK SMILES IDX 54 73 69 75 91 76 56 77 39 78 40 79 49 80 41 81 42 82 48 83
REMARK SMILES IDX 50 84 43 85 44 86 45 87 46 88 47 89 73 90 74 91 83 92 75 93
REMARK SMILES IDX 76 94 82 95 84 96 77 97 78 98 79 99 80 100 81 101 57 102
REMARK SMILES IDX 58 103 67 104 59 105 60 106 66 107 68 108 61 109 62 110
REMARK SMILES IDX 63 111 64 112 65 113
REMARK H PARENT 7 14 101 25 89 63 55 74
REMARK Flexibility Score: inf
ROOT
ATOM      1  C   UNL A   1      44.100  32.541  30.805  1.00  0.00     0.188 C 
ENDROOT
BRANCH   1   2
ATOM      2  C   UNL A   1      42.629  32.081  30.885  1.00  0.00     0.188 C 
BRANCH   2   3
ATOM      3  O   UNL A   1      42.238  31.049  31.765  1.00  0.00    -0.376 OA
BRANCH   3   4
ATOM      4  C   UNL A   1      40.888  30.603  31.859  1.00  0.00     0.202 C 
BRANCH   4   5
ATOM      5  C   UNL A   1      39.892  31.067  32.945  1.00  0.00     0.261 C 
BRANCH   5   6
ATOM      6  O   UNL A   1      38.496  31.009  32.612  1.00  0.00    -0.463 OA
BRANCH   6   7
ATOM      7  C   UNL A   1      38.139  31.788  31.561  1.00  0.00     0.309 C 
ATOM      8  O   UNL A   1      38.059  31.386  30.408  1.00  0.00    -0.252 OA
BRANCH   7   9
ATOM      9  C   UNL A   1      37.830  33.217  31.843  1.00  0.00     0.112 C 
ATOM     10  C   UNL A   1      37.174  33.931  30.660  1.00  0.00     0.094 C 
ATOM     11  C   UNL A   1      38.149  34.643  31.474  1.00  0.00     0.030 C 
BRANCH  10  12
ATOM     12  C   UNL A   1      37.500  33.552  29.266  1.00  0.00     0.229 C 
ATOM     13  N   UNL A   1      36.729  32.873  28.364  1.00  0.00    -0.317 N 
ATOM     14  H   UNL A   1      37.273  32.780  27.549  1.00  0.00     0.170 HD
ATOM     15  O   UNL A   1      38.612  33.905  28.866  1.00  0.00    -0.274 OA
BRANCH  13  16
ATOM     16  C   UNL A   1      35.518  32.259  28.096  1.00  0.00     0.110 A 
ATOM     17  C   UNL A   1      34.145  32.379  27.835  1.00  0.00     0.098 A 
ATOM     18  C   UNL A   1      33.558  31.059  27.641  1.00  0.00    -0.006 A 
ATOM     19  S   UNL A   1      35.991  30.577  28.142  1.00  0.00    -0.116 S 
ATOM     20  C   UNL A   1      34.476  30.041  27.703  1.00  0.00     0.065 A 
ATOM     21  C   UNL A   1      32.136  30.773  27.229  1.00  0.00     0.099 C 
ATOM     22  C   UNL A   1      34.192  28.623  27.350  1.00  0.00     0.310 C 
ATOM     23  C   UNL A   1      31.920  29.299  26.868  1.00  0.00     0.267 C 
ATOM     24  N   UNL A   1      33.097  28.581  26.378  1.00  0.00    -0.326 N 
ATOM     25  H   UNL A   1      32.789  27.612  26.304  1.00  0.00     0.348 HD
BRANCH  17  26
ATOM     26  C   UNL A   1      33.213  33.514  27.709  1.00  0.00     0.341 C 
ATOM     27  O   UNL A   1      32.071  33.386  27.277  1.00  0.00    -0.246 OA
BRANCH  26  28
ATOM     28  O   UNL A   1      33.762  34.736  27.960  1.00  0.00    -0.465 OA
ATOM     29  C   UNL A   1      33.068  35.525  28.932  1.00  0.00     0.282 C 
ENDBRANCH  26  28
ENDBRANCH  17  26
BRANCH  24  30
ATOM     30  C   UNL A   1      33.501  28.835  25.001  1.00  0.00     0.299 C 
BRANCH  30  31
ATOM     31  C   UNL A   1      33.687  27.756  23.927  1.00  0.00     0.006 A 
ATOM     32  C   UNL A   1      32.832  27.855  22.339  1.00  0.00     0.009 A 
ATOM     33  C   UNL A   1      34.114  26.150  24.596  1.00  0.00     0.009 A 
ATOM     34  C   UNL A   1      32.336  26.310  21.457  1.00  0.00     0.001 A 
ATOM     35  C   UNL A   1      33.656  24.652  23.745  1.00  0.00     0.001 A 
ATOM     36  C   UNL A   1      32.761  24.706  22.174  1.00  0.00     0.000 A 
ENDBRANCH  30  31
ENDBRANCH  24  30
ENDBRANCH  13  16
ENDBRANCH  10  12
ENDBRANCH   7   9
ENDBRANCH   6   7
ENDBRANCH   5   6
ENDBRANCH   4   5
ENDBRANCH   3   4
ENDBRANCH   2   3
ENDBRANCH   1   2
BRANCH   1  37
ATOM     37  O   UNL A   1      44.930  32.374  29.535  1.00  0.00    -0.377 OA
BRANCH  37  38
ATOM     38  C   UNL A   1      46.293  33.227  28.347  1.00  0.00     0.188 C 
BRANCH  38  39
ATOM     39  C   UNL A   1      47.723  32.611  27.599  1.00  0.00     0.188 C 
BRANCH  39  40
ATOM     40  O   UNL A   1      49.031  32.334  28.134  1.00  0.00    -0.376 OA
BRANCH  40  41
ATOM     41  C   UNL A   1      50.121  31.650  27.499  1.00  0.00     0.202 C 
BRANCH  41  42
ATOM     42  C   UNL A   1      50.898  30.491  28.097  1.00  0.00     0.261 C 
BRANCH  42  43
ATOM     43  O   UNL A   1      50.508  30.194  29.400  1.00  0.00    -0.460 OA
BRANCH  43  44
ATOM     44  C   UNL A   1      51.407  30.320  30.385  1.00  0.00     0.338 C 
ATOM     45  O   UNL A   1      52.418  31.010  30.418  1.00  0.00    -0.246 OA
BRANCH  44  46
ATOM     46  C   UNL A   1      50.858  29.475  31.436  1.00  0.00     0.060 A 
ATOM     47  C   UNL A   1      51.427  28.246  31.756  1.00  0.00     0.016 A 
ATOM     48  C   UNL A   1      49.674  29.929  32.050  1.00  0.00     0.016 A 
ATOM     49  C   UNL A   1      50.633  27.366  32.457  1.00  0.00     0.010 A 
ATOM     50  C   UNL A   1      49.001  29.137  32.915  1.00  0.00     0.010 A 
ATOM     51  C   UNL A   1      49.373  27.819  32.866  1.00  0.00    -0.014 A 
BRANCH  51  52
ATOM     52  C   UNL A   1      48.238  26.933  32.899  1.00  0.00     0.031 A 
ATOM     53  C   UNL A   1      47.800  26.565  31.553  1.00  0.00     0.074 A 
ATOM     54  C   UNL A   1      47.814  26.462  34.098  1.00  0.00     0.049 A 
ATOM     55  N   UNL A   1      46.861  27.140  30.885  1.00  0.00    -0.248 NA
ATOM     56  C   UNL A   1      48.669  25.704  30.738  1.00  0.00     0.031 C 
ATOM     57  C   UNL A   1      48.408  26.626  35.440  1.00  0.00     0.029 A 
ATOM     58  N   UNL A   1      46.774  25.631  34.357  1.00  0.00    -0.354 N 
ATOM     59  C   UNL A   1      46.779  26.415  29.710  1.00  0.00     0.074 A 
ATOM     60  C   UNL A   1      48.071  25.804  29.547  1.00  0.00     0.031 C 
ATOM     61  C   UNL A   1      47.906  25.705  36.291  1.00  0.00     0.029 A 
ATOM     62  C   UNL A   1      46.812  25.039  35.627  1.00  0.00     0.049 A 
ATOM     63  H   UNL A   1      46.055  25.457  33.707  1.00  0.00     0.167 HD
ATOM     64  C   UNL A   1      45.552  26.086  29.221  1.00  0.00     0.037 A 
ATOM     65  C   UNL A   1      45.965  24.066  36.053  1.00  0.00     0.037 A 
ATOM     66  C   UNL A   1      44.527  26.893  29.866  1.00  0.00     0.049 A 
ATOM     67  C   UNL A   1      44.769  24.165  35.157  1.00  0.00     0.074 A 
ATOM     68  C   UNL A   1      44.326  28.254  30.007  1.00  0.00     0.029 A 
ATOM     69  N   UNL A   1      43.789  26.300  30.869  1.00  0.00    -0.354 N 
ATOM     70  N   UNL A   1      43.991  25.223  35.127  1.00  0.00    -0.248 NA
ATOM     71  C   UNL A   1      44.806  23.388  33.924  1.00  0.00     0.031 C 
ATOM     72  C   UNL A   1      43.886  28.427  31.354  1.00  0.00     0.029 A 
ATOM     73  C   UNL A   1      43.717  27.167  31.932  1.00  0.00     0.049 A 
ATOM     74  H   UNL A   1      43.380  25.405  30.828  1.00  0.00     0.167 HD
ATOM     75  C   UNL A   1      43.781  25.481  33.774  1.00  0.00     0.074 A 
ATOM     76  C   UNL A   1      44.279  24.287  33.084  1.00  0.00     0.031 C 
ATOM     77  C   UNL A   1      43.542  26.748  33.311  1.00  0.00     0.037 A 
BRANCH  64  78
ATOM     78  C   UNL A   1      45.228  24.777  28.536  1.00  0.00     0.058 A 
ATOM     79  C   UNL A   1      45.340  24.725  27.131  1.00  0.00     0.135 A 
ATOM     80  C   UNL A   1      44.559  23.683  29.130  1.00  0.00     0.135 A 
ATOM     81  F   UNL A   1      45.985  25.692  26.459  1.00  0.00    -0.206 F 
ATOM     82  C   UNL A   1      44.729  23.732  26.370  1.00  0.00     0.059 A 
ATOM     83  C   UNL A   1      43.980  22.659  28.392  1.00  0.00     0.059 A 
ATOM     84  F   UNL A   1      44.357  23.573  30.445  1.00  0.00    -0.206 F 
ATOM     85  C   UNL A   1      44.030  22.716  27.011  1.00  0.00     0.060 A 
BRANCH  85  86
ATOM     86  S   UNL A   1      43.159  21.490  26.027  1.00  0.00     0.124 S 
ATOM     87  O   UNL A   1      42.545  20.670  27.066  1.00  0.00    -0.237 OA
ATOM     88  O   UNL A   1      42.252  22.326  25.248  1.00  0.00    -0.237 OA
ATOM     89  O   UNL A   1      44.227  20.851  25.265  1.00  0.00    -0.744 OA
ENDBRANCH  85  86
ENDBRANCH  64  78
BRANCH  65  90
ATOM     90  C   UNL A   1      46.315  22.857  36.852  1.00  0.00     0.058 A 
ATOM     91  C   UNL A   1      47.311  21.962  36.423  1.00  0.00     0.135 A 
ATOM     92  C   UNL A   1      45.880  22.699  38.186  1.00  0.00     0.135 A 
ATOM     93  F   UNL A   1      47.786  22.036  35.170  1.00  0.00    -0.206 F 
ATOM     94  C   UNL A   1      47.888  21.013  37.280  1.00  0.00     0.059 A 
ATOM     95  C   UNL A   1      46.436  21.761  39.056  1.00  0.00     0.059 A 
ATOM     96  F   UNL A   1      44.958  23.516  38.716  1.00  0.00    -0.206 F 
ATOM     97  C   UNL A   1      47.461  20.939  38.606  1.00  0.00     0.060 A 
BRANCH  97  98
ATOM     98  S   UNL A   1      48.333  19.860  39.770  1.00  0.00     0.124 S 
ATOM     99  O   UNL A   1      47.605  20.102  41.012  1.00  0.00    -0.237 OA
ATOM    100  O   UNL A   1      48.148  18.545  39.169  1.00  0.00    -0.237 OA
ATOM    101  O   UNL A   1      49.702  20.368  39.743  1.00  0.00    -0.744 OA
ENDBRANCH  97  98
ENDBRANCH  65  90
BRANCH  77 102
ATOM    102  C   UNL A   1      43.255  27.853  34.310  1.00  0.00     0.058 A 
ATOM    103  C   UNL A   1      44.209  28.756  34.818  1.00  0.00     0.135 A 
ATOM    104  C   UNL A   1      41.912  28.123  34.613  1.00  0.00     0.135 A 
ATOM    105  F   UNL A   1      45.504  28.640  34.500  1.00  0.00    -0.206 F 
ATOM    106  C   UNL A   1      43.848  29.851  35.614  1.00  0.00     0.059 A 
ATOM    107  C   UNL A   1      41.527  29.220  35.379  1.00  0.00     0.059 A 
ATOM    108  F   UNL A   1      40.942  27.344  34.106  1.00  0.00    -0.206 F 
ATOM    109  C   UNL A   1      42.501  30.074  35.891  1.00  0.00     0.060 A 
BRANCH 109 110
ATOM    110  S   UNL A   1      42.020  31.508  36.881  1.00  0.00     0.124 S 
ATOM    111  O   UNL A   1      42.670  32.603  36.169  1.00  0.00    -0.237 OA
ATOM    112  O   UNL A   1      40.562  31.476  36.799  1.00  0.00    -0.237 OA
ATOM    113  O   UNL A   1      42.568  31.211  38.202  1.00  0.00    -0.744 OA
ENDBRANCH 109 110
ENDBRANCH  77 102
ENDBRANCH  51  52
ENDBRANCH  44  46
ENDBRANCH  43  44
ENDBRANCH  42  43
ENDBRANCH  41  42
ENDBRANCH  40  41
ENDBRANCH  39  40
ENDBRANCH  38  39
ENDBRANCH  37  38
ENDBRANCH   1  37
TORSDOF 29
ENDMDL
