MODEL 1
REMARK VINA RESULT:      -9.4      0.000      0.000
REMARK SMILES Cc1ccc(-c2nc(NC(=O)[C@H]3[C@@H](C(=O)OCCOCCOCCOCCOC(=O)c4ccc(-c5c6nc(c(-c7c(F)cc(S(=O)(=O)[O-])cc7F)c7ccc([nH]7)c(-c7c(F)cc(S(=O)(=O)[O-])cc7F)c7nc(c(-c8c(F)cc(S(=O)(=O)[O-])cc8F)c8ccc5[nH]8)C=C7)C=C6)cc4)[C@@H]4CC[C@H]3O4)sc2C)cc1
REMARK SMILES IDX 22 1 21 2 20 3 19 4 18 5 17 6 16 7 14 8 15 9 13 10 12 11
REMARK SMILES IDX 100 12 97 13 99 14 101 15 98 16 10 17 9 18 11 20 8 21 6 22
REMARK SMILES IDX 7 23 103 24 102 25 104 26 5 27 1 28 2 29 3 30 106 31 4 32
REMARK SMILES IDX 105 33 23 34 24 35 25 36 26 37 27 38 28 39 29 40 30 41 31 42
REMARK SMILES IDX 32 43 96 44 33 45 95 46 34 47 35 48 36 49 89 50 37 51 94 52
REMARK SMILES IDX 88 53 90 54 38 55 93 56 87 57 86 58 39 60 73 61 52 62 72 63
REMARK SMILES IDX 53 64 56 65 71 66 91 67 54 68 55 69 70 71 92 72 57 73 40 74
REMARK SMILES IDX 41 75 50 76 42 77 43 78 49 79 51 80 44 81 45 82 46 83 47 84
REMARK SMILES IDX 48 85 74 86 75 87 84 88 76 89 77 90 83 91 85 92 78 93 79 94
REMARK SMILES IDX 80 95 81 96 82 97 58 98 59 99 68 100 60 101 61 102 67 103
REMARK SMILES IDX 69 104 62 105 63 106 64 107 65 108 66 109
REMARK H PARENT 9 19 90 59 56 70
REMARK Flexibility Score: inf
ROOT
ATOM      1  O   UNL A   1      34.921  31.769  28.790  1.00  0.00    -0.377 OA
ENDROOT
BRANCH   1   2
ATOM      2  C   UNL A   1      35.625  30.954  27.836  1.00  0.00     0.188 C 
BRANCH   2   3
ATOM      3  C   UNL A   1      35.589  29.387  27.868  1.00  0.00     0.188 C 
BRANCH   3   4
ATOM      4  O   UNL A   1      34.548  28.685  27.191  1.00  0.00    -0.376 OA
BRANCH   4   5
ATOM      5  C   UNL A   1      33.533  29.515  26.713  1.00  0.00     0.202 C 
BRANCH   5   6
ATOM      6  C   UNL A   1      33.555  29.849  25.270  1.00  0.00     0.261 C 
BRANCH   6   7
ATOM      7  O   UNL A   1      32.784  28.943  24.480  1.00  0.00    -0.463 OA
BRANCH   7   8
ATOM      8  C   UNL A   1      32.997  27.664  24.166  1.00  0.00     0.312 C 
ATOM      9  O   UNL A   1      33.772  27.411  23.235  1.00  0.00    -0.252 OA
BRANCH   8  10
ATOM     10  C   UNL A   1      32.211  26.506  24.738  1.00  0.00     0.143 C 
ATOM     11  C   UNL A   1      31.738  25.264  24.002  1.00  0.00     0.124 C 
ATOM     12  C   UNL A   1      30.223  25.640  23.753  1.00  0.00     0.132 C 
ATOM     13  C   UNL A   1      30.880  27.091  25.223  1.00  0.00     0.133 C 
ATOM     14  C   UNL A   1      29.391  25.245  24.970  1.00  0.00     0.035 C 
ATOM     15  O   UNL A   1      30.162  27.072  23.979  1.00  0.00    -0.373 OA
ATOM     16  C   UNL A   1      30.084  26.074  26.058  1.00  0.00     0.036 C 
BRANCH  11  17
ATOM     17  C   UNL A   1      32.420  24.644  22.804  1.00  0.00     0.232 C 
ATOM     18  N   UNL A   1      33.282  23.595  22.769  1.00  0.00    -0.302 N 
ATOM     19  H   UNL A   1      33.414  23.250  21.856  1.00  0.00     0.172 HD
ATOM     20  O   UNL A   1      32.164  25.152  21.702  1.00  0.00    -0.274 OA
BRANCH  18  21
ATOM     21  C   UNL A   1      34.016  22.899  23.697  1.00  0.00     0.190 A 
ATOM     22  C   UNL A   1      35.831  22.599  25.149  1.00  0.00     0.086 A 
ATOM     23  N   UNL A   1      35.251  23.220  24.030  1.00  0.00    -0.220 NA
ATOM     24  C   UNL A   1      34.532  21.974  25.769  1.00  0.00     0.031 A 
ATOM     25  S   UNL A   1      33.419  21.558  24.443  1.00  0.00    -0.101 S 
ATOM     26  C   UNL A   1      33.883  21.462  27.094  1.00  0.00     0.059 C 
BRANCH  22  27
ATOM     27  C   UNL A   1      37.660  22.763  25.667  1.00  0.00     0.001 A 
ATOM     28  C   UNL A   1      41.232  22.174  28.365  1.00  0.00     0.044 C 
ATOM     29  C   UNL A   1      40.258  22.533  27.292  1.00  0.00    -0.051 A 
ATOM     30  C   UNL A   1      39.546  23.705  27.188  1.00  0.00     0.004 A 
ATOM     31  C   UNL A   1      39.943  21.614  26.345  1.00  0.00     0.004 A 
ATOM     32  C   UNL A   1      38.361  23.815  26.349  1.00  0.00     0.010 A 
ATOM     33  C   UNL A   1      38.750  21.753  25.591  1.00  0.00     0.010 A 
ENDBRANCH  22  27
ENDBRANCH  18  21
ENDBRANCH  11  17
ENDBRANCH   8  10
ENDBRANCH   7   8
ENDBRANCH   6   7
ENDBRANCH   5   6
ENDBRANCH   4   5
ENDBRANCH   3   4
ENDBRANCH   2   3
ENDBRANCH   1   2
BRANCH   1  34
ATOM     34  C   UNL A   1      35.596  32.164  30.005  1.00  0.00     0.188 C 
BRANCH  34  35
ATOM     35  C   UNL A   1      34.656  32.881  30.981  1.00  0.00     0.188 C 
BRANCH  35  36
ATOM     36  O   UNL A   1      34.651  34.285  30.738  1.00  0.00    -0.376 OA
BRANCH  36  37
ATOM     37  C   UNL A   1      33.966  35.094  31.673  1.00  0.00     0.202 C 
BRANCH  37  38
ATOM     38  C   UNL A   1      34.139  34.449  33.021  1.00  0.00     0.261 C 
BRANCH  38  39
ATOM     39  O   UNL A   1      35.492  34.778  33.469  1.00  0.00    -0.460 OA
BRANCH  39  40
ATOM     40  C   UNL A   1      36.169  33.884  34.263  1.00  0.00     0.338 C 
ATOM     41  O   UNL A   1      35.847  33.672  35.423  1.00  0.00    -0.246 OA
BRANCH  40  42
ATOM     42  C   UNL A   1      37.207  33.040  33.547  1.00  0.00     0.060 A 
ATOM     43  C   UNL A   1      37.148  31.636  33.572  1.00  0.00     0.016 A 
ATOM     44  C   UNL A   1      38.302  33.616  32.913  1.00  0.00     0.016 A 
ATOM     45  C   UNL A   1      38.236  30.843  33.121  1.00  0.00     0.010 A 
ATOM     46  C   UNL A   1      39.384  32.830  32.483  1.00  0.00     0.010 A 
ATOM     47  C   UNL A   1      39.436  31.446  32.689  1.00  0.00    -0.014 A 
BRANCH  47  48
ATOM     48  C   UNL A   1      40.784  30.734  32.675  1.00  0.00     0.031 A 
ATOM     49  C   UNL A   1      41.290  30.011  31.177  1.00  0.00     0.074 A 
ATOM     50  C   UNL A   1      41.570  30.782  33.830  1.00  0.00     0.049 A 
ATOM     51  N   UNL A   1      42.458  29.958  30.559  1.00  0.00    -0.248 NA
ATOM     52  C   UNL A   1      40.377  29.199  30.376  1.00  0.00     0.031 C 
ATOM     53  C   UNL A   1      42.428  29.714  34.227  1.00  0.00     0.029 A 
ATOM     54  N   UNL A   1      41.910  31.737  34.871  1.00  0.00    -0.354 N 
ATOM     55  C   UNL A   1      42.650  28.744  29.728  1.00  0.00     0.074 A 
ATOM     56  C   UNL A   1      41.182  28.557  29.494  1.00  0.00     0.031 C 
ATOM     57  C   UNL A   1      43.394  30.172  34.969  1.00  0.00     0.029 A 
ATOM     58  C   UNL A   1      43.144  31.414  35.517  1.00  0.00     0.049 A 
ATOM     59  H   UNL A   1      41.355  32.516  35.103  1.00  0.00     0.167 HD
ATOM     60  C   UNL A   1      43.895  27.799  29.564  1.00  0.00     0.037 A 
ATOM     61  C   UNL A   1      44.118  31.788  36.417  1.00  0.00     0.037 A 
ATOM     62  C   UNL A   1      45.482  27.807  30.480  1.00  0.00     0.049 A 
ATOM     63  C   UNL A   1      45.499  30.742  36.402  1.00  0.00     0.074 A 
ATOM     64  C   UNL A   1      46.884  27.894  30.234  1.00  0.00     0.029 A 
ATOM     65  N   UNL A   1      45.750  27.825  32.041  1.00  0.00    -0.354 N 
ATOM     66  N   UNL A   1      45.512  29.461  35.965  1.00  0.00    -0.248 NA
ATOM     67  C   UNL A   1      46.920  31.094  36.587  1.00  0.00     0.031 C 
ATOM     68  C   UNL A   1      47.720  28.171  31.511  1.00  0.00     0.029 A 
ATOM     69  C   UNL A   1      46.928  28.232  32.657  1.00  0.00     0.049 A 
ATOM     70  H   UNL A   1      45.019  27.521  32.627  1.00  0.00     0.167 HD
ATOM     71  C   UNL A   1      46.640  29.269  35.110  1.00  0.00     0.074 A 
ATOM     72  C   UNL A   1      47.563  30.151  35.839  1.00  0.00     0.031 C 
ATOM     73  C   UNL A   1      46.934  28.164  34.271  1.00  0.00     0.037 A 
BRANCH  60  74
ATOM     74  C   UNL A   1      43.774  26.698  28.388  1.00  0.00     0.058 A 
ATOM     75  C   UNL A   1      43.635  25.333  28.706  1.00  0.00     0.135 A 
ATOM     76  C   UNL A   1      43.885  26.884  26.979  1.00  0.00     0.135 A 
ATOM     77  F   UNL A   1      43.367  24.930  29.951  1.00  0.00    -0.206 F 
ATOM     78  C   UNL A   1      43.748  24.285  27.767  1.00  0.00     0.059 A 
ATOM     79  C   UNL A   1      43.961  25.868  26.020  1.00  0.00     0.059 A 
ATOM     80  F   UNL A   1      43.932  28.055  26.370  1.00  0.00    -0.206 F 
ATOM     81  C   UNL A   1      43.952  24.561  26.426  1.00  0.00     0.060 A 
BRANCH  81  82
ATOM     82  S   UNL A   1      44.188  23.240  25.231  1.00  0.00     0.124 S 
ATOM     83  O   UNL A   1      42.812  22.945  24.842  1.00  0.00    -0.237 OA
ATOM     84  O   UNL A   1      45.018  23.881  24.218  1.00  0.00    -0.237 OA
ATOM     85  O   UNL A   1      44.852  22.191  26.003  1.00  0.00    -0.744 OA
ENDBRANCH  81  82
ENDBRANCH  60  74
BRANCH  61  86
ATOM     86  C   UNL A   1      43.691  33.092  37.092  1.00  0.00     0.058 A 
ATOM     87  C   UNL A   1      43.708  34.354  36.465  1.00  0.00     0.135 A 
ATOM     88  C   UNL A   1      42.606  32.911  37.995  1.00  0.00     0.135 A 
ATOM     89  F   UNL A   1      44.792  34.738  35.776  1.00  0.00    -0.206 F 
ATOM     90  C   UNL A   1      42.592  35.238  36.497  1.00  0.00     0.059 A 
ATOM     91  C   UNL A   1      41.469  33.731  37.993  1.00  0.00     0.059 A 
ATOM     92  F   UNL A   1      42.524  31.770  38.697  1.00  0.00    -0.206 F 
ATOM     93  C   UNL A   1      41.444  34.869  37.199  1.00  0.00     0.060 A 
BRANCH  93  94
ATOM     94  S   UNL A   1      39.848  35.715  36.976  1.00  0.00     0.124 S 
ATOM     95  O   UNL A   1      40.146  36.654  35.894  1.00  0.00    -0.237 OA
ATOM     96  O   UNL A   1      38.922  34.640  36.650  1.00  0.00    -0.237 OA
ATOM     97  O   UNL A   1      39.645  36.312  38.292  1.00  0.00    -0.744 OA
ENDBRANCH  93  94
ENDBRANCH  61  86
BRANCH  73  98
ATOM     98  C   UNL A   1      46.657  26.741  34.863  1.00  0.00     0.058 A 
ATOM     99  C   UNL A   1      47.664  25.793  35.156  1.00  0.00     0.135 A 
ATOM    100  C   UNL A   1      45.334  26.230  34.972  1.00  0.00     0.135 A 
ATOM    101  F   UNL A   1      48.967  26.096  35.058  1.00  0.00    -0.206 F 
ATOM    102  C   UNL A   1      47.376  24.450  35.449  1.00  0.00     0.059 A 
ATOM    103  C   UNL A   1      45.026  24.918  35.308  1.00  0.00     0.059 A 
ATOM    104  F   UNL A   1      44.256  26.953  34.654  1.00  0.00    -0.206 F 
ATOM    105  C   UNL A   1      46.054  24.017  35.465  1.00  0.00     0.060 A 
BRANCH 105 106
ATOM    106  S   UNL A   1      45.693  22.252  35.436  1.00  0.00     0.124 S 
ATOM    107  O   UNL A   1      45.561  21.968  36.859  1.00  0.00    -0.237 OA
ATOM    108  O   UNL A   1      44.480  22.176  34.648  1.00  0.00    -0.237 OA
ATOM    109  O   UNL A   1      46.892  21.673  34.797  1.00  0.00    -0.744 OA
ENDBRANCH 105 106
ENDBRANCH  73  98
ENDBRANCH  47  48
ENDBRANCH  40  42
ENDBRANCH  39  40
ENDBRANCH  38  39
ENDBRANCH  37  38
ENDBRANCH  36  37
ENDBRANCH  35  36
ENDBRANCH  34  35
ENDBRANCH   1  34
TORSDOF 26
ENDMDL
MODEL 2
REMARK VINA RESULT:      -9.2      2.062      4.381
REMARK SMILES Cc1ccc(-c2nc(NC(=O)[C@H]3[C@@H](C(=O)OCCOCCOCCOCCOC(=O)c4ccc(-c5c6nc(c(-c7c(F)cc(S(=O)(=O)[O-])cc7F)c7ccc([nH]7)c(-c7c(F)cc(S(=O)(=O)[O-])cc7F)c7nc(c(-c8c(F)cc(S(=O)(=O)[O-])cc8F)c8ccc5[nH]8)C=C7)C=C6)cc4)[C@@H]4CC[C@H]3O4)sc2C)cc1
REMARK SMILES IDX 22 1 21 2 20 3 19 4 18 5 17 6 16 7 14 8 15 9 13 10 12 11
REMARK SMILES IDX 100 12 97 13 99 14 101 15 98 16 10 17 9 18 11 20 8 21 6 22
REMARK SMILES IDX 7 23 103 24 102 25 104 26 5 27 1 28 2 29 3 30 106 31 4 32
REMARK SMILES IDX 105 33 23 34 24 35 25 36 26 37 27 38 28 39 29 40 30 41 31 42
REMARK SMILES IDX 32 43 96 44 33 45 95 46 34 47 35 48 36 49 89 50 37 51 94 52
REMARK SMILES IDX 88 53 90 54 38 55 93 56 87 57 86 58 39 60 73 61 52 62 72 63
REMARK SMILES IDX 53 64 56 65 71 66 91 67 54 68 55 69 70 71 92 72 57 73 40 74
REMARK SMILES IDX 41 75 50 76 42 77 43 78 49 79 51 80 44 81 45 82 46 83 47 84
REMARK SMILES IDX 48 85 74 86 75 87 84 88 76 89 77 90 83 91 85 92 78 93 79 94
REMARK SMILES IDX 80 95 81 96 82 97 58 98 59 99 68 100 60 101 61 102 67 103
REMARK SMILES IDX 69 104 62 105 63 106 64 107 65 108 66 109
REMARK H PARENT 9 19 90 59 56 70
REMARK Flexibility Score: inf
ROOT
ATOM      1  O   UNL A   1      34.949  32.331  28.834  1.00  0.00    -0.377 OA
ENDROOT
BRANCH   1   2
ATOM      2  C   UNL A   1      35.698  31.499  27.930  1.00  0.00     0.188 C 
BRANCH   2   3
ATOM      3  C   UNL A   1      35.374  29.982  27.706  1.00  0.00     0.188 C 
BRANCH   3   4
ATOM      4  O   UNL A   1      36.429  29.022  27.697  1.00  0.00    -0.376 OA
BRANCH   4   5
ATOM      5  C   UNL A   1      37.608  29.484  28.284  1.00  0.00     0.202 C 
BRANCH   5   6
ATOM      6  C   UNL A   1      38.059  28.806  29.522  1.00  0.00     0.261 C 
BRANCH   6   7
ATOM      7  O   UNL A   1      39.136  27.896  29.295  1.00  0.00    -0.463 OA
BRANCH   7   8
ATOM      8  C   UNL A   1      39.149  26.686  28.732  1.00  0.00     0.312 C 
ATOM      9  O   UNL A   1      38.880  25.708  29.439  1.00  0.00    -0.252 OA
BRANCH   8  10
ATOM     10  C   UNL A   1      39.658  26.404  27.336  1.00  0.00     0.143 C 
ATOM     11  C   UNL A   1      40.271  25.111  26.826  1.00  0.00     0.124 C 
ATOM     12  C   UNL A   1      41.806  25.485  26.871  1.00  0.00     0.132 C 
ATOM     13  C   UNL A   1      40.804  27.394  27.091  1.00  0.00     0.133 C 
ATOM     14  C   UNL A   1      42.200  26.191  25.577  1.00  0.00     0.035 C 
ATOM     15  O   UNL A   1      41.869  26.662  27.717  1.00  0.00    -0.373 OA
ATOM     16  C   UNL A   1      41.248  27.393  25.619  1.00  0.00     0.036 C 
BRANCH  11  17
ATOM     17  C   UNL A   1      39.962  23.729  27.353  1.00  0.00     0.232 C 
ATOM     18  N   UNL A   1      38.998  22.862  26.945  1.00  0.00    -0.302 N 
ATOM     19  H   UNL A   1      39.141  21.953  27.295  1.00  0.00     0.172 HD
ATOM     20  O   UNL A   1      40.678  23.321  28.280  1.00  0.00    -0.274 OA
BRANCH  18  21
ATOM     21  C   UNL A   1      37.872  22.947  26.165  1.00  0.00     0.190 A 
ATOM     22  C   UNL A   1      35.950  24.014  25.352  1.00  0.00     0.086 A 
ATOM     23  N   UNL A   1      36.939  23.863  26.338  1.00  0.00    -0.220 NA
ATOM     24  C   UNL A   1      36.627  23.174  24.212  1.00  0.00     0.031 A 
ATOM     25  S   UNL A   1      37.569  21.863  24.963  1.00  0.00    -0.101 S 
ATOM     26  C   UNL A   1      36.697  22.965  22.666  1.00  0.00     0.059 C 
BRANCH  22  27
ATOM     27  C   UNL A   1      34.405  25.122  25.510  1.00  0.00     0.001 A 
ATOM     28  C   UNL A   1      31.708  28.147  27.499  1.00  0.00     0.044 C 
ATOM     29  C   UNL A   1      32.368  27.138  26.621  1.00  0.00    -0.051 A 
ATOM     30  C   UNL A   1      32.149  25.780  26.621  1.00  0.00     0.004 A 
ATOM     31  C   UNL A   1      33.353  27.533  25.776  1.00  0.00     0.004 A 
ATOM     32  C   UNL A   1      33.090  24.847  26.018  1.00  0.00     0.010 A 
ATOM     33  C   UNL A   1      34.268  26.581  25.257  1.00  0.00     0.010 A 
ENDBRANCH  22  27
ENDBRANCH  18  21
ENDBRANCH  11  17
ENDBRANCH   8  10
ENDBRANCH   7   8
ENDBRANCH   6   7
ENDBRANCH   5   6
ENDBRANCH   4   5
ENDBRANCH   3   4
ENDBRANCH   2   3
ENDBRANCH   1   2
BRANCH   1  34
ATOM     34  C   UNL A   1      35.475  32.574  30.157  1.00  0.00     0.188 C 
BRANCH  34  35
ATOM     35  C   UNL A   1      34.477  33.323  31.048  1.00  0.00     0.188 C 
BRANCH  35  36
ATOM     36  O   UNL A   1      34.636  34.732  30.911  1.00  0.00    -0.376 OA
BRANCH  36  37
ATOM     37  C   UNL A   1      34.095  35.540  31.936  1.00  0.00     0.202 C 
BRANCH  37  38
ATOM     38  C   UNL A   1      34.313  34.809  33.233  1.00  0.00     0.261 C 
BRANCH  38  39
ATOM     39  O   UNL A   1      35.706  35.046  33.613  1.00  0.00    -0.460 OA
BRANCH  39  40
ATOM     40  C   UNL A   1      36.344  34.131  34.416  1.00  0.00     0.338 C 
ATOM     41  O   UNL A   1      35.885  33.781  35.494  1.00  0.00    -0.246 OA
BRANCH  40  42
ATOM     42  C   UNL A   1      37.542  33.444  33.788  1.00  0.00     0.060 A 
ATOM     43  C   UNL A   1      37.545  32.059  33.547  1.00  0.00     0.016 A 
ATOM     44  C   UNL A   1      38.714  34.138  33.505  1.00  0.00     0.016 A 
ATOM     45  C   UNL A   1      38.737  31.374  33.193  1.00  0.00     0.010 A 
ATOM     46  C   UNL A   1      39.894  33.455  33.171  1.00  0.00     0.010 A 
ATOM     47  C   UNL A   1      39.970  32.058  33.132  1.00  0.00    -0.014 A 
BRANCH  47  48
ATOM     48  C   UNL A   1      41.325  31.373  33.266  1.00  0.00     0.031 A 
ATOM     49  C   UNL A   1      42.045  30.736  31.817  1.00  0.00     0.074 A 
ATOM     50  C   UNL A   1      41.948  31.378  34.517  1.00  0.00     0.049 A 
ATOM     51  N   UNL A   1      43.287  30.737  31.360  1.00  0.00    -0.248 NA
ATOM     52  C   UNL A   1      41.269  29.948  30.863  1.00  0.00     0.031 C 
ATOM     53  C   UNL A   1      42.773  30.309  34.974  1.00  0.00     0.029 A 
ATOM     54  N   UNL A   1      42.121  32.286  35.638  1.00  0.00    -0.354 N 
ATOM     55  C   UNL A   1      43.619  29.570  30.506  1.00  0.00     0.074 A 
ATOM     56  C   UNL A   1      42.200  29.366  30.068  1.00  0.00     0.031 C 
ATOM     57  C   UNL A   1      43.619  30.748  35.861  1.00  0.00     0.029 A 
ATOM     58  C   UNL A   1      43.266  31.955  36.428  1.00  0.00     0.049 A 
ATOM     59  H   UNL A   1      41.521  33.042  35.830  1.00  0.00     0.167 HD
ATOM     60  C   UNL A   1      44.899  28.659  30.466  1.00  0.00     0.037 A 
ATOM     61  C   UNL A   1      44.102  32.302  37.468  1.00  0.00     0.037 A 
ATOM     62  C   UNL A   1      46.348  28.651  31.588  1.00  0.00     0.049 A 
ATOM     63  C   UNL A   1      45.499  31.285  37.590  1.00  0.00     0.074 A 
ATOM     64  C   UNL A   1      47.767  28.777  31.536  1.00  0.00     0.029 A 
ATOM     65  N   UNL A   1      46.405  28.595  33.170  1.00  0.00    -0.354 N 
ATOM     66  N   UNL A   1      45.602  30.028  37.098  1.00  0.00    -0.248 NA
ATOM     67  C   UNL A   1      46.872  31.654  37.980  1.00  0.00     0.031 C 
ATOM     68  C   UNL A   1      48.418  29.006  32.926  1.00  0.00     0.029 A 
ATOM     69  C   UNL A   1      47.479  28.994  33.957  1.00  0.00     0.049 A 
ATOM     70  H   UNL A   1      45.610  28.249  33.637  1.00  0.00     0.167 HD
ATOM     71  C   UNL A   1      46.840  29.900  36.395  1.00  0.00     0.074 A 
ATOM     72  C   UNL A   1      47.634  30.762  37.282  1.00  0.00     0.031 C 
ATOM     73  C   UNL A   1      47.271  28.846  35.551  1.00  0.00     0.037 A 
BRANCH  60  74
ATOM     74  C   UNL A   1      44.964  27.616  29.234  1.00  0.00     0.058 A 
ATOM     75  C   UNL A   1      44.868  26.231  29.472  1.00  0.00     0.135 A 
ATOM     76  C   UNL A   1      45.212  27.880  27.856  1.00  0.00     0.135 A 
ATOM     77  F   UNL A   1      44.494  25.750  30.661  1.00  0.00    -0.206 F 
ATOM     78  C   UNL A   1      45.138  25.241  28.503  1.00  0.00     0.059 A 
ATOM     79  C   UNL A   1      45.446  26.921  26.864  1.00  0.00     0.059 A 
ATOM     80  F   UNL A   1      45.257  29.082  27.310  1.00  0.00    -0.206 F 
ATOM     81  C   UNL A   1      45.467  25.596  27.205  1.00  0.00     0.060 A 
BRANCH  81  82
ATOM     82  S   UNL A   1      45.901  24.353  25.984  1.00  0.00     0.124 S 
ATOM     83  O   UNL A   1      47.182  23.872  26.496  1.00  0.00    -0.237 OA
ATOM     84  O   UNL A   1      44.784  23.421  26.076  1.00  0.00    -0.237 OA
ATOM     85  O   UNL A   1      45.978  25.108  24.734  1.00  0.00    -0.744 OA
ENDBRANCH  81  82
ENDBRANCH  60  74
BRANCH  61  86
ATOM     86  C   UNL A   1      43.555  33.562  38.139  1.00  0.00     0.058 A 
ATOM     87  C   UNL A   1      43.584  34.848  37.562  1.00  0.00     0.135 A 
ATOM     88  C   UNL A   1      42.391  33.306  38.918  1.00  0.00     0.135 A 
ATOM     89  F   UNL A   1      44.716  35.298  37.003  1.00  0.00    -0.206 F 
ATOM     90  C   UNL A   1      42.436  35.687  37.509  1.00  0.00     0.059 A 
ATOM     91  C   UNL A   1      41.228  34.082  38.828  1.00  0.00     0.059 A 
ATOM     92  F   UNL A   1      42.285  32.136  39.568  1.00  0.00    -0.206 F 
ATOM     93  C   UNL A   1      41.238  35.249  38.075  1.00  0.00     0.060 A 
BRANCH  93  94
ATOM     94  S   UNL A   1      39.639  36.043  37.717  1.00  0.00     0.124 S 
ATOM     95  O   UNL A   1      39.787  36.411  36.309  1.00  0.00    -0.237 OA
ATOM     96  O   UNL A   1      38.659  35.007  38.007  1.00  0.00    -0.237 OA
ATOM     97  O   UNL A   1      39.645  37.154  38.664  1.00  0.00    -0.744 OA
ENDBRANCH  93  94
ENDBRANCH  61  86
BRANCH  73  98
ATOM     98  C   UNL A   1      46.954  27.389  36.033  1.00  0.00     0.058 A 
ATOM     99  C   UNL A   1      47.937  26.447  36.414  1.00  0.00     0.135 A 
ATOM    100  C   UNL A   1      45.642  26.848  35.938  1.00  0.00     0.135 A 
ATOM    101  F   UNL A   1      49.233  26.780  36.508  1.00  0.00    -0.206 F 
ATOM    102  C   UNL A   1      47.648  25.086  36.603  1.00  0.00     0.059 A 
ATOM    103  C   UNL A   1      45.326  25.515  36.168  1.00  0.00     0.059 A 
ATOM    104  F   UNL A   1      44.598  27.565  35.512  1.00  0.00    -0.206 F 
ATOM    105  C   UNL A   1      46.347  24.627  36.419  1.00  0.00     0.060 A 
BRANCH 105 106
ATOM    106  S   UNL A   1      46.039  22.859  36.259  1.00  0.00     0.124 S 
ATOM    107  O   UNL A   1      47.024  22.491  35.251  1.00  0.00    -0.237 OA
ATOM    108  O   UNL A   1      46.271  22.361  37.599  1.00  0.00    -0.237 OA
ATOM    109  O   UNL A   1      44.635  22.802  35.804  1.00  0.00    -0.744 OA
ENDBRANCH 105 106
ENDBRANCH  73  98
ENDBRANCH  47  48
ENDBRANCH  40  42
ENDBRANCH  39  40
ENDBRANCH  38  39
ENDBRANCH  37  38
ENDBRANCH  36  37
ENDBRANCH  35  36
ENDBRANCH  34  35
ENDBRANCH   1  34
TORSDOF 26
ENDMDL
MODEL 3
REMARK VINA RESULT:      -9.1      5.241      8.955
REMARK SMILES Cc1ccc(-c2nc(NC(=O)[C@H]3[C@@H](C(=O)OCCOCCOCCOCCOC(=O)c4ccc(-c5c6nc(c(-c7c(F)cc(S(=O)(=O)[O-])cc7F)c7ccc([nH]7)c(-c7c(F)cc(S(=O)(=O)[O-])cc7F)c7nc(c(-c8c(F)cc(S(=O)(=O)[O-])cc8F)c8ccc5[nH]8)C=C7)C=C6)cc4)[C@@H]4CC[C@H]3O4)sc2C)cc1
REMARK SMILES IDX 22 1 21 2 20 3 19 4 18 5 17 6 16 7 14 8 15 9 13 10 12 11
REMARK SMILES IDX 100 12 97 13 99 14 101 15 98 16 10 17 9 18 11 20 8 21 6 22
REMARK SMILES IDX 7 23 103 24 102 25 104 26 5 27 1 28 2 29 3 30 106 31 4 32
REMARK SMILES IDX 105 33 23 34 24 35 25 36 26 37 27 38 28 39 29 40 30 41 31 42
REMARK SMILES IDX 32 43 96 44 33 45 95 46 34 47 35 48 36 49 89 50 37 51 94 52
REMARK SMILES IDX 88 53 90 54 38 55 93 56 87 57 86 58 39 60 73 61 52 62 72 63
REMARK SMILES IDX 53 64 56 65 71 66 91 67 54 68 55 69 70 71 92 72 57 73 40 74
REMARK SMILES IDX 41 75 50 76 42 77 43 78 49 79 51 80 44 81 45 82 46 83 47 84
REMARK SMILES IDX 48 85 74 86 75 87 84 88 76 89 77 90 83 91 85 92 78 93 79 94
REMARK SMILES IDX 80 95 81 96 82 97 58 98 59 99 68 100 60 101 61 102 67 103
REMARK SMILES IDX 69 104 62 105 63 106 64 107 65 108 66 109
REMARK H PARENT 9 19 90 59 56 70
REMARK Flexibility Score: inf
ROOT
ATOM      1  O   UNL A   1      41.895  22.216  27.210  1.00  0.00    -0.377 OA
ENDROOT
BRANCH   1   2
ATOM      2  C   UNL A   1      40.664  21.495  27.393  1.00  0.00     0.188 C 
BRANCH   2   3
ATOM      3  C   UNL A   1      39.881  20.835  26.206  1.00  0.00     0.188 C 
BRANCH   3   4
ATOM      4  O   UNL A   1      38.752  21.499  25.641  1.00  0.00    -0.376 OA
BRANCH   4   5
ATOM      5  C   UNL A   1      38.547  22.782  26.149  1.00  0.00     0.202 C 
BRANCH   5   6
ATOM      6  C   UNL A   1      37.399  23.548  25.610  1.00  0.00     0.261 C 
BRANCH   6   7
ATOM      7  O   UNL A   1      36.328  22.709  25.176  1.00  0.00    -0.463 OA
BRANCH   7   8
ATOM      8  C   UNL A   1      35.614  22.723  24.049  1.00  0.00     0.312 C 
ATOM      9  O   UNL A   1      36.110  23.253  23.048  1.00  0.00    -0.252 OA
BRANCH   8  10
ATOM     10  C   UNL A   1      34.162  22.309  23.957  1.00  0.00     0.143 C 
ATOM     11  C   UNL A   1      33.018  23.100  23.348  1.00  0.00     0.124 C 
ATOM     12  C   UNL A   1      32.346  23.684  24.655  1.00  0.00     0.132 C 
ATOM     13  C   UNL A   1      33.674  22.142  25.401  1.00  0.00     0.133 C 
ATOM     14  C   UNL A   1      31.355  22.670  25.218  1.00  0.00     0.035 C 
ATOM     15  O   UNL A   1      33.351  23.511  25.688  1.00  0.00    -0.373 OA
ATOM     16  C   UNL A   1      32.288  21.476  25.458  1.00  0.00     0.036 C 
BRANCH  11  17
ATOM     17  C   UNL A   1      33.149  24.105  22.227  1.00  0.00     0.232 C 
ATOM     18  N   UNL A   1      32.983  25.453  22.273  1.00  0.00    -0.302 N 
ATOM     19  H   UNL A   1      33.333  25.900  21.468  1.00  0.00     0.172 HD
ATOM     20  O   UNL A   1      33.447  23.650  21.113  1.00  0.00    -0.274 OA
BRANCH  18  21
ATOM     21  C   UNL A   1      32.445  26.343  23.169  1.00  0.00     0.190 A 
ATOM     22  C   UNL A   1      32.563  28.057  24.763  1.00  0.00     0.086 A 
ATOM     23  N   UNL A   1      33.165  27.003  24.054  1.00  0.00    -0.220 NA
ATOM     24  C   UNL A   1      31.272  28.220  23.887  1.00  0.00     0.031 A 
ATOM     25  S   UNL A   1      30.824  26.622  23.242  1.00  0.00    -0.101 S 
ATOM     26  C   UNL A   1      30.153  29.221  23.458  1.00  0.00     0.059 C 
BRANCH  22  27
ATOM     27  C   UNL A   1      33.360  28.989  26.225  1.00  0.00     0.001 A 
ATOM     28  C   UNL A   1      35.911  32.167  28.168  1.00  0.00     0.044 C 
ATOM     29  C   UNL A   1      35.025  31.016  27.826  1.00  0.00    -0.051 A 
ATOM     30  C   UNL A   1      35.408  29.706  27.655  1.00  0.00     0.004 A 
ATOM     31  C   UNL A   1      33.713  31.241  27.565  1.00  0.00     0.004 A 
ATOM     32  C   UNL A   1      34.568  28.741  26.962  1.00  0.00     0.010 A 
ATOM     33  C   UNL A   1      32.958  30.280  26.844  1.00  0.00     0.010 A 
ENDBRANCH  22  27
ENDBRANCH  18  21
ENDBRANCH  11  17
ENDBRANCH   8  10
ENDBRANCH   7   8
ENDBRANCH   6   7
ENDBRANCH   5   6
ENDBRANCH   4   5
ENDBRANCH   3   4
ENDBRANCH   2   3
ENDBRANCH   1   2
BRANCH   1  34
ATOM     34  C   UNL A   1      42.705  22.522  28.367  1.00  0.00     0.188 C 
BRANCH  34  35
ATOM     35  C   UNL A   1      43.881  23.443  28.023  1.00  0.00     0.188 C 
BRANCH  35  36
ATOM     36  O   UNL A   1      44.521  23.019  26.824  1.00  0.00    -0.376 OA
BRANCH  36  37
ATOM     37  C   UNL A   1      44.852  24.021  25.884  1.00  0.00     0.202 C 
BRANCH  37  38
ATOM     38  C   UNL A   1      43.681  24.148  24.948  1.00  0.00     0.261 C 
BRANCH  38  39
ATOM     39  O   UNL A   1      43.220  25.533  25.045  1.00  0.00    -0.460 OA
BRANCH  39  40
ATOM     40  C   UNL A   1      42.074  25.808  25.752  1.00  0.00     0.338 C 
ATOM     41  O   UNL A   1      41.116  25.048  25.757  1.00  0.00    -0.246 OA
BRANCH  40  42
ATOM     42  C   UNL A   1      42.156  27.009  26.676  1.00  0.00     0.060 A 
ATOM     43  C   UNL A   1      41.658  28.264  26.287  1.00  0.00     0.016 A 
ATOM     44  C   UNL A   1      42.804  26.938  27.905  1.00  0.00     0.016 A 
ATOM     45  C   UNL A   1      41.947  29.436  27.033  1.00  0.00     0.010 A 
ATOM     46  C   UNL A   1      43.102  28.102  28.632  1.00  0.00     0.010 A 
ATOM     47  C   UNL A   1      42.798  29.383  28.157  1.00  0.00    -0.014 A 
BRANCH  47  48
ATOM     48  C   UNL A   1      43.560  30.587  28.700  1.00  0.00     0.031 A 
ATOM     49  C   UNL A   1      44.790  31.278  27.685  1.00  0.00     0.074 A 
ATOM     50  C   UNL A   1      43.166  31.118  29.932  1.00  0.00     0.049 A 
ATOM     51  N   UNL A   1      45.133  32.528  27.418  1.00  0.00    -0.248 NA
ATOM     52  C   UNL A   1      45.766  30.441  26.992  1.00  0.00     0.031 C 
ATOM     53  C   UNL A   1      44.085  31.713  30.846  1.00  0.00     0.029 A 
ATOM     54  N   UNL A   1      41.934  31.374  30.659  1.00  0.00    -0.354 N 
ATOM     55  C   UNL A   1      46.570  32.708  27.095  1.00  0.00     0.074 A 
ATOM     56  C   UNL A   1      46.727  31.307  26.586  1.00  0.00     0.031 C 
ATOM     57  C   UNL A   1      43.463  32.563  31.612  1.00  0.00     0.029 A 
ATOM     58  C   UNL A   1      42.095  32.389  31.652  1.00  0.00     0.049 A 
ATOM     59  H   UNL A   1      41.088  30.902  30.486  1.00  0.00     0.167 HD
ATOM     60  C   UNL A   1      47.594  33.809  27.551  1.00  0.00     0.037 A 
ATOM     61  C   UNL A   1      41.499  33.202  32.591  1.00  0.00     0.037 A 
ATOM     62  C   UNL A   1      47.375  35.158  28.771  1.00  0.00     0.049 A 
ATOM     63  C   UNL A   1      42.574  34.391  33.249  1.00  0.00     0.074 A 
ATOM     64  C   UNL A   1      47.473  36.579  28.856  1.00  0.00     0.029 A 
ATOM     65  N   UNL A   1      46.834  35.101  30.258  1.00  0.00    -0.354 N 
ATOM     66  N   UNL A   1      43.925  34.306  33.264  1.00  0.00    -0.248 NA
ATOM     67  C   UNL A   1      42.276  35.779  33.648  1.00  0.00     0.031 C 
ATOM     68  C   UNL A   1      46.827  37.167  30.137  1.00  0.00     0.029 A 
ATOM     69  C   UNL A   1      46.319  36.175  30.975  1.00  0.00     0.049 A 
ATOM     70  H   UNL A   1      46.866  34.230  30.716  1.00  0.00     0.167 HD
ATOM     71  C   UNL A   1      44.478  35.545  32.817  1.00  0.00     0.074 A 
ATOM     72  C   UNL A   1      43.461  36.418  33.423  1.00  0.00     0.031 C 
ATOM     73  C   UNL A   1      45.822  35.841  32.476  1.00  0.00     0.037 A 
BRANCH  60  74
ATOM     74  C   UNL A   1      49.024  33.773  26.800  1.00  0.00     0.058 A 
ATOM     75  C   UNL A   1      49.294  34.665  25.744  1.00  0.00     0.135 A 
ATOM     76  C   UNL A   1      50.103  32.859  26.984  1.00  0.00     0.135 A 
ATOM     77  F   UNL A   1      48.494  35.703  25.486  1.00  0.00    -0.206 F 
ATOM     78  C   UNL A   1      50.411  34.563  24.888  1.00  0.00     0.059 A 
ATOM     79  C   UNL A   1      51.240  32.758  26.175  1.00  0.00     0.059 A 
ATOM     80  F   UNL A   1      50.184  31.966  27.954  1.00  0.00    -0.206 F 
ATOM     81  C   UNL A   1      51.363  33.578  25.087  1.00  0.00     0.060 A 
BRANCH  81  82
ATOM     82  S   UNL A   1      52.742  33.377  23.953  1.00  0.00     0.124 S 
ATOM     83  O   UNL A   1      53.204  34.754  23.804  1.00  0.00    -0.237 OA
ATOM     84  O   UNL A   1      53.625  32.482  24.691  1.00  0.00    -0.237 OA
ATOM     85  O   UNL A   1      52.128  32.797  22.760  1.00  0.00    -0.744 OA
ENDBRANCH  81  82
ENDBRANCH  60  74
BRANCH  61  86
ATOM     86  C   UNL A   1      40.016  32.841  32.685  1.00  0.00     0.058 A 
ATOM     87  C   UNL A   1      39.131  32.821  31.588  1.00  0.00     0.135 A 
ATOM     88  C   UNL A   1      39.760  31.826  33.650  1.00  0.00     0.135 A 
ATOM     89  F   UNL A   1      39.113  33.853  30.732  1.00  0.00    -0.206 F 
ATOM     90  C   UNL A   1      38.270  31.720  31.321  1.00  0.00     0.059 A 
ATOM     91  C   UNL A   1      38.970  30.700  33.381  1.00  0.00     0.059 A 
ATOM     92  F   UNL A   1      40.501  31.788  34.769  1.00  0.00    -0.206 F 
ATOM     93  C   UNL A   1      38.266  30.625  32.187  1.00  0.00     0.060 A 
BRANCH  93  94
ATOM     94  S   UNL A   1      37.525  29.024  31.736  1.00  0.00     0.124 S 
ATOM     95  O   UNL A   1      37.384  28.374  33.038  1.00  0.00    -0.237 OA
ATOM     96  O   UNL A   1      36.285  29.388  31.066  1.00  0.00    -0.237 OA
ATOM     97  O   UNL A   1      38.548  28.464  30.858  1.00  0.00    -0.744 OA
ENDBRANCH  93  94
ENDBRANCH  61  86
BRANCH  73  98
ATOM     98  C   UNL A   1      46.929  35.244  33.409  1.00  0.00     0.058 A 
ATOM     99  C   UNL A   1      47.779  36.021  34.229  1.00  0.00     0.135 A 
ATOM    100  C   UNL A   1      47.283  33.868  33.351  1.00  0.00     0.135 A 
ATOM    101  F   UNL A   1      47.614  37.346  34.361  1.00  0.00    -0.206 F 
ATOM    102  C   UNL A   1      48.914  35.489  34.862  1.00  0.00     0.059 A 
ATOM    103  C   UNL A   1      48.374  33.311  34.007  1.00  0.00     0.059 A 
ATOM    104  F   UNL A   1      46.648  32.995  32.563  1.00  0.00    -0.206 F 
ATOM    105  C   UNL A   1      49.229  34.143  34.693  1.00  0.00     0.060 A 
BRANCH 105 106
ATOM    106  S   UNL A   1      50.866  33.546  35.149  1.00  0.00     0.124 S 
ATOM    107  O   UNL A   1      50.538  32.621  36.226  1.00  0.00    -0.237 OA
ATOM    108  O   UNL A   1      51.356  32.956  33.920  1.00  0.00    -0.237 OA
ATOM    109  O   UNL A   1      51.565  34.774  35.577  1.00  0.00    -0.744 OA
ENDBRANCH 105 106
ENDBRANCH  73  98
ENDBRANCH  47  48
ENDBRANCH  40  42
ENDBRANCH  39  40
ENDBRANCH  38  39
ENDBRANCH  37  38
ENDBRANCH  36  37
ENDBRANCH  35  36
ENDBRANCH  34  35
ENDBRANCH   1  34
TORSDOF 26
ENDMDL
