MODEL 1
REMARK VINA RESULT:      -7.7      0.000      0.000
REMARK SMILES CC(C)(C)C(=O)NCC(=O)Nc1cc(Cl)ccc1C(=O)OCCOCCOCCOCCOC(=O)c1ccc(-c2c3nc(c(-c4c(F)cc(S(=O)(=O)[O-])cc4F)c4ccc([nH]4)c(-c4c(F)cc(S(=O)(=O)[O-])cc4F)c4nc(c(-c5c(F)cc(S(=O)(=O)[O-])cc5F)c5ccc2[nH]5)C=C4)C=C3)cc1
REMARK SMILES IDX 26 1 25 2 24 3 23 4 22 5 21 6 19 7 20 8 18 9 12 10 13 11
REMARK SMILES IDX 14 12 17 13 15 14 16 15 11 16 9 17 10 18 8 20 7 21 5 22 6 23
REMARK SMILES IDX 2 25 1 26 3 27 4 28 27 29 28 30 29 31 30 32 31 33 32 34
REMARK SMILES IDX 33 35 34 36 35 37 36 38 37 39 101 40 38 41 100 42 39 43
REMARK SMILES IDX 40 44 41 45 94 46 42 47 99 48 93 49 95 50 43 51 98 52 92 53
REMARK SMILES IDX 91 54 44 56 78 57 57 58 77 59 58 60 61 61 76 62 96 63 59 64
REMARK SMILES IDX 60 65 75 67 97 68 62 69 45 70 46 71 55 72 47 73 48 74 54 75
REMARK SMILES IDX 56 76 49 77 50 78 51 79 52 80 53 81 79 82 80 83 89 84 81 85
REMARK SMILES IDX 82 86 88 87 90 88 83 89 84 90 85 91 86 92 87 93 63 94 64 95
REMARK SMILES IDX 73 96 65 97 66 98 72 99 74 100 67 101 68 102 69 103 70 104
REMARK SMILES IDX 71 105
REMARK H PARENT 11 19 7 24 95 55 61 66
REMARK Flexibility Score: inf
ROOT
ATOM      1  C   UNL A   1      35.647  21.307  24.991  1.00  0.00     0.188 C 
ENDROOT
BRANCH   1   2
ATOM      2  C   UNL A   1      34.215  21.449  25.528  1.00  0.00     0.188 C 
BRANCH   2   3
ATOM      3  O   UNL A   1      33.483  22.488  24.908  1.00  0.00    -0.376 OA
BRANCH   3   4
ATOM      4  C   UNL A   1      33.692  22.803  23.542  1.00  0.00     0.202 C 
BRANCH   4   5
ATOM      5  C   UNL A   1      33.286  24.145  22.898  1.00  0.00     0.261 C 
BRANCH   5   6
ATOM      6  O   UNL A   1      32.383  24.995  23.614  1.00  0.00    -0.460 OA
BRANCH   6   7
ATOM      7  C   UNL A   1      32.841  26.205  23.975  1.00  0.00     0.340 C 
ATOM      8  O   UNL A   1      33.986  26.458  24.316  1.00  0.00    -0.246 OA
BRANCH   7   9
ATOM      9  C   UNL A   1      31.801  27.256  23.771  1.00  0.00     0.083 A 
ATOM     10  C   UNL A   1      31.407  28.239  24.709  1.00  0.00     0.057 A 
ATOM     11  C   UNL A   1      30.665  29.321  24.232  1.00  0.00     0.047 A 
ATOM     12  C   UNL A   1      30.116  29.311  22.948  1.00  0.00     0.043 A 
ATOM     13  C   UNL A   1      31.180  27.216  22.507  1.00  0.00     0.019 A 
ATOM     14  Cl  UNL A   1      29.206  30.655  22.381  1.00  0.00    -0.084 Cl
ATOM     15  C   UNL A   1      30.304  28.220  22.112  1.00  0.00     0.021 A 
BRANCH  10  16
ATOM     16  N   UNL A   1      31.792  28.157  26.060  1.00  0.00    -0.324 N 
ATOM     17  C   UNL A   1      32.749  28.755  26.831  1.00  0.00     0.243 C 
ATOM     18  O   UNL A   1      32.822  28.341  27.999  1.00  0.00    -0.273 OA
ATOM     19  H   UNL A   1      31.242  27.519  26.570  1.00  0.00     0.170 HD
BRANCH  17  20
ATOM     20  C   UNL A   1      33.513  30.062  26.493  1.00  0.00     0.216 C 
BRANCH  20  21
ATOM     21  N   UNL A   1      33.342  31.287  27.249  1.00  0.00    -0.347 N 
ATOM     22  C   UNL A   1      34.099  31.986  28.127  1.00  0.00     0.225 C 
ATOM     23  O   UNL A   1      33.600  33.057  28.496  1.00  0.00    -0.275 OA
ATOM     24  H   UNL A   1      32.468  31.711  27.084  1.00  0.00     0.164 HD
BRANCH  22  25
ATOM     25  C   UNL A   1      35.511  31.583  28.599  1.00  0.00     0.041 C 
ATOM     26  C   UNL A   1      35.551  31.710  30.142  1.00  0.00     0.021 C 
ATOM     27  C   UNL A   1      36.517  32.573  28.001  1.00  0.00     0.021 C 
ATOM     28  C   UNL A   1      35.938  30.150  28.286  1.00  0.00     0.021 C 
ENDBRANCH  22  25
ENDBRANCH  20  21
ENDBRANCH  17  20
ENDBRANCH  10  16
ENDBRANCH   7   9
ENDBRANCH   6   7
ENDBRANCH   5   6
ENDBRANCH   4   5
ENDBRANCH   3   4
ENDBRANCH   2   3
ENDBRANCH   1   2
BRANCH   1  29
ATOM     29  O   UNL A   1      36.671  21.732  25.871  1.00  0.00    -0.377 OA
BRANCH  29  30
ATOM     30  C   UNL A   1      37.944  22.101  25.339  1.00  0.00     0.188 C 
BRANCH  30  31
ATOM     31  C   UNL A   1      39.261  21.883  26.120  1.00  0.00     0.188 C 
BRANCH  31  32
ATOM     32  O   UNL A   1      39.481  22.817  27.169  1.00  0.00    -0.376 OA
BRANCH  32  33
ATOM     33  C   UNL A   1      38.712  24.006  27.157  1.00  0.00     0.202 C 
BRANCH  33  34
ATOM     34  C   UNL A   1      39.511  25.314  27.101  1.00  0.00     0.261 C 
BRANCH  34  35
ATOM     35  O   UNL A   1      40.402  25.460  25.985  1.00  0.00    -0.460 OA
BRANCH  35  36
ATOM     36  C   UNL A   1      41.730  25.340  26.224  1.00  0.00     0.338 C 
ATOM     37  O   UNL A   1      42.445  24.409  25.925  1.00  0.00    -0.246 OA
BRANCH  36  38
ATOM     38  C   UNL A   1      42.195  26.641  26.752  1.00  0.00     0.060 A 
ATOM     39  C   UNL A   1      42.900  26.680  27.963  1.00  0.00     0.016 A 
ATOM     40  C   UNL A   1      41.961  27.815  26.033  1.00  0.00     0.016 A 
ATOM     41  C   UNL A   1      43.362  27.899  28.463  1.00  0.00     0.010 A 
ATOM     42  C   UNL A   1      42.404  29.035  26.546  1.00  0.00     0.010 A 
ATOM     43  C   UNL A   1      43.089  29.088  27.773  1.00  0.00    -0.014 A 
BRANCH  43  44
ATOM     44  C   UNL A   1      43.377  30.405  28.392  1.00  0.00     0.031 A 
ATOM     45  C   UNL A   1      44.734  31.017  28.174  1.00  0.00     0.074 A 
ATOM     46  C   UNL A   1      42.463  31.035  29.151  1.00  0.00     0.049 A 
ATOM     47  N   UNL A   1      45.253  32.095  28.700  1.00  0.00    -0.248 NA
ATOM     48  C   UNL A   1      45.626  30.312  27.240  1.00  0.00     0.031 C 
ATOM     49  C   UNL A   1      41.103  30.564  29.403  1.00  0.00     0.029 A 
ATOM     50  N   UNL A   1      42.553  32.204  29.869  1.00  0.00    -0.354 N 
ATOM     51  C   UNL A   1      46.536  32.191  28.175  1.00  0.00     0.074 A 
ATOM     52  C   UNL A   1      46.724  31.050  27.304  1.00  0.00     0.031 C 
ATOM     53  C   UNL A   1      40.491  31.425  30.236  1.00  0.00     0.029 A 
ATOM     54  C   UNL A   1      41.428  32.484  30.608  1.00  0.00     0.049 A 
ATOM     55  H   UNL A   1      43.347  32.785  29.854  1.00  0.00     0.167 HD
ATOM     56  C   UNL A   1      47.472  33.144  28.397  1.00  0.00     0.037 A 
ATOM     57  C   UNL A   1      41.197  33.462  31.509  1.00  0.00     0.037 A 
ATOM     58  C   UNL A   1      47.278  34.272  29.271  1.00  0.00     0.049 A 
ATOM     59  C   UNL A   1      42.284  34.466  31.803  1.00  0.00     0.074 A 
ATOM     60  C   UNL A   1      48.156  35.306  29.545  1.00  0.00     0.029 A 
ATOM     61  N   UNL A   1      46.136  34.509  30.022  1.00  0.00    -0.354 N 
ATOM     62  N   UNL A   1      43.485  34.563  31.280  1.00  0.00    -0.248 NA
ATOM     63  C   UNL A   1      41.987  35.492  32.813  1.00  0.00     0.031 C 
ATOM     64  C   UNL A   1      47.570  36.133  30.509  1.00  0.00     0.029 A 
ATOM     65  C   UNL A   1      46.300  35.652  30.787  1.00  0.00     0.049 A 
ATOM     66  H   UNL A   1      45.328  33.946  30.014  1.00  0.00     0.167 HD
ATOM     67  C   UNL A   1      44.073  35.675  31.879  1.00  0.00     0.074 A 
ATOM     68  C   UNL A   1      43.092  36.225  32.790  1.00  0.00     0.031 C 
ATOM     69  C   UNL A   1      45.314  36.193  31.690  1.00  0.00     0.037 A 
BRANCH  56  70
ATOM     70  C   UNL A   1      48.804  32.989  27.717  1.00  0.00     0.058 A 
ATOM     71  C   UNL A   1      49.860  32.274  28.304  1.00  0.00     0.135 A 
ATOM     72  C   UNL A   1      49.014  33.535  26.440  1.00  0.00     0.135 A 
ATOM     73  F   UNL A   1      49.722  31.750  29.531  1.00  0.00    -0.206 F 
ATOM     74  C   UNL A   1      51.083  32.123  27.658  1.00  0.00     0.059 A 
ATOM     75  C   UNL A   1      50.219  33.371  25.762  1.00  0.00     0.059 A 
ATOM     76  F   UNL A   1      48.040  34.234  25.835  1.00  0.00    -0.206 F 
ATOM     77  C   UNL A   1      51.252  32.674  26.386  1.00  0.00     0.060 A 
BRANCH  77  78
ATOM     78  S   UNL A   1      52.840  32.456  25.556  1.00  0.00     0.124 S 
ATOM     79  O   UNL A   1      52.619  33.182  24.309  1.00  0.00    -0.237 OA
ATOM     80  O   UNL A   1      53.768  33.079  26.495  1.00  0.00    -0.237 OA
ATOM     81  O   UNL A   1      52.961  31.008  25.425  1.00  0.00    -0.744 OA
ENDBRANCH  77  78
ENDBRANCH  56  70
BRANCH  57  82
ATOM     82  C   UNL A   1      39.892  33.529  32.221  1.00  0.00     0.058 A 
ATOM     83  C   UNL A   1      38.812  34.249  31.690  1.00  0.00     0.135 A 
ATOM     84  C   UNL A   1      39.699  32.884  33.454  1.00  0.00     0.135 A 
ATOM     85  F   UNL A   1      38.949  34.900  30.524  1.00  0.00    -0.206 F 
ATOM     86  C   UNL A   1      37.594  34.339  32.358  1.00  0.00     0.059 A 
ATOM     87  C   UNL A   1      38.481  32.932  34.126  1.00  0.00     0.059 A 
ATOM     88  F   UNL A   1      40.699  32.179  34.008  1.00  0.00    -0.206 F 
ATOM     89  C   UNL A   1      37.436  33.671  33.573  1.00  0.00     0.060 A 
BRANCH  89  90
ATOM     90  S   UNL A   1      35.834  33.752  34.402  1.00  0.00     0.124 S 
ATOM     91  O   UNL A   1      35.068  32.756  33.662  1.00  0.00    -0.237 OA
ATOM     92  O   UNL A   1      36.183  33.399  35.774  1.00  0.00    -0.237 OA
ATOM     93  O   UNL A   1      35.422  35.139  34.205  1.00  0.00    -0.744 OA
ENDBRANCH  89  90
ENDBRANCH  57  82
BRANCH  69  94
ATOM     94  C   UNL A   1      45.675  37.437  32.458  1.00  0.00     0.058 A 
ATOM     95  C   UNL A   1      46.351  37.379  33.687  1.00  0.00     0.135 A 
ATOM     96  C   UNL A   1      45.392  38.707  31.928  1.00  0.00     0.135 A 
ATOM     97  F   UNL A   1      46.643  36.192  34.243  1.00  0.00    -0.206 F 
ATOM     98  C   UNL A   1      46.712  38.534  34.374  1.00  0.00     0.059 A 
ATOM     99  C   UNL A   1      45.773  39.875  32.582  1.00  0.00     0.059 A 
ATOM    100  F   UNL A   1      44.759  38.822  30.749  1.00  0.00    -0.206 F 
ATOM    101  C   UNL A   1      46.421  39.779  33.812  1.00  0.00     0.060 A 
BRANCH 101 102
ATOM    102  S   UNL A   1      46.924  41.268  34.698  1.00  0.00     0.124 S 
ATOM    103  O   UNL A   1      46.958  40.794  36.077  1.00  0.00    -0.237 OA
ATOM    104  O   UNL A   1      48.221  41.565  34.098  1.00  0.00    -0.237 OA
ATOM    105  O   UNL A   1      45.864  42.224  34.390  1.00  0.00    -0.744 OA
ENDBRANCH 101 102
ENDBRANCH  69  94
ENDBRANCH  43  44
ENDBRANCH  36  38
ENDBRANCH  35  36
ENDBRANCH  34  35
ENDBRANCH  33  34
ENDBRANCH  32  33
ENDBRANCH  31  32
ENDBRANCH  30  31
ENDBRANCH  29  30
ENDBRANCH   1  29
TORSDOF 27
ENDMDL
MODEL 2
REMARK VINA RESULT:      -7.6      8.048     14.350
REMARK SMILES CC(C)(C)C(=O)NCC(=O)Nc1cc(Cl)ccc1C(=O)OCCOCCOCCOCCOC(=O)c1ccc(-c2c3nc(c(-c4c(F)cc(S(=O)(=O)[O-])cc4F)c4ccc([nH]4)c(-c4c(F)cc(S(=O)(=O)[O-])cc4F)c4nc(c(-c5c(F)cc(S(=O)(=O)[O-])cc5F)c5ccc2[nH]5)C=C4)C=C3)cc1
REMARK SMILES IDX 26 1 25 2 24 3 23 4 22 5 21 6 19 7 20 8 18 9 12 10 13 11
REMARK SMILES IDX 14 12 17 13 15 14 16 15 11 16 9 17 10 18 8 20 7 21 5 22 6 23
REMARK SMILES IDX 2 25 1 26 3 27 4 28 27 29 28 30 29 31 30 32 31 33 32 34
REMARK SMILES IDX 33 35 34 36 35 37 36 38 37 39 101 40 38 41 100 42 39 43
REMARK SMILES IDX 40 44 41 45 94 46 42 47 99 48 93 49 95 50 43 51 98 52 92 53
REMARK SMILES IDX 91 54 44 56 78 57 57 58 77 59 58 60 61 61 76 62 96 63 59 64
REMARK SMILES IDX 60 65 75 67 97 68 62 69 45 70 46 71 55 72 47 73 48 74 54 75
REMARK SMILES IDX 56 76 49 77 50 78 51 79 52 80 53 81 79 82 80 83 89 84 81 85
REMARK SMILES IDX 82 86 88 87 90 88 83 89 84 90 85 91 86 92 87 93 63 94 64 95
REMARK SMILES IDX 73 96 65 97 66 98 72 99 74 100 67 101 68 102 69 103 70 104
REMARK SMILES IDX 71 105
REMARK H PARENT 11 19 7 24 95 55 61 66
REMARK Flexibility Score: inf
ROOT
ATOM      1  C   UNL A   1      33.906  32.903  46.272  1.00  0.00     0.188 C 
ENDROOT
BRANCH   1   2
ATOM      2  C   UNL A   1      32.758  33.817  45.817  1.00  0.00     0.188 C 
BRANCH   2   3
ATOM      3  O   UNL A   1      31.992  34.331  46.889  1.00  0.00    -0.376 OA
BRANCH   3   4
ATOM      4  C   UNL A   1      30.626  34.661  46.708  1.00  0.00     0.202 C 
BRANCH   4   5
ATOM      5  C   UNL A   1      29.850  34.421  45.396  1.00  0.00     0.261 C 
BRANCH   5   6
ATOM      6  O   UNL A   1      30.333  35.044  44.200  1.00  0.00    -0.460 OA
BRANCH   6   7
ATOM      7  C   UNL A   1      29.805  36.235  43.876  1.00  0.00     0.340 C 
ATOM      8  O   UNL A   1      28.837  36.752  44.412  1.00  0.00    -0.246 OA
BRANCH   7   9
ATOM      9  C   UNL A   1      30.642  36.935  42.857  1.00  0.00     0.083 A 
ATOM     10  C   UNL A   1      31.025  36.427  41.594  1.00  0.00     0.057 A 
ATOM     11  C   UNL A   1      31.525  37.337  40.661  1.00  0.00     0.047 A 
ATOM     12  C   UNL A   1      31.875  38.636  41.034  1.00  0.00     0.043 A 
ATOM     13  C   UNL A   1      31.070  38.220  43.247  1.00  0.00     0.019 A 
ATOM     14  Cl  UNL A   1      32.490  39.740  39.868  1.00  0.00    -0.084 Cl
ATOM     15  C   UNL A   1      31.725  39.054  42.348  1.00  0.00     0.021 A 
BRANCH  10  16
ATOM     16  N   UNL A   1      30.858  35.068  41.271  1.00  0.00    -0.324 N 
ATOM     17  C   UNL A   1      31.627  34.118  40.658  1.00  0.00     0.243 C 
ATOM     18  O   UNL A   1      31.073  33.021  40.484  1.00  0.00    -0.273 OA
ATOM     19  H   UNL A   1      29.981  34.719  41.552  1.00  0.00     0.170 HD
BRANCH  17  20
ATOM     20  C   UNL A   1      33.163  34.178  40.447  1.00  0.00     0.216 C 
BRANCH  20  21
ATOM     21  N   UNL A   1      33.909  33.105  39.820  1.00  0.00    -0.347 N 
ATOM     22  C   UNL A   1      34.990  32.364  40.158  1.00  0.00     0.225 C 
ATOM     23  O   UNL A   1      35.269  31.466  39.352  1.00  0.00    -0.275 OA
ATOM     24  H   UNL A   1      33.542  32.856  38.941  1.00  0.00     0.164 HD
BRANCH  22  25
ATOM     25  C   UNL A   1      35.796  32.513  41.465  1.00  0.00     0.041 C 
ATOM     26  C   UNL A   1      36.735  33.736  41.307  1.00  0.00     0.021 C 
ATOM     27  C   UNL A   1      36.655  31.257  41.644  1.00  0.00     0.021 C 
ATOM     28  C   UNL A   1      34.979  32.774  42.729  1.00  0.00     0.021 C 
ENDBRANCH  22  25
ENDBRANCH  20  21
ENDBRANCH  17  20
ENDBRANCH  10  16
ENDBRANCH   7   9
ENDBRANCH   6   7
ENDBRANCH   5   6
ENDBRANCH   4   5
ENDBRANCH   3   4
ENDBRANCH   2   3
ENDBRANCH   1   2
BRANCH   1  29
ATOM     29  O   UNL A   1      35.190  33.498  46.279  1.00  0.00    -0.377 OA
BRANCH  29  30
ATOM     30  C   UNL A   1      35.305  34.919  46.184  1.00  0.00     0.188 C 
BRANCH  30  31
ATOM     31  C   UNL A   1      36.386  35.604  45.315  1.00  0.00     0.188 C 
BRANCH  31  32
ATOM     32  O   UNL A   1      37.635  35.785  45.970  1.00  0.00    -0.376 OA
BRANCH  32  33
ATOM     33  C   UNL A   1      38.781  35.958  45.155  1.00  0.00     0.202 C 
BRANCH  33  34
ATOM     34  C   UNL A   1      39.058  34.832  44.150  1.00  0.00     0.261 C 
BRANCH  34  35
ATOM     35  O   UNL A   1      39.205  35.235  42.780  1.00  0.00    -0.460 OA
BRANCH  35  36
ATOM     36  C   UNL A   1      40.457  35.500  42.336  1.00  0.00     0.338 C 
ATOM     37  O   UNL A   1      41.322  36.121  42.915  1.00  0.00    -0.246 OA
BRANCH  36  38
ATOM     38  C   UNL A   1      40.649  34.727  41.089  1.00  0.00     0.060 A 
ATOM     39  C   UNL A   1      41.333  35.313  40.015  1.00  0.00     0.016 A 
ATOM     40  C   UNL A   1      40.178  33.416  40.996  1.00  0.00     0.016 A 
ATOM     41  C   UNL A   1      41.538  34.588  38.839  1.00  0.00     0.010 A 
ATOM     42  C   UNL A   1      40.364  32.702  39.812  1.00  0.00     0.010 A 
ATOM     43  C   UNL A   1      41.027  33.289  38.719  1.00  0.00    -0.014 A 
BRANCH  43  44
ATOM     44  C   UNL A   1      41.041  32.589  37.412  1.00  0.00     0.031 A 
ATOM     45  C   UNL A   1      42.214  31.705  37.086  1.00  0.00     0.074 A 
ATOM     46  C   UNL A   1      40.046  32.750  36.521  1.00  0.00     0.049 A 
ATOM     47  N   UNL A   1      42.503  31.084  35.973  1.00  0.00    -0.248 NA
ATOM     48  C   UNL A   1      43.197  31.500  38.162  1.00  0.00     0.031 C 
ATOM     49  C   UNL A   1      38.839  33.546  36.736  1.00  0.00     0.029 A 
ATOM     50  N   UNL A   1      39.906  32.264  35.243  1.00  0.00    -0.354 N 
ATOM     51  C   UNL A   1      43.706  30.429  36.207  1.00  0.00     0.074 A 
ATOM     52  C   UNL A   1      44.103  30.743  37.562  1.00  0.00     0.031 C 
ATOM     53  C   UNL A   1      38.090  33.512  35.620  1.00  0.00     0.029 A 
ATOM     54  C   UNL A   1      38.783  32.728  34.598  1.00  0.00     0.049 A 
ATOM     55  H   UNL A   1      40.548  31.644  34.830  1.00  0.00     0.167 HD
ATOM     56  C   UNL A   1      44.413  29.635  35.368  1.00  0.00     0.037 A 
ATOM     57  C   UNL A   1      38.382  32.565  33.320  1.00  0.00     0.037 A 
ATOM     58  C   UNL A   1      44.013  29.333  34.018  1.00  0.00     0.049 A 
ATOM     59  C   UNL A   1      39.229  31.744  32.379  1.00  0.00     0.074 A 
ATOM     60  C   UNL A   1      44.649  28.520  33.096  1.00  0.00     0.029 A 
ATOM     61  N   UNL A   1      42.884  29.840  33.391  1.00  0.00    -0.354 N 
ATOM     62  N   UNL A   1      40.351  31.106  32.619  1.00  0.00    -0.248 NA
ATOM     63  C   UNL A   1      38.757  31.625  30.992  1.00  0.00     0.031 C 
ATOM     64  C   UNL A   1      43.939  28.586  31.893  1.00  0.00     0.029 A 
ATOM     65  C   UNL A   1      42.824  29.387  32.084  1.00  0.00     0.049 A 
ATOM     66  H   UNL A   1      42.223  30.436  33.814  1.00  0.00     0.167 HD
ATOM     67  C   UNL A   1      40.703  30.489  31.421  1.00  0.00     0.074 A 
ATOM     68  C   UNL A   1      39.668  30.818  30.464  1.00  0.00     0.031 C 
ATOM     69  C   UNL A   1      41.785  29.719  31.140  1.00  0.00     0.037 A 
BRANCH  56  70
ATOM     70  C   UNL A   1      45.712  29.068  35.871  1.00  0.00     0.058 A 
ATOM     71  C   UNL A   1      45.782  27.815  36.499  1.00  0.00     0.135 A 
ATOM     72  C   UNL A   1      46.912  29.774  35.686  1.00  0.00     0.135 A 
ATOM     73  F   UNL A   1      44.664  27.106  36.721  1.00  0.00    -0.206 F 
ATOM     74  C   UNL A   1      46.991  27.292  36.946  1.00  0.00     0.059 A 
ATOM     75  C   UNL A   1      48.137  29.257  36.097  1.00  0.00     0.059 A 
ATOM     76  F   UNL A   1      46.902  30.980  35.096  1.00  0.00    -0.206 F 
ATOM     77  C   UNL A   1      48.164  28.020  36.738  1.00  0.00     0.060 A 
BRANCH  77  78
ATOM     78  S   UNL A   1      49.726  27.319  37.310  1.00  0.00     0.124 S 
ATOM     79  O   UNL A   1      50.546  28.519  37.457  1.00  0.00    -0.237 OA
ATOM     80  O   UNL A   1      49.335  26.664  38.554  1.00  0.00    -0.237 OA
ATOM     81  O   UNL A   1      50.116  26.423  36.226  1.00  0.00    -0.744 OA
ENDBRANCH  77  78
ENDBRANCH  56  70
BRANCH  57  82
ATOM     82  C   UNL A   1      37.130  33.214  32.842  1.00  0.00     0.058 A 
ATOM     83  C   UNL A   1      35.946  32.477  32.686  1.00  0.00     0.135 A 
ATOM     84  C   UNL A   1      37.093  34.580  32.520  1.00  0.00     0.135 A 
ATOM     85  F   UNL A   1      35.932  31.164  32.962  1.00  0.00    -0.206 F 
ATOM     86  C   UNL A   1      34.776  33.066  32.217  1.00  0.00     0.059 A 
ATOM     87  C   UNL A   1      35.927  35.199  32.079  1.00  0.00     0.059 A 
ATOM     88  F   UNL A   1      38.197  35.332  32.651  1.00  0.00    -0.206 F 
ATOM     89  C   UNL A   1      34.775  34.431  31.922  1.00  0.00     0.060 A 
BRANCH  89  90
ATOM     90  S   UNL A   1      33.235  35.193  31.366  1.00  0.00     0.124 S 
ATOM     91  O   UNL A   1      32.330  34.863  32.461  1.00  0.00    -0.237 OA
ATOM     92  O   UNL A   1      33.614  36.598  31.251  1.00  0.00    -0.237 OA
ATOM     93  O   UNL A   1      32.964  34.520  30.098  1.00  0.00    -0.744 OA
ENDBRANCH  89  90
ENDBRANCH  57  82
BRANCH  69  94
ATOM     94  C   UNL A   1      41.895  29.150  29.749  1.00  0.00     0.058 A 
ATOM     95  C   UNL A   1      42.767  29.692  28.793  1.00  0.00     0.135 A 
ATOM     96  C   UNL A   1      41.158  28.008  29.389  1.00  0.00     0.135 A 
ATOM     97  F   UNL A   1      43.491  30.785  29.081  1.00  0.00    -0.206 F 
ATOM     98  C   UNL A   1      42.887  29.139  27.522  1.00  0.00     0.059 A 
ATOM     99  C   UNL A   1      41.287  27.419  28.135  1.00  0.00     0.059 A 
ATOM    100  F   UNL A   1      40.318  27.440  30.269  1.00  0.00    -0.206 F 
ATOM    101  C   UNL A   1      42.145  28.000  27.202  1.00  0.00     0.060 A 
BRANCH 101 102
ATOM    102  S   UNL A   1      42.337  27.274  25.561  1.00  0.00     0.124 S 
ATOM    103  O   UNL A   1      43.656  26.659  25.662  1.00  0.00    -0.237 OA
ATOM    104  O   UNL A   1      41.210  26.348  25.496  1.00  0.00    -0.237 OA
ATOM    105  O   UNL A   1      42.247  28.424  24.666  1.00  0.00    -0.744 OA
ENDBRANCH 101 102
ENDBRANCH  69  94
ENDBRANCH  43  44
ENDBRANCH  36  38
ENDBRANCH  35  36
ENDBRANCH  34  35
ENDBRANCH  33  34
ENDBRANCH  32  33
ENDBRANCH  31  32
ENDBRANCH  30  31
ENDBRANCH  29  30
ENDBRANCH   1  29
TORSDOF 27
ENDMDL
MODEL 3
REMARK VINA RESULT:      -7.5      1.798      2.468
REMARK SMILES CC(C)(C)C(=O)NCC(=O)Nc1cc(Cl)ccc1C(=O)OCCOCCOCCOCCOC(=O)c1ccc(-c2c3nc(c(-c4c(F)cc(S(=O)(=O)[O-])cc4F)c4ccc([nH]4)c(-c4c(F)cc(S(=O)(=O)[O-])cc4F)c4nc(c(-c5c(F)cc(S(=O)(=O)[O-])cc5F)c5ccc2[nH]5)C=C4)C=C3)cc1
REMARK SMILES IDX 26 1 25 2 24 3 23 4 22 5 21 6 19 7 20 8 18 9 12 10 13 11
REMARK SMILES IDX 14 12 17 13 15 14 16 15 11 16 9 17 10 18 8 20 7 21 5 22 6 23
REMARK SMILES IDX 2 25 1 26 3 27 4 28 27 29 28 30 29 31 30 32 31 33 32 34
REMARK SMILES IDX 33 35 34 36 35 37 36 38 37 39 101 40 38 41 100 42 39 43
REMARK SMILES IDX 40 44 41 45 94 46 42 47 99 48 93 49 95 50 43 51 98 52 92 53
REMARK SMILES IDX 91 54 44 56 78 57 57 58 77 59 58 60 61 61 76 62 96 63 59 64
REMARK SMILES IDX 60 65 75 67 97 68 62 69 45 70 46 71 55 72 47 73 48 74 54 75
REMARK SMILES IDX 56 76 49 77 50 78 51 79 52 80 53 81 79 82 80 83 89 84 81 85
REMARK SMILES IDX 82 86 88 87 90 88 83 89 84 90 85 91 86 92 87 93 63 94 64 95
REMARK SMILES IDX 73 96 65 97 66 98 72 99 74 100 67 101 68 102 69 103 70 104
REMARK SMILES IDX 71 105
REMARK H PARENT 11 19 7 24 95 55 61 66
REMARK Flexibility Score: inf
ROOT
ATOM      1  C   UNL A   1      35.802  21.339  25.047  1.00  0.00     0.188 C 
ENDROOT
BRANCH   1   2
ATOM      2  C   UNL A   1      34.402  21.527  25.650  1.00  0.00     0.188 C 
BRANCH   2   3
ATOM      3  O   UNL A   1      33.672  22.583  25.057  1.00  0.00    -0.376 OA
BRANCH   3   4
ATOM      4  C   UNL A   1      33.769  22.837  23.667  1.00  0.00     0.202 C 
BRANCH   4   5
ATOM      5  C   UNL A   1      33.219  24.106  22.984  1.00  0.00     0.261 C 
BRANCH   5   6
ATOM      6  O   UNL A   1      32.393  24.987  23.755  1.00  0.00    -0.460 OA
BRANCH   6   7
ATOM      7  C   UNL A   1      32.883  26.209  24.017  1.00  0.00     0.340 C 
ATOM      8  O   UNL A   1      34.046  26.466  24.287  1.00  0.00    -0.246 OA
BRANCH   7   9
ATOM      9  C   UNL A   1      31.847  27.262  23.797  1.00  0.00     0.083 A 
ATOM     10  C   UNL A   1      31.427  28.234  24.735  1.00  0.00     0.057 A 
ATOM     11  C   UNL A   1      30.697  29.320  24.250  1.00  0.00     0.047 A 
ATOM     12  C   UNL A   1      30.181  29.323  22.953  1.00  0.00     0.043 A 
ATOM     13  C   UNL A   1      31.259  27.235  22.516  1.00  0.00     0.019 A 
ATOM     14  Cl  UNL A   1      29.285  30.672  22.376  1.00  0.00    -0.084 Cl
ATOM     15  C   UNL A   1      30.393  28.242  22.110  1.00  0.00     0.021 A 
BRANCH  10  16
ATOM     16  N   UNL A   1      31.776  28.138  26.094  1.00  0.00    -0.324 N 
ATOM     17  C   UNL A   1      32.808  28.600  26.863  1.00  0.00     0.243 C 
ATOM     18  O   UNL A   1      32.799  28.220  28.045  1.00  0.00    -0.273 OA
ATOM     19  H   UNL A   1      31.124  27.616  26.615  1.00  0.00     0.170 HD
BRANCH  17  20
ATOM     20  C   UNL A   1      33.779  29.752  26.496  1.00  0.00     0.216 C 
BRANCH  20  21
ATOM     21  N   UNL A   1      33.902  30.956  27.295  1.00  0.00    -0.347 N 
ATOM     22  C   UNL A   1      34.852  31.474  28.109  1.00  0.00     0.225 C 
ATOM     23  O   UNL A   1      34.589  32.600  28.552  1.00  0.00    -0.275 OA
ATOM     24  H   UNL A   1      33.107  31.533  27.229  1.00  0.00     0.164 HD
BRANCH  22  25
ATOM     25  C   UNL A   1      36.208  30.811  28.426  1.00  0.00     0.041 C 
ATOM     26  C   UNL A   1      36.047  30.006  29.740  1.00  0.00     0.021 C 
ATOM     27  C   UNL A   1      37.241  31.919  28.655  1.00  0.00     0.021 C 
ATOM     28  C   UNL A   1      36.726  29.818  27.387  1.00  0.00     0.021 C 
ENDBRANCH  22  25
ENDBRANCH  20  21
ENDBRANCH  17  20
ENDBRANCH  10  16
ENDBRANCH   7   9
ENDBRANCH   6   7
ENDBRANCH   5   6
ENDBRANCH   4   5
ENDBRANCH   3   4
ENDBRANCH   2   3
ENDBRANCH   1   2
BRANCH   1  29
ATOM     29  O   UNL A   1      36.876  21.801  25.845  1.00  0.00    -0.377 OA
BRANCH  29  30
ATOM     30  C   UNL A   1      38.193  21.841  25.293  1.00  0.00     0.188 C 
BRANCH  30  31
ATOM     31  C   UNL A   1      39.461  21.742  26.175  1.00  0.00     0.188 C 
BRANCH  31  32
ATOM     32  O   UNL A   1      39.660  22.852  27.040  1.00  0.00    -0.376 OA
BRANCH  32  33
ATOM     33  C   UNL A   1      39.131  24.102  26.632  1.00  0.00     0.202 C 
BRANCH  33  34
ATOM     34  C   UNL A   1      40.136  25.259  26.566  1.00  0.00     0.261 C 
BRANCH  34  35
ATOM     35  O   UNL A   1      41.438  24.932  26.054  1.00  0.00    -0.460 OA
BRANCH  35  36
ATOM     36  C   UNL A   1      42.415  24.665  26.953  1.00  0.00     0.338 C 
ATOM     37  O   UNL A   1      43.012  23.620  27.095  1.00  0.00    -0.246 OA
BRANCH  36  38
ATOM     38  C   UNL A   1      42.760  25.944  27.612  1.00  0.00     0.060 A 
ATOM     39  C   UNL A   1      43.017  25.960  28.990  1.00  0.00     0.016 A 
ATOM     40  C   UNL A   1      42.859  27.117  26.861  1.00  0.00     0.016 A 
ATOM     41  C   UNL A   1      43.363  27.157  29.621  1.00  0.00     0.010 A 
ATOM     42  C   UNL A   1      43.183  28.316  27.498  1.00  0.00     0.010 A 
ATOM     43  C   UNL A   1      43.417  28.348  28.884  1.00  0.00    -0.014 A 
BRANCH  43  44
ATOM     44  C   UNL A   1      43.566  29.655  29.569  1.00  0.00     0.031 A 
ATOM     45  C   UNL A   1      44.954  30.177  29.821  1.00  0.00     0.074 A 
ATOM     46  C   UNL A   1      42.494  30.355  29.981  1.00  0.00     0.049 A 
ATOM     47  N   UNL A   1      45.337  31.230  30.494  1.00  0.00    -0.248 NA
ATOM     48  C   UNL A   1      46.060  29.401  29.237  1.00  0.00     0.031 C 
ATOM     49  C   UNL A   1      41.100  29.974  29.761  1.00  0.00     0.029 A 
ATOM     50  N   UNL A   1      42.414  31.528  30.692  1.00  0.00    -0.354 N 
ATOM     51  C   UNL A   1      46.724  31.237  30.430  1.00  0.00     0.074 A 
ATOM     52  C   UNL A   1      47.119  30.071  29.668  1.00  0.00     0.031 C 
ATOM     53  C   UNL A   1      40.302  30.886  30.343  1.00  0.00     0.029 A 
ATOM     54  C   UNL A   1      41.127  31.891  31.013  1.00  0.00     0.049 A 
ATOM     55  H   UNL A   1      43.203  32.058  30.946  1.00  0.00     0.167 HD
ATOM     56  C   UNL A   1      47.591  32.133  30.957  1.00  0.00     0.037 A 
ATOM     57  C   UNL A   1      40.672  32.897  31.788  1.00  0.00     0.037 A 
ATOM     58  C   UNL A   1      47.190  33.287  31.719  1.00  0.00     0.049 A 
ATOM     59  C   UNL A   1      41.660  33.837  32.433  1.00  0.00     0.074 A 
ATOM     60  C   UNL A   1      47.991  34.270  32.276  1.00  0.00     0.029 A 
ATOM     61  N   UNL A   1      45.880  33.608  32.046  1.00  0.00    -0.354 N 
ATOM     62  N   UNL A   1      42.970  33.850  32.343  1.00  0.00    -0.248 NA
ATOM     63  C   UNL A   1      41.109  34.897  33.289  1.00  0.00     0.031 C 
ATOM     64  C   UNL A   1      47.171  35.149  32.990  1.00  0.00     0.029 A 
ATOM     65  C   UNL A   1      45.852  34.752  32.825  1.00  0.00     0.049 A 
ATOM     66  H   UNL A   1      45.087  33.096  31.765  1.00  0.00     0.167 HD
ATOM     67  C   UNL A   1      43.395  34.933  33.108  1.00  0.00     0.074 A 
ATOM     68  C   UNL A   1      42.203  35.559  33.641  1.00  0.00     0.031 C 
ATOM     69  C   UNL A   1      44.658  35.369  33.348  1.00  0.00     0.037 A 
BRANCH  56  70
ATOM     70  C   UNL A   1      49.062  31.884  30.761  1.00  0.00     0.058 A 
ATOM     71  C   UNL A   1      49.808  31.100  31.654  1.00  0.00     0.135 A 
ATOM     72  C   UNL A   1      49.725  32.409  29.640  1.00  0.00     0.135 A 
ATOM     73  F   UNL A   1      49.230  30.591  32.754  1.00  0.00    -0.206 F 
ATOM     74  C   UNL A   1      51.164  30.862  31.455  1.00  0.00     0.059 A 
ATOM     75  C   UNL A   1      51.074  32.159  29.404  1.00  0.00     0.059 A 
ATOM     76  F   UNL A   1      49.061  33.171  28.756  1.00  0.00    -0.206 F 
ATOM     77  C   UNL A   1      51.788  31.394  30.325  1.00  0.00     0.060 A 
BRANCH  77  78
ATOM     78  S   UNL A   1      53.545  31.063  30.074  1.00  0.00     0.124 S 
ATOM     79  O   UNL A   1      53.739  29.879  30.906  1.00  0.00    -0.237 OA
ATOM     80  O   UNL A   1      53.616  30.844  28.633  1.00  0.00    -0.237 OA
ATOM     81  O   UNL A   1      54.193  32.279  30.554  1.00  0.00    -0.744 OA
ENDBRANCH  77  78
ENDBRANCH  56  70
BRANCH  57  82
ATOM     82  C   UNL A   1      39.211  33.058  32.022  1.00  0.00     0.058 A 
ATOM     83  C   UNL A   1      38.526  32.230  32.925  1.00  0.00     0.135 A 
ATOM     84  C   UNL A   1      38.465  34.034  31.342  1.00  0.00     0.135 A 
ATOM     85  F   UNL A   1      39.187  31.268  33.587  1.00  0.00    -0.206 F 
ATOM     86  C   UNL A   1      37.156  32.355  33.135  1.00  0.00     0.059 A 
ATOM     87  C   UNL A   1      37.100  34.200  31.558  1.00  0.00     0.059 A 
ATOM     88  F   UNL A   1      39.070  34.854  30.468  1.00  0.00    -0.206 F 
ATOM     89  C   UNL A   1      36.452  33.348  32.451  1.00  0.00     0.060 A 
BRANCH  89  90
ATOM     90  S   UNL A   1      34.685  33.533  32.775  1.00  0.00     0.124 S 
ATOM     91  O   UNL A   1      34.589  33.082  34.158  1.00  0.00    -0.237 OA
ATOM     92  O   UNL A   1      34.483  34.962  32.554  1.00  0.00    -0.237 OA
ATOM     93  O   UNL A   1      34.067  32.660  31.781  1.00  0.00    -0.744 OA
ENDBRANCH  89  90
ENDBRANCH  57  82
BRANCH  69  94
ATOM     94  C   UNL A   1      44.821  36.602  34.198  1.00  0.00     0.058 A 
ATOM     95  C   UNL A   1      44.755  37.893  33.650  1.00  0.00     0.135 A 
ATOM     96  C   UNL A   1      44.988  36.491  35.588  1.00  0.00     0.135 A 
ATOM     97  F   UNL A   1      44.603  38.060  32.327  1.00  0.00    -0.206 F 
ATOM     98  C   UNL A   1      44.873  39.028  34.448  1.00  0.00     0.059 A 
ATOM     99  C   UNL A   1      45.074  37.612  36.408  1.00  0.00     0.059 A 
ATOM    100  F   UNL A   1      45.044  35.280  36.167  1.00  0.00    -0.206 F 
ATOM    101  C   UNL A   1      45.030  38.877  35.827  1.00  0.00     0.060 A 
BRANCH 101 102
ATOM    102  S   UNL A   1      45.147  40.358  36.852  1.00  0.00     0.124 S 
ATOM    103  O   UNL A   1      44.624  41.381  35.953  1.00  0.00    -0.237 OA
ATOM    104  O   UNL A   1      44.297  40.019  37.989  1.00  0.00    -0.237 OA
ATOM    105  O   UNL A   1      46.573  40.455  37.150  1.00  0.00    -0.744 OA
ENDBRANCH 101 102
ENDBRANCH  69  94
ENDBRANCH  43  44
ENDBRANCH  36  38
ENDBRANCH  35  36
ENDBRANCH  34  35
ENDBRANCH  33  34
ENDBRANCH  32  33
ENDBRANCH  31  32
ENDBRANCH  30  31
ENDBRANCH  29  30
ENDBRANCH   1  29
TORSDOF 27
ENDMDL
