MODEL 1
REMARK VINA RESULT:      -7.0      0.000      0.000
REMARK SMILES CCC([NH3+])(CC)C(=O)N(CCC(=O)OCCOCCOCCOCCOC(=O)c1ccc(-c2c3nc(c(-c4c(F)cc(S(=O)(=O)[O-])cc4F)c4ccc([nH]4)c(-c4c(F)cc(S(=O)(=O)[O-])cc4F)c4nc(c(-c5c(F)cc(S(=O)(=O)[O-])cc5F)c5ccc2[nH]5)C=C4)C=C3)cc1)C(C)C
REMARK SMILES IDX 19 1 18 2 17 3 16 4 15 5 14 6 12 7 13 8 11 9 10 10 9 11 7 12
REMARK SMILES IDX 8 13 3 14 2 15 1 16 4 17 5 21 6 22 95 23 96 24 97 25 20 26
REMARK SMILES IDX 21 27 22 28 23 29 24 30 25 31 26 32 27 33 28 34 29 35 30 36
REMARK SMILES IDX 94 37 31 38 93 39 32 40 33 41 34 42 87 43 35 44 92 45 86 46
REMARK SMILES IDX 88 47 36 48 91 49 85 50 84 51 37 53 71 54 50 55 70 56 51 57
REMARK SMILES IDX 54 58 69 59 89 60 52 61 53 62 68 64 90 65 55 66 38 67 39 68
REMARK SMILES IDX 48 69 40 70 41 71 47 72 49 73 42 74 43 75 44 76 45 77 46 78
REMARK SMILES IDX 72 79 73 80 82 81 74 82 75 83 81 84 83 85 76 86 77 87 78 88
REMARK SMILES IDX 79 89 80 90 56 91 57 92 66 93 58 94 59 95 65 96 67 97 60 98
REMARK SMILES IDX 61 99 62 100 63 101 64 102
REMARK H PARENT 4 18 4 19 4 20 88 52 54 63
REMARK Flexibility Score: inf
ROOT
ATOM      1  C   UNL A   1      35.509  31.440  27.695  1.00  0.00     0.188 C 
ENDROOT
BRANCH   1   2
ATOM      2  C   UNL A   1      34.025  31.322  28.071  1.00  0.00     0.188 C 
BRANCH   2   3
ATOM      3  O   UNL A   1      33.143  31.619  27.004  1.00  0.00    -0.376 OA
BRANCH   3   4
ATOM      4  C   UNL A   1      31.995  30.790  26.915  1.00  0.00     0.202 C 
BRANCH   4   5
ATOM      5  C   UNL A   1      31.900  29.887  25.673  1.00  0.00     0.261 C 
BRANCH   5   6
ATOM      6  O   UNL A   1      33.157  29.426  25.145  1.00  0.00    -0.463 OA
BRANCH   6   7
ATOM      7  C   UNL A   1      33.702  28.315  25.672  1.00  0.00     0.307 C 
ATOM      8  O   UNL A   1      34.189  28.265  26.797  1.00  0.00    -0.252 OA
BRANCH   7   9
ATOM      9  C   UNL A   1      33.649  27.099  24.767  1.00  0.00     0.144 C 
BRANCH   9  10
ATOM     10  C   UNL A   1      33.984  25.694  25.282  1.00  0.00     0.131 C 
BRANCH  10  11
ATOM     11  N   UNL A   1      32.991  24.626  25.078  1.00  0.00    -0.334 N 
BRANCH  11  12
ATOM     12  C   UNL A   1      32.531  24.114  23.860  1.00  0.00     0.284 C 
ATOM     13  O   UNL A   1      31.478  24.549  23.379  1.00  0.00    -0.268 OA
BRANCH  12  14
ATOM     14  C   UNL A   1      33.299  22.988  23.069  1.00  0.00     0.173 C 
BRANCH  14  15
ATOM     15  C   UNL A   1      34.844  23.236  23.178  1.00  0.00     0.075 C 
ATOM     16  C   UNL A   1      35.623  22.273  24.084  1.00  0.00     0.011 C 
ENDBRANCH  14  15
BRANCH  14  17
ATOM     17  N   UNL A   1      32.989  23.039  21.612  1.00  0.00    -0.345 N 
ATOM     18  H   UNL A   1      32.492  23.905  21.400  1.00  0.00     0.345 HD
ATOM     19  H   UNL A   1      32.404  22.242  21.361  1.00  0.00     0.345 HD
ATOM     20  H   UNL A   1      33.857  23.006  21.078  1.00  0.00     0.345 HD
ENDBRANCH  14  17
BRANCH  14  21
ATOM     21  C   UNL A   1      32.993  21.576  23.635  1.00  0.00     0.075 C 
ATOM     22  C   UNL A   1      32.076  20.730  22.755  1.00  0.00     0.011 C 
ENDBRANCH  14  21
ENDBRANCH  12  14
ENDBRANCH  11  12
BRANCH  11  23
ATOM     23  C   UNL A   1      32.442  24.015  26.310  1.00  0.00     0.079 C 
ATOM     24  C   UNL A   1      31.013  23.499  26.146  1.00  0.00     0.031 C 
ATOM     25  C   UNL A   1      33.374  22.976  26.945  1.00  0.00     0.031 C 
ENDBRANCH  11  23
ENDBRANCH  10  11
ENDBRANCH   9  10
ENDBRANCH   7   9
ENDBRANCH   6   7
ENDBRANCH   5   6
ENDBRANCH   4   5
ENDBRANCH   3   4
ENDBRANCH   2   3
ENDBRANCH   1   2
BRANCH   1  26
ATOM     26  O   UNL A   1      36.519  30.938  28.564  1.00  0.00    -0.377 OA
BRANCH  26  27
ATOM     27  C   UNL A   1      36.337  29.690  29.231  1.00  0.00     0.188 C 
BRANCH  27  28
ATOM     28  C   UNL A   1      36.742  29.588  30.709  1.00  0.00     0.188 C 
BRANCH  28  29
ATOM     29  O   UNL A   1      36.001  30.429  31.568  1.00  0.00    -0.376 OA
BRANCH  29  30
ATOM     30  C   UNL A   1      36.604  31.607  32.079  1.00  0.00     0.202 C 
BRANCH  30  31
ATOM     31  C   UNL A   1      37.994  32.113  31.647  1.00  0.00     0.261 C 
BRANCH  31  32
ATOM     32  O   UNL A   1      39.094  31.973  32.555  1.00  0.00    -0.460 OA
BRANCH  32  33
ATOM     33  C   UNL A   1      39.603  30.744  32.768  1.00  0.00     0.338 C 
ATOM     34  O   UNL A   1      39.085  29.831  33.394  1.00  0.00    -0.246 OA
BRANCH  33  35
ATOM     35  C   UNL A   1      40.850  30.643  31.980  1.00  0.00     0.060 A 
ATOM     36  C   UNL A   1      40.889  31.155  30.677  1.00  0.00     0.016 A 
ATOM     37  C   UNL A   1      41.984  30.040  32.533  1.00  0.00     0.016 A 
ATOM     38  C   UNL A   1      42.055  31.044  29.916  1.00  0.00     0.010 A 
ATOM     39  C   UNL A   1      43.145  29.914  31.761  1.00  0.00     0.010 A 
ATOM     40  C   UNL A   1      43.181  30.396  30.441  1.00  0.00    -0.014 A 
BRANCH  40  41
ATOM     41  C   UNL A   1      44.355  30.120  29.573  1.00  0.00     0.031 A 
ATOM     42  C   UNL A   1      44.429  28.806  28.842  1.00  0.00     0.074 A 
ATOM     43  C   UNL A   1      45.341  31.028  29.440  1.00  0.00     0.049 A 
ATOM     44  N   UNL A   1      45.394  28.322  28.106  1.00  0.00    -0.248 NA
ATOM     45  C   UNL A   1      43.257  27.921  28.953  1.00  0.00     0.031 C 
ATOM     46  C   UNL A   1      45.361  32.349  30.068  1.00  0.00     0.029 A 
ATOM     47  N   UNL A   1      46.526  30.968  28.749  1.00  0.00    -0.354 N 
ATOM     48  C   UNL A   1      44.960  27.070  27.684  1.00  0.00     0.074 A 
ATOM     49  C   UNL A   1      43.643  26.866  28.249  1.00  0.00     0.031 C 
ATOM     50  C   UNL A   1      46.517  32.962  29.757  1.00  0.00     0.029 A 
ATOM     51  C   UNL A   1      47.335  32.064  28.946  1.00  0.00     0.049 A 
ATOM     52  H   UNL A   1      46.774  30.212  28.168  1.00  0.00     0.167 HD
ATOM     53  C   UNL A   1      45.605  26.175  26.901  1.00  0.00     0.037 A 
ATOM     54  C   UNL A   1      48.605  32.294  28.555  1.00  0.00     0.037 A 
ATOM     55  C   UNL A   1      46.909  26.396  26.330  1.00  0.00     0.049 A 
ATOM     56  C   UNL A   1      49.325  31.247  27.738  1.00  0.00     0.074 A 
ATOM     57  C   UNL A   1      47.620  25.572  25.475  1.00  0.00     0.029 A 
ATOM     58  N   UNL A   1      47.702  27.507  26.566  1.00  0.00    -0.354 N 
ATOM     59  N   UNL A   1      48.879  30.094  27.296  1.00  0.00    -0.248 NA
ATOM     60  C   UNL A   1      50.722  31.528  27.372  1.00  0.00     0.031 C 
ATOM     61  C   UNL A   1      48.873  26.151  25.252  1.00  0.00     0.029 A 
ATOM     62  C   UNL A   1      48.916  27.368  25.914  1.00  0.00     0.049 A 
ATOM     63  H   UNL A   1      47.442  28.282  27.116  1.00  0.00     0.167 HD
ATOM     64  C   UNL A   1      49.934  29.524  26.589  1.00  0.00     0.074 A 
ATOM     65  C   UNL A   1      51.029  30.469  26.636  1.00  0.00     0.031 C 
ATOM     66  C   UNL A   1      49.995  28.322  25.963  1.00  0.00     0.037 A 
BRANCH  53  67
ATOM     67  C   UNL A   1      44.944  24.853  26.626  1.00  0.00     0.058 A 
ATOM     68  C   UNL A   1      45.104  23.749  27.475  1.00  0.00     0.135 A 
ATOM     69  C   UNL A   1      44.046  24.729  25.552  1.00  0.00     0.135 A 
ATOM     70  F   UNL A   1      45.964  23.806  28.505  1.00  0.00    -0.206 F 
ATOM     71  C   UNL A   1      44.390  22.571  27.275  1.00  0.00     0.059 A 
ATOM     72  C   UNL A   1      43.304  23.569  25.347  1.00  0.00     0.059 A 
ATOM     73  F   UNL A   1      43.862  25.754  24.704  1.00  0.00    -0.206 F 
ATOM     74  C   UNL A   1      43.484  22.495  26.216  1.00  0.00     0.060 A 
BRANCH  74  75
ATOM     75  S   UNL A   1      42.517  20.984  26.013  1.00  0.00     0.124 S 
ATOM     76  O   UNL A   1      43.286  20.280  24.991  1.00  0.00    -0.237 OA
ATOM     77  O   UNL A   1      42.565  20.404  27.352  1.00  0.00    -0.237 OA
ATOM     78  O   UNL A   1      41.208  21.469  25.588  1.00  0.00    -0.744 OA
ENDBRANCH  74  75
ENDBRANCH  53  67
BRANCH  54  79
ATOM     79  C   UNL A   1      49.314  33.537  28.975  1.00  0.00     0.058 A 
ATOM     80  C   UNL A   1      49.991  33.614  30.201  1.00  0.00     0.135 A 
ATOM     81  C   UNL A   1      49.278  34.694  28.179  1.00  0.00     0.135 A 
ATOM     82  F   UNL A   1      50.046  32.543  31.006  1.00  0.00    -0.206 F 
ATOM     83  C   UNL A   1      50.576  34.799  30.639  1.00  0.00     0.059 A 
ATOM     84  C   UNL A   1      49.886  35.880  28.577  1.00  0.00     0.059 A 
ATOM     85  F   UNL A   1      48.649  34.675  26.993  1.00  0.00    -0.206 F 
ATOM     86  C   UNL A   1      50.515  35.929  29.820  1.00  0.00     0.060 A 
BRANCH  86  87
ATOM     87  S   UNL A   1      51.278  37.459  30.399  1.00  0.00     0.124 S 
ATOM     88  O   UNL A   1      52.343  37.645  29.419  1.00  0.00    -0.237 OA
ATOM     89  O   UNL A   1      50.168  38.403  30.320  1.00  0.00    -0.237 OA
ATOM     90  O   UNL A   1      51.715  37.128  31.752  1.00  0.00    -0.744 OA
ENDBRANCH  86  87
ENDBRANCH  54  79
BRANCH  66  91
ATOM     91  C   UNL A   1      51.277  27.963  25.262  1.00  0.00     0.058 A 
ATOM     92  C   UNL A   1      51.536  28.375  23.945  1.00  0.00     0.135 A 
ATOM     93  C   UNL A   1      52.288  27.257  25.938  1.00  0.00     0.135 A 
ATOM     94  F   UNL A   1      50.602  29.044  23.251  1.00  0.00    -0.206 F 
ATOM     95  C   UNL A   1      52.743  28.084  23.317  1.00  0.00     0.059 A 
ATOM     96  C   UNL A   1      53.515  26.984  25.340  1.00  0.00     0.059 A 
ATOM     97  F   UNL A   1      52.098  26.850  27.203  1.00  0.00    -0.206 F 
ATOM     98  C   UNL A   1      53.728  27.393  24.025  1.00  0.00     0.060 A 
BRANCH  98  99
ATOM     99  S   UNL A   1      55.306  27.067  23.210  1.00  0.00     0.124 S 
ATOM    100  O   UNL A   1      55.926  26.124  24.135  1.00  0.00    -0.237 OA
ATOM    101  O   UNL A   1      54.885  26.513  21.927  1.00  0.00    -0.237 OA
ATOM    102  O   UNL A   1      55.934  28.383  23.143  1.00  0.00    -0.744 OA
ENDBRANCH  98  99
ENDBRANCH  66  91
ENDBRANCH  40  41
ENDBRANCH  33  35
ENDBRANCH  32  33
ENDBRANCH  31  32
ENDBRANCH  30  31
ENDBRANCH  29  30
ENDBRANCH  28  29
ENDBRANCH  27  28
ENDBRANCH  26  27
ENDBRANCH   1  26
TORSDOF 31
ENDMDL
MODEL 2
REMARK VINA RESULT:      -6.8      6.043      8.337
REMARK SMILES CCC([NH3+])(CC)C(=O)N(CCC(=O)OCCOCCOCCOCCOC(=O)c1ccc(-c2c3nc(c(-c4c(F)cc(S(=O)(=O)[O-])cc4F)c4ccc([nH]4)c(-c4c(F)cc(S(=O)(=O)[O-])cc4F)c4nc(c(-c5c(F)cc(S(=O)(=O)[O-])cc5F)c5ccc2[nH]5)C=C4)C=C3)cc1)C(C)C
REMARK SMILES IDX 19 1 18 2 17 3 16 4 15 5 14 6 12 7 13 8 11 9 10 10 9 11 7 12
REMARK SMILES IDX 8 13 3 14 2 15 1 16 4 17 5 21 6 22 95 23 96 24 97 25 20 26
REMARK SMILES IDX 21 27 22 28 23 29 24 30 25 31 26 32 27 33 28 34 29 35 30 36
REMARK SMILES IDX 94 37 31 38 93 39 32 40 33 41 34 42 87 43 35 44 92 45 86 46
REMARK SMILES IDX 88 47 36 48 91 49 85 50 84 51 37 53 71 54 50 55 70 56 51 57
REMARK SMILES IDX 54 58 69 59 89 60 52 61 53 62 68 64 90 65 55 66 38 67 39 68
REMARK SMILES IDX 48 69 40 70 41 71 47 72 49 73 42 74 43 75 44 76 45 77 46 78
REMARK SMILES IDX 72 79 73 80 82 81 74 82 75 83 81 84 83 85 76 86 77 87 78 88
REMARK SMILES IDX 79 89 80 90 56 91 57 92 66 93 58 94 59 95 65 96 67 97 60 98
REMARK SMILES IDX 61 99 62 100 63 101 64 102
REMARK H PARENT 4 18 4 19 4 20 88 52 54 63
REMARK Flexibility Score: inf
ROOT
ATOM      1  C   UNL A   1      43.610  22.855  26.308  1.00  0.00     0.188 C 
ENDROOT
BRANCH   1   2
ATOM      2  C   UNL A   1      42.750  21.910  27.159  1.00  0.00     0.188 C 
BRANCH   2   3
ATOM      3  O   UNL A   1      41.815  21.160  26.406  1.00  0.00    -0.376 OA
BRANCH   3   4
ATOM      4  C   UNL A   1      40.461  21.292  26.811  1.00  0.00     0.202 C 
BRANCH   4   5
ATOM      5  C   UNL A   1      39.445  21.612  25.701  1.00  0.00     0.261 C 
BRANCH   5   6
ATOM      6  O   UNL A   1      38.189  22.153  26.149  1.00  0.00    -0.463 OA
BRANCH   6   7
ATOM      7  C   UNL A   1      37.315  22.587  25.225  1.00  0.00     0.307 C 
ATOM      8  O   UNL A   1      37.377  23.693  24.696  1.00  0.00    -0.252 OA
BRANCH   7   9
ATOM      9  C   UNL A   1      36.239  21.583  24.858  1.00  0.00     0.144 C 
BRANCH   9  10
ATOM     10  C   UNL A   1      34.857  22.026  24.359  1.00  0.00     0.131 C 
BRANCH  10  11
ATOM     11  N   UNL A   1      33.969  22.722  25.306  1.00  0.00    -0.334 N 
BRANCH  11  12
ATOM     12  C   UNL A   1      33.709  24.094  25.377  1.00  0.00     0.284 C 
ATOM     13  O   UNL A   1      34.608  24.863  25.738  1.00  0.00    -0.268 OA
BRANCH  12  14
ATOM     14  C   UNL A   1      32.303  24.710  25.021  1.00  0.00     0.173 C 
BRANCH  14  15
ATOM     15  C   UNL A   1      31.423  23.625  24.309  1.00  0.00     0.075 C 
ATOM     16  C   UNL A   1      30.458  24.134  23.231  1.00  0.00     0.011 C 
ENDBRANCH  14  15
BRANCH  14  17
ATOM     17  N   UNL A   1      32.430  25.826  24.041  1.00  0.00    -0.345 N 
ATOM     18  H   UNL A   1      32.929  26.604  24.474  1.00  0.00     0.345 HD
ATOM     19  H   UNL A   1      31.501  26.136  23.756  1.00  0.00     0.345 HD
ATOM     20  H   UNL A   1      32.947  25.504  23.224  1.00  0.00     0.345 HD
ENDBRANCH  14  17
BRANCH  14  21
ATOM     21  C   UNL A   1      31.548  25.191  26.289  1.00  0.00     0.075 C 
ATOM     22  C   UNL A   1      30.965  26.598  26.179  1.00  0.00     0.011 C 
ENDBRANCH  14  21
ENDBRANCH  12  14
ENDBRANCH  11  12
BRANCH  11  23
ATOM     23  C   UNL A   1      33.256  21.855  26.272  1.00  0.00     0.079 C 
ATOM     24  C   UNL A   1      32.919  20.473  25.713  1.00  0.00     0.031 C 
ATOM     25  C   UNL A   1      33.933  21.785  27.646  1.00  0.00     0.031 C 
ENDBRANCH  11  23
ENDBRANCH  10  11
ENDBRANCH   9  10
ENDBRANCH   7   9
ENDBRANCH   6   7
ENDBRANCH   5   6
ENDBRANCH   4   5
ENDBRANCH   3   4
ENDBRANCH   2   3
ENDBRANCH   1   2
BRANCH   1  26
ATOM     26  O   UNL A   1      43.001  23.838  25.476  1.00  0.00    -0.377 OA
BRANCH  26  27
ATOM     27  C   UNL A   1      42.507  25.051  26.041  1.00  0.00     0.188 C 
BRANCH  27  28
ATOM     28  C   UNL A   1      40.994  25.311  26.000  1.00  0.00     0.188 C 
BRANCH  28  29
ATOM     29  O   UNL A   1      40.596  26.495  26.658  1.00  0.00    -0.376 OA
BRANCH  29  30
ATOM     30  C   UNL A   1      41.142  27.737  26.246  1.00  0.00     0.202 C 
BRANCH  30  31
ATOM     31  C   UNL A   1      41.743  28.772  27.216  1.00  0.00     0.261 C 
BRANCH  31  32
ATOM     32  O   UNL A   1      41.012  29.117  28.400  1.00  0.00    -0.460 OA
BRANCH  32  33
ATOM     33  C   UNL A   1      40.811  28.168  29.335  1.00  0.00     0.338 C 
ATOM     34  O   UNL A   1      39.740  27.692  29.683  1.00  0.00    -0.246 OA
BRANCH  33  35
ATOM     35  C   UNL A   1      42.141  27.692  29.769  1.00  0.00     0.060 A 
ATOM     36  C   UNL A   1      42.988  28.554  30.477  1.00  0.00     0.016 A 
ATOM     37  C   UNL A   1      42.551  26.387  29.477  1.00  0.00     0.016 A 
ATOM     38  C   UNL A   1      44.256  28.121  30.873  1.00  0.00     0.010 A 
ATOM     39  C   UNL A   1      43.829  25.963  29.859  1.00  0.00     0.010 A 
ATOM     40  C   UNL A   1      44.698  26.834  30.540  1.00  0.00    -0.014 A 
BRANCH  40  41
ATOM     41  C   UNL A   1      46.105  26.436  30.801  1.00  0.00     0.031 A 
ATOM     42  C   UNL A   1      46.420  25.643  32.041  1.00  0.00     0.074 A 
ATOM     43  C   UNL A   1      47.087  26.777  29.945  1.00  0.00     0.049 A 
ATOM     44  N   UNL A   1      47.581  25.266  32.509  1.00  0.00    -0.248 NA
ATOM     45  C   UNL A   1      45.275  25.215  32.861  1.00  0.00     0.031 C 
ATOM     46  C   UNL A   1      46.898  27.511  28.694  1.00  0.00     0.029 A 
ATOM     47  N   UNL A   1      48.444  26.570  30.009  1.00  0.00    -0.354 N 
ATOM     48  C   UNL A   1      47.311  24.578  33.687  1.00  0.00     0.074 A 
ATOM     49  C   UNL A   1      45.875  24.590  33.865  1.00  0.00     0.031 C 
ATOM     50  C   UNL A   1      48.098  27.719  28.123  1.00  0.00     0.029 A 
ATOM     51  C   UNL A   1      49.142  27.172  28.987  1.00  0.00     0.049 A 
ATOM     52  H   UNL A   1      48.875  26.042  30.719  1.00  0.00     0.167 HD
ATOM     53  C   UNL A   1      48.184  23.993  34.540  1.00  0.00     0.037 A 
ATOM     54  C   UNL A   1      50.471  27.305  28.797  1.00  0.00     0.037 A 
ATOM     55  C   UNL A   1      49.611  23.972  34.343  1.00  0.00     0.049 A 
ATOM     56  C   UNL A   1      51.422  26.701  29.802  1.00  0.00     0.074 A 
ATOM     57  C   UNL A   1      50.573  23.354  35.123  1.00  0.00     0.029 A 
ATOM     58  N   UNL A   1      50.281  24.605  33.309  1.00  0.00    -0.354 N 
ATOM     59  N   UNL A   1      51.151  26.000  30.878  1.00  0.00    -0.248 NA
ATOM     60  C   UNL A   1      52.860  26.909  29.571  1.00  0.00     0.031 C 
ATOM     61  C   UNL A   1      51.830  23.674  34.601  1.00  0.00     0.029 A 
ATOM     62  C   UNL A   1      51.647  24.436  33.457  1.00  0.00     0.049 A 
ATOM     63  H   UNL A   1      49.849  25.104  32.577  1.00  0.00     0.167 HD
ATOM     64  C   UNL A   1      52.382  25.673  31.440  1.00  0.00     0.074 A 
ATOM     65  C   UNL A   1      53.398  26.225  30.572  1.00  0.00     0.031 C 
ATOM     66  C   UNL A   1      52.648  24.985  32.578  1.00  0.00     0.037 A 
BRANCH  53  67
ATOM     67  C   UNL A   1      47.647  23.348  35.788  1.00  0.00     0.058 A 
ATOM     68  C   UNL A   1      47.292  21.992  35.832  1.00  0.00     0.135 A 
ATOM     69  C   UNL A   1      47.594  24.080  36.986  1.00  0.00     0.135 A 
ATOM     70  F   UNL A   1      47.306  21.252  34.712  1.00  0.00    -0.206 F 
ATOM     71  C   UNL A   1      46.912  21.382  37.023  1.00  0.00     0.059 A 
ATOM     72  C   UNL A   1      47.240  23.484  38.193  1.00  0.00     0.059 A 
ATOM     73  F   UNL A   1      47.915  25.383  36.997  1.00  0.00    -0.206 F 
ATOM     74  C   UNL A   1      46.901  22.133  38.200  1.00  0.00     0.060 A 
BRANCH  74  75
ATOM     75  S   UNL A   1      46.471  21.306  39.748  1.00  0.00     0.124 S 
ATOM     76  O   UNL A   1      45.783  20.114  39.261  1.00  0.00    -0.237 OA
ATOM     77  O   UNL A   1      47.781  21.079  40.350  1.00  0.00    -0.237 OA
ATOM     78  O   UNL A   1      45.628  22.279  40.433  1.00  0.00    -0.744 OA
ENDBRANCH  74  75
ENDBRANCH  53  67
BRANCH  54  79
ATOM     79  C   UNL A   1      50.995  28.092  27.645  1.00  0.00     0.058 A 
ATOM     80  C   UNL A   1      51.269  27.487  26.409  1.00  0.00     0.135 A 
ATOM     81  C   UNL A   1      51.287  29.461  27.777  1.00  0.00     0.135 A 
ATOM     82  F   UNL A   1      51.023  26.181  26.232  1.00  0.00    -0.206 F 
ATOM     83  C   UNL A   1      51.845  28.199  25.360  1.00  0.00     0.059 A 
ATOM     84  C   UNL A   1      51.828  30.202  26.731  1.00  0.00     0.059 A 
ATOM     85  F   UNL A   1      51.038  30.092  28.934  1.00  0.00    -0.206 F 
ATOM     86  C   UNL A   1      52.124  29.556  25.532  1.00  0.00     0.060 A 
BRANCH  86  87
ATOM     87  S   UNL A   1      52.868  30.468  24.163  1.00  0.00     0.124 S 
ATOM     88  O   UNL A   1      53.912  31.224  24.846  1.00  0.00    -0.237 OA
ATOM     89  O   UNL A   1      53.327  29.390  23.293  1.00  0.00    -0.237 OA
ATOM     90  O   UNL A   1      51.757  31.257  23.639  1.00  0.00    -0.744 OA
ENDBRANCH  86  87
ENDBRANCH  54  79
BRANCH  66  91
ATOM     91  C   UNL A   1      54.092  24.772  32.945  1.00  0.00     0.058 A 
ATOM     92  C   UNL A   1      54.774  23.596  32.593  1.00  0.00     0.135 A 
ATOM     93  C   UNL A   1      54.822  25.781  33.595  1.00  0.00     0.135 A 
ATOM     94  F   UNL A   1      54.123  22.595  31.978  1.00  0.00    -0.206 F 
ATOM     95  C   UNL A   1      56.122  23.421  32.889  1.00  0.00     0.059 A 
ATOM     96  C   UNL A   1      56.179  25.641  33.871  1.00  0.00     0.059 A 
ATOM     97  F   UNL A   1      54.222  26.931  33.944  1.00  0.00    -0.206 F 
ATOM     98  C   UNL A   1      56.817  24.453  33.523  1.00  0.00     0.060 A 
BRANCH  98  99
ATOM     99  S   UNL A   1      58.578  24.229  33.856  1.00  0.00     0.124 S 
ATOM    100  O   UNL A   1      59.180  24.792  32.653  1.00  0.00    -0.237 OA
ATOM    101  O   UNL A   1      58.763  25.002  35.080  1.00  0.00    -0.237 OA
ATOM    102  O   UNL A   1      58.714  22.783  34.007  1.00  0.00    -0.744 OA
ENDBRANCH  98  99
ENDBRANCH  66  91
ENDBRANCH  40  41
ENDBRANCH  33  35
ENDBRANCH  32  33
ENDBRANCH  31  32
ENDBRANCH  30  31
ENDBRANCH  29  30
ENDBRANCH  28  29
ENDBRANCH  27  28
ENDBRANCH  26  27
ENDBRANCH   1  26
TORSDOF 31
ENDMDL
MODEL 3
REMARK VINA RESULT:      -6.4      1.624      2.547
REMARK SMILES CCC([NH3+])(CC)C(=O)N(CCC(=O)OCCOCCOCCOCCOC(=O)c1ccc(-c2c3nc(c(-c4c(F)cc(S(=O)(=O)[O-])cc4F)c4ccc([nH]4)c(-c4c(F)cc(S(=O)(=O)[O-])cc4F)c4nc(c(-c5c(F)cc(S(=O)(=O)[O-])cc5F)c5ccc2[nH]5)C=C4)C=C3)cc1)C(C)C
REMARK SMILES IDX 19 1 18 2 17 3 16 4 15 5 14 6 12 7 13 8 11 9 10 10 9 11 7 12
REMARK SMILES IDX 8 13 3 14 2 15 1 16 4 17 5 21 6 22 95 23 96 24 97 25 20 26
REMARK SMILES IDX 21 27 22 28 23 29 24 30 25 31 26 32 27 33 28 34 29 35 30 36
REMARK SMILES IDX 94 37 31 38 93 39 32 40 33 41 34 42 87 43 35 44 92 45 86 46
REMARK SMILES IDX 88 47 36 48 91 49 85 50 84 51 37 53 71 54 50 55 70 56 51 57
REMARK SMILES IDX 54 58 69 59 89 60 52 61 53 62 68 64 90 65 55 66 38 67 39 68
REMARK SMILES IDX 48 69 40 70 41 71 47 72 49 73 42 74 43 75 44 76 45 77 46 78
REMARK SMILES IDX 72 79 73 80 82 81 74 82 75 83 81 84 83 85 76 86 77 87 78 88
REMARK SMILES IDX 79 89 80 90 56 91 57 92 66 93 58 94 59 95 65 96 67 97 60 98
REMARK SMILES IDX 61 99 62 100 63 101 64 102
REMARK H PARENT 4 18 4 19 4 20 88 52 54 63
REMARK Flexibility Score: inf
ROOT
ATOM      1  C   UNL A   1      35.572  31.255  27.732  1.00  0.00     0.188 C 
ENDROOT
BRANCH   1   2
ATOM      2  C   UNL A   1      34.124  30.787  27.938  1.00  0.00     0.188 C 
BRANCH   2   3
ATOM      3  O   UNL A   1      33.314  30.923  26.785  1.00  0.00    -0.376 OA
BRANCH   3   4
ATOM      4  C   UNL A   1      32.224  30.019  26.696  1.00  0.00     0.202 C 
BRANCH   4   5
ATOM      5  C   UNL A   1      31.736  29.675  25.278  1.00  0.00     0.261 C 
BRANCH   5   6
ATOM      6  O   UNL A   1      32.766  29.557  24.280  1.00  0.00    -0.463 OA
BRANCH   6   7
ATOM      7  C   UNL A   1      32.913  28.377  23.652  1.00  0.00     0.307 C 
ATOM      8  O   UNL A   1      33.971  27.756  23.610  1.00  0.00    -0.252 OA
BRANCH   7   9
ATOM      9  C   UNL A   1      31.647  27.847  23.007  1.00  0.00     0.144 C 
BRANCH   9  10
ATOM     10  C   UNL A   1      31.545  26.405  22.493  1.00  0.00     0.131 C 
BRANCH  10  11
ATOM     11  N   UNL A   1      31.007  25.381  23.405  1.00  0.00    -0.334 N 
BRANCH  11  12
ATOM     12  C   UNL A   1      31.422  24.052  23.529  1.00  0.00     0.284 C 
ATOM     13  O   UNL A   1      30.712  23.150  23.067  1.00  0.00    -0.268 OA
BRANCH  12  14
ATOM     14  C   UNL A   1      32.763  23.645  24.249  1.00  0.00     0.173 C 
BRANCH  14  15
ATOM     15  C   UNL A   1      33.336  24.883  25.022  1.00  0.00     0.075 C 
ATOM     16  C   UNL A   1      34.820  24.818  25.405  1.00  0.00     0.011 C 
ENDBRANCH  14  15
BRANCH  14  17
ATOM     17  N   UNL A   1      33.816  23.267  23.265  1.00  0.00    -0.345 N 
ATOM     18  H   UNL A   1      34.684  23.753  23.492  1.00  0.00     0.345 HD
ATOM     19  H   UNL A   1      33.515  23.532  22.327  1.00  0.00     0.345 HD
ATOM     20  H   UNL A   1      33.971  22.260  23.300  1.00  0.00     0.345 HD
ENDBRANCH  14  17
BRANCH  14  21
ATOM     21  C   UNL A   1      32.543  22.496  25.269  1.00  0.00     0.075 C 
ATOM     22  C   UNL A   1      33.126  21.152  24.838  1.00  0.00     0.011 C 
ENDBRANCH  14  21
ENDBRANCH  12  14
ENDBRANCH  11  12
BRANCH  11  23
ATOM     23  C   UNL A   1      29.921  25.831  24.306  1.00  0.00     0.079 C 
ATOM     24  C   UNL A   1      30.401  26.148  25.722  1.00  0.00     0.031 C 
ATOM     25  C   UNL A   1      29.058  26.951  23.713  1.00  0.00     0.031 C 
ENDBRANCH  11  23
ENDBRANCH  10  11
ENDBRANCH   9  10
ENDBRANCH   7   9
ENDBRANCH   6   7
ENDBRANCH   5   6
ENDBRANCH   4   5
ENDBRANCH   3   4
ENDBRANCH   2   3
ENDBRANCH   1   2
BRANCH   1  26
ATOM     26  O   UNL A   1      36.498  31.242  28.814  1.00  0.00    -0.377 OA
BRANCH  26  27
ATOM     27  C   UNL A   1      36.492  30.168  29.752  1.00  0.00     0.188 C 
BRANCH  27  28
ATOM     28  C   UNL A   1      36.499  30.507  31.250  1.00  0.00     0.188 C 
BRANCH  28  29
ATOM     29  O   UNL A   1      35.570  31.505  31.617  1.00  0.00    -0.376 OA
BRANCH  29  30
ATOM     30  C   UNL A   1      35.977  32.864  31.633  1.00  0.00     0.202 C 
BRANCH  30  31
ATOM     31  C   UNL A   1      37.419  33.328  31.349  1.00  0.00     0.261 C 
BRANCH  31  32
ATOM     32  O   UNL A   1      38.323  33.491  32.449  1.00  0.00    -0.460 OA
BRANCH  32  33
ATOM     33  C   UNL A   1      38.791  32.391  33.069  1.00  0.00     0.338 C 
ATOM     34  O   UNL A   1      38.227  31.736  33.933  1.00  0.00    -0.246 OA
BRANCH  33  35
ATOM     35  C   UNL A   1      40.063  32.024  32.410  1.00  0.00     0.060 A 
ATOM     36  C   UNL A   1      40.285  32.396  31.078  1.00  0.00     0.016 A 
ATOM     37  C   UNL A   1      41.038  31.309  33.112  1.00  0.00     0.016 A 
ATOM     38  C   UNL A   1      41.473  32.035  30.439  1.00  0.00     0.010 A 
ATOM     39  C   UNL A   1      42.220  30.933  32.463  1.00  0.00     0.010 A 
ATOM     40  C   UNL A   1      42.435  31.275  31.116  1.00  0.00    -0.014 A 
BRANCH  40  41
ATOM     41  C   UNL A   1      43.614  30.739  30.386  1.00  0.00     0.031 A 
ATOM     42  C   UNL A   1      43.520  29.378  29.750  1.00  0.00     0.074 A 
ATOM     43  C   UNL A   1      44.750  31.456  30.293  1.00  0.00     0.049 A 
ATOM     44  N   UNL A   1      44.445  28.683  29.143  1.00  0.00    -0.248 NA
ATOM     45  C   UNL A   1      42.207  28.713  29.801  1.00  0.00     0.031 C 
ATOM     46  C   UNL A   1      44.946  32.800  30.836  1.00  0.00     0.029 A 
ATOM     47  N   UNL A   1      45.961  31.145  29.725  1.00  0.00    -0.354 N 
ATOM     48  C   UNL A   1      43.838  27.493  28.760  1.00  0.00     0.074 A 
ATOM     49  C   UNL A   1      42.463  27.556  29.205  1.00  0.00     0.031 C 
ATOM     50  C   UNL A   1      46.212  33.185  30.602  1.00  0.00     0.029 A 
ATOM     51  C   UNL A   1      46.928  32.103  29.932  1.00  0.00     0.049 A 
ATOM     52  H   UNL A   1      46.123  30.315  29.220  1.00  0.00     0.167 HD
ATOM     53  C   UNL A   1      44.382  26.443  28.100  1.00  0.00     0.037 A 
ATOM     54  C   UNL A   1      48.248  32.086  29.652  1.00  0.00     0.037 A 
ATOM     55  C   UNL A   1      45.749  26.398  27.646  1.00  0.00     0.049 A 
ATOM     56  C   UNL A   1      48.841  30.872  28.976  1.00  0.00     0.074 A 
ATOM     57  C   UNL A   1      46.376  25.402  26.918  1.00  0.00     0.029 A 
ATOM     58  N   UNL A   1      46.700  27.376  27.888  1.00  0.00    -0.354 N 
ATOM     59  N   UNL A   1      48.241  29.779  28.566  1.00  0.00    -0.248 NA
ATOM     60  C   UNL A   1      50.292  30.886  28.731  1.00  0.00     0.031 C 
ATOM     61  C   UNL A   1      47.725  25.745  26.782  1.00  0.00     0.029 A 
ATOM     62  C   UNL A   1      47.922  26.985  27.367  1.00  0.00     0.049 A 
ATOM     63  H   UNL A   1      46.532  28.224  28.361  1.00  0.00     0.167 HD
ATOM     64  C   UNL A   1      49.237  28.987  28.002  1.00  0.00     0.074 A 
ATOM     65  C   UNL A   1      50.472  29.736  28.096  1.00  0.00     0.031 C 
ATOM     66  C   UNL A   1      49.142  27.747  27.461  1.00  0.00     0.037 A 
BRANCH  53  67
ATOM     67  C   UNL A   1      43.527  25.233  27.845  1.00  0.00     0.058 A 
ATOM     68  C   UNL A   1      42.815  25.063  26.649  1.00  0.00     0.135 A 
ATOM     69  C   UNL A   1      43.513  24.179  28.773  1.00  0.00     0.135 A 
ATOM     70  F   UNL A   1      42.780  26.047  25.736  1.00  0.00    -0.206 F 
ATOM     71  C   UNL A   1      42.126  23.884  26.377  1.00  0.00     0.059 A 
ATOM     72  C   UNL A   1      42.850  22.982  28.512  1.00  0.00     0.059 A 
ATOM     73  F   UNL A   1      44.171  24.294  29.937  1.00  0.00    -0.206 F 
ATOM     74  C   UNL A   1      42.160  22.846  27.310  1.00  0.00     0.060 A 
BRANCH  74  75
ATOM     75  S   UNL A   1      41.318  21.299  26.910  1.00  0.00     0.124 S 
ATOM     76  O   UNL A   1      42.029  20.350  27.761  1.00  0.00    -0.237 OA
ATOM     77  O   UNL A   1      39.941  21.588  27.298  1.00  0.00    -0.237 OA
ATOM     78  O   UNL A   1      41.544  21.146  25.477  1.00  0.00    -0.744 OA
ENDBRANCH  74  75
ENDBRANCH  53  67
BRANCH  54  79
ATOM     79  C   UNL A   1      49.123  33.221  30.061  1.00  0.00     0.058 A 
ATOM     80  C   UNL A   1      49.391  34.288  29.191  1.00  0.00     0.135 A 
ATOM     81  C   UNL A   1      49.755  33.231  31.316  1.00  0.00     0.135 A 
ATOM     82  F   UNL A   1      48.825  34.323  27.976  1.00  0.00    -0.206 F 
ATOM     83  C   UNL A   1      50.280  35.304  29.534  1.00  0.00     0.059 A 
ATOM     84  C   UNL A   1      50.618  34.254  31.696  1.00  0.00     0.059 A 
ATOM     85  F   UNL A   1      49.529  32.239  32.190  1.00  0.00    -0.206 F 
ATOM     86  C   UNL A   1      50.891  35.276  30.789  1.00  0.00     0.060 A 
BRANCH  86  87
ATOM     87  S   UNL A   1      52.039  36.600  31.222  1.00  0.00     0.124 S 
ATOM     88  O   UNL A   1      52.670  36.061  32.423  1.00  0.00    -0.237 OA
ATOM     89  O   UNL A   1      52.885  36.671  30.035  1.00  0.00    -0.237 OA
ATOM     90  O   UNL A   1      51.165  37.751  31.430  1.00  0.00    -0.744 OA
ENDBRANCH  86  87
ENDBRANCH  54  79
BRANCH  66  91
ATOM     91  C   UNL A   1      50.397  27.124  26.912  1.00  0.00     0.058 A 
ATOM     92  C   UNL A   1      51.267  26.383  27.727  1.00  0.00     0.135 A 
ATOM     93  C   UNL A   1      50.699  27.212  25.543  1.00  0.00     0.135 A 
ATOM     94  F   UNL A   1      51.032  26.274  29.044  1.00  0.00    -0.206 F 
ATOM     95  C   UNL A   1      52.401  25.766  27.207  1.00  0.00     0.059 A 
ATOM     96  C   UNL A   1      51.809  26.576  24.995  1.00  0.00     0.059 A 
ATOM     97  F   UNL A   1      49.894  27.899  24.715  1.00  0.00    -0.206 F 
ATOM     98  C   UNL A   1      52.660  25.863  25.838  1.00  0.00     0.060 A 
BRANCH  98  99
ATOM     99  S   UNL A   1      54.109  25.017  25.173  1.00  0.00     0.124 S 
ATOM    100  O   UNL A   1      54.451  25.866  24.037  1.00  0.00    -0.237 OA
ATOM    101  O   UNL A   1      55.038  25.058  26.298  1.00  0.00    -0.237 OA
ATOM    102  O   UNL A   1      53.603  23.691  24.832  1.00  0.00    -0.744 OA
ENDBRANCH  98  99
ENDBRANCH  66  91
ENDBRANCH  40  41
ENDBRANCH  33  35
ENDBRANCH  32  33
ENDBRANCH  31  32
ENDBRANCH  30  31
ENDBRANCH  29  30
ENDBRANCH  28  29
ENDBRANCH  27  28
ENDBRANCH  26  27
ENDBRANCH   1  26
TORSDOF 31
ENDMDL
