MODEL 1
REMARK VINA RESULT:     -10.5      0.000      0.000
REMARK SMILES CNc1nc(C(=O)N2C[C@@H](C(=O)OCCOCCOCCOCCOC(=O)c3ccc(-c4c5nc(c(-c6c(F)cc(S(=O)(=O)[O-])cc6F)c6ccc([nH]6)c(-c6c(F)cc(S(=O)(=O)[O-])cc6F)c6nc(c(-c7c(F)cc(S(=O)(=O)[O-])cc7F)c7ccc4[nH]7)C=C6)C=C5)cc3)[C@H](c3ccccc3C)C2)cs1
REMARK SMILES IDX 19 1 18 2 17 3 16 4 15 5 14 6 13 7 11 8 12 9 10 10 8 11 9 12
REMARK SMILES IDX 102 13 94 14 6 15 7 16 5 17 3 18 4 19 104 20 103 21 2 22
REMARK SMILES IDX 1 23 95 25 96 26 100 27 97 28 99 29 101 30 98 31 20 32 21 33
REMARK SMILES IDX 22 34 23 35 24 36 25 37 26 38 27 39 28 40 29 41 93 42 30 43
REMARK SMILES IDX 92 44 31 45 32 46 33 47 86 48 34 49 91 50 85 51 87 52 35 53
REMARK SMILES IDX 90 54 84 55 83 56 36 58 70 59 49 60 69 61 50 62 53 63 68 64
REMARK SMILES IDX 88 65 51 66 52 67 67 69 89 70 54 71 37 72 38 73 47 74 39 75
REMARK SMILES IDX 40 76 46 77 48 78 41 79 42 80 43 81 44 82 45 83 71 84 72 85
REMARK SMILES IDX 81 86 73 87 74 88 80 89 82 90 75 91 76 92 77 93 78 94 79 95
REMARK SMILES IDX 55 96 56 97 65 98 57 99 58 100 64 101 66 102 59 103 60 104
REMARK SMILES IDX 61 105 62 106 63 107
REMARK H PARENT 2 24 87 57 53 68
REMARK Flexibility Score: inf
ROOT
ATOM      1  O   UNL A   1      33.658  35.708  29.563  1.00  0.00    -0.377 OA
ENDROOT
BRANCH   1   2
ATOM      2  C   UNL A   1      33.147  34.607  28.843  1.00  0.00     0.188 C 
BRANCH   2   3
ATOM      3  C   UNL A   1      34.025  33.566  28.147  1.00  0.00     0.188 C 
BRANCH   3   4
ATOM      4  O   UNL A   1      34.024  32.223  28.609  1.00  0.00    -0.376 OA
BRANCH   4   5
ATOM      5  C   UNL A   1      34.334  31.155  27.716  1.00  0.00     0.202 C 
BRANCH   5   6
ATOM      6  C   UNL A   1      33.170  30.325  27.189  1.00  0.00     0.261 C 
BRANCH   6   7
ATOM      7  O   UNL A   1      33.439  28.929  27.426  1.00  0.00    -0.463 OA
BRANCH   7   8
ATOM      8  C   UNL A   1      32.396  28.089  27.291  1.00  0.00     0.311 C 
ATOM      9  O   UNL A   1      31.419  28.090  28.033  1.00  0.00    -0.252 OA
BRANCH   8  10
ATOM     10  C   UNL A   1      32.466  27.258  26.027  1.00  0.00     0.128 C 
ATOM     11  N   UNL A   1      31.192  27.031  24.084  1.00  0.00    -0.336 N 
ATOM     12  C   UNL A   1      31.620  28.023  25.026  1.00  0.00     0.136 C 
ATOM     13  C   UNL A   1      30.908  25.801  24.798  1.00  0.00     0.129 C 
ATOM     14  C   UNL A   1      31.898  25.803  26.011  1.00  0.00     0.055 C 
BRANCH  11  15
ATOM     15  C   UNL A   1      30.840  27.298  22.775  1.00  0.00     0.273 C 
ATOM     16  O   UNL A   1      31.347  26.712  21.822  1.00  0.00    -0.267 OA
BRANCH  15  17
ATOM     17  C   UNL A   1      29.830  28.354  22.586  1.00  0.00     0.141 A 
ATOM     18  C   UNL A   1      29.080  30.317  21.822  1.00  0.00     0.183 A 
ATOM     19  N   UNL A   1      30.132  29.541  21.908  1.00  0.00    -0.215 NA
ATOM     20  S   UNL A   1      27.672  29.702  22.600  1.00  0.00    -0.105 S 
ATOM     21  C   UNL A   1      28.515  28.264  22.999  1.00  0.00     0.102 A 
BRANCH  18  22
ATOM     22  N   UNL A   1      29.039  31.497  21.171  1.00  0.00    -0.365 N 
ATOM     23  C   UNL A   1      28.274  32.608  21.677  1.00  0.00     0.142 C 
ATOM     24  H   UNL A   1      29.544  31.601  20.332  1.00  0.00     0.162 HD
ENDBRANCH  18  22
ENDBRANCH  15  17
ENDBRANCH  11  15
BRANCH  14  25
ATOM     25  C   UNL A   1      33.004  24.729  25.916  1.00  0.00    -0.039 A 
ATOM     26  C   UNL A   1      34.330  25.100  25.588  1.00  0.00     0.004 A 
ATOM     27  C   UNL A   1      32.768  23.351  26.154  1.00  0.00    -0.048 A 
ATOM     28  C   UNL A   1      35.365  24.162  25.484  1.00  0.00     0.000 A 
ATOM     29  C   UNL A   1      33.841  22.431  26.115  1.00  0.00     0.004 A 
ATOM     30  C   UNL A   1      31.435  22.756  26.512  1.00  0.00     0.044 C 
ATOM     31  C   UNL A   1      35.126  22.827  25.765  1.00  0.00     0.000 A 
ENDBRANCH  14  25
ENDBRANCH   8  10
ENDBRANCH   7   8
ENDBRANCH   6   7
ENDBRANCH   5   6
ENDBRANCH   4   5
ENDBRANCH   3   4
ENDBRANCH   2   3
ENDBRANCH   1   2
BRANCH   1  32
ATOM     32  C   UNL A   1      33.091  36.161  30.768  1.00  0.00     0.188 C 
BRANCH  32  33
ATOM     33  C   UNL A   1      33.648  35.549  32.052  1.00  0.00     0.188 C 
BRANCH  33  34
ATOM     34  O   UNL A   1      34.924  35.930  32.558  1.00  0.00    -0.376 OA
BRANCH  34  35
ATOM     35  C   UNL A   1      35.895  34.939  32.846  1.00  0.00     0.202 C 
BRANCH  35  36
ATOM     36  C   UNL A   1      35.343  33.821  33.739  1.00  0.00     0.261 C 
BRANCH  36  37
ATOM     37  O   UNL A   1      35.789  32.498  33.394  1.00  0.00    -0.460 OA
BRANCH  37  38
ATOM     38  C   UNL A   1      35.450  32.087  32.145  1.00  0.00     0.338 C 
ATOM     39  O   UNL A   1      34.422  32.333  31.538  1.00  0.00    -0.246 OA
BRANCH  38  40
ATOM     40  C   UNL A   1      36.561  31.324  31.537  1.00  0.00     0.060 A 
ATOM     41  C   UNL A   1      37.448  30.656  32.392  1.00  0.00     0.016 A 
ATOM     42  C   UNL A   1      36.796  31.357  30.160  1.00  0.00     0.016 A 
ATOM     43  C   UNL A   1      38.604  30.068  31.878  1.00  0.00     0.010 A 
ATOM     44  C   UNL A   1      37.964  30.780  29.649  1.00  0.00     0.010 A 
ATOM     45  C   UNL A   1      38.895  30.174  30.511  1.00  0.00    -0.014 A 
BRANCH  45  46
ATOM     46  C   UNL A   1      40.261  29.835  30.033  1.00  0.00     0.031 A 
ATOM     47  C   UNL A   1      41.327  30.900  30.084  1.00  0.00     0.074 A 
ATOM     48  C   UNL A   1      40.567  28.594  29.615  1.00  0.00     0.049 A 
ATOM     49  N   UNL A   1      42.582  30.837  29.721  1.00  0.00    -0.248 NA
ATOM     50  C   UNL A   1      40.922  32.211  30.618  1.00  0.00     0.031 C 
ATOM     51  C   UNL A   1      39.635  27.470  29.551  1.00  0.00     0.029 A 
ATOM     52  N   UNL A   1      41.754  28.073  29.162  1.00  0.00    -0.354 N 
ATOM     53  C   UNL A   1      43.118  32.091  29.993  1.00  0.00     0.074 A 
ATOM     54  C   UNL A   1      42.041  32.910  30.505  1.00  0.00     0.031 C 
ATOM     55  C   UNL A   1      40.282  26.394  29.069  1.00  0.00     0.029 A 
ATOM     56  C   UNL A   1      41.666  26.758  28.768  1.00  0.00     0.049 A 
ATOM     57  H   UNL A   1      42.589  28.592  29.122  1.00  0.00     0.167 HD
ATOM     58  C   UNL A   1      44.395  32.520  29.845  1.00  0.00     0.037 A 
ATOM     59  C   UNL A   1      42.592  25.951  28.211  1.00  0.00     0.037 A 
ATOM     60  C   UNL A   1      45.464  31.709  29.324  1.00  0.00     0.049 A 
ATOM     61  C   UNL A   1      43.991  26.471  27.991  1.00  0.00     0.074 A 
ATOM     62  C   UNL A   1      46.789  32.054  29.124  1.00  0.00     0.029 A 
ATOM     63  N   UNL A   1      45.330  30.389  28.918  1.00  0.00    -0.354 N 
ATOM     64  N   UNL A   1      44.485  27.655  28.264  1.00  0.00    -0.248 NA
ATOM     65  C   UNL A   1      44.961  25.539  27.395  1.00  0.00     0.031 C 
ATOM     66  C   UNL A   1      47.447  30.957  28.558  1.00  0.00     0.029 A 
ATOM     67  C   UNL A   1      46.544  29.911  28.454  1.00  0.00     0.049 A 
ATOM     68  H   UNL A   1      44.495  29.869  28.954  1.00  0.00     0.167 HD
ATOM     69  C   UNL A   1      45.828  27.602  27.899  1.00  0.00     0.074 A 
ATOM     70  C   UNL A   1      46.071  26.265  27.402  1.00  0.00     0.031 C 
ATOM     71  C   UNL A   1      46.774  28.572  27.968  1.00  0.00     0.037 A 
BRANCH  58  72
ATOM     72  C   UNL A   1      44.703  33.937  30.244  1.00  0.00     0.058 A 
ATOM     73  C   UNL A   1      44.569  35.003  29.338  1.00  0.00     0.135 A 
ATOM     74  C   UNL A   1      45.100  34.242  31.556  1.00  0.00     0.135 A 
ATOM     75  F   UNL A   1      44.211  34.766  28.066  1.00  0.00    -0.206 F 
ATOM     76  C   UNL A   1      44.840  36.315  29.711  1.00  0.00     0.059 A 
ATOM     77  C   UNL A   1      45.350  35.550  31.959  1.00  0.00     0.059 A 
ATOM     78  F   UNL A   1      45.248  33.263  32.462  1.00  0.00    -0.206 F 
ATOM     79  C   UNL A   1      45.229  36.579  31.025  1.00  0.00     0.060 A 
BRANCH  79  80
ATOM     80  S   UNL A   1      45.563  38.290  31.497  1.00  0.00     0.124 S 
ATOM     81  O   UNL A   1      44.219  38.860  31.496  1.00  0.00    -0.237 OA
ATOM     82  O   UNL A   1      46.185  38.135  32.808  1.00  0.00    -0.237 OA
ATOM     83  O   UNL A   1      46.447  38.769  30.439  1.00  0.00    -0.744 OA
ENDBRANCH  79  80
ENDBRANCH  58  72
BRANCH  59  84
ATOM     84  C   UNL A   1      42.223  24.568  27.798  1.00  0.00     0.058 A 
ATOM     85  C   UNL A   1      41.789  24.284  26.495  1.00  0.00     0.135 A 
ATOM     86  C   UNL A   1      42.281  23.505  28.713  1.00  0.00     0.135 A 
ATOM     87  F   UNL A   1      41.705  25.267  25.586  1.00  0.00    -0.206 F 
ATOM     88  C   UNL A   1      41.403  23.000  26.119  1.00  0.00     0.059 A 
ATOM     89  C   UNL A   1      41.928  22.208  28.353  1.00  0.00     0.059 A 
ATOM     90  F   UNL A   1      42.700  23.720  29.969  1.00  0.00    -0.206 F 
ATOM     91  C   UNL A   1      41.478  21.968  27.056  1.00  0.00     0.060 A 
BRANCH  91  92
ATOM     92  S   UNL A   1      41.015  20.298  26.549  1.00  0.00     0.124 S 
ATOM     93  O   UNL A   1      41.079  19.579  27.815  1.00  0.00    -0.237 OA
ATOM     94  O   UNL A   1      39.680  20.505  25.997  1.00  0.00    -0.237 OA
ATOM     95  O   UNL A   1      42.040  19.948  25.570  1.00  0.00    -0.744 OA
ENDBRANCH  91  92
ENDBRANCH  59  84
BRANCH  71  96
ATOM     96  C   UNL A   1      48.169  28.215  27.532  1.00  0.00     0.058 A 
ATOM     97  C   UNL A   1      48.550  28.233  26.180  1.00  0.00     0.135 A 
ATOM     98  C   UNL A   1      49.151  27.890  28.483  1.00  0.00     0.135 A 
ATOM     99  F   UNL A   1      47.652  28.534  25.229  1.00  0.00    -0.206 F 
ATOM    100  C   UNL A   1      49.845  27.911  25.786  1.00  0.00     0.059 A 
ATOM    101  C   UNL A   1      50.459  27.594  28.113  1.00  0.00     0.059 A 
ATOM    102  F   UNL A   1      48.845  27.871  29.790  1.00  0.00    -0.206 F 
ATOM    103  C   UNL A   1      50.793  27.592  26.760  1.00  0.00     0.060 A 
BRANCH 103 104
ATOM    104  S   UNL A   1      52.474  27.192  26.236  1.00  0.00     0.124 S 
ATOM    105  O   UNL A   1      53.266  27.796  27.302  1.00  0.00    -0.237 OA
ATOM    106  O   UNL A   1      52.455  25.733  26.210  1.00  0.00    -0.237 OA
ATOM    107  O   UNL A   1      52.586  27.834  24.931  1.00  0.00    -0.744 OA
ENDBRANCH 103 104
ENDBRANCH  71  96
ENDBRANCH  45  46
ENDBRANCH  38  40
ENDBRANCH  37  38
ENDBRANCH  36  37
ENDBRANCH  35  36
ENDBRANCH  34  35
ENDBRANCH  33  34
ENDBRANCH  32  33
ENDBRANCH   1  32
TORSDOF 27
ENDMDL
MODEL 2
REMARK VINA RESULT:     -10.1      1.592      3.453
REMARK SMILES CNc1nc(C(=O)N2C[C@@H](C(=O)OCCOCCOCCOCCOC(=O)c3ccc(-c4c5nc(c(-c6c(F)cc(S(=O)(=O)[O-])cc6F)c6ccc([nH]6)c(-c6c(F)cc(S(=O)(=O)[O-])cc6F)c6nc(c(-c7c(F)cc(S(=O)(=O)[O-])cc7F)c7ccc4[nH]7)C=C6)C=C5)cc3)[C@H](c3ccccc3C)C2)cs1
REMARK SMILES IDX 19 1 18 2 17 3 16 4 15 5 14 6 13 7 11 8 12 9 10 10 8 11 9 12
REMARK SMILES IDX 102 13 94 14 6 15 7 16 5 17 3 18 4 19 104 20 103 21 2 22
REMARK SMILES IDX 1 23 95 25 96 26 100 27 97 28 99 29 101 30 98 31 20 32 21 33
REMARK SMILES IDX 22 34 23 35 24 36 25 37 26 38 27 39 28 40 29 41 93 42 30 43
REMARK SMILES IDX 92 44 31 45 32 46 33 47 86 48 34 49 91 50 85 51 87 52 35 53
REMARK SMILES IDX 90 54 84 55 83 56 36 58 70 59 49 60 69 61 50 62 53 63 68 64
REMARK SMILES IDX 88 65 51 66 52 67 67 69 89 70 54 71 37 72 38 73 47 74 39 75
REMARK SMILES IDX 40 76 46 77 48 78 41 79 42 80 43 81 44 82 45 83 71 84 72 85
REMARK SMILES IDX 81 86 73 87 74 88 80 89 82 90 75 91 76 92 77 93 78 94 79 95
REMARK SMILES IDX 55 96 56 97 65 98 57 99 58 100 64 101 66 102 59 103 60 104
REMARK SMILES IDX 61 105 62 106 63 107
REMARK H PARENT 2 24 87 57 53 68
REMARK Flexibility Score: inf
ROOT
ATOM      1  O   UNL A   1      33.908  35.461  29.448  1.00  0.00    -0.377 OA
ENDROOT
BRANCH   1   2
ATOM      2  C   UNL A   1      33.265  34.315  28.934  1.00  0.00     0.188 C 
BRANCH   2   3
ATOM      3  C   UNL A   1      33.927  33.331  27.968  1.00  0.00     0.188 C 
BRANCH   3   4
ATOM      4  O   UNL A   1      33.819  31.935  28.203  1.00  0.00    -0.376 OA
BRANCH   4   5
ATOM      5  C   UNL A   1      33.802  31.020  27.108  1.00  0.00     0.202 C 
BRANCH   5   6
ATOM      6  C   UNL A   1      32.560  30.154  26.940  1.00  0.00     0.261 C 
BRANCH   6   7
ATOM      7  O   UNL A   1      32.964  28.794  26.684  1.00  0.00    -0.463 OA
BRANCH   7   8
ATOM      8  C   UNL A   1      31.987  27.867  26.710  1.00  0.00     0.311 C 
ATOM      9  O   UNL A   1      31.351  27.576  27.718  1.00  0.00    -0.252 OA
BRANCH   8  10
ATOM     10  C   UNL A   1      31.633  27.343  25.334  1.00  0.00     0.128 C 
ATOM     11  N   UNL A   1      32.807  26.696  23.423  1.00  0.00    -0.336 N 
ATOM     12  C   UNL A   1      32.903  26.665  24.853  1.00  0.00     0.136 C 
ATOM     13  C   UNL A   1      32.213  27.957  23.022  1.00  0.00     0.129 C 
ATOM     14  C   UNL A   1      31.244  28.335  24.192  1.00  0.00     0.055 C 
BRANCH  11  15
ATOM     15  C   UNL A   1      33.435  25.801  22.578  1.00  0.00     0.273 C 
ATOM     16  O   UNL A   1      33.765  26.094  21.432  1.00  0.00    -0.267 OA
BRANCH  15  17
ATOM     17  C   UNL A   1      33.668  24.455  23.130  1.00  0.00     0.141 A 
ATOM     18  C   UNL A   1      34.935  22.769  23.875  1.00  0.00     0.183 A 
ATOM     19  N   UNL A   1      34.962  23.966  23.342  1.00  0.00    -0.215 NA
ATOM     20  S   UNL A   1      33.354  22.125  24.103  1.00  0.00    -0.105 S 
ATOM     21  C   UNL A   1      32.669  23.587  23.528  1.00  0.00     0.102 A 
BRANCH  18  22
ATOM     22  N   UNL A   1      36.019  22.064  24.254  1.00  0.00    -0.365 N 
ATOM     23  C   UNL A   1      35.894  20.797  24.926  1.00  0.00     0.142 C 
ATOM     24  H   UNL A   1      36.916  22.425  24.068  1.00  0.00     0.162 HD
ENDBRANCH  18  22
ENDBRANCH  15  17
ENDBRANCH  11  15
BRANCH  14  25
ATOM     25  C   UNL A   1      29.748  28.256  23.814  1.00  0.00    -0.039 A 
ATOM     26  C   UNL A   1      28.988  27.113  24.156  1.00  0.00     0.004 A 
ATOM     27  C   UNL A   1      29.066  29.296  23.133  1.00  0.00    -0.048 A 
ATOM     28  C   UNL A   1      27.631  26.993  23.828  1.00  0.00     0.000 A 
ATOM     29  C   UNL A   1      27.680  29.185  22.878  1.00  0.00     0.004 A 
ATOM     30  C   UNL A   1      29.693  30.586  22.683  1.00  0.00     0.044 C 
ATOM     31  C   UNL A   1      26.970  28.038  23.204  1.00  0.00     0.000 A 
ENDBRANCH  14  25
ENDBRANCH   8  10
ENDBRANCH   7   8
ENDBRANCH   6   7
ENDBRANCH   5   6
ENDBRANCH   4   5
ENDBRANCH   3   4
ENDBRANCH   2   3
ENDBRANCH   1   2
BRANCH   1  32
ATOM     32  C   UNL A   1      33.235  36.439  30.203  1.00  0.00     0.188 C 
BRANCH  32  33
ATOM     33  C   UNL A   1      32.662  35.986  31.545  1.00  0.00     0.188 C 
BRANCH  33  34
ATOM     34  O   UNL A   1      33.307  36.314  32.771  1.00  0.00    -0.376 OA
BRANCH  34  35
ATOM     35  C   UNL A   1      34.697  36.087  32.922  1.00  0.00     0.202 C 
BRANCH  35  36
ATOM     36  C   UNL A   1      35.030  34.603  33.124  1.00  0.00     0.261 C 
BRANCH  36  37
ATOM     37  O   UNL A   1      35.773  34.000  32.050  1.00  0.00    -0.460 OA
BRANCH  37  38
ATOM     38  C   UNL A   1      35.333  32.775  31.666  1.00  0.00     0.338 C 
ATOM     39  O   UNL A   1      34.186  32.362  31.681  1.00  0.00    -0.246 OA
BRANCH  38  40
ATOM     40  C   UNL A   1      36.452  31.975  31.124  1.00  0.00     0.060 A 
ATOM     41  C   UNL A   1      37.219  31.221  32.022  1.00  0.00     0.016 A 
ATOM     42  C   UNL A   1      36.814  32.054  29.777  1.00  0.00     0.016 A 
ATOM     43  C   UNL A   1      38.384  30.590  31.586  1.00  0.00     0.010 A 
ATOM     44  C   UNL A   1      37.992  31.432  29.345  1.00  0.00     0.010 A 
ATOM     45  C   UNL A   1      38.806  30.737  30.258  1.00  0.00    -0.014 A 
BRANCH  45  46
ATOM     46  C   UNL A   1      40.190  30.340  29.889  1.00  0.00     0.031 A 
ATOM     47  C   UNL A   1      41.289  31.366  30.005  1.00  0.00     0.074 A 
ATOM     48  C   UNL A   1      40.479  29.081  29.513  1.00  0.00     0.049 A 
ATOM     49  N   UNL A   1      42.564  31.250  29.738  1.00  0.00    -0.248 NA
ATOM     50  C   UNL A   1      40.894  32.700  30.488  1.00  0.00     0.031 C 
ATOM     51  C   UNL A   1      39.512  27.991  29.395  1.00  0.00     0.029 A 
ATOM     52  N   UNL A   1      41.675  28.510  29.157  1.00  0.00    -0.354 N 
ATOM     53  C   UNL A   1      43.125  32.489  30.031  1.00  0.00     0.074 A 
ATOM     54  C   UNL A   1      42.045  33.355  30.449  1.00  0.00     0.031 C 
ATOM     55  C   UNL A   1      40.152  26.884  28.979  1.00  0.00     0.029 A 
ATOM     56  C   UNL A   1      41.568  27.192  28.777  1.00  0.00     0.049 A 
ATOM     57  H   UNL A   1      42.530  28.997  29.173  1.00  0.00     0.167 HD
ATOM     58  C   UNL A   1      44.425  32.868  29.973  1.00  0.00     0.037 A 
ATOM     59  C   UNL A   1      42.501  26.342  28.303  1.00  0.00     0.037 A 
ATOM     60  C   UNL A   1      45.498  32.009  29.546  1.00  0.00     0.049 A 
ATOM     61  C   UNL A   1      43.931  26.806  28.181  1.00  0.00     0.074 A 
ATOM     62  C   UNL A   1      46.847  32.301  29.442  1.00  0.00     0.029 A 
ATOM     63  N   UNL A   1      45.345  30.688  29.150  1.00  0.00    -0.354 N 
ATOM     64  N   UNL A   1      44.448  27.976  28.474  1.00  0.00    -0.248 NA
ATOM     65  C   UNL A   1      44.907  25.830  27.673  1.00  0.00     0.031 C 
ATOM     66  C   UNL A   1      47.503  31.171  28.942  1.00  0.00     0.029 A 
ATOM     67  C   UNL A   1      46.571  30.158  28.785  1.00  0.00     0.049 A 
ATOM     68  H   UNL A   1      44.490  30.200  29.130  1.00  0.00     0.167 HD
ATOM     69  C   UNL A   1      45.811  27.868  28.211  1.00  0.00     0.074 A 
ATOM     70  C   UNL A   1      46.040  26.514  27.753  1.00  0.00     0.031 C 
ATOM     71  C   UNL A   1      46.785  28.803  28.338  1.00  0.00     0.037 A 
BRANCH  58  72
ATOM     72  C   UNL A   1      44.755  34.279  30.375  1.00  0.00     0.058 A 
ATOM     73  C   UNL A   1      44.725  35.334  29.446  1.00  0.00     0.135 A 
ATOM     74  C   UNL A   1      45.070  34.591  31.707  1.00  0.00     0.135 A 
ATOM     75  F   UNL A   1      44.450  35.090  28.156  1.00  0.00    -0.206 F 
ATOM     76  C   UNL A   1      45.017  36.641  29.820  1.00  0.00     0.059 A 
ATOM     77  C   UNL A   1      45.338  35.896  32.109  1.00  0.00     0.059 A 
ATOM     78  F   UNL A   1      45.117  33.622  32.635  1.00  0.00    -0.206 F 
ATOM     79  C   UNL A   1      45.322  36.913  31.155  1.00  0.00     0.060 A 
BRANCH  79  80
ATOM     80  S   UNL A   1      45.685  38.618  31.627  1.00  0.00     0.124 S 
ATOM     81  O   UNL A   1      44.670  38.859  32.649  1.00  0.00    -0.237 OA
ATOM     82  O   UNL A   1      47.058  38.522  32.108  1.00  0.00    -0.237 OA
ATOM     83  O   UNL A   1      45.509  39.360  30.383  1.00  0.00    -0.744 OA
ENDBRANCH  79  80
ENDBRANCH  58  72
BRANCH  59  84
ATOM     84  C   UNL A   1      42.112  24.967  27.883  1.00  0.00     0.058 A 
ATOM     85  C   UNL A   1      41.523  24.721  26.634  1.00  0.00     0.135 A 
ATOM     86  C   UNL A   1      42.307  23.872  28.739  1.00  0.00     0.135 A 
ATOM     87  F   UNL A   1      41.305  25.736  25.783  1.00  0.00    -0.206 F 
ATOM     88  C   UNL A   1      41.120  23.443  26.257  1.00  0.00     0.059 A 
ATOM     89  C   UNL A   1      41.938  22.581  28.374  1.00  0.00     0.059 A 
ATOM     90  F   UNL A   1      42.876  24.050  29.942  1.00  0.00    -0.206 F 
ATOM     91  C   UNL A   1      41.334  22.379  27.134  1.00  0.00     0.060 A 
BRANCH  91  92
ATOM     92  S   UNL A   1      40.845  20.717  26.622  1.00  0.00     0.124 S 
ATOM     93  O   UNL A   1      41.891  20.387  25.661  1.00  0.00    -0.237 OA
ATOM     94  O   UNL A   1      40.881  19.986  27.884  1.00  0.00    -0.237 OA
ATOM     95  O   UNL A   1      39.512  20.917  26.063  1.00  0.00    -0.744 OA
ENDBRANCH  91  92
ENDBRANCH  59  84
BRANCH  71  96
ATOM     96  C   UNL A   1      48.195  28.388  28.012  1.00  0.00     0.058 A 
ATOM     97  C   UNL A   1      48.684  28.391  26.696  1.00  0.00     0.135 A 
ATOM     98  C   UNL A   1      49.083  28.021  29.037  1.00  0.00     0.135 A 
ATOM     99  F   UNL A   1      47.878  28.731  25.678  1.00  0.00    -0.206 F 
ATOM    100  C   UNL A   1      49.991  28.015  26.405  1.00  0.00     0.059 A 
ATOM    101  C   UNL A   1      50.403  27.670  28.772  1.00  0.00     0.059 A 
ATOM    102  F   UNL A   1      48.673  28.013  30.316  1.00  0.00    -0.206 F 
ATOM    103  C   UNL A   1      50.844  27.655  27.450  1.00  0.00     0.060 A 
BRANCH 103 104
ATOM    104  S   UNL A   1      52.543  27.184  27.060  1.00  0.00     0.124 S 
ATOM    105  O   UNL A   1      52.861  26.289  28.167  1.00  0.00    -0.237 OA
ATOM    106  O   UNL A   1      52.400  26.550  25.754  1.00  0.00    -0.237 OA
ATOM    107  O   UNL A   1      53.256  28.457  27.057  1.00  0.00    -0.744 OA
ENDBRANCH 103 104
ENDBRANCH  71  96
ENDBRANCH  45  46
ENDBRANCH  38  40
ENDBRANCH  37  38
ENDBRANCH  36  37
ENDBRANCH  35  36
ENDBRANCH  34  35
ENDBRANCH  33  34
ENDBRANCH  32  33
ENDBRANCH   1  32
TORSDOF 27
ENDMDL
MODEL 3
REMARK VINA RESULT:      -9.5      2.227      4.291
REMARK SMILES CNc1nc(C(=O)N2C[C@@H](C(=O)OCCOCCOCCOCCOC(=O)c3ccc(-c4c5nc(c(-c6c(F)cc(S(=O)(=O)[O-])cc6F)c6ccc([nH]6)c(-c6c(F)cc(S(=O)(=O)[O-])cc6F)c6nc(c(-c7c(F)cc(S(=O)(=O)[O-])cc7F)c7ccc4[nH]7)C=C6)C=C5)cc3)[C@H](c3ccccc3C)C2)cs1
REMARK SMILES IDX 19 1 18 2 17 3 16 4 15 5 14 6 13 7 11 8 12 9 10 10 8 11 9 12
REMARK SMILES IDX 102 13 94 14 6 15 7 16 5 17 3 18 4 19 104 20 103 21 2 22
REMARK SMILES IDX 1 23 95 25 96 26 100 27 97 28 99 29 101 30 98 31 20 32 21 33
REMARK SMILES IDX 22 34 23 35 24 36 25 37 26 38 27 39 28 40 29 41 93 42 30 43
REMARK SMILES IDX 92 44 31 45 32 46 33 47 86 48 34 49 91 50 85 51 87 52 35 53
REMARK SMILES IDX 90 54 84 55 83 56 36 58 70 59 49 60 69 61 50 62 53 63 68 64
REMARK SMILES IDX 88 65 51 66 52 67 67 69 89 70 54 71 37 72 38 73 47 74 39 75
REMARK SMILES IDX 40 76 46 77 48 78 41 79 42 80 43 81 44 82 45 83 71 84 72 85
REMARK SMILES IDX 81 86 73 87 74 88 80 89 82 90 75 91 76 92 77 93 78 94 79 95
REMARK SMILES IDX 55 96 56 97 65 98 57 99 58 100 64 101 66 102 59 103 60 104
REMARK SMILES IDX 61 105 62 106 63 107
REMARK H PARENT 2 24 87 57 53 68
REMARK Flexibility Score: inf
ROOT
ATOM      1  O   UNL A   1      34.375  35.297  28.548  1.00  0.00    -0.377 OA
ENDROOT
BRANCH   1   2
ATOM      2  C   UNL A   1      33.774  34.025  28.442  1.00  0.00     0.188 C 
BRANCH   2   3
ATOM      3  C   UNL A   1      34.500  32.783  27.920  1.00  0.00     0.188 C 
BRANCH   3   4
ATOM      4  O   UNL A   1      33.898  31.505  28.061  1.00  0.00    -0.376 OA
BRANCH   4   5
ATOM      5  C   UNL A   1      33.206  30.911  26.963  1.00  0.00     0.202 C 
BRANCH   5   6
ATOM      6  C   UNL A   1      32.170  29.842  27.288  1.00  0.00     0.261 C 
BRANCH   6   7
ATOM      7  O   UNL A   1      32.519  28.623  26.602  1.00  0.00    -0.463 OA
BRANCH   7   8
ATOM      8  C   UNL A   1      31.526  27.728  26.435  1.00  0.00     0.311 C 
ATOM      9  O   UNL A   1      30.939  27.181  27.363  1.00  0.00    -0.252 OA
BRANCH   8  10
ATOM     10  C   UNL A   1      31.089  27.592  24.992  1.00  0.00     0.128 C 
ATOM     11  N   UNL A   1      31.998  26.710  23.031  1.00  0.00    -0.336 N 
ATOM     12  C   UNL A   1      31.951  26.469  24.443  1.00  0.00     0.136 C 
ATOM     13  C   UNL A   1      32.074  28.141  22.803  1.00  0.00     0.129 C 
ATOM     14  C   UNL A   1      31.287  28.779  23.996  1.00  0.00     0.055 C 
BRANCH  11  15
ATOM     15  C   UNL A   1      32.223  25.734  22.079  1.00  0.00     0.273 C 
ATOM     16  O   UNL A   1      31.893  25.868  20.904  1.00  0.00    -0.267 OA
BRANCH  15  17
ATOM     17  C   UNL A   1      32.866  24.501  22.566  1.00  0.00     0.141 A 
ATOM     18  C   UNL A   1      34.612  23.220  23.125  1.00  0.00     0.183 A 
ATOM     19  N   UNL A   1      34.259  24.379  22.625  1.00  0.00    -0.215 NA
ATOM     20  S   UNL A   1      33.296  22.175  23.502  1.00  0.00    -0.105 S 
ATOM     21  C   UNL A   1      32.186  23.398  23.044  1.00  0.00     0.102 A 
BRANCH  18  22
ATOM     22  N   UNL A   1      35.880  22.834  23.367  1.00  0.00    -0.365 N 
ATOM     23  C   UNL A   1      36.346  22.583  24.707  1.00  0.00     0.142 C 
ATOM     24  H   UNL A   1      36.502  22.721  22.611  1.00  0.00     0.162 HD
ENDBRANCH  18  22
ENDBRANCH  15  17
ENDBRANCH  11  15
BRANCH  14  25
ATOM     25  C   UNL A   1      29.953  29.441  23.582  1.00  0.00    -0.039 A 
ATOM     26  C   UNL A   1      29.048  28.751  22.742  1.00  0.00     0.004 A 
ATOM     27  C   UNL A   1      29.565  30.735  24.012  1.00  0.00    -0.048 A 
ATOM     28  C   UNL A   1      27.831  29.313  22.334  1.00  0.00     0.000 A 
ATOM     29  C   UNL A   1      28.301  31.253  23.648  1.00  0.00     0.004 A 
ATOM     30  C   UNL A   1      30.384  31.628  24.903  1.00  0.00     0.044 C 
ATOM     31  C   UNL A   1      27.447  30.559  22.802  1.00  0.00     0.000 A 
ENDBRANCH  14  25
ENDBRANCH   8  10
ENDBRANCH   7   8
ENDBRANCH   6   7
ENDBRANCH   5   6
ENDBRANCH   4   5
ENDBRANCH   3   4
ENDBRANCH   2   3
ENDBRANCH   1   2
BRANCH   1  32
ATOM     32  C   UNL A   1      33.642  36.465  28.830  1.00  0.00     0.188 C 
BRANCH  32  33
ATOM     33  C   UNL A   1      32.536  36.336  29.876  1.00  0.00     0.188 C 
BRANCH  33  34
ATOM     34  O   UNL A   1      32.683  36.894  31.178  1.00  0.00    -0.376 OA
BRANCH  34  35
ATOM     35  C   UNL A   1      33.884  36.690  31.902  1.00  0.00     0.202 C 
BRANCH  35  36
ATOM     36  C   UNL A   1      33.981  35.277  32.490  1.00  0.00     0.261 C 
BRANCH  36  37
ATOM     37  O   UNL A   1      35.175  34.558  32.135  1.00  0.00    -0.460 OA
BRANCH  37  38
ATOM     38  C   UNL A   1      35.007  33.223  31.955  1.00  0.00     0.338 C 
ATOM     39  O   UNL A   1      33.986  32.576  32.115  1.00  0.00    -0.246 OA
BRANCH  38  40
ATOM     40  C   UNL A   1      36.253  32.614  31.442  1.00  0.00     0.060 A 
ATOM     41  C   UNL A   1      37.115  32.001  32.361  1.00  0.00     0.016 A 
ATOM     42  C   UNL A   1      36.625  32.744  30.102  1.00  0.00     0.016 A 
ATOM     43  C   UNL A   1      38.376  31.567  31.953  1.00  0.00     0.010 A 
ATOM     44  C   UNL A   1      37.897  32.322  29.698  1.00  0.00     0.010 A 
ATOM     45  C   UNL A   1      38.795  31.775  30.632  1.00  0.00    -0.014 A 
BRANCH  45  46
ATOM     46  C   UNL A   1      40.232  31.608  30.293  1.00  0.00     0.031 A 
ATOM     47  C   UNL A   1      41.178  32.746  30.584  1.00  0.00     0.074 A 
ATOM     48  C   UNL A   1      40.703  30.452  29.790  1.00  0.00     0.049 A 
ATOM     49  N   UNL A   1      42.466  32.830  30.374  1.00  0.00    -0.248 NA
ATOM     50  C   UNL A   1      40.590  33.949  31.196  1.00  0.00     0.031 C 
ATOM     51  C   UNL A   1      39.897  29.268  29.496  1.00  0.00     0.029 A 
ATOM     52  N   UNL A   1      41.977  30.088  29.434  1.00  0.00    -0.354 N 
ATOM     53  C   UNL A   1      42.844  34.085  30.837  1.00  0.00     0.074 A 
ATOM     54  C   UNL A   1      41.642  34.747  31.295  1.00  0.00     0.031 C 
ATOM     55  C   UNL A   1      40.696  28.313  28.989  1.00  0.00     0.029 A 
ATOM     56  C   UNL A   1      42.063  28.824  28.899  1.00  0.00     0.049 A 
ATOM     57  H   UNL A   1      42.758  30.676  29.551  1.00  0.00     0.167 HD
ATOM     58  C   UNL A   1      44.082  34.634  30.892  1.00  0.00     0.037 A 
ATOM     59  C   UNL A   1      43.119  28.166  28.380  1.00  0.00     0.037 A 
ATOM     60  C   UNL A   1      45.276  33.980  30.426  1.00  0.00     0.049 A 
ATOM     61  C   UNL A   1      44.477  28.823  28.388  1.00  0.00     0.074 A 
ATOM     62  C   UNL A   1      46.576  34.455  30.427  1.00  0.00     0.029 A 
ATOM     63  N   UNL A   1      45.317  32.709  29.872  1.00  0.00    -0.354 N 
ATOM     64  N   UNL A   1      44.821  30.006  28.841  1.00  0.00    -0.248 NA
ATOM     65  C   UNL A   1      45.594  28.050  27.823  1.00  0.00     0.031 C 
ATOM     66  C   UNL A   1      47.396  33.489  29.835  1.00  0.00     0.029 A 
ATOM     67  C   UNL A   1      46.617  32.390  29.513  1.00  0.00     0.049 A 
ATOM     68  H   UNL A   1      44.538  32.119  29.751  1.00  0.00     0.167 HD
ATOM     69  C   UNL A   1      46.194  30.107  28.640  1.00  0.00     0.074 A 
ATOM     70  C   UNL A   1      46.621  28.861  28.041  1.00  0.00     0.031 C 
ATOM     71  C   UNL A   1      47.028  31.139  28.924  1.00  0.00     0.037 A 
BRANCH  58  72
ATOM     72  C   UNL A   1      44.204  36.017  31.470  1.00  0.00     0.058 A 
ATOM     73  C   UNL A   1      44.436  36.223  32.841  1.00  0.00     0.135 A 
ATOM     74  C   UNL A   1      44.124  37.150  30.644  1.00  0.00     0.135 A 
ATOM     75  F   UNL A   1      44.501  35.178  33.680  1.00  0.00    -0.206 F 
ATOM     76  C   UNL A   1      44.562  37.502  33.373  1.00  0.00     0.059 A 
ATOM     77  C   UNL A   1      44.275  38.437  31.151  1.00  0.00     0.059 A 
ATOM     78  F   UNL A   1      43.900  37.012  29.328  1.00  0.00    -0.206 F 
ATOM     79  C   UNL A   1      44.482  38.603  32.520  1.00  0.00     0.060 A 
BRANCH  79  80
ATOM     80  S   UNL A   1      44.662  40.256  33.225  1.00  0.00     0.124 S 
ATOM     81  O   UNL A   1      45.067  41.029  32.055  1.00  0.00    -0.237 OA
ATOM     82  O   UNL A   1      43.321  40.527  33.731  1.00  0.00    -0.237 OA
ATOM     83  O   UNL A   1      45.691  40.080  34.246  1.00  0.00    -0.744 OA
ENDBRANCH  79  80
ENDBRANCH  58  72
BRANCH  59  84
ATOM     84  C   UNL A   1      42.935  26.813  27.784  1.00  0.00     0.058 A 
ATOM     85  C   UNL A   1      42.986  25.653  28.569  1.00  0.00     0.135 A 
ATOM     86  C   UNL A   1      42.723  26.659  26.405  1.00  0.00     0.135 A 
ATOM     87  F   UNL A   1      43.199  25.746  29.891  1.00  0.00    -0.206 F 
ATOM     88  C   UNL A   1      42.858  24.386  28.008  1.00  0.00     0.059 A 
ATOM     89  C   UNL A   1      42.563  25.405  25.824  1.00  0.00     0.059 A 
ATOM     90  F   UNL A   1      42.654  27.737  25.609  1.00  0.00    -0.206 F 
ATOM     91  C   UNL A   1      42.644  24.272  26.633  1.00  0.00     0.060 A 
BRANCH  91  92
ATOM     92  S   UNL A   1      42.437  22.628  25.917  1.00  0.00     0.124 S 
ATOM     93  O   UNL A   1      43.012  22.810  24.590  1.00  0.00    -0.237 OA
ATOM     94  O   UNL A   1      43.205  21.795  26.838  1.00  0.00    -0.237 OA
ATOM     95  O   UNL A   1      40.993  22.423  25.959  1.00  0.00    -0.744 OA
ENDBRANCH  91  92
ENDBRANCH  59  84
BRANCH  71  96
ATOM     96  C   UNL A   1      48.492  30.952  28.628  1.00  0.00     0.058 A 
ATOM     97  C   UNL A   1      49.358  30.324  29.537  1.00  0.00     0.135 A 
ATOM     98  C   UNL A   1      49.027  31.371  27.398  1.00  0.00     0.135 A 
ATOM     99  F   UNL A   1      48.900  29.907  30.728  1.00  0.00    -0.206 F 
ATOM    100  C   UNL A   1      50.709  30.147  29.251  1.00  0.00     0.059 A 
ATOM    101  C   UNL A   1      50.368  31.177  27.079  1.00  0.00     0.059 A 
ATOM    102  F   UNL A   1      48.242  31.965  26.486  1.00  0.00    -0.206 F 
ATOM    103  C   UNL A   1      51.205  30.578  28.019  1.00  0.00     0.060 A 
BRANCH 103 104
ATOM    104  S   UNL A   1      52.955  30.327  27.654  1.00  0.00     0.124 S 
ATOM    105  O   UNL A   1      53.562  31.472  28.324  1.00  0.00    -0.237 OA
ATOM    106  O   UNL A   1      53.218  29.026  28.260  1.00  0.00    -0.237 OA
ATOM    107  O   UNL A   1      53.006  30.354  26.196  1.00  0.00    -0.744 OA
ENDBRANCH 103 104
ENDBRANCH  71  96
ENDBRANCH  45  46
ENDBRANCH  38  40
ENDBRANCH  37  38
ENDBRANCH  36  37
ENDBRANCH  35  36
ENDBRANCH  34  35
ENDBRANCH  33  34
ENDBRANCH  32  33
ENDBRANCH   1  32
TORSDOF 27
ENDMDL
