MODEL 1
REMARK VINA RESULT:      -9.4      0.000      0.000
REMARK SMILES CN(CC(=O)OCCOCCOCCOCCOC(=O)c1ccc(-c2c3nc(c(-c4c(F)cc(S(=O)(=O)[O-])cc4F)c4ccc([nH]4)c(-c4c(F)cc(S(=O)(=O)[O-])cc4F)c4nc(c(-c5c(F)cc(S(=O)(=O)[O-])cc5F)c5ccc2[nH]5)C=C4)C=C3)cc1)c1nc2cc(N)ccc2[nH]1
REMARK SMILES IDX 12 1 11 2 10 3 9 4 8 5 7 6 6 7 4 8 5 9 3 10 2 11 1 12 87 13
REMARK SMILES IDX 88 14 96 15 89 16 95 17 90 19 94 20 91 21 93 22 92 23 13 26
REMARK SMILES IDX 14 27 15 28 16 29 17 30 18 31 19 32 20 33 21 34 22 35 86 36
REMARK SMILES IDX 23 37 85 38 24 39 25 40 26 41 79 42 27 43 84 44 78 45 80 46
REMARK SMILES IDX 28 47 83 48 77 49 76 50 29 52 63 53 42 54 62 55 43 56 46 57
REMARK SMILES IDX 61 58 81 59 44 60 45 61 60 63 82 64 47 65 30 66 31 67 40 68
REMARK SMILES IDX 32 69 33 70 39 71 41 72 34 73 35 74 36 75 37 76 38 77 64 78
REMARK SMILES IDX 65 79 74 80 66 81 67 82 73 83 75 84 68 85 69 86 70 87 71 88
REMARK SMILES IDX 72 89 48 90 49 91 58 92 50 93 51 94 57 95 59 96 52 97 53 98
REMARK SMILES IDX 54 99 55 100 56 101
REMARK H PARENT 96 18 92 24 92 25 80 51 46 62
REMARK Flexibility Score: inf
ROOT
ATOM      1  O   UNL A   1      34.759  25.193  25.396  1.00  0.00    -0.377 OA
ENDROOT
BRANCH   1   2
ATOM      2  C   UNL A   1      34.024  25.607  24.266  1.00  0.00     0.188 C 
BRANCH   2   3
ATOM      3  C   UNL A   1      32.947  26.685  24.459  1.00  0.00     0.188 C 
BRANCH   3   4
ATOM      4  O   UNL A   1      31.655  26.547  23.882  1.00  0.00    -0.376 OA
BRANCH   4   5
ATOM      5  C   UNL A   1      30.521  26.650  24.722  1.00  0.00     0.202 C 
BRANCH   5   6
ATOM      6  C   UNL A   1      30.286  25.543  25.772  1.00  0.00     0.261 C 
BRANCH   6   7
ATOM      7  O   UNL A   1      31.447  25.013  26.465  1.00  0.00    -0.462 OA
BRANCH   7   8
ATOM      8  C   UNL A   1      31.541  23.658  26.569  1.00  0.00     0.325 C 
ATOM      9  O   UNL A   1      32.106  23.101  27.512  1.00  0.00    -0.250 OA
BRANCH   8  10
ATOM     10  C   UNL A   1      31.047  22.840  25.357  1.00  0.00     0.241 C 
BRANCH  10  11
ATOM     11  N   UNL A   1      31.993  22.149  24.443  1.00  0.00    -0.334 N 
ATOM     12  C   UNL A   1      32.252  22.745  23.143  1.00  0.00     0.147 C 
BRANCH  11  13
ATOM     13  C   UNL A   1      32.582  20.981  24.828  1.00  0.00     0.204 A 
ATOM     14  N   UNL A   1      32.066  20.042  25.589  1.00  0.00    -0.213 NA
ATOM     15  N   UNL A   1      33.810  20.567  24.347  1.00  0.00    -0.324 N 
ATOM     16  C   UNL A   1      32.825  18.916  25.358  1.00  0.00     0.093 A 
ATOM     17  C   UNL A   1      33.965  19.230  24.629  1.00  0.00     0.067 A 
ATOM     18  H   UNL A   1      34.465  21.135  23.880  1.00  0.00     0.170 HD
ATOM     19  C   UNL A   1      32.530  17.569  25.626  1.00  0.00     0.056 A 
ATOM     20  C   UNL A   1      34.913  18.273  24.249  1.00  0.00     0.030 A 
ATOM     21  C   UNL A   1      33.341  16.577  25.055  1.00  0.00     0.034 A 
ATOM     22  C   UNL A   1      34.569  16.930  24.481  1.00  0.00     0.028 A 
BRANCH  21  23
ATOM     23  N   UNL A   1      32.931  15.245  25.083  1.00  0.00    -0.399 N 
ATOM     24  H   UNL A   1      33.436  14.586  25.613  1.00  0.00     0.156 HD
ATOM     25  H   UNL A   1      32.136  14.963  24.576  1.00  0.00     0.156 HD
ENDBRANCH  21  23
ENDBRANCH  11  13
ENDBRANCH  10  11
ENDBRANCH   8  10
ENDBRANCH   7   8
ENDBRANCH   6   7
ENDBRANCH   5   6
ENDBRANCH   4   5
ENDBRANCH   3   4
ENDBRANCH   2   3
ENDBRANCH   1   2
BRANCH   1  26
ATOM     26  C   UNL A   1      35.207  23.854  25.478  1.00  0.00     0.188 C 
BRANCH  26  27
ATOM     27  C   UNL A   1      36.332  23.446  24.530  1.00  0.00     0.188 C 
BRANCH  27  28
ATOM     28  O   UNL A   1      37.522  22.842  25.044  1.00  0.00    -0.376 OA
BRANCH  28  29
ATOM     29  C   UNL A   1      37.495  21.527  25.583  1.00  0.00     0.202 C 
BRANCH  29  30
ATOM     30  C   UNL A   1      38.791  20.755  25.385  1.00  0.00     0.261 C 
BRANCH  30  31
ATOM     31  O   UNL A   1      39.554  20.872  26.586  1.00  0.00    -0.460 OA
BRANCH  31  32
ATOM     32  C   UNL A   1      40.803  20.372  26.474  1.00  0.00     0.338 C 
ATOM     33  O   UNL A   1      41.112  19.241  26.133  1.00  0.00    -0.246 OA
BRANCH  32  34
ATOM     34  C   UNL A   1      41.755  21.493  26.595  1.00  0.00     0.060 A 
ATOM     35  C   UNL A   1      42.197  21.823  27.881  1.00  0.00     0.016 A 
ATOM     36  C   UNL A   1      42.245  22.175  25.474  1.00  0.00     0.016 A 
ATOM     37  C   UNL A   1      43.086  22.871  28.061  1.00  0.00     0.010 A 
ATOM     38  C   UNL A   1      43.121  23.240  25.651  1.00  0.00     0.010 A 
ATOM     39  C   UNL A   1      43.497  23.614  26.950  1.00  0.00    -0.014 A 
BRANCH  39  40
ATOM     40  C   UNL A   1      44.088  24.942  27.178  1.00  0.00     0.031 A 
ATOM     41  C   UNL A   1      43.165  26.033  27.636  1.00  0.00     0.074 A 
ATOM     42  C   UNL A   1      45.406  25.137  27.019  1.00  0.00     0.049 A 
ATOM     43  N   UNL A   1      43.422  27.287  27.883  1.00  0.00    -0.248 NA
ATOM     44  C   UNL A   1      41.753  25.657  27.841  1.00  0.00     0.031 C 
ATOM     45  C   UNL A   1      46.370  24.109  26.623  1.00  0.00     0.029 A 
ATOM     46  N   UNL A   1      46.157  26.268  27.170  1.00  0.00    -0.354 N 
ATOM     47  C   UNL A   1      42.211  27.847  28.273  1.00  0.00     0.074 A 
ATOM     48  C   UNL A   1      41.210  26.810  28.197  1.00  0.00     0.031 C 
ATOM     49  C   UNL A   1      47.590  24.667  26.547  1.00  0.00     0.029 A 
ATOM     50  C   UNL A   1      47.482  26.091  26.857  1.00  0.00     0.049 A 
ATOM     51  H   UNL A   1      45.785  27.127  27.473  1.00  0.00     0.167 HD
ATOM     52  C   UNL A   1      41.969  29.117  28.666  1.00  0.00     0.037 A 
ATOM     53  C   UNL A   1      48.480  26.993  26.806  1.00  0.00     0.037 A 
ATOM     54  C   UNL A   1      42.987  30.128  28.718  1.00  0.00     0.049 A 
ATOM     55  C   UNL A   1      48.166  28.421  27.177  1.00  0.00     0.074 A 
ATOM     56  C   UNL A   1      42.871  31.451  29.099  1.00  0.00     0.029 A 
ATOM     57  N   UNL A   1      44.316  29.924  28.365  1.00  0.00    -0.354 N 
ATOM     58  N   UNL A   1      47.023  28.941  27.563  1.00  0.00    -0.248 NA
ATOM     59  C   UNL A   1      49.273  29.382  27.109  1.00  0.00     0.031 C 
ATOM     60  C   UNL A   1      44.117  32.062  28.920  1.00  0.00     0.029 A 
ATOM     61  C   UNL A   1      45.025  31.104  28.491  1.00  0.00     0.049 A 
ATOM     62  H   UNL A   1      44.696  29.065  28.069  1.00  0.00     0.167 HD
ATOM     63  C   UNL A   1      47.279  30.285  27.809  1.00  0.00     0.074 A 
ATOM     64  C   UNL A   1      48.690  30.491  27.544  1.00  0.00     0.031 C 
ATOM     65  C   UNL A   1      46.432  31.265  28.217  1.00  0.00     0.037 A 
BRANCH  52  66
ATOM     66  C   UNL A   1      40.556  29.479  29.029  1.00  0.00     0.058 A 
ATOM     67  C   UNL A   1      40.152  29.651  30.364  1.00  0.00     0.135 A 
ATOM     68  C   UNL A   1      39.594  29.678  28.026  1.00  0.00     0.135 A 
ATOM     69  F   UNL A   1      41.021  29.443  31.367  1.00  0.00    -0.206 F 
ATOM     70  C   UNL A   1      38.843  29.994  30.691  1.00  0.00     0.059 A 
ATOM     71  C   UNL A   1      38.288  30.050  28.328  1.00  0.00     0.059 A 
ATOM     72  F   UNL A   1      39.921  29.510  26.735  1.00  0.00    -0.206 F 
ATOM     73  C   UNL A   1      37.919  30.197  29.663  1.00  0.00     0.060 A 
BRANCH  73  74
ATOM     74  S   UNL A   1      36.233  30.668  30.103  1.00  0.00     0.124 S 
ATOM     75  O   UNL A   1      35.537  30.484  28.833  1.00  0.00    -0.237 OA
ATOM     76  O   UNL A   1      35.905  29.706  31.150  1.00  0.00    -0.237 OA
ATOM     77  O   UNL A   1      36.370  32.052  30.547  1.00  0.00    -0.744 OA
ENDBRANCH  73  74
ENDBRANCH  52  66
BRANCH  53  78
ATOM     78  C   UNL A   1      49.841  26.581  26.376  1.00  0.00     0.058 A 
ATOM     79  C   UNL A   1      50.253  26.705  25.041  1.00  0.00     0.135 A 
ATOM     80  C   UNL A   1      50.763  26.056  27.296  1.00  0.00     0.135 A 
ATOM     81  F   UNL A   1      49.408  27.197  24.122  1.00  0.00    -0.206 F 
ATOM     82  C   UNL A   1      51.521  26.308  24.629  1.00  0.00     0.059 A 
ATOM     83  C   UNL A   1      52.047  25.678  26.914  1.00  0.00     0.059 A 
ATOM     84  F   UNL A   1      50.426  25.927  28.589  1.00  0.00    -0.206 F 
ATOM     85  C   UNL A   1      52.412  25.797  25.574  1.00  0.00     0.060 A 
BRANCH  85  86
ATOM     86  S   UNL A   1      54.067  25.318  25.036  1.00  0.00     0.124 S 
ATOM     87  O   UNL A   1      54.864  25.642  26.213  1.00  0.00    -0.237 OA
ATOM     88  O   UNL A   1      53.896  23.897  24.750  1.00  0.00    -0.237 OA
ATOM     89  O   UNL A   1      54.297  26.162  23.866  1.00  0.00    -0.744 OA
ENDBRANCH  85  86
ENDBRANCH  53  78
BRANCH  65  90
ATOM     90  C   UNL A   1      47.018  32.633  28.427  1.00  0.00     0.058 A 
ATOM     91  C   UNL A   1      47.014  33.601  27.413  1.00  0.00     0.135 A 
ATOM     92  C   UNL A   1      47.535  32.996  29.681  1.00  0.00     0.135 A 
ATOM     93  F   UNL A   1      46.534  33.302  26.195  1.00  0.00    -0.206 F 
ATOM     94  C   UNL A   1      47.528  34.873  27.624  1.00  0.00     0.059 A 
ATOM     95  C   UNL A   1      48.023  34.274  29.926  1.00  0.00     0.059 A 
ATOM     96  F   UNL A   1      47.548  32.110  30.691  1.00  0.00    -0.206 F 
ATOM     97  C   UNL A   1      48.027  35.202  28.886  1.00  0.00     0.060 A 
BRANCH  97  98
ATOM     98  S   UNL A   1      48.663  36.869  29.155  1.00  0.00     0.124 S 
ATOM     99  O   UNL A   1      50.054  36.722  28.743  1.00  0.00    -0.237 OA
ATOM    100  O   UNL A   1      47.820  37.668  28.272  1.00  0.00    -0.237 OA
ATOM    101  O   UNL A   1      48.450  37.088  30.582  1.00  0.00    -0.744 OA
ENDBRANCH  97  98
ENDBRANCH  65  90
ENDBRANCH  39  40
ENDBRANCH  32  34
ENDBRANCH  31  32
ENDBRANCH  30  31
ENDBRANCH  29  30
ENDBRANCH  28  29
ENDBRANCH  27  28
ENDBRANCH  26  27
ENDBRANCH   1  26
TORSDOF 26
ENDMDL
MODEL 2
REMARK VINA RESULT:      -9.2      0.625      8.155
REMARK SMILES CN(CC(=O)OCCOCCOCCOCCOC(=O)c1ccc(-c2c3nc(c(-c4c(F)cc(S(=O)(=O)[O-])cc4F)c4ccc([nH]4)c(-c4c(F)cc(S(=O)(=O)[O-])cc4F)c4nc(c(-c5c(F)cc(S(=O)(=O)[O-])cc5F)c5ccc2[nH]5)C=C4)C=C3)cc1)c1nc2cc(N)ccc2[nH]1
REMARK SMILES IDX 12 1 11 2 10 3 9 4 8 5 7 6 6 7 4 8 5 9 3 10 2 11 1 12 87 13
REMARK SMILES IDX 88 14 96 15 89 16 95 17 90 19 94 20 91 21 93 22 92 23 13 26
REMARK SMILES IDX 14 27 15 28 16 29 17 30 18 31 19 32 20 33 21 34 22 35 86 36
REMARK SMILES IDX 23 37 85 38 24 39 25 40 26 41 79 42 27 43 84 44 78 45 80 46
REMARK SMILES IDX 28 47 83 48 77 49 76 50 29 52 63 53 42 54 62 55 43 56 46 57
REMARK SMILES IDX 61 58 81 59 44 60 45 61 60 63 82 64 47 65 30 66 31 67 40 68
REMARK SMILES IDX 32 69 33 70 39 71 41 72 34 73 35 74 36 75 37 76 38 77 64 78
REMARK SMILES IDX 65 79 74 80 66 81 67 82 73 83 75 84 68 85 69 86 70 87 71 88
REMARK SMILES IDX 72 89 48 90 49 91 58 92 50 93 51 94 57 95 59 96 52 97 53 98
REMARK SMILES IDX 54 99 55 100 56 101
REMARK H PARENT 96 18 92 24 92 25 80 51 46 62
REMARK Flexibility Score: inf
ROOT
ATOM      1  O   UNL A   1      34.917  24.640  25.742  1.00  0.00    -0.377 OA
ENDROOT
BRANCH   1   2
ATOM      2  C   UNL A   1      34.418  25.146  24.524  1.00  0.00     0.188 C 
BRANCH   2   3
ATOM      3  C   UNL A   1      33.404  26.299  24.580  1.00  0.00     0.188 C 
BRANCH   3   4
ATOM      4  O   UNL A   1      32.062  26.120  24.146  1.00  0.00    -0.376 OA
BRANCH   4   5
ATOM      5  C   UNL A   1      31.012  26.402  25.051  1.00  0.00     0.202 C 
BRANCH   5   6
ATOM      6  C   UNL A   1      30.680  25.356  26.136  1.00  0.00     0.261 C 
BRANCH   6   7
ATOM      7  O   UNL A   1      31.791  24.672  26.775  1.00  0.00    -0.462 OA
BRANCH   7   8
ATOM      8  C   UNL A   1      31.692  23.320  26.908  1.00  0.00     0.325 C 
ATOM      9  O   UNL A   1      32.239  22.699  27.822  1.00  0.00    -0.250 OA
BRANCH   8  10
ATOM     10  C   UNL A   1      30.991  22.566  25.758  1.00  0.00     0.241 C 
BRANCH  10  11
ATOM     11  N   UNL A   1      31.746  22.055  24.584  1.00  0.00    -0.334 N 
ATOM     12  C   UNL A   1      31.827  22.894  23.400  1.00  0.00     0.147 C 
BRANCH  11  13
ATOM     13  C   UNL A   1      32.331  20.824  24.634  1.00  0.00     0.204 A 
ATOM     14  N   UNL A   1      32.556  20.092  25.702  1.00  0.00    -0.213 NA
ATOM     15  N   UNL A   1      32.669  20.109  23.500  1.00  0.00    -0.324 N 
ATOM     16  C   UNL A   1      32.759  18.810  25.239  1.00  0.00     0.093 A 
ATOM     17  C   UNL A   1      32.897  18.800  23.858  1.00  0.00     0.067 A 
ATOM     18  H   UNL A   1      32.736  20.475  22.589  1.00  0.00     0.170 HD
ATOM     19  C   UNL A   1      32.702  17.590  25.933  1.00  0.00     0.056 A 
ATOM     20  C   UNL A   1      33.108  17.628  23.121  1.00  0.00     0.030 A 
ATOM     21  C   UNL A   1      32.676  16.398  25.194  1.00  0.00     0.034 A 
ATOM     22  C   UNL A   1      32.992  16.419  23.830  1.00  0.00     0.028 A 
BRANCH  21  23
ATOM     23  N   UNL A   1      32.360  15.197  25.827  1.00  0.00    -0.399 N 
ATOM     24  H   UNL A   1      32.559  14.340  25.385  1.00  0.00     0.156 HD
ATOM     25  H   UNL A   1      31.939  15.205  26.718  1.00  0.00     0.156 HD
ENDBRANCH  21  23
ENDBRANCH  11  13
ENDBRANCH  10  11
ENDBRANCH   8  10
ENDBRANCH   7   8
ENDBRANCH   6   7
ENDBRANCH   5   6
ENDBRANCH   4   5
ENDBRANCH   3   4
ENDBRANCH   2   3
ENDBRANCH   1   2
BRANCH   1  26
ATOM     26  C   UNL A   1      35.099  23.246  25.890  1.00  0.00     0.188 C 
BRANCH  26  27
ATOM     27  C   UNL A   1      36.010  22.560  24.875  1.00  0.00     0.188 C 
BRANCH  27  28
ATOM     28  O   UNL A   1      37.310  22.110  25.264  1.00  0.00    -0.376 OA
BRANCH  28  29
ATOM     29  C   UNL A   1      37.557  20.734  25.519  1.00  0.00     0.202 C 
BRANCH  29  30
ATOM     30  C   UNL A   1      38.986  20.301  25.228  1.00  0.00     0.261 C 
BRANCH  30  31
ATOM     31  O   UNL A   1      39.716  20.361  26.454  1.00  0.00    -0.460 OA
BRANCH  31  32
ATOM     32  C   UNL A   1      41.016  20.022  26.317  1.00  0.00     0.338 C 
ATOM     33  O   UNL A   1      41.456  18.951  25.929  1.00  0.00    -0.246 OA
BRANCH  32  34
ATOM     34  C   UNL A   1      41.825  21.245  26.476  1.00  0.00     0.060 A 
ATOM     35  C   UNL A   1      42.155  21.631  27.780  1.00  0.00     0.016 A 
ATOM     36  C   UNL A   1      42.295  21.973  25.375  1.00  0.00     0.016 A 
ATOM     37  C   UNL A   1      42.907  22.775  27.995  1.00  0.00     0.010 A 
ATOM     38  C   UNL A   1      43.032  23.133  25.587  1.00  0.00     0.010 A 
ATOM     39  C   UNL A   1      43.291  23.554  26.900  1.00  0.00    -0.014 A 
BRANCH  39  40
ATOM     40  C   UNL A   1      43.713  24.942  27.145  1.00  0.00     0.031 A 
ATOM     41  C   UNL A   1      45.166  25.261  26.940  1.00  0.00     0.074 A 
ATOM     42  C   UNL A   1      42.816  25.876  27.493  1.00  0.00     0.049 A 
ATOM     43  N   UNL A   1      45.798  26.389  27.109  1.00  0.00    -0.248 NA
ATOM     44  C   UNL A   1      46.025  24.152  26.483  1.00  0.00     0.031 C 
ATOM     45  C   UNL A   1      41.380  25.646  27.662  1.00  0.00     0.029 A 
ATOM     46  N   UNL A   1      42.983  27.204  27.769  1.00  0.00    -0.354 N 
ATOM     47  C   UNL A   1      47.123  26.127  26.779  1.00  0.00     0.074 A 
ATOM     48  C   UNL A   1      47.215  24.728  26.434  1.00  0.00     0.031 C 
ATOM     49  C   UNL A   1      40.798  26.800  28.031  1.00  0.00     0.029 A 
ATOM     50  C   UNL A   1      41.824  27.833  28.152  1.00  0.00     0.049 A 
ATOM     51  H   UNL A   1      43.850  27.665  27.699  1.00  0.00     0.167 HD
ATOM     52  C   UNL A   1      48.163  26.989  26.761  1.00  0.00     0.037 A 
ATOM     53  C   UNL A   1      41.634  29.096  28.576  1.00  0.00     0.037 A 
ATOM     54  C   UNL A   1      48.038  28.373  27.123  1.00  0.00     0.049 A 
ATOM     55  C   UNL A   1      42.827  30.019  28.620  1.00  0.00     0.074 A 
ATOM     56  C   UNL A   1      49.015  29.351  27.146  1.00  0.00     0.029 A 
ATOM     57  N   UNL A   1      46.856  28.974  27.536  1.00  0.00    -0.354 N 
ATOM     58  N   UNL A   1      44.074  29.771  28.289  1.00  0.00    -0.248 NA
ATOM     59  C   UNL A   1      42.589  31.389  29.089  1.00  0.00     0.031 C 
ATOM     60  C   UNL A   1      48.435  30.528  27.630  1.00  0.00     0.029 A 
ATOM     61  C   UNL A   1      47.083  30.302  27.846  1.00  0.00     0.049 A 
ATOM     62  H   UNL A   1      45.984  28.520  27.600  1.00  0.00     0.167 HD
ATOM     63  C   UNL A   1      44.764  30.961  28.485  1.00  0.00     0.074 A 
ATOM     64  C   UNL A   1      43.791  31.931  28.948  1.00  0.00     0.031 C 
ATOM     65  C   UNL A   1      46.082  31.236  28.303  1.00  0.00     0.037 A 
BRANCH  52  66
ATOM     66  C   UNL A   1      49.512  26.450  26.376  1.00  0.00     0.058 A 
ATOM     67  C   UNL A   1      50.073  26.686  25.110  1.00  0.00     0.135 A 
ATOM     68  C   UNL A   1      50.267  25.703  27.294  1.00  0.00     0.135 A 
ATOM     69  F   UNL A   1      49.385  27.367  24.179  1.00  0.00    -0.206 F 
ATOM     70  C   UNL A   1      51.327  26.189  24.764  1.00  0.00     0.059 A 
ATOM     71  C   UNL A   1      51.534  25.221  26.981  1.00  0.00     0.059 A 
ATOM     72  F   UNL A   1      49.772  25.433  28.512  1.00  0.00    -0.206 F 
ATOM     73  C   UNL A   1      52.052  25.462  25.711  1.00  0.00     0.060 A 
BRANCH  73  74
ATOM     74  S   UNL A   1      53.688  24.848  25.256  1.00  0.00     0.124 S 
ATOM     75  O   UNL A   1      54.480  25.238  26.417  1.00  0.00    -0.237 OA
ATOM     76  O   UNL A   1      53.450  23.416  25.103  1.00  0.00    -0.237 OA
ATOM     77  O   UNL A   1      53.990  25.565  24.022  1.00  0.00    -0.744 OA
ENDBRANCH  73  74
ENDBRANCH  52  66
BRANCH  53  78
ATOM     78  C   UNL A   1      40.284  29.547  29.005  1.00  0.00     0.058 A 
ATOM     79  C   UNL A   1      39.985  29.773  30.356  1.00  0.00     0.135 A 
ATOM     80  C   UNL A   1      39.263  29.766  28.066  1.00  0.00     0.135 A 
ATOM     81  F   UNL A   1      40.925  29.574  31.292  1.00  0.00    -0.206 F 
ATOM     82  C   UNL A   1      38.720  30.182  30.765  1.00  0.00     0.059 A 
ATOM     83  C   UNL A   1      37.997  30.203  28.447  1.00  0.00     0.059 A 
ATOM     84  F   UNL A   1      39.498  29.578  26.758  1.00  0.00    -0.206 F 
ATOM     85  C   UNL A   1      37.733  30.395  29.801  1.00  0.00     0.060 A 
BRANCH  85  86
ATOM     86  S   UNL A   1      36.104  30.960  30.340  1.00  0.00     0.124 S 
ATOM     87  O   UNL A   1      35.268  30.557  29.216  1.00  0.00    -0.237 OA
ATOM     88  O   UNL A   1      35.916  30.211  31.579  1.00  0.00    -0.237 OA
ATOM     89  O   UNL A   1      36.286  32.399  30.507  1.00  0.00    -0.744 OA
ENDBRANCH  85  86
ENDBRANCH  53  78
BRANCH  65  90
ATOM     90  C   UNL A   1      46.532  32.642  28.575  1.00  0.00     0.058 A 
ATOM     91  C   UNL A   1      46.501  33.632  27.582  1.00  0.00     0.135 A 
ATOM     92  C   UNL A   1      46.944  33.016  29.865  1.00  0.00     0.135 A 
ATOM     93  F   UNL A   1      46.119  33.325  26.332  1.00  0.00    -0.206 F 
ATOM     94  C   UNL A   1      46.890  34.939  27.850  1.00  0.00     0.059 A 
ATOM     95  C   UNL A   1      47.304  34.325  30.165  1.00  0.00     0.059 A 
ATOM     96  F   UNL A   1      46.977  32.109  30.854  1.00  0.00    -0.206 F 
ATOM     97  C   UNL A   1      47.286  35.277  29.146  1.00  0.00     0.060 A 
BRANCH  97  98
ATOM     98  S   UNL A   1      47.757  36.984  29.487  1.00  0.00     0.124 S 
ATOM     99  O   UNL A   1      48.022  36.935  30.920  1.00  0.00    -0.237 OA
ATOM    100  O   UNL A   1      48.926  37.159  28.630  1.00  0.00    -0.237 OA
ATOM    101  O   UNL A   1      46.578  37.748  29.091  1.00  0.00    -0.744 OA
ENDBRANCH  97  98
ENDBRANCH  65  90
ENDBRANCH  39  40
ENDBRANCH  32  34
ENDBRANCH  31  32
ENDBRANCH  30  31
ENDBRANCH  29  30
ENDBRANCH  28  29
ENDBRANCH  27  28
ENDBRANCH  26  27
ENDBRANCH   1  26
TORSDOF 26
ENDMDL
MODEL 3
REMARK VINA RESULT:      -9.2      3.613      9.573
REMARK SMILES CN(CC(=O)OCCOCCOCCOCCOC(=O)c1ccc(-c2c3nc(c(-c4c(F)cc(S(=O)(=O)[O-])cc4F)c4ccc([nH]4)c(-c4c(F)cc(S(=O)(=O)[O-])cc4F)c4nc(c(-c5c(F)cc(S(=O)(=O)[O-])cc5F)c5ccc2[nH]5)C=C4)C=C3)cc1)c1nc2cc(N)ccc2[nH]1
REMARK SMILES IDX 12 1 11 2 10 3 9 4 8 5 7 6 6 7 4 8 5 9 3 10 2 11 1 12 87 13
REMARK SMILES IDX 88 14 96 15 89 16 95 17 90 19 94 20 91 21 93 22 92 23 13 26
REMARK SMILES IDX 14 27 15 28 16 29 17 30 18 31 19 32 20 33 21 34 22 35 86 36
REMARK SMILES IDX 23 37 85 38 24 39 25 40 26 41 79 42 27 43 84 44 78 45 80 46
REMARK SMILES IDX 28 47 83 48 77 49 76 50 29 52 63 53 42 54 62 55 43 56 46 57
REMARK SMILES IDX 61 58 81 59 44 60 45 61 60 63 82 64 47 65 30 66 31 67 40 68
REMARK SMILES IDX 32 69 33 70 39 71 41 72 34 73 35 74 36 75 37 76 38 77 64 78
REMARK SMILES IDX 65 79 74 80 66 81 67 82 73 83 75 84 68 85 69 86 70 87 71 88
REMARK SMILES IDX 72 89 48 90 49 91 58 92 50 93 51 94 57 95 59 96 52 97 53 98
REMARK SMILES IDX 54 99 55 100 56 101
REMARK H PARENT 96 18 92 24 92 25 80 51 46 62
REMARK Flexibility Score: inf
ROOT
ATOM      1  O   UNL A   1      33.996  35.226  29.188  1.00  0.00    -0.377 OA
ENDROOT
BRANCH   1   2
ATOM      2  C   UNL A   1      33.346  34.242  28.415  1.00  0.00     0.188 C 
BRANCH   2   3
ATOM      3  C   UNL A   1      34.093  32.929  28.138  1.00  0.00     0.188 C 
BRANCH   3   4
ATOM      4  O   UNL A   1      33.418  31.796  27.608  1.00  0.00    -0.376 OA
BRANCH   4   5
ATOM      5  C   UNL A   1      34.114  30.567  27.526  1.00  0.00     0.202 C 
BRANCH   5   6
ATOM      6  C   UNL A   1      33.653  29.533  26.478  1.00  0.00     0.261 C 
BRANCH   6   7
ATOM      7  O   UNL A   1      34.115  28.164  26.633  1.00  0.00    -0.462 OA
BRANCH   7   8
ATOM      8  C   UNL A   1      33.575  27.230  25.801  1.00  0.00     0.325 C 
ATOM      9  O   UNL A   1      33.372  26.066  26.150  1.00  0.00    -0.250 OA
BRANCH   8  10
ATOM     10  C   UNL A   1      33.375  27.654  24.330  1.00  0.00     0.241 C 
BRANCH  10  11
ATOM     11  N   UNL A   1      32.149  27.293  23.572  1.00  0.00    -0.334 N 
ATOM     12  C   UNL A   1      32.155  26.059  22.803  1.00  0.00     0.147 C 
BRANCH  11  13
ATOM     13  C   UNL A   1      31.063  28.116  23.601  1.00  0.00     0.204 A 
ATOM     14  N   UNL A   1      30.902  29.197  24.330  1.00  0.00    -0.213 NA
ATOM     15  N   UNL A   1      29.992  27.973  22.738  1.00  0.00    -0.324 N 
ATOM     16  C   UNL A   1      29.880  29.901  23.732  1.00  0.00     0.093 A 
ATOM     17  C   UNL A   1      29.247  29.130  22.767  1.00  0.00     0.067 A 
ATOM     18  H   UNL A   1      29.794  27.177  22.195  1.00  0.00     0.170 HD
ATOM     19  C   UNL A   1      29.525  31.253  23.873  1.00  0.00     0.056 A 
ATOM     20  C   UNL A   1      28.175  29.599  21.999  1.00  0.00     0.030 A 
ATOM     21  C   UNL A   1      28.619  31.808  22.958  1.00  0.00     0.034 A 
ATOM     22  C   UNL A   1      27.875  30.968  22.120  1.00  0.00     0.028 A 
BRANCH  21  23
ATOM     23  N   UNL A   1      28.445  33.191  22.905  1.00  0.00    -0.399 N 
ATOM     24  H   UNL A   1      27.732  33.618  23.433  1.00  0.00     0.156 HD
ATOM     25  H   UNL A   1      29.036  33.741  22.341  1.00  0.00     0.156 HD
ENDBRANCH  21  23
ENDBRANCH  11  13
ENDBRANCH  10  11
ENDBRANCH   8  10
ENDBRANCH   7   8
ENDBRANCH   6   7
ENDBRANCH   5   6
ENDBRANCH   4   5
ENDBRANCH   3   4
ENDBRANCH   2   3
ENDBRANCH   1   2
BRANCH   1  26
ATOM     26  C   UNL A   1      33.382  35.693  30.374  1.00  0.00     0.188 C 
BRANCH  26  27
ATOM     27  C   UNL A   1      33.762  34.981  31.670  1.00  0.00     0.188 C 
BRANCH  27  28
ATOM     28  O   UNL A   1      35.123  34.961  32.108  1.00  0.00    -0.376 OA
BRANCH  28  29
ATOM     29  C   UNL A   1      35.913  33.788  31.970  1.00  0.00     0.202 C 
BRANCH  29  30
ATOM     30  C   UNL A   1      37.098  33.952  31.030  1.00  0.00     0.261 C 
BRANCH  30  31
ATOM     31  O   UNL A   1      36.941  33.013  29.965  1.00  0.00    -0.460 OA
BRANCH  31  32
ATOM     32  C   UNL A   1      36.746  31.748  30.395  1.00  0.00     0.338 C 
ATOM     33  O   UNL A   1      35.724  31.288  30.878  1.00  0.00    -0.246 OA
BRANCH  32  34
ATOM     34  C   UNL A   1      37.898  30.936  29.958  1.00  0.00     0.060 A 
ATOM     35  C   UNL A   1      38.809  30.533  30.941  1.00  0.00     0.016 A 
ATOM     36  C   UNL A   1      38.061  30.535  28.626  1.00  0.00     0.016 A 
ATOM     37  C   UNL A   1      39.915  29.774  30.592  1.00  0.00     0.010 A 
ATOM     38  C   UNL A   1      39.179  29.791  28.268  1.00  0.00     0.010 A 
ATOM     39  C   UNL A   1      40.128  29.458  29.247  1.00  0.00    -0.014 A 
BRANCH  39  40
ATOM     40  C   UNL A   1      41.473  29.028  28.835  1.00  0.00     0.031 A 
ATOM     41  C   UNL A   1      42.550  30.073  28.819  1.00  0.00     0.074 A 
ATOM     42  C   UNL A   1      41.714  27.743  28.533  1.00  0.00     0.049 A 
ATOM     43  N   UNL A   1      43.804  29.965  28.476  1.00  0.00    -0.248 NA
ATOM     44  C   UNL A   1      42.158  31.429  29.249  1.00  0.00     0.031 C 
ATOM     45  C   UNL A   1      40.725  26.666  28.574  1.00  0.00     0.029 A 
ATOM     46  N   UNL A   1      42.867  27.132  28.129  1.00  0.00    -0.354 N 
ATOM     47  C   UNL A   1      44.348  31.233  28.648  1.00  0.00     0.074 A 
ATOM     48  C   UNL A   1      43.285  32.104  29.092  1.00  0.00     0.031 C 
ATOM     49  C   UNL A   1      41.316  25.521  28.191  1.00  0.00     0.029 A 
ATOM     50  C   UNL A   1      42.710  25.797  27.851  1.00  0.00     0.049 A 
ATOM     51  H   UNL A   1      43.727  27.603  28.045  1.00  0.00     0.167 HD
ATOM     52  C   UNL A   1      45.627  31.623  28.457  1.00  0.00     0.037 A 
ATOM     53  C   UNL A   1      43.596  24.914  27.353  1.00  0.00     0.037 A 
ATOM     54  C   UNL A   1      46.657  30.732  28.002  1.00  0.00     0.049 A 
ATOM     55  C   UNL A   1      44.999  25.394  27.076  1.00  0.00     0.074 A 
ATOM     56  C   UNL A   1      47.992  31.003  27.770  1.00  0.00     0.029 A 
ATOM     57  N   UNL A   1      46.459  29.390  27.700  1.00  0.00    -0.354 N 
ATOM     58  N   UNL A   1      45.513  26.589  27.259  1.00  0.00    -0.248 NA
ATOM     59  C   UNL A   1      45.941  24.409  26.531  1.00  0.00     0.031 C 
ATOM     60  C   UNL A   1      48.588  29.840  27.271  1.00  0.00     0.029 A 
ATOM     61  C   UNL A   1      47.640  28.827  27.255  1.00  0.00     0.049 A 
ATOM     62  H   UNL A   1      45.603  28.912  27.790  1.00  0.00     0.167 HD
ATOM     63  C   UNL A   1      46.846  26.494  26.876  1.00  0.00     0.074 A 
ATOM     64  C   UNL A   1      47.059  25.119  26.467  1.00  0.00     0.031 C 
ATOM     65  C   UNL A   1      47.810  27.449  26.859  1.00  0.00     0.037 A 
BRANCH  52  66
ATOM     66  C   UNL A   1      45.962  33.068  28.704  1.00  0.00     0.058 A 
ATOM     67  C   UNL A   1      45.871  34.036  27.690  1.00  0.00     0.135 A 
ATOM     68  C   UNL A   1      46.361  33.496  29.980  1.00  0.00     0.135 A 
ATOM     69  F   UNL A   1      45.526  33.679  26.441  1.00  0.00    -0.206 F 
ATOM     70  C   UNL A   1      46.176  35.372  27.928  1.00  0.00     0.059 A 
ATOM     71  C   UNL A   1      46.642  34.832  30.249  1.00  0.00     0.059 A 
ATOM     72  F   UNL A   1      46.482  32.611  30.982  1.00  0.00    -0.206 F 
ATOM     73  C   UNL A   1      46.556  35.761  29.215  1.00  0.00     0.060 A 
BRANCH  73  74
ATOM     74  S   UNL A   1      46.922  37.504  29.515  1.00  0.00     0.124 S 
ATOM     75  O   UNL A   1      46.715  38.078  28.190  1.00  0.00    -0.237 OA
ATOM     76  O   UNL A   1      45.928  37.860  30.523  1.00  0.00    -0.237 OA
ATOM     77  O   UNL A   1      48.305  37.486  29.981  1.00  0.00    -0.744 OA
ENDBRANCH  73  74
ENDBRANCH  52  66
BRANCH  53  78
ATOM     78  C   UNL A   1      43.181  23.515  27.071  1.00  0.00     0.058 A 
ATOM     79  C   UNL A   1      43.006  22.583  28.104  1.00  0.00     0.135 A 
ATOM     80  C   UNL A   1      42.944  23.082  25.756  1.00  0.00     0.135 A 
ATOM     81  F   UNL A   1      43.224  22.946  29.377  1.00  0.00    -0.206 F 
ATOM     82  C   UNL A   1      42.631  21.268  27.846  1.00  0.00     0.059 A 
ATOM     83  C   UNL A   1      42.540  21.780  25.474  1.00  0.00     0.059 A 
ATOM     84  F   UNL A   1      43.083  23.936  24.730  1.00  0.00    -0.206 F 
ATOM     85  C   UNL A   1      42.398  20.877  26.526  1.00  0.00     0.060 A 
BRANCH  85  86
ATOM     86  S   UNL A   1      41.877  19.179  26.204  1.00  0.00     0.124 S 
ATOM     87  O   UNL A   1      40.439  19.342  26.025  1.00  0.00    -0.237 OA
ATOM     88  O   UNL A   1      42.639  18.848  25.004  1.00  0.00    -0.237 OA
ATOM     89  O   UNL A   1      42.285  18.468  27.413  1.00  0.00    -0.744 OA
ENDBRANCH  85  86
ENDBRANCH  53  78
BRANCH  65  90
ATOM     90  C   UNL A   1      49.182  27.030  26.414  1.00  0.00     0.058 A 
ATOM     91  C   UNL A   1      50.132  26.535  27.319  1.00  0.00     0.135 A 
ATOM     92  C   UNL A   1      49.527  27.070  25.053  1.00  0.00     0.135 A 
ATOM     93  F   UNL A   1      49.852  26.480  28.631  1.00  0.00    -0.206 F 
ATOM     94  C   UNL A   1      51.388  26.119  26.895  1.00  0.00     0.059 A 
ATOM     95  C   UNL A   1      50.766  26.627  24.602  1.00  0.00     0.059 A 
ATOM     96  F   UNL A   1      48.648  27.521  24.144  1.00  0.00    -0.206 F 
ATOM     97  C   UNL A   1      51.694  26.165  25.534  1.00  0.00     0.060 A 
BRANCH  97  98
ATOM     98  S   UNL A   1      53.318  25.593  24.995  1.00  0.00     0.124 S 
ATOM     99  O   UNL A   1      54.201  26.342  25.880  1.00  0.00    -0.237 OA
ATOM    100  O   UNL A   1      53.237  24.156  25.244  1.00  0.00    -0.237 OA
ATOM    101  O   UNL A   1      53.364  25.976  23.587  1.00  0.00    -0.744 OA
ENDBRANCH  97  98
ENDBRANCH  65  90
ENDBRANCH  39  40
ENDBRANCH  32  34
ENDBRANCH  31  32
ENDBRANCH  30  31
ENDBRANCH  29  30
ENDBRANCH  28  29
ENDBRANCH  27  28
ENDBRANCH  26  27
ENDBRANCH   1  26
TORSDOF 26
ENDMDL
