MODEL 1
REMARK VINA RESULT:     -11.3      0.000      0.000
REMARK SMILES Cc1nccn1CCC[NH+]1CCC2(CC1)[C@@H](C(=O)OCCOCCOCCOCCOC(=O)c1ccc(-c3c4nc(c(-c5c(F)cc(S(=O)(=O)[O-])cc5F)c5ccc([nH]5)c(-c5c(F)cc(S(=O)(=O)[O-])cc5F)c5nc(c(-c6c(F)cc(S(=O)(=O)[O-])cc6F)c6ccc3[nH]6)C=C5)C=C4)cc1)CC(=O)N2C
REMARK SMILES IDX 24 1 23 2 22 3 21 4 20 5 19 6 17 7 18 8 16 9 10 10 11 11
REMARK SMILES IDX 15 12 12 14 14 15 13 16 103 17 100 18 101 19 104 20 102 21
REMARK SMILES IDX 9 22 8 23 7 24 6 25 1 26 2 27 3 28 4 29 5 30 25 31 26 32
REMARK SMILES IDX 27 33 28 34 29 35 30 36 31 37 32 38 33 39 34 40 35 41 99 42
REMARK SMILES IDX 36 43 98 44 37 45 38 46 39 47 92 48 40 49 97 50 91 51 93 52
REMARK SMILES IDX 41 53 96 54 90 55 89 56 42 58 76 59 55 60 75 61 56 62 59 63
REMARK SMILES IDX 74 64 94 65 57 66 58 67 73 69 95 70 60 71 43 72 44 73 53 74
REMARK SMILES IDX 45 75 46 76 52 77 54 78 47 79 48 80 49 81 50 82 51 83 77 84
REMARK SMILES IDX 78 85 87 86 79 87 80 88 86 89 88 90 81 91 82 92 83 93 84 94
REMARK SMILES IDX 85 95 61 96 62 97 71 98 63 99 64 100 70 101 72 102 65 103
REMARK SMILES IDX 66 104 67 105 68 106 69 107
REMARK H PARENT 10 13 93 57 59 68
REMARK Flexibility Score: inf
ROOT
ATOM      1  C   UNL A   1      40.909  20.370  27.073  1.00  0.00     0.188 C 
ENDROOT
BRANCH   1   2
ATOM      2  C   UNL A   1      40.127  21.698  27.052  1.00  0.00     0.188 C 
BRANCH   2   3
ATOM      3  O   UNL A   1      39.551  22.197  25.848  1.00  0.00    -0.376 OA
BRANCH   3   4
ATOM      4  C   UNL A   1      38.172  22.524  25.818  1.00  0.00     0.202 C 
BRANCH   4   5
ATOM      5  C   UNL A   1      37.446  22.434  24.472  1.00  0.00     0.261 C 
BRANCH   5   6
ATOM      6  O   UNL A   1      36.007  22.391  24.554  1.00  0.00    -0.463 OA
BRANCH   6   7
ATOM      7  C   UNL A   1      35.327  23.341  23.863  1.00  0.00     0.311 C 
ATOM      8  O   UNL A   1      35.276  23.409  22.640  1.00  0.00    -0.252 OA
BRANCH   7   9
ATOM      9  C   UNL A   1      34.719  24.417  24.747  1.00  0.00     0.134 C 
ATOM     10  N   UNL A   1      32.415  21.339  26.528  1.00  0.00    -0.335 N 
ATOM     11  C   UNL A   1      32.993  22.303  27.470  1.00  0.00     0.264 C 
ATOM     12  C   UNL A   1      31.672  22.081  25.498  1.00  0.00     0.264 C 
ATOM     13  H   UNL A   1      31.755  20.732  27.014  1.00  0.00     0.348 HD
ATOM     14  C   UNL A   1      33.972  23.264  26.813  1.00  0.00     0.091 C 
ATOM     15  C   UNL A   1      32.542  23.021  24.666  1.00  0.00     0.091 C 
ATOM     16  C   UNL A   1      33.458  23.933  25.517  1.00  0.00     0.067 C 
ATOM     17  N   UNL A   1      32.783  25.220  25.804  1.00  0.00    -0.339 N 
ATOM     18  C   UNL A   1      34.290  25.721  24.107  1.00  0.00     0.118 C 
ATOM     19  C   UNL A   1      33.308  26.283  25.079  1.00  0.00     0.223 C 
ATOM     20  C   UNL A   1      31.458  25.359  26.371  1.00  0.00     0.147 C 
ATOM     21  O   UNL A   1      32.952  27.448  25.116  1.00  0.00    -0.275 OA
BRANCH  10  22
ATOM     22  C   UNL A   1      33.420  20.400  25.994  1.00  0.00     0.264 C 
BRANCH  22  23
ATOM     23  C   UNL A   1      32.780  19.121  25.446  1.00  0.00     0.083 C 
BRANCH  23  24
ATOM     24  C   UNL A   1      33.725  18.144  24.749  1.00  0.00     0.129 C 
BRANCH  24  25
ATOM     25  N   UNL A   1      33.465  16.735  24.991  1.00  0.00    -0.335 N 
ATOM     26  C   UNL A   1      35.855  16.048  25.466  1.00  0.00     0.087 C 
ATOM     27  C   UNL A   1      34.398  15.788  25.360  1.00  0.00     0.105 A 
ATOM     28  N   UNL A   1      33.815  14.634  25.620  1.00  0.00    -0.242 NA
ATOM     29  C   UNL A   1      32.479  14.837  25.424  1.00  0.00     0.131 A 
ATOM     30  C   UNL A   1      32.241  16.126  25.019  1.00  0.00     0.107 A 
ENDBRANCH  24  25
ENDBRANCH  23  24
ENDBRANCH  22  23
ENDBRANCH  10  22
ENDBRANCH   7   9
ENDBRANCH   6   7
ENDBRANCH   5   6
ENDBRANCH   4   5
ENDBRANCH   3   4
ENDBRANCH   2   3
ENDBRANCH   1   2
BRANCH   1  31
ATOM     31  O   UNL A   1      41.805  20.149  26.002  1.00  0.00    -0.377 OA
BRANCH  31  32
ATOM     32  C   UNL A   1      42.144  18.780  25.808  1.00  0.00     0.188 C 
BRANCH  32  33
ATOM     33  C   UNL A   1      43.565  18.385  26.259  1.00  0.00     0.188 C 
BRANCH  33  34
ATOM     34  O   UNL A   1      44.522  18.302  25.198  1.00  0.00    -0.376 OA
BRANCH  34  35
ATOM     35  C   UNL A   1      45.877  18.641  25.474  1.00  0.00     0.202 C 
BRANCH  35  36
ATOM     36  C   UNL A   1      46.386  19.905  24.769  1.00  0.00     0.261 C 
BRANCH  36  37
ATOM     37  O   UNL A   1      45.935  21.122  25.351  1.00  0.00    -0.460 OA
BRANCH  37  38
ATOM     38  C   UNL A   1      44.933  21.733  24.686  1.00  0.00     0.338 C 
ATOM     39  O   UNL A   1      44.773  21.774  23.481  1.00  0.00    -0.246 OA
BRANCH  38  40
ATOM     40  C   UNL A   1      44.052  22.413  25.639  1.00  0.00     0.060 A 
ATOM     41  C   UNL A   1      43.072  23.223  25.067  1.00  0.00     0.016 A 
ATOM     42  C   UNL A   1      44.374  22.471  27.004  1.00  0.00     0.016 A 
ATOM     43  C   UNL A   1      42.629  24.296  25.793  1.00  0.00     0.010 A 
ATOM     44  C   UNL A   1      43.917  23.541  27.738  1.00  0.00     0.010 A 
ATOM     45  C   UNL A   1      43.157  24.499  27.072  1.00  0.00    -0.014 A 
BRANCH  45  46
ATOM     46  C   UNL A   1      42.991  25.828  27.614  1.00  0.00     0.031 A 
ATOM     47  C   UNL A   1      44.114  26.743  27.362  1.00  0.00     0.074 A 
ATOM     48  C   UNL A   1      41.896  26.163  28.319  1.00  0.00     0.049 A 
ATOM     49  N   UNL A   1      44.937  27.248  28.217  1.00  0.00    -0.248 NA
ATOM     50  C   UNL A   1      44.435  27.024  25.957  1.00  0.00     0.031 C 
ATOM     51  C   UNL A   1      40.624  25.438  28.408  1.00  0.00     0.029 A 
ATOM     52  N   UNL A   1      41.661  27.298  29.027  1.00  0.00    -0.354 N 
ATOM     53  C   UNL A   1      45.753  28.094  27.479  1.00  0.00     0.074 A 
ATOM     54  C   UNL A   1      45.513  27.794  26.090  1.00  0.00     0.031 C 
ATOM     55  C   UNL A   1      39.689  26.258  28.937  1.00  0.00     0.029 A 
ATOM     56  C   UNL A   1      40.325  27.506  29.325  1.00  0.00     0.049 A 
ATOM     57  H   UNL A   1      42.376  27.916  29.304  1.00  0.00     0.167 HD
ATOM     58  C   UNL A   1      46.385  29.152  28.050  1.00  0.00     0.037 A 
ATOM     59  C   UNL A   1      39.779  28.669  29.754  1.00  0.00     0.037 A 
ATOM     60  C   UNL A   1      46.497  29.013  29.479  1.00  0.00     0.049 A 
ATOM     61  C   UNL A   1      40.872  29.495  30.333  1.00  0.00     0.074 A 
ATOM     62  C   UNL A   1      47.074  28.079  30.316  1.00  0.00     0.029 A 
ATOM     63  N   UNL A   1      45.669  29.768  30.274  1.00  0.00    -0.354 N 
ATOM     64  N   UNL A   1      41.511  29.208  31.435  1.00  0.00    -0.248 NA
ATOM     65  C   UNL A   1      41.541  30.455  29.466  1.00  0.00     0.031 C 
ATOM     66  C   UNL A   1      46.239  28.032  31.469  1.00  0.00     0.029 A 
ATOM     67  C   UNL A   1      45.207  28.953  31.278  1.00  0.00     0.049 A 
ATOM     68  H   UNL A   1      45.448  30.719  30.149  1.00  0.00     0.167 HD
ATOM     69  C   UNL A   1      42.817  29.627  31.215  1.00  0.00     0.074 A 
ATOM     70  C   UNL A   1      42.745  30.486  30.040  1.00  0.00     0.031 C 
ATOM     71  C   UNL A   1      43.873  29.023  31.837  1.00  0.00     0.037 A 
BRANCH  58  72
ATOM     72  C   UNL A   1      46.573  30.459  27.331  1.00  0.00     0.058 A 
ATOM     73  C   UNL A   1      47.850  31.044  27.269  1.00  0.00     0.135 A 
ATOM     74  C   UNL A   1      45.495  31.285  26.937  1.00  0.00     0.135 A 
ATOM     75  F   UNL A   1      48.937  30.352  27.643  1.00  0.00    -0.206 F 
ATOM     76  C   UNL A   1      48.036  32.376  26.898  1.00  0.00     0.059 A 
ATOM     77  C   UNL A   1      45.663  32.592  26.505  1.00  0.00     0.059 A 
ATOM     78  F   UNL A   1      44.218  30.896  27.054  1.00  0.00    -0.206 F 
ATOM     79  C   UNL A   1      46.931  33.144  26.537  1.00  0.00     0.060 A 
BRANCH  79  80
ATOM     80  S   UNL A   1      47.138  34.900  26.196  1.00  0.00     0.124 S 
ATOM     81  O   UNL A   1      47.150  34.906  24.738  1.00  0.00    -0.237 OA
ATOM     82  O   UNL A   1      45.957  35.477  26.830  1.00  0.00    -0.237 OA
ATOM     83  O   UNL A   1      48.407  35.216  26.843  1.00  0.00    -0.744 OA
ENDBRANCH  79  80
ENDBRANCH  58  72
BRANCH  59  84
ATOM     84  C   UNL A   1      38.457  29.227  29.366  1.00  0.00     0.058 A 
ATOM     85  C   UNL A   1      37.496  29.551  30.337  1.00  0.00     0.135 A 
ATOM     86  C   UNL A   1      38.202  29.694  28.059  1.00  0.00     0.135 A 
ATOM     87  F   UNL A   1      37.672  29.175  31.613  1.00  0.00    -0.206 F 
ATOM     88  C   UNL A   1      36.369  30.324  30.038  1.00  0.00     0.059 A 
ATOM     89  C   UNL A   1      37.077  30.445  27.733  1.00  0.00     0.059 A 
ATOM     90  F   UNL A   1      39.088  29.516  27.068  1.00  0.00    -0.206 F 
ATOM     91  C   UNL A   1      36.176  30.779  28.735  1.00  0.00     0.060 A 
BRANCH  91  92
ATOM     92  S   UNL A   1      34.815  31.912  28.377  1.00  0.00     0.124 S 
ATOM     93  O   UNL A   1      33.886  31.047  27.660  1.00  0.00    -0.237 OA
ATOM     94  O   UNL A   1      34.401  32.326  29.714  1.00  0.00    -0.237 OA
ATOM     95  O   UNL A   1      35.445  32.956  27.573  1.00  0.00    -0.744 OA
ENDBRANCH  91  92
ENDBRANCH  59  84
BRANCH  71  96
ATOM     96  C   UNL A   1      43.590  28.141  33.025  1.00  0.00     0.058 A 
ATOM     97  C   UNL A   1      43.479  26.741  32.956  1.00  0.00     0.135 A 
ATOM     98  C   UNL A   1      43.583  28.723  34.304  1.00  0.00     0.135 A 
ATOM     99  F   UNL A   1      43.585  26.100  31.783  1.00  0.00    -0.206 F 
ATOM    100  C   UNL A   1      43.326  25.959  34.102  1.00  0.00     0.059 A 
ATOM    101  C   UNL A   1      43.462  27.958  35.462  1.00  0.00     0.059 A 
ATOM    102  F   UNL A   1      43.750  30.048  34.441  1.00  0.00    -0.206 F 
ATOM    103  C   UNL A   1      43.321  26.577  35.353  1.00  0.00     0.060 A 
BRANCH 103 104
ATOM    104  S   UNL A   1      43.224  25.552  36.839  1.00  0.00     0.124 S 
ATOM    105  O   UNL A   1      42.280  24.517  36.436  1.00  0.00    -0.237 OA
ATOM    106  O   UNL A   1      44.607  25.116  37.017  1.00  0.00    -0.237 OA
ATOM    107  O   UNL A   1      42.740  26.479  37.860  1.00  0.00    -0.744 OA
ENDBRANCH 103 104
ENDBRANCH  71  96
ENDBRANCH  45  46
ENDBRANCH  38  40
ENDBRANCH  37  38
ENDBRANCH  36  37
ENDBRANCH  35  36
ENDBRANCH  34  35
ENDBRANCH  33  34
ENDBRANCH  32  33
ENDBRANCH  31  32
ENDBRANCH   1  31
TORSDOF 27
ENDMDL
MODEL 2
REMARK VINA RESULT:     -10.1      1.715      4.235
REMARK SMILES Cc1nccn1CCC[NH+]1CCC2(CC1)[C@@H](C(=O)OCCOCCOCCOCCOC(=O)c1ccc(-c3c4nc(c(-c5c(F)cc(S(=O)(=O)[O-])cc5F)c5ccc([nH]5)c(-c5c(F)cc(S(=O)(=O)[O-])cc5F)c5nc(c(-c6c(F)cc(S(=O)(=O)[O-])cc6F)c6ccc3[nH]6)C=C5)C=C4)cc1)CC(=O)N2C
REMARK SMILES IDX 24 1 23 2 22 3 21 4 20 5 19 6 17 7 18 8 16 9 10 10 11 11
REMARK SMILES IDX 15 12 12 14 14 15 13 16 103 17 100 18 101 19 104 20 102 21
REMARK SMILES IDX 9 22 8 23 7 24 6 25 1 26 2 27 3 28 4 29 5 30 25 31 26 32
REMARK SMILES IDX 27 33 28 34 29 35 30 36 31 37 32 38 33 39 34 40 35 41 99 42
REMARK SMILES IDX 36 43 98 44 37 45 38 46 39 47 92 48 40 49 97 50 91 51 93 52
REMARK SMILES IDX 41 53 96 54 90 55 89 56 42 58 76 59 55 60 75 61 56 62 59 63
REMARK SMILES IDX 74 64 94 65 57 66 58 67 73 69 95 70 60 71 43 72 44 73 53 74
REMARK SMILES IDX 45 75 46 76 52 77 54 78 47 79 48 80 49 81 50 82 51 83 77 84
REMARK SMILES IDX 78 85 87 86 79 87 80 88 86 89 88 90 81 91 82 92 83 93 84 94
REMARK SMILES IDX 85 95 61 96 62 97 71 98 63 99 64 100 70 101 72 102 65 103
REMARK SMILES IDX 66 104 67 105 68 106 69 107
REMARK H PARENT 10 13 93 57 59 68
REMARK Flexibility Score: inf
ROOT
ATOM      1  C   UNL A   1      40.061  21.976  26.877  1.00  0.00     0.188 C 
ENDROOT
BRANCH   1   2
ATOM      2  C   UNL A   1      39.617  23.400  26.488  1.00  0.00     0.188 C 
BRANCH   2   3
ATOM      3  O   UNL A   1      38.357  23.918  26.902  1.00  0.00    -0.376 OA
BRANCH   3   4
ATOM      4  C   UNL A   1      37.234  23.791  26.044  1.00  0.00     0.202 C 
BRANCH   4   5
ATOM      5  C   UNL A   1      36.236  22.666  26.337  1.00  0.00     0.261 C 
BRANCH   5   6
ATOM      6  O   UNL A   1      34.851  23.067  26.362  1.00  0.00    -0.463 OA
BRANCH   6   7
ATOM      7  C   UNL A   1      33.931  22.077  26.492  1.00  0.00     0.311 C 
ATOM      8  O   UNL A   1      33.333  21.816  27.529  1.00  0.00    -0.252 OA
BRANCH   7   9
ATOM      9  C   UNL A   1      33.787  21.214  25.249  1.00  0.00     0.134 C 
ATOM     10  N   UNL A   1      32.865  24.777  23.150  1.00  0.00    -0.335 N 
ATOM     11  C   UNL A   1      33.781  23.868  22.454  1.00  0.00     0.264 C 
ATOM     12  C   UNL A   1      31.665  24.022  23.541  1.00  0.00     0.264 C 
ATOM     13  H   UNL A   1      32.573  25.525  22.521  1.00  0.00     0.348 HD
ATOM     14  C   UNL A   1      34.242  22.708  23.321  1.00  0.00     0.091 C 
ATOM     15  C   UNL A   1      31.946  22.874  24.510  1.00  0.00     0.091 C 
ATOM     16  C   UNL A   1      33.111  21.959  24.063  1.00  0.00     0.067 C 
ATOM     17  N   UNL A   1      32.599  20.823  23.263  1.00  0.00    -0.339 N 
ATOM     18  C   UNL A   1      33.022  19.912  25.359  1.00  0.00     0.118 C 
ATOM     19  C   UNL A   1      32.628  19.615  23.951  1.00  0.00     0.223 C 
ATOM     20  C   UNL A   1      31.730  20.939  22.111  1.00  0.00     0.147 C 
ATOM     21  O   UNL A   1      32.273  18.524  23.542  1.00  0.00    -0.275 OA
BRANCH  10  22
ATOM     22  C   UNL A   1      33.519  25.495  24.261  1.00  0.00     0.264 C 
BRANCH  22  23
ATOM     23  C   UNL A   1      32.524  26.326  25.076  1.00  0.00     0.083 C 
BRANCH  23  24
ATOM     24  C   UNL A   1      32.676  27.842  24.977  1.00  0.00     0.129 C 
BRANCH  24  25
ATOM     25  N   UNL A   1      31.533  28.557  24.436  1.00  0.00    -0.335 N 
ATOM     26  C   UNL A   1      31.677  30.581  25.949  1.00  0.00     0.087 C 
ATOM     27  C   UNL A   1      31.096  29.806  24.825  1.00  0.00     0.105 A 
ATOM     28  N   UNL A   1      30.111  30.219  24.052  1.00  0.00    -0.242 NA
ATOM     29  C   UNL A   1      29.908  29.224  23.140  1.00  0.00     0.131 A 
ATOM     30  C   UNL A   1      30.766  28.178  23.368  1.00  0.00     0.107 A 
ENDBRANCH  24  25
ENDBRANCH  23  24
ENDBRANCH  22  23
ENDBRANCH  10  22
ENDBRANCH   7   9
ENDBRANCH   6   7
ENDBRANCH   5   6
ENDBRANCH   4   5
ENDBRANCH   3   4
ENDBRANCH   2   3
ENDBRANCH   1   2
BRANCH   1  31
ATOM     31  O   UNL A   1      39.672  20.933  26.004  1.00  0.00    -0.377 OA
BRANCH  31  32
ATOM     32  C   UNL A   1      40.420  19.734  26.170  1.00  0.00     0.188 C 
BRANCH  32  33
ATOM     33  C   UNL A   1      41.952  19.909  26.153  1.00  0.00     0.188 C 
BRANCH  33  34
ATOM     34  O   UNL A   1      42.615  19.226  25.084  1.00  0.00    -0.376 OA
BRANCH  34  35
ATOM     35  C   UNL A   1      44.006  18.950  25.210  1.00  0.00     0.202 C 
BRANCH  35  36
ATOM     36  C   UNL A   1      44.936  20.003  24.593  1.00  0.00     0.261 C 
BRANCH  36  37
ATOM     37  O   UNL A   1      45.107  21.170  25.388  1.00  0.00    -0.460 OA
BRANCH  37  38
ATOM     38  C   UNL A   1      44.733  22.322  24.795  1.00  0.00     0.338 C 
ATOM     39  O   UNL A   1      45.093  22.738  23.711  1.00  0.00    -0.246 OA
BRANCH  38  40
ATOM     40  C   UNL A   1      43.836  23.064  25.685  1.00  0.00     0.060 A 
ATOM     41  C   UNL A   1      43.028  24.011  25.057  1.00  0.00     0.016 A 
ATOM     42  C   UNL A   1      44.007  23.026  27.078  1.00  0.00     0.016 A 
ATOM     43  C   UNL A   1      42.634  25.099  25.789  1.00  0.00     0.010 A 
ATOM     44  C   UNL A   1      43.598  24.113  27.816  1.00  0.00     0.010 A 
ATOM     45  C   UNL A   1      43.035  25.183  27.126  1.00  0.00    -0.014 A 
BRANCH  45  46
ATOM     46  C   UNL A   1      42.966  26.498  27.719  1.00  0.00     0.031 A 
ATOM     47  C   UNL A   1      44.111  27.372  27.422  1.00  0.00     0.074 A 
ATOM     48  C   UNL A   1      41.935  26.857  28.504  1.00  0.00     0.049 A 
ATOM     49  N   UNL A   1      45.010  27.811  28.236  1.00  0.00    -0.248 NA
ATOM     50  C   UNL A   1      44.353  27.686  26.008  1.00  0.00     0.031 C 
ATOM     51  C   UNL A   1      40.640  26.185  28.655  1.00  0.00     0.029 A 
ATOM     52  N   UNL A   1      41.799  27.976  29.262  1.00  0.00    -0.354 N 
ATOM     53  C   UNL A   1      45.815  28.644  27.473  1.00  0.00     0.074 A 
ATOM     54  C   UNL A   1      45.472  28.403  26.094  1.00  0.00     0.031 C 
ATOM     55  C   UNL A   1      39.780  27.028  29.269  1.00  0.00     0.029 A 
ATOM     56  C   UNL A   1      40.495  28.233  29.654  1.00  0.00     0.049 A 
ATOM     57  H   UNL A   1      42.558  28.552  29.511  1.00  0.00     0.167 HD
ATOM     58  C   UNL A   1      46.530  29.653  28.034  1.00  0.00     0.037 A 
ATOM     59  C   UNL A   1      40.032  29.403  30.154  1.00  0.00     0.037 A 
ATOM     60  C   UNL A   1      46.728  29.462  29.447  1.00  0.00     0.049 A 
ATOM     61  C   UNL A   1      41.198  30.160  30.685  1.00  0.00     0.074 A 
ATOM     62  C   UNL A   1      47.314  28.474  30.215  1.00  0.00     0.029 A 
ATOM     63  N   UNL A   1      45.988  30.224  30.318  1.00  0.00    -0.354 N 
ATOM     64  N   UNL A   1      41.893  29.807  31.733  1.00  0.00    -0.248 NA
ATOM     65  C   UNL A   1      41.852  31.118  29.806  1.00  0.00     0.031 C 
ATOM     66  C   UNL A   1      46.554  28.426  31.418  1.00  0.00     0.029 A 
ATOM     67  C   UNL A   1      45.555  29.397  31.324  1.00  0.00     0.049 A 
ATOM     68  H   UNL A   1      45.803  31.188  30.237  1.00  0.00     0.167 HD
ATOM     69  C   UNL A   1      43.200  30.176  31.441  1.00  0.00     0.074 A 
ATOM     70  C   UNL A   1      43.091  31.077  30.300  1.00  0.00     0.031 C 
ATOM     71  C   UNL A   1      44.264  29.505  31.972  1.00  0.00     0.037 A 
BRANCH  58  72
ATOM     72  C   UNL A   1      46.732  30.975  27.345  1.00  0.00     0.058 A 
ATOM     73  C   UNL A   1      48.034  31.433  27.079  1.00  0.00     0.135 A 
ATOM     74  C   UNL A   1      45.697  31.926  27.183  1.00  0.00     0.135 A 
ATOM     75  F   UNL A   1      49.088  30.616  27.226  1.00  0.00    -0.206 F 
ATOM     76  C   UNL A   1      48.295  32.759  26.734  1.00  0.00     0.059 A 
ATOM     77  C   UNL A   1      45.928  33.232  26.780  1.00  0.00     0.059 A 
ATOM     78  F   UNL A   1      44.425  31.660  27.510  1.00  0.00    -0.206 F 
ATOM     79  C   UNL A   1      47.235  33.653  26.606  1.00  0.00     0.060 A 
BRANCH  79  80
ATOM     80  S   UNL A   1      47.568  35.396  26.304  1.00  0.00     0.124 S 
ATOM     81  O   UNL A   1      47.945  35.848  27.637  1.00  0.00    -0.237 OA
ATOM     82  O   UNL A   1      48.643  35.336  25.318  1.00  0.00    -0.237 OA
ATOM     83  O   UNL A   1      46.292  35.895  25.800  1.00  0.00    -0.744 OA
ENDBRANCH  79  80
ENDBRANCH  58  72
BRANCH  59  84
ATOM     84  C   UNL A   1      38.716  30.031  29.872  1.00  0.00     0.058 A 
ATOM     85  C   UNL A   1      37.993  30.681  30.884  1.00  0.00     0.135 A 
ATOM     86  C   UNL A   1      38.255  30.232  28.553  1.00  0.00     0.135 A 
ATOM     87  F   UNL A   1      38.378  30.573  32.166  1.00  0.00    -0.206 F 
ATOM     88  C   UNL A   1      36.903  31.511  30.604  1.00  0.00     0.059 A 
ATOM     89  C   UNL A   1      37.160  31.035  28.251  1.00  0.00     0.059 A 
ATOM     90  F   UNL A   1      38.913  29.728  27.498  1.00  0.00    -0.206 F 
ATOM     91  C   UNL A   1      36.503  31.694  29.281  1.00  0.00     0.060 A 
BRANCH  91  92
ATOM     92  S   UNL A   1      35.204  32.890  28.898  1.00  0.00     0.124 S 
ATOM     93  O   UNL A   1      34.860  32.529  27.527  1.00  0.00    -0.237 OA
ATOM     94  O   UNL A   1      34.198  32.586  29.910  1.00  0.00    -0.237 OA
ATOM     95  O   UNL A   1      35.873  34.179  29.055  1.00  0.00    -0.744 OA
ENDBRANCH  91  92
ENDBRANCH  59  84
BRANCH  71  96
ATOM     96  C   UNL A   1      44.018  28.597  33.148  1.00  0.00     0.058 A 
ATOM     97  C   UNL A   1      43.665  27.241  33.033  1.00  0.00     0.135 A 
ATOM     98  C   UNL A   1      44.300  29.079  34.437  1.00  0.00     0.135 A 
ATOM     99  F   UNL A   1      43.486  26.677  31.830  1.00  0.00    -0.206 F 
ATOM    100  C   UNL A   1      43.557  26.413  34.151  1.00  0.00     0.059 A 
ATOM    101  C   UNL A   1      44.227  28.263  35.564  1.00  0.00     0.059 A 
ATOM    102  F   UNL A   1      44.705  30.348  34.606  1.00  0.00    -0.206 F 
ATOM    103  C   UNL A   1      43.842  26.932  35.414  1.00  0.00     0.060 A 
BRANCH 103 104
ATOM    104  S   UNL A   1      43.798  25.833  36.848  1.00  0.00     0.124 S 
ATOM    105  O   UNL A   1      43.455  24.552  36.242  1.00  0.00    -0.237 OA
ATOM    106  O   UNL A   1      45.156  25.941  37.377  1.00  0.00    -0.237 OA
ATOM    107  O   UNL A   1      42.764  26.421  37.696  1.00  0.00    -0.744 OA
ENDBRANCH 103 104
ENDBRANCH  71  96
ENDBRANCH  45  46
ENDBRANCH  38  40
ENDBRANCH  37  38
ENDBRANCH  36  37
ENDBRANCH  35  36
ENDBRANCH  34  35
ENDBRANCH  33  34
ENDBRANCH  32  33
ENDBRANCH  31  32
ENDBRANCH   1  31
TORSDOF 27
ENDMDL
MODEL 3
REMARK VINA RESULT:      -9.3      1.720      2.341
REMARK SMILES Cc1nccn1CCC[NH+]1CCC2(CC1)[C@@H](C(=O)OCCOCCOCCOCCOC(=O)c1ccc(-c3c4nc(c(-c5c(F)cc(S(=O)(=O)[O-])cc5F)c5ccc([nH]5)c(-c5c(F)cc(S(=O)(=O)[O-])cc5F)c5nc(c(-c6c(F)cc(S(=O)(=O)[O-])cc6F)c6ccc3[nH]6)C=C5)C=C4)cc1)CC(=O)N2C
REMARK SMILES IDX 24 1 23 2 22 3 21 4 20 5 19 6 17 7 18 8 16 9 10 10 11 11
REMARK SMILES IDX 15 12 12 14 14 15 13 16 103 17 100 18 101 19 104 20 102 21
REMARK SMILES IDX 9 22 8 23 7 24 6 25 1 26 2 27 3 28 4 29 5 30 25 31 26 32
REMARK SMILES IDX 27 33 28 34 29 35 30 36 31 37 32 38 33 39 34 40 35 41 99 42
REMARK SMILES IDX 36 43 98 44 37 45 38 46 39 47 92 48 40 49 97 50 91 51 93 52
REMARK SMILES IDX 41 53 96 54 90 55 89 56 42 58 76 59 55 60 75 61 56 62 59 63
REMARK SMILES IDX 74 64 94 65 57 66 58 67 73 69 95 70 60 71 43 72 44 73 53 74
REMARK SMILES IDX 45 75 46 76 52 77 54 78 47 79 48 80 49 81 50 82 51 83 77 84
REMARK SMILES IDX 78 85 87 86 79 87 80 88 86 89 88 90 81 91 82 92 83 93 84 94
REMARK SMILES IDX 85 95 61 96 62 97 71 98 63 99 64 100 70 101 72 102 65 103
REMARK SMILES IDX 66 104 67 105 68 106 69 107
REMARK H PARENT 10 13 93 57 59 68
REMARK Flexibility Score: inf
ROOT
ATOM      1  C   UNL A   1      40.108  22.415  27.095  1.00  0.00     0.188 C 
ENDROOT
BRANCH   1   2
ATOM      2  C   UNL A   1      39.457  23.697  26.540  1.00  0.00     0.188 C 
BRANCH   2   3
ATOM      3  O   UNL A   1      38.087  23.997  26.789  1.00  0.00    -0.376 OA
BRANCH   3   4
ATOM      4  C   UNL A   1      37.080  23.298  26.076  1.00  0.00     0.202 C 
BRANCH   4   5
ATOM      5  C   UNL A   1      36.423  24.009  24.888  1.00  0.00     0.261 C 
BRANCH   5   6
ATOM      6  O   UNL A   1      35.366  23.271  24.241  1.00  0.00    -0.463 OA
BRANCH   6   7
ATOM      7  C   UNL A   1      34.571  23.965  23.388  1.00  0.00     0.311 C 
ATOM      8  O   UNL A   1      34.404  23.682  22.207  1.00  0.00    -0.252 OA
BRANCH   7   9
ATOM      9  C   UNL A   1      33.982  25.227  23.995  1.00  0.00     0.134 C 
ATOM     10  N   UNL A   1      31.319  22.702  26.113  1.00  0.00    -0.335 N 
ATOM     11  C   UNL A   1      31.898  23.793  26.904  1.00  0.00     0.264 C 
ATOM     12  C   UNL A   1      30.716  23.273  24.900  1.00  0.00     0.264 C 
ATOM     13  H   UNL A   1      30.580  22.242  26.644  1.00  0.00     0.348 HD
ATOM     14  C   UNL A   1      32.994  24.545  26.167  1.00  0.00     0.091 C 
ATOM     15  C   UNL A   1      31.717  23.978  23.986  1.00  0.00     0.091 C 
ATOM     16  C   UNL A   1      32.632  24.981  24.728  1.00  0.00     0.067 C 
ATOM     17  N   UNL A   1      32.040  26.338  24.706  1.00  0.00    -0.339 N 
ATOM     18  C   UNL A   1      33.705  26.405  23.086  1.00  0.00     0.118 C 
ATOM     19  C   UNL A   1      32.698  27.205  23.843  1.00  0.00     0.223 C 
ATOM     20  C   UNL A   1      30.691  26.665  25.116  1.00  0.00     0.147 C 
ATOM     21  O   UNL A   1      32.432  28.375  23.627  1.00  0.00    -0.275 OA
BRANCH  10  22
ATOM     22  C   UNL A   1      32.286  21.617  25.857  1.00  0.00     0.264 C 
BRANCH  22  23
ATOM     23  C   UNL A   1      32.071  20.963  24.489  1.00  0.00     0.083 C 
BRANCH  23  24
ATOM     24  C   UNL A   1      32.444  19.486  24.385  1.00  0.00     0.129 C 
BRANCH  24  25
ATOM     25  N   UNL A   1      33.848  19.174  24.590  1.00  0.00    -0.335 N 
ATOM     26  C   UNL A   1      33.702  16.699  24.079  1.00  0.00     0.087 C 
ATOM     27  C   UNL A   1      34.441  17.942  24.413  1.00  0.00     0.105 A 
ATOM     28  N   UNL A   1      35.749  18.026  24.561  1.00  0.00    -0.242 NA
ATOM     29  C   UNL A   1      36.011  19.339  24.833  1.00  0.00     0.131 A 
ATOM     30  C   UNL A   1      34.847  20.065  24.871  1.00  0.00     0.107 A 
ENDBRANCH  24  25
ENDBRANCH  23  24
ENDBRANCH  22  23
ENDBRANCH  10  22
ENDBRANCH   7   9
ENDBRANCH   6   7
ENDBRANCH   5   6
ENDBRANCH   4   5
ENDBRANCH   3   4
ENDBRANCH   2   3
ENDBRANCH   1   2
BRANCH   1  31
ATOM     31  O   UNL A   1      39.742  21.200  26.469  1.00  0.00    -0.377 OA
BRANCH  31  32
ATOM     32  C   UNL A   1      40.664  20.139  26.690  1.00  0.00     0.188 C 
BRANCH  32  33
ATOM     33  C   UNL A   1      42.148  20.505  26.483  1.00  0.00     0.188 C 
BRANCH  33  34
ATOM     34  O   UNL A   1      42.742  19.934  25.313  1.00  0.00    -0.376 OA
BRANCH  34  35
ATOM     35  C   UNL A   1      44.160  19.967  25.183  1.00  0.00     0.202 C 
BRANCH  35  36
ATOM     36  C   UNL A   1      44.737  21.307  24.711  1.00  0.00     0.261 C 
BRANCH  36  37
ATOM     37  O   UNL A   1      44.638  22.357  25.666  1.00  0.00    -0.460 OA
BRANCH  37  38
ATOM     38  C   UNL A   1      44.332  23.565  25.152  1.00  0.00     0.338 C 
ATOM     39  O   UNL A   1      44.784  24.066  24.140  1.00  0.00    -0.246 OA
BRANCH  38  40
ATOM     40  C   UNL A   1      43.382  24.249  26.034  1.00  0.00     0.060 A 
ATOM     41  C   UNL A   1      42.708  25.325  25.459  1.00  0.00     0.016 A 
ATOM     42  C   UNL A   1      43.388  24.017  27.419  1.00  0.00     0.016 A 
ATOM     43  C   UNL A   1      42.295  26.335  26.287  1.00  0.00     0.010 A 
ATOM     44  C   UNL A   1      42.959  25.026  28.251  1.00  0.00     0.010 A 
ATOM     45  C   UNL A   1      42.543  26.215  27.659  1.00  0.00    -0.014 A 
BRANCH  45  46
ATOM     46  C   UNL A   1      42.481  27.444  28.415  1.00  0.00     0.031 A 
ATOM     47  C   UNL A   1      43.572  28.392  28.144  1.00  0.00     0.074 A 
ATOM     48  C   UNL A   1      41.506  27.661  29.315  1.00  0.00     0.049 A 
ATOM     49  N   UNL A   1      44.519  28.764  28.937  1.00  0.00    -0.248 NA
ATOM     50  C   UNL A   1      43.690  28.887  26.767  1.00  0.00     0.031 C 
ATOM     51  C   UNL A   1      40.248  26.925  29.478  1.00  0.00     0.029 A 
ATOM     52  N   UNL A   1      41.397  28.672  30.215  1.00  0.00    -0.354 N 
ATOM     53  C   UNL A   1      45.234  29.716  28.226  1.00  0.00     0.074 A 
ATOM     54  C   UNL A   1      44.790  29.633  26.857  1.00  0.00     0.031 C 
ATOM     55  C   UNL A   1      39.414  27.650  30.256  1.00  0.00     0.029 A 
ATOM     56  C   UNL A   1      40.122  28.827  30.734  1.00  0.00     0.049 A 
ATOM     57  H   UNL A   1      42.155  29.244  30.476  1.00  0.00     0.167 HD
ATOM     58  C   UNL A   1      45.961  30.677  28.853  1.00  0.00     0.037 A 
ATOM     59  C   UNL A   1      39.664  29.907  31.410  1.00  0.00     0.037 A 
ATOM     60  C   UNL A   1      46.277  30.321  30.212  1.00  0.00     0.049 A 
ATOM     61  C   UNL A   1      40.845  30.639  31.943  1.00  0.00     0.074 A 
ATOM     62  C   UNL A   1      46.953  29.272  30.803  1.00  0.00     0.029 A 
ATOM     63  N   UNL A   1      45.587  30.941  31.226  1.00  0.00    -0.354 N 
ATOM     64  N   UNL A   1      41.632  30.189  32.882  1.00  0.00    -0.248 NA
ATOM     65  C   UNL A   1      41.398  31.724  31.144  1.00  0.00     0.031 C 
ATOM     66  C   UNL A   1      46.293  29.045  32.045  1.00  0.00     0.029 A 
ATOM     67  C   UNL A   1      45.261  29.979  32.150  1.00  0.00     0.049 A 
ATOM     68  H   UNL A   1      45.366  31.899  31.281  1.00  0.00     0.167 HD
ATOM     69  C   UNL A   1      42.899  30.643  32.541  1.00  0.00     0.074 A 
ATOM     70  C   UNL A   1      42.673  31.672  31.534  1.00  0.00     0.031 C 
ATOM     71  C   UNL A   1      44.023  29.956  32.902  1.00  0.00     0.037 A 
BRANCH  58  72
ATOM     72  C   UNL A   1      46.066  32.080  28.323  1.00  0.00     0.058 A 
ATOM     73  C   UNL A   1      47.332  32.662  28.133  1.00  0.00     0.135 A 
ATOM     74  C   UNL A   1      44.963  32.963  28.252  1.00  0.00     0.135 A 
ATOM     75  F   UNL A   1      48.445  31.915  28.203  1.00  0.00    -0.206 F 
ATOM     76  C   UNL A   1      47.494  34.035  27.945  1.00  0.00     0.059 A 
ATOM     77  C   UNL A   1      45.097  34.320  28.004  1.00  0.00     0.059 A 
ATOM     78  F   UNL A   1      43.713  32.566  28.525  1.00  0.00    -0.206 F 
ATOM     79  C   UNL A   1      46.369  34.855  27.902  1.00  0.00     0.060 A 
BRANCH  79  80
ATOM     80  S   UNL A   1      46.570  36.641  27.805  1.00  0.00     0.124 S 
ATOM     81  O   UNL A   1      46.465  36.861  26.368  1.00  0.00    -0.237 OA
ATOM     82  O   UNL A   1      45.453  37.121  28.611  1.00  0.00    -0.237 OA
ATOM     83  O   UNL A   1      47.892  36.859  28.384  1.00  0.00    -0.744 OA
ENDBRANCH  79  80
ENDBRANCH  58  72
BRANCH  59  84
ATOM     84  C   UNL A   1      38.311  30.511  31.310  1.00  0.00     0.058 A 
ATOM     85  C   UNL A   1      37.496  30.653  32.444  1.00  0.00     0.135 A 
ATOM     86  C   UNL A   1      37.887  31.196  30.150  1.00  0.00     0.135 A 
ATOM     87  F   UNL A   1      37.839  30.064  33.600  1.00  0.00    -0.206 F 
ATOM     88  C   UNL A   1      36.351  31.456  32.441  1.00  0.00     0.059 A 
ATOM     89  C   UNL A   1      36.739  31.982  30.117  1.00  0.00     0.059 A 
ATOM     90  F   UNL A   1      38.626  31.200  29.031  1.00  0.00    -0.206 F 
ATOM     91  C   UNL A   1      35.988  32.129  31.275  1.00  0.00     0.060 A 
BRANCH  91  92
ATOM     92  S   UNL A   1      34.608  33.294  31.308  1.00  0.00     0.124 S 
ATOM     93  O   UNL A   1      33.768  32.733  32.361  1.00  0.00    -0.237 OA
ATOM     94  O   UNL A   1      35.276  34.552  31.626  1.00  0.00    -0.237 OA
ATOM     95  O   UNL A   1      34.059  33.209  29.958  1.00  0.00    -0.744 OA
ENDBRANCH  91  92
ENDBRANCH  59  84
BRANCH  71  96
ATOM     96  C   UNL A   1      43.900  28.900  33.970  1.00  0.00     0.058 A 
ATOM     97  C   UNL A   1      44.042  29.156  35.345  1.00  0.00     0.135 A 
ATOM     98  C   UNL A   1      43.472  27.616  33.596  1.00  0.00     0.135 A 
ATOM     99  F   UNL A   1      44.342  30.385  35.790  1.00  0.00    -0.206 F 
ATOM    100  C   UNL A   1      43.809  28.167  36.303  1.00  0.00     0.059 A 
ATOM    101  C   UNL A   1      43.205  26.624  34.537  1.00  0.00     0.059 A 
ATOM    102  F   UNL A   1      43.255  27.329  32.302  1.00  0.00    -0.206 F 
ATOM    103  C   UNL A   1      43.388  26.903  35.890  1.00  0.00     0.060 A 
BRANCH 103 104
ATOM    104  S   UNL A   1      42.991  25.657  37.137  1.00  0.00     0.124 S 
ATOM    105  O   UNL A   1      43.085  26.421  38.375  1.00  0.00    -0.237 OA
ATOM    106  O   UNL A   1      41.646  25.235  36.752  1.00  0.00    -0.237 OA
ATOM    107  O   UNL A   1      44.026  24.643  36.947  1.00  0.00    -0.744 OA
ENDBRANCH 103 104
ENDBRANCH  71  96
ENDBRANCH  45  46
ENDBRANCH  38  40
ENDBRANCH  37  38
ENDBRANCH  36  37
ENDBRANCH  35  36
ENDBRANCH  34  35
ENDBRANCH  33  34
ENDBRANCH  32  33
ENDBRANCH  31  32
ENDBRANCH   1  31
TORSDOF 27
ENDMDL
