MODEL 1
REMARK VINA RESULT:      -9.8      0.000      0.000
REMARK SMILES O=C(COc1cc(-c2ccccc2)nc(Nc2ccccc2Br)n1)OCCOCCOCCOCCOC(=O)c1ccc(-c2c3nc(c(-c4c(F)cc(S(=O)(=O)[O-])cc4F)c4ccc([nH]4)c(-c4c(F)cc(S(=O)(=O)[O-])cc4F)c4nc(c(-c5c(F)cc(S(=O)(=O)[O-])cc5F)c5ccc2[nH]5)C=C4)C=C3)cc1
REMARK SMILES IDX 30 1 29 2 28 3 27 4 26 5 25 6 2 7 1 8 3 9 4 10 5 11 6 12
REMARK SMILES IDX 24 13 7 14 15 15 14 16 8 17 9 18 13 19 10 20 12 21 11 22
REMARK SMILES IDX 16 23 17 25 18 26 22 27 19 28 21 29 23 30 20 31 31 32 32 33
REMARK SMILES IDX 33 34 34 35 35 36 36 37 37 38 38 39 39 40 40 41 41 42 105 43
REMARK SMILES IDX 42 44 104 45 43 46 44 47 45 48 98 49 46 50 103 51 97 52
REMARK SMILES IDX 99 53 47 54 102 55 96 56 95 57 48 59 82 60 61 61 81 62 62 63
REMARK SMILES IDX 65 64 80 65 100 66 63 67 64 68 79 70 101 71 66 72 49 73
REMARK SMILES IDX 50 74 59 75 51 76 52 77 58 78 60 79 53 80 54 81 55 82 56 83
REMARK SMILES IDX 57 84 83 85 84 86 93 87 85 88 86 89 92 90 94 91 87 92 88 93
REMARK SMILES IDX 89 94 90 95 91 96 67 97 68 98 77 99 69 100 70 101 76 102
REMARK SMILES IDX 78 103 71 104 72 105 73 106 74 107 75 108
REMARK H PARENT 16 24 99 58 65 69
REMARK Flexibility Score: inf
ROOT
ATOM      1  C   UNL A   1      42.112  22.327  27.399  1.00  0.00     0.188 C 
ENDROOT
BRANCH   1   2
ATOM      2  C   UNL A   1      40.995  22.981  26.574  1.00  0.00     0.188 C 
BRANCH   2   3
ATOM      3  O   UNL A   1      40.711  24.341  26.855  1.00  0.00    -0.376 OA
BRANCH   3   4
ATOM      4  C   UNL A   1      39.434  24.942  26.939  1.00  0.00     0.202 C 
BRANCH   4   5
ATOM      5  C   UNL A   1      38.144  24.154  26.703  1.00  0.00     0.261 C 
BRANCH   5   6
ATOM      6  O   UNL A   1      37.768  23.891  25.340  1.00  0.00    -0.461 OA
BRANCH   6   7
ATOM      7  C   UNL A   1      36.896  22.948  24.918  1.00  0.00     0.344 C 
ATOM      8  O   UNL A   1      36.896  22.597  23.741  1.00  0.00    -0.248 OA
BRANCH   7   9
ATOM      9  C   UNL A   1      35.905  22.384  25.925  1.00  0.00     0.353 C 
BRANCH   9  10
ATOM     10  O   UNL A   1      34.809  23.268  26.181  1.00  0.00    -0.466 OA
BRANCH  10  11
ATOM     11  C   UNL A   1      33.686  22.596  25.790  1.00  0.00     0.219 A 
ATOM     12  C   UNL A   1      33.713  21.234  25.751  1.00  0.00     0.097 A 
ATOM     13  N   UNL A   1      32.805  23.358  25.166  1.00  0.00    -0.177 NA
ATOM     14  C   UNL A   1      32.904  20.677  24.793  1.00  0.00     0.080 A 
ATOM     15  C   UNL A   1      31.940  22.740  24.369  1.00  0.00     0.231 A 
ATOM     16  N   UNL A   1      31.980  21.416  24.118  1.00  0.00    -0.212 NA
BRANCH  14  17
ATOM     17  C   UNL A   1      33.224  19.311  24.318  1.00  0.00     0.000 A 
ATOM     18  C   UNL A   1      32.458  18.699  23.312  1.00  0.00     0.010 A 
ATOM     19  C   UNL A   1      34.406  18.653  24.720  1.00  0.00     0.010 A 
ATOM     20  C   UNL A   1      32.860  17.491  22.728  1.00  0.00     0.001 A 
ATOM     21  C   UNL A   1      34.814  17.451  24.134  1.00  0.00     0.001 A 
ATOM     22  C   UNL A   1      34.038  16.870  23.137  1.00  0.00     0.000 A 
ENDBRANCH  14  17
BRANCH  15  23
ATOM     23  N   UNL A   1      30.953  23.536  23.783  1.00  0.00    -0.323 N 
ATOM     24  H   UNL A   1      30.087  23.120  23.571  1.00  0.00     0.170 HD
BRANCH  23  25
ATOM     25  C   UNL A   1      31.126  24.903  23.476  1.00  0.00     0.055 A 
ATOM     26  C   UNL A   1      31.655  25.251  22.222  1.00  0.00     0.027 A 
ATOM     27  C   UNL A   1      30.633  25.945  24.291  1.00  0.00     0.041 A 
ATOM     28  C   UNL A   1      31.701  26.585  21.799  1.00  0.00     0.002 A 
ATOM     29  C   UNL A   1      30.690  27.282  23.871  1.00  0.00     0.018 A 
ATOM     30  Br  UNL A   1      29.911  25.619  26.023  1.00  0.00    -0.049 Br
ATOM     31  C   UNL A   1      31.222  27.599  22.624  1.00  0.00     0.001 A 
ENDBRANCH  23  25
ENDBRANCH  15  23
ENDBRANCH  10  11
ENDBRANCH   9  10
ENDBRANCH   7   9
ENDBRANCH   6   7
ENDBRANCH   5   6
ENDBRANCH   4   5
ENDBRANCH   3   4
ENDBRANCH   2   3
ENDBRANCH   1   2
BRANCH   1  32
ATOM     32  O   UNL A   1      42.569  21.076  26.900  1.00  0.00    -0.377 OA
BRANCH  32  33
ATOM     33  C   UNL A   1      43.236  21.154  25.651  1.00  0.00     0.188 C 
BRANCH  33  34
ATOM     34  C   UNL A   1      44.719  21.576  25.733  1.00  0.00     0.188 C 
BRANCH  34  35
ATOM     35  O   UNL A   1      45.159  22.863  25.331  1.00  0.00    -0.376 OA
BRANCH  35  36
ATOM     36  C   UNL A   1      44.337  23.740  24.581  1.00  0.00     0.202 C 
BRANCH  36  37
ATOM     37  C   UNL A   1      43.682  25.003  25.159  1.00  0.00     0.261 C 
BRANCH  37  38
ATOM     38  O   UNL A   1      44.039  25.372  26.487  1.00  0.00    -0.460 OA
BRANCH  38  39
ATOM     39  C   UNL A   1      44.543  26.617  26.634  1.00  0.00     0.338 C 
ATOM     40  O   UNL A   1      45.354  27.180  25.919  1.00  0.00    -0.246 OA
BRANCH  39  41
ATOM     41  C   UNL A   1      43.775  27.272  27.710  1.00  0.00     0.060 A 
ATOM     42  C   UNL A   1      43.913  28.657  27.900  1.00  0.00     0.016 A 
ATOM     43  C   UNL A   1      42.888  26.528  28.490  1.00  0.00     0.016 A 
ATOM     44  C   UNL A   1      43.173  29.303  28.884  1.00  0.00     0.010 A 
ATOM     45  C   UNL A   1      42.186  27.165  29.508  1.00  0.00     0.010 A 
ATOM     46  C   UNL A   1      42.356  28.545  29.727  1.00  0.00    -0.014 A 
BRANCH  46  47
ATOM     47  C   UNL A   1      41.911  29.107  31.017  1.00  0.00     0.031 A 
ATOM     48  C   UNL A   1      40.654  29.927  31.003  1.00  0.00     0.074 A 
ATOM     49  C   UNL A   1      42.626  28.948  32.140  1.00  0.00     0.049 A 
ATOM     50  N   UNL A   1      40.147  30.687  31.934  1.00  0.00    -0.248 NA
ATOM     51  C   UNL A   1      39.877  29.898  29.751  1.00  0.00     0.031 C 
ATOM     52  C   UNL A   1      43.832  28.133  32.269  1.00  0.00     0.029 A 
ATOM     53  N   UNL A   1      42.455  29.506  33.381  1.00  0.00    -0.354 N 
ATOM     54  C   UNL A   1      39.010  31.253  31.370  1.00  0.00     0.074 A 
ATOM     55  C   UNL A   1      38.911  30.762  30.015  1.00  0.00     0.031 C 
ATOM     56  C   UNL A   1      44.321  28.281  33.513  1.00  0.00     0.029 A 
ATOM     57  C   UNL A   1      43.487  29.235  34.245  1.00  0.00     0.049 A 
ATOM     58  H   UNL A   1      41.670  30.046  33.627  1.00  0.00     0.167 HD
ATOM     59  C   UNL A   1      38.134  32.114  31.936  1.00  0.00     0.037 A 
ATOM     60  C   UNL A   1      43.751  29.744  35.465  1.00  0.00     0.037 A 
ATOM     61  C   UNL A   1      38.265  32.605  33.280  1.00  0.00     0.049 A 
ATOM     62  C   UNL A   1      42.799  30.748  36.061  1.00  0.00     0.074 A 
ATOM     63  C   UNL A   1      37.428  33.463  33.967  1.00  0.00     0.029 A 
ATOM     64  N   UNL A   1      39.317  32.296  34.133  1.00  0.00    -0.354 N 
ATOM     65  N   UNL A   1      41.712  31.266  35.538  1.00  0.00    -0.248 NA
ATOM     66  C   UNL A   1      43.104  31.236  37.413  1.00  0.00     0.031 C 
ATOM     67  C   UNL A   1      38.007  33.725  35.214  1.00  0.00     0.029 A 
ATOM     68  C   UNL A   1      39.165  32.969  35.332  1.00  0.00     0.049 A 
ATOM     69  H   UNL A   1      40.060  31.689  33.917  1.00  0.00     0.167 HD
ATOM     70  C   UNL A   1      41.186  32.116  36.507  1.00  0.00     0.074 A 
ATOM     71  C   UNL A   1      42.077  32.044  37.647  1.00  0.00     0.031 C 
ATOM     72  C   UNL A   1      40.061  32.874  36.462  1.00  0.00     0.037 A 
BRANCH  59  73
ATOM     73  C   UNL A   1      37.011  32.618  31.071  1.00  0.00     0.058 A 
ATOM     74  C   UNL A   1      35.761  31.977  31.018  1.00  0.00     0.135 A 
ATOM     75  C   UNL A   1      37.202  33.743  30.252  1.00  0.00     0.135 A 
ATOM     76  F   UNL A   1      35.530  30.883  31.761  1.00  0.00    -0.206 F 
ATOM     77  C   UNL A   1      34.762  32.401  30.147  1.00  0.00     0.059 A 
ATOM     78  C   UNL A   1      36.204  34.207  29.402  1.00  0.00     0.059 A 
ATOM     79  F   UNL A   1      38.377  34.392  30.258  1.00  0.00    -0.206 F 
ATOM     80  C   UNL A   1      34.997  33.514  29.339  1.00  0.00     0.060 A 
BRANCH  80  81
ATOM     81  S   UNL A   1      33.706  34.031  28.187  1.00  0.00     0.124 S 
ATOM     82  O   UNL A   1      32.832  34.808  29.061  1.00  0.00    -0.237 OA
ATOM     83  O   UNL A   1      34.459  34.797  27.200  1.00  0.00    -0.237 OA
ATOM     84  O   UNL A   1      33.152  32.768  27.709  1.00  0.00    -0.744 OA
ENDBRANCH  80  81
ENDBRANCH  59  73
BRANCH  60  85
ATOM     85  C   UNL A   1      44.982  29.316  36.178  1.00  0.00     0.058 A 
ATOM     86  C   UNL A   1      44.976  28.203  37.031  1.00  0.00     0.135 A 
ATOM     87  C   UNL A   1      46.206  29.970  35.964  1.00  0.00     0.135 A 
ATOM     88  F   UNL A   1      43.828  27.554  37.278  1.00  0.00    -0.206 F 
ATOM     89  C   UNL A   1      46.142  27.743  37.634  1.00  0.00     0.059 A 
ATOM     90  C   UNL A   1      47.390  29.513  36.537  1.00  0.00     0.059 A 
ATOM     91  F   UNL A   1      46.267  31.035  35.150  1.00  0.00    -0.206 F 
ATOM     92  C   UNL A   1      47.348  28.395  37.367  1.00  0.00     0.060 A 
BRANCH  92  93
ATOM     93  S   UNL A   1      48.870  27.714  38.060  1.00  0.00     0.124 S 
ATOM     94  O   UNL A   1      48.992  28.467  39.304  1.00  0.00    -0.237 OA
ATOM     95  O   UNL A   1      48.533  26.300  38.200  1.00  0.00    -0.237 OA
ATOM     96  O   UNL A   1      49.869  28.012  37.038  1.00  0.00    -0.744 OA
ENDBRANCH  92  93
ENDBRANCH  60  85
BRANCH  72  97
ATOM     97  C   UNL A   1      39.684  33.651  37.694  1.00  0.00     0.058 A 
ATOM     98  C   UNL A   1      38.791  33.148  38.651  1.00  0.00     0.135 A 
ATOM     99  C   UNL A   1      40.316  34.877  37.967  1.00  0.00     0.135 A 
ATOM    100  F   UNL A   1      38.155  31.985  38.436  1.00  0.00    -0.206 F 
ATOM    101  C   UNL A   1      38.531  33.836  39.832  1.00  0.00     0.059 A 
ATOM    102  C   UNL A   1      40.095  35.566  39.154  1.00  0.00     0.059 A 
ATOM    103  F   UNL A   1      41.188  35.399  37.090  1.00  0.00    -0.206 F 
ATOM    104  C   UNL A   1      39.196  35.039  40.080  1.00  0.00     0.060 A 
BRANCH 104 105
ATOM    105  S   UNL A   1      38.900  35.886  41.647  1.00  0.00     0.124 S 
ATOM    106  O   UNL A   1      37.582  35.378  42.013  1.00  0.00    -0.237 OA
ATOM    107  O   UNL A   1      40.012  35.417  42.468  1.00  0.00    -0.237 OA
ATOM    108  O   UNL A   1      38.949  37.299  41.285  1.00  0.00    -0.744 OA
ENDBRANCH 104 105
ENDBRANCH  72  97
ENDBRANCH  46  47
ENDBRANCH  39  41
ENDBRANCH  38  39
ENDBRANCH  37  38
ENDBRANCH  36  37
ENDBRANCH  35  36
ENDBRANCH  34  35
ENDBRANCH  33  34
ENDBRANCH  32  33
ENDBRANCH   1  32
TORSDOF 28
ENDMDL
MODEL 2
REMARK VINA RESULT:      -8.6      5.291      8.428
REMARK SMILES O=C(COc1cc(-c2ccccc2)nc(Nc2ccccc2Br)n1)OCCOCCOCCOCCOC(=O)c1ccc(-c2c3nc(c(-c4c(F)cc(S(=O)(=O)[O-])cc4F)c4ccc([nH]4)c(-c4c(F)cc(S(=O)(=O)[O-])cc4F)c4nc(c(-c5c(F)cc(S(=O)(=O)[O-])cc5F)c5ccc2[nH]5)C=C4)C=C3)cc1
REMARK SMILES IDX 30 1 29 2 28 3 27 4 26 5 25 6 2 7 1 8 3 9 4 10 5 11 6 12
REMARK SMILES IDX 24 13 7 14 15 15 14 16 8 17 9 18 13 19 10 20 12 21 11 22
REMARK SMILES IDX 16 23 17 25 18 26 22 27 19 28 21 29 23 30 20 31 31 32 32 33
REMARK SMILES IDX 33 34 34 35 35 36 36 37 37 38 38 39 39 40 40 41 41 42 105 43
REMARK SMILES IDX 42 44 104 45 43 46 44 47 45 48 98 49 46 50 103 51 97 52
REMARK SMILES IDX 99 53 47 54 102 55 96 56 95 57 48 59 82 60 61 61 81 62 62 63
REMARK SMILES IDX 65 64 80 65 100 66 63 67 64 68 79 70 101 71 66 72 49 73
REMARK SMILES IDX 50 74 59 75 51 76 52 77 58 78 60 79 53 80 54 81 55 82 56 83
REMARK SMILES IDX 57 84 83 85 84 86 93 87 85 88 86 89 92 90 94 91 87 92 88 93
REMARK SMILES IDX 89 94 90 95 91 96 67 97 68 98 77 99 69 100 70 101 76 102
REMARK SMILES IDX 78 103 71 104 72 105 73 106 74 107 75 108
REMARK H PARENT 16 24 99 58 65 69
REMARK Flexibility Score: inf
ROOT
ATOM      1  C   UNL A   1      39.440  19.918  25.787  1.00  0.00     0.188 C 
ENDROOT
BRANCH   1   2
ATOM      2  C   UNL A   1      38.491  21.031  25.320  1.00  0.00     0.188 C 
BRANCH   2   3
ATOM      3  O   UNL A   1      38.457  22.209  26.109  1.00  0.00    -0.376 OA
BRANCH   3   4
ATOM      4  C   UNL A   1      37.819  23.428  25.786  1.00  0.00     0.202 C 
BRANCH   4   5
ATOM      5  C   UNL A   1      36.508  23.479  24.999  1.00  0.00     0.261 C 
BRANCH   5   6
ATOM      6  O   UNL A   1      35.489  24.383  25.465  1.00  0.00    -0.461 OA
BRANCH   6   7
ATOM      7  C   UNL A   1      34.186  24.086  25.663  1.00  0.00     0.344 C 
ATOM      8  O   UNL A   1      33.877  23.132  26.373  1.00  0.00    -0.248 OA
BRANCH   7   9
ATOM      9  C   UNL A   1      33.139  24.930  24.951  1.00  0.00     0.353 C 
BRANCH   9  10
ATOM     10  O   UNL A   1      32.511  25.881  25.816  1.00  0.00    -0.466 OA
BRANCH  10  11
ATOM     11  C   UNL A   1      32.904  27.111  25.370  1.00  0.00     0.219 A 
ATOM     12  C   UNL A   1      33.830  27.807  26.087  1.00  0.00     0.097 A 
ATOM     13  N   UNL A   1      32.087  27.632  24.472  1.00  0.00    -0.177 NA
ATOM     14  C   UNL A   1      33.697  29.171  26.014  1.00  0.00     0.080 A 
ATOM     15  C   UNL A   1      32.116  28.953  24.334  1.00  0.00     0.231 A 
ATOM     16  N   UNL A   1      32.867  29.762  25.109  1.00  0.00    -0.212 NA
BRANCH  14  17
ATOM     17  C   UNL A   1      34.275  29.989  27.106  1.00  0.00     0.000 A 
ATOM     18  C   UNL A   1      35.556  29.713  27.613  1.00  0.00     0.010 A 
ATOM     19  C   UNL A   1      33.647  31.175  27.544  1.00  0.00     0.010 A 
ATOM     20  C   UNL A   1      36.183  30.587  28.510  1.00  0.00     0.001 A 
ATOM     21  C   UNL A   1      34.274  32.052  28.434  1.00  0.00     0.001 A 
ATOM     22  C   UNL A   1      35.544  31.756  28.918  1.00  0.00     0.000 A 
ENDBRANCH  14  17
BRANCH  15  23
ATOM     23  N   UNL A   1      31.319  29.493  23.322  1.00  0.00    -0.323 N 
ATOM     24  H   UNL A   1      31.753  30.058  22.642  1.00  0.00     0.170 HD
BRANCH  23  25
ATOM     25  C   UNL A   1      29.929  29.276  23.217  1.00  0.00     0.055 A 
ATOM     26  C   UNL A   1      29.458  27.956  23.130  1.00  0.00     0.027 A 
ATOM     27  C   UNL A   1      28.973  30.303  23.374  1.00  0.00     0.041 A 
ATOM     28  C   UNL A   1      28.088  27.669  23.185  1.00  0.00     0.002 A 
ATOM     29  C   UNL A   1      27.601  30.015  23.417  1.00  0.00     0.018 A 
ATOM     30  Br  UNL A   1      29.470  32.139  23.481  1.00  0.00    -0.049 Br
ATOM     31  C   UNL A   1      27.161  28.698  23.325  1.00  0.00     0.001 A 
ENDBRANCH  23  25
ENDBRANCH  15  23
ENDBRANCH  10  11
ENDBRANCH   9  10
ENDBRANCH   7   9
ENDBRANCH   6   7
ENDBRANCH   5   6
ENDBRANCH   4   5
ENDBRANCH   3   4
ENDBRANCH   2   3
ENDBRANCH   1   2
BRANCH   1  32
ATOM     32  O   UNL A   1      40.490  20.350  26.645  1.00  0.00    -0.377 OA
BRANCH  32  33
ATOM     33  C   UNL A   1      41.786  20.242  26.081  1.00  0.00     0.188 C 
BRANCH  33  34
ATOM     34  C   UNL A   1      42.621  21.540  26.125  1.00  0.00     0.188 C 
BRANCH  34  35
ATOM     35  O   UNL A   1      42.248  22.651  26.924  1.00  0.00    -0.376 OA
BRANCH  35  36
ATOM     36  C   UNL A   1      42.612  22.751  28.289  1.00  0.00     0.202 C 
BRANCH  36  37
ATOM     37  C   UNL A   1      42.952  24.075  28.989  1.00  0.00     0.261 C 
BRANCH  37  38
ATOM     38  O   UNL A   1      42.814  25.269  28.226  1.00  0.00    -0.460 OA
BRANCH  38  39
ATOM     39  C   UNL A   1      41.646  25.931  28.380  1.00  0.00     0.338 C 
ATOM     40  O   UNL A   1      40.523  25.457  28.420  1.00  0.00    -0.246 OA
BRANCH  39  41
ATOM     41  C   UNL A   1      41.979  27.331  28.707  1.00  0.00     0.060 A 
ATOM     42  C   UNL A   1      43.005  27.589  29.630  1.00  0.00     0.016 A 
ATOM     43  C   UNL A   1      41.315  28.376  28.064  1.00  0.00     0.016 A 
ATOM     44  C   UNL A   1      43.362  28.900  29.927  1.00  0.00     0.010 A 
ATOM     45  C   UNL A   1      41.636  29.687  28.400  1.00  0.00     0.010 A 
ATOM     46  C   UNL A   1      42.634  29.947  29.357  1.00  0.00    -0.014 A 
BRANCH  46  47
ATOM     47  C   UNL A   1      42.689  31.292  29.962  1.00  0.00     0.031 A 
ATOM     48  C   UNL A   1      43.713  32.243  29.415  1.00  0.00     0.074 A 
ATOM     49  C   UNL A   1      41.904  31.633  30.995  1.00  0.00     0.049 A 
ATOM     50  N   UNL A   1      44.106  33.397  29.877  1.00  0.00    -0.248 NA
ATOM     51  C   UNL A   1      44.402  31.813  28.185  1.00  0.00     0.031 C 
ATOM     52  C   UNL A   1      40.848  30.802  31.567  1.00  0.00     0.029 A 
ATOM     53  N   UNL A   1      41.909  32.764  31.770  1.00  0.00    -0.354 N 
ATOM     54  C   UNL A   1      45.112  33.817  29.014  1.00  0.00     0.074 A 
ATOM     55  C   UNL A   1      45.279  32.788  28.014  1.00  0.00     0.031 C 
ATOM     56  C   UNL A   1      40.335  31.434  32.637  1.00  0.00     0.029 A 
ATOM     57  C   UNL A   1      41.060  32.687  32.847  1.00  0.00     0.049 A 
ATOM     58  H   UNL A   1      42.466  33.551  31.575  1.00  0.00     0.167 HD
ATOM     59  C   UNL A   1      45.837  34.958  29.064  1.00  0.00     0.037 A 
ATOM     60  C   UNL A   1      40.926  33.512  33.904  1.00  0.00     0.037 A 
ATOM     61  C   UNL A   1      45.667  35.957  30.082  1.00  0.00     0.049 A 
ATOM     62  C   UNL A   1      41.781  34.751  33.980  1.00  0.00     0.074 A 
ATOM     63  C   UNL A   1      46.328  37.162  30.223  1.00  0.00     0.029 A 
ATOM     64  N   UNL A   1      44.784  35.854  31.150  1.00  0.00    -0.354 N 
ATOM     65  N   UNL A   1      42.716  35.160  33.153  1.00  0.00    -0.248 NA
ATOM     66  C   UNL A   1      41.564  35.643  35.126  1.00  0.00     0.031 C 
ATOM     67  C   UNL A   1      45.892  37.759  31.411  1.00  0.00     0.029 A 
ATOM     68  C   UNL A   1      44.903  36.961  31.970  1.00  0.00     0.049 A 
ATOM     69  H   UNL A   1      44.166  35.103  31.301  1.00  0.00     0.167 HD
ATOM     70  C   UNL A   1      43.176  36.371  33.661  1.00  0.00     0.074 A 
ATOM     71  C   UNL A   1      42.419  36.626  34.870  1.00  0.00     0.031 C 
ATOM     72  C   UNL A   1      44.129  37.201  33.166  1.00  0.00     0.037 A 
BRANCH  59  73
ATOM     73  C   UNL A   1      46.911  35.134  28.026  1.00  0.00     0.058 A 
ATOM     74  C   UNL A   1      48.191  34.571  28.170  1.00  0.00     0.135 A 
ATOM     75  C   UNL A   1      46.665  35.911  26.882  1.00  0.00     0.135 A 
ATOM     76  F   UNL A   1      48.489  33.838  29.255  1.00  0.00    -0.206 F 
ATOM     77  C   UNL A   1      49.201  34.816  27.245  1.00  0.00     0.059 A 
ATOM     78  C   UNL A   1      47.650  36.138  25.926  1.00  0.00     0.059 A 
ATOM     79  F   UNL A   1      45.463  36.478  26.695  1.00  0.00    -0.206 F 
ATOM     80  C   UNL A   1      48.922  35.606  26.130  1.00  0.00     0.060 A 
BRANCH  80  81
ATOM     81  S   UNL A   1      50.252  35.947  24.959  1.00  0.00     0.124 S 
ATOM     82  O   UNL A   1      50.624  34.598  24.542  1.00  0.00    -0.237 OA
ATOM     83  O   UNL A   1      49.579  36.758  23.951  1.00  0.00    -0.237 OA
ATOM     84  O   UNL A   1      51.244  36.649  25.766  1.00  0.00    -0.744 OA
ENDBRANCH  80  81
ENDBRANCH  59  73
BRANCH  60  85
ATOM     85  C   UNL A   1      39.957  33.167  34.975  1.00  0.00     0.058 A 
ATOM     86  C   UNL A   1      40.321  32.334  36.042  1.00  0.00     0.135 A 
ATOM     87  C   UNL A   1      38.667  33.723  34.990  1.00  0.00     0.135 A 
ATOM     88  F   UNL A   1      41.538  31.767  36.065  1.00  0.00    -0.206 F 
ATOM     89  C   UNL A   1      39.449  32.075  37.094  1.00  0.00     0.059 A 
ATOM     90  C   UNL A   1      37.785  33.499  36.045  1.00  0.00     0.059 A 
ATOM     91  F   UNL A   1      38.272  34.535  33.997  1.00  0.00    -0.206 F 
ATOM     92  C   UNL A   1      38.188  32.677  37.095  1.00  0.00     0.060 A 
BRANCH  92  93
ATOM     93  S   UNL A   1      37.114  32.429  38.525  1.00  0.00     0.124 S 
ATOM     94  O   UNL A   1      35.878  33.064  38.081  1.00  0.00    -0.237 OA
ATOM     95  O   UNL A   1      37.082  30.973  38.631  1.00  0.00    -0.237 OA
ATOM     96  O   UNL A   1      37.825  33.111  39.602  1.00  0.00    -0.744 OA
ENDBRANCH  92  93
ENDBRANCH  60  85
BRANCH  72  97
ATOM     97  C   UNL A   1      44.378  38.499  33.887  1.00  0.00     0.058 A 
ATOM     98  C   UNL A   1      43.708  39.683  33.549  1.00  0.00     0.135 A 
ATOM     99  C   UNL A   1      45.229  38.522  35.007  1.00  0.00     0.135 A 
ATOM    100  F   UNL A   1      42.889  39.716  32.485  1.00  0.00    -0.206 F 
ATOM    101  C   UNL A   1      43.877  40.848  34.291  1.00  0.00     0.059 A 
ATOM    102  C   UNL A   1      45.389  39.667  35.779  1.00  0.00     0.059 A 
ATOM    103  F   UNL A   1      45.887  37.414  35.380  1.00  0.00    -0.206 F 
ATOM    104  C   UNL A   1      44.711  40.827  35.411  1.00  0.00     0.060 A 
BRANCH 104 105
ATOM    105  S   UNL A   1      44.868  42.328  36.403  1.00  0.00     0.124 S 
ATOM    106  O   UNL A   1      45.938  41.962  37.324  1.00  0.00    -0.237 OA
ATOM    107  O   UNL A   1      45.210  43.330  35.398  1.00  0.00    -0.237 OA
ATOM    108  O   UNL A   1      43.547  42.478  37.005  1.00  0.00    -0.744 OA
ENDBRANCH 104 105
ENDBRANCH  72  97
ENDBRANCH  46  47
ENDBRANCH  39  41
ENDBRANCH  38  39
ENDBRANCH  37  38
ENDBRANCH  36  37
ENDBRANCH  35  36
ENDBRANCH  34  35
ENDBRANCH  33  34
ENDBRANCH  32  33
ENDBRANCH   1  32
TORSDOF 28
ENDMDL
MODEL 3
REMARK VINA RESULT:      -8.6      6.470     10.462
REMARK SMILES O=C(COc1cc(-c2ccccc2)nc(Nc2ccccc2Br)n1)OCCOCCOCCOCCOC(=O)c1ccc(-c2c3nc(c(-c4c(F)cc(S(=O)(=O)[O-])cc4F)c4ccc([nH]4)c(-c4c(F)cc(S(=O)(=O)[O-])cc4F)c4nc(c(-c5c(F)cc(S(=O)(=O)[O-])cc5F)c5ccc2[nH]5)C=C4)C=C3)cc1
REMARK SMILES IDX 30 1 29 2 28 3 27 4 26 5 25 6 2 7 1 8 3 9 4 10 5 11 6 12
REMARK SMILES IDX 24 13 7 14 15 15 14 16 8 17 9 18 13 19 10 20 12 21 11 22
REMARK SMILES IDX 16 23 17 25 18 26 22 27 19 28 21 29 23 30 20 31 31 32 32 33
REMARK SMILES IDX 33 34 34 35 35 36 36 37 37 38 38 39 39 40 40 41 41 42 105 43
REMARK SMILES IDX 42 44 104 45 43 46 44 47 45 48 98 49 46 50 103 51 97 52
REMARK SMILES IDX 99 53 47 54 102 55 96 56 95 57 48 59 82 60 61 61 81 62 62 63
REMARK SMILES IDX 65 64 80 65 100 66 63 67 64 68 79 70 101 71 66 72 49 73
REMARK SMILES IDX 50 74 59 75 51 76 52 77 58 78 60 79 53 80 54 81 55 82 56 83
REMARK SMILES IDX 57 84 83 85 84 86 93 87 85 88 86 89 92 90 94 91 87 92 88 93
REMARK SMILES IDX 89 94 90 95 91 96 67 97 68 98 77 99 69 100 70 101 76 102
REMARK SMILES IDX 78 103 71 104 72 105 73 106 74 107 75 108
REMARK H PARENT 16 24 99 58 65 69
REMARK Flexibility Score: inf
ROOT
ATOM      1  C   UNL A   1      42.325  19.014  27.213  1.00  0.00     0.188 C 
ENDROOT
BRANCH   1   2
ATOM      2  C   UNL A   1      42.495  19.263  25.708  1.00  0.00     0.188 C 
BRANCH   2   3
ATOM      3  O   UNL A   1      43.479  18.487  25.044  1.00  0.00    -0.376 OA
BRANCH   3   4
ATOM      4  C   UNL A   1      44.862  18.440  25.336  1.00  0.00     0.202 C 
BRANCH   4   5
ATOM      5  C   UNL A   1      45.748  19.687  25.290  1.00  0.00     0.261 C 
BRANCH   5   6
ATOM      6  O   UNL A   1      45.434  20.687  24.305  1.00  0.00    -0.461 OA
BRANCH   6   7
ATOM      7  C   UNL A   1      44.809  21.864  24.531  1.00  0.00     0.344 C 
ATOM      8  O   UNL A   1      44.038  22.319  23.690  1.00  0.00    -0.248 OA
BRANCH   7   9
ATOM      9  C   UNL A   1      45.126  22.611  25.819  1.00  0.00     0.353 C 
BRANCH   9  10
ATOM     10  O   UNL A   1      46.497  23.012  25.905  1.00  0.00    -0.466 OA
BRANCH  10  11
ATOM     11  C   UNL A   1      46.502  24.180  26.613  1.00  0.00     0.219 A 
ATOM     12  C   UNL A   1      45.328  24.848  26.790  1.00  0.00     0.097 A 
ATOM     13  N   UNL A   1      47.706  24.705  26.756  1.00  0.00    -0.177 NA
ATOM     14  C   UNL A   1      45.457  26.211  26.883  1.00  0.00     0.080 A 
ATOM     15  C   UNL A   1      47.762  26.010  27.002  1.00  0.00     0.231 A 
ATOM     16  N   UNL A   1      46.674  26.806  27.029  1.00  0.00    -0.212 NA
BRANCH  14  17
ATOM     17  C   UNL A   1      44.278  27.047  26.563  1.00  0.00     0.000 A 
ATOM     18  C   UNL A   1      44.107  28.311  27.154  1.00  0.00     0.010 A 
ATOM     19  C   UNL A   1      43.387  26.694  25.526  1.00  0.00     0.010 A 
ATOM     20  C   UNL A   1      43.101  29.183  26.721  1.00  0.00     0.001 A 
ATOM     21  C   UNL A   1      42.386  27.565  25.088  1.00  0.00     0.001 A 
ATOM     22  C   UNL A   1      42.243  28.811  25.688  1.00  0.00     0.000 A 
ENDBRANCH  14  17
BRANCH  15  23
ATOM     23  N   UNL A   1      49.029  26.545  27.243  1.00  0.00    -0.323 N 
ATOM     24  H   UNL A   1      49.350  26.576  28.173  1.00  0.00     0.170 HD
BRANCH  23  25
ATOM     25  C   UNL A   1      49.876  27.045  26.231  1.00  0.00     0.055 A 
ATOM     26  C   UNL A   1      49.876  26.411  24.978  1.00  0.00     0.027 A 
ATOM     27  C   UNL A   1      50.594  28.255  26.353  1.00  0.00     0.041 A 
ATOM     28  C   UNL A   1      50.571  26.954  23.890  1.00  0.00     0.002 A 
ATOM     29  C   UNL A   1      51.299  28.791  25.266  1.00  0.00     0.018 A 
ATOM     30  Br  UNL A   1      50.700  29.206  28.000  1.00  0.00    -0.049 Br
ATOM     31  C   UNL A   1      51.284  28.141  24.035  1.00  0.00     0.001 A 
ENDBRANCH  23  25
ENDBRANCH  15  23
ENDBRANCH  10  11
ENDBRANCH   9  10
ENDBRANCH   7   9
ENDBRANCH   6   7
ENDBRANCH   5   6
ENDBRANCH   4   5
ENDBRANCH   3   4
ENDBRANCH   2   3
ENDBRANCH   1   2
BRANCH   1  32
ATOM     32  O   UNL A   1      41.569  20.004  27.900  1.00  0.00    -0.377 OA
BRANCH  32  33
ATOM     33  C   UNL A   1      41.856  21.335  27.506  1.00  0.00     0.188 C 
BRANCH  33  34
ATOM     34  C   UNL A   1      40.671  22.318  27.631  1.00  0.00     0.188 C 
BRANCH  34  35
ATOM     35  O   UNL A   1      39.969  22.802  26.497  1.00  0.00    -0.376 OA
BRANCH  35  36
ATOM     36  C   UNL A   1      39.260  24.028  26.518  1.00  0.00     0.202 C 
BRANCH  36  37
ATOM     37  C   UNL A   1      39.242  24.985  27.719  1.00  0.00     0.261 C 
BRANCH  37  38
ATOM     38  O   UNL A   1      40.077  26.135  27.648  1.00  0.00    -0.460 OA
BRANCH  38  39
ATOM     39  C   UNL A   1      41.182  26.107  28.425  1.00  0.00     0.338 C 
ATOM     40  O   UNL A   1      42.114  25.322  28.362  1.00  0.00    -0.246 OA
BRANCH  39  41
ATOM     41  C   UNL A   1      41.171  27.335  29.242  1.00  0.00     0.060 A 
ATOM     42  C   UNL A   1      40.262  28.357  28.924  1.00  0.00     0.016 A 
ATOM     43  C   UNL A   1      42.018  27.449  30.346  1.00  0.00     0.016 A 
ATOM     44  C   UNL A   1      40.207  29.508  29.701  1.00  0.00     0.010 A 
ATOM     45  C   UNL A   1      41.999  28.622  31.093  1.00  0.00     0.010 A 
ATOM     46  C   UNL A   1      41.119  29.665  30.748  1.00  0.00    -0.014 A 
BRANCH  46  47
ATOM     47  C   UNL A   1      41.379  31.009  31.299  1.00  0.00     0.031 A 
ATOM     48  C   UNL A   1      42.483  31.802  30.664  1.00  0.00     0.074 A 
ATOM     49  C   UNL A   1      40.705  31.479  32.359  1.00  0.00     0.049 A 
ATOM     50  N   UNL A   1      43.047  32.909  31.062  1.00  0.00    -0.248 NA
ATOM     51  C   UNL A   1      43.041  31.250  29.416  1.00  0.00     0.031 C 
ATOM     52  C   UNL A   1      39.586  30.808  33.017  1.00  0.00     0.029 A 
ATOM     53  N   UNL A   1      40.899  32.621  33.091  1.00  0.00    -0.354 N 
ATOM     54  C   UNL A   1      44.047  33.169  30.133  1.00  0.00     0.074 A 
ATOM     55  C   UNL A   1      44.023  32.098  29.163  1.00  0.00     0.031 C 
ATOM     56  C   UNL A   1      39.220  31.533  34.089  1.00  0.00     0.029 A 
ATOM     57  C   UNL A   1      40.110  32.687  34.214  1.00  0.00     0.049 A 
ATOM     58  H   UNL A   1      41.540  33.324  32.838  1.00  0.00     0.167 HD
ATOM     59  C   UNL A   1      44.913  34.207  30.102  1.00  0.00     0.037 A 
ATOM     60  C   UNL A   1      40.144  33.554  35.246  1.00  0.00     0.037 A 
ATOM     61  C   UNL A   1      44.931  35.250  31.091  1.00  0.00     0.049 A 
ATOM     62  C   UNL A   1      41.153  34.673  35.231  1.00  0.00     0.074 A 
ATOM     63  C   UNL A   1      45.748  36.363  31.152  1.00  0.00     0.029 A 
ATOM     64  N   UNL A   1      44.105  35.293  32.207  1.00  0.00    -0.354 N 
ATOM     65  N   UNL A   1      42.084  34.932  34.341  1.00  0.00    -0.248 NA
ATOM     66  C   UNL A   1      41.118  35.619  36.353  1.00  0.00     0.031 C 
ATOM     67  C   UNL A   1      45.460  37.045  32.338  1.00  0.00     0.029 A 
ATOM     68  C   UNL A   1      44.412  36.400  32.978  1.00  0.00     0.049 A 
ATOM     69  H   UNL A   1      43.406  34.634  32.418  1.00  0.00     0.167 HD
ATOM     70  C   UNL A   1      42.723  36.088  34.779  1.00  0.00     0.074 A 
ATOM     71  C   UNL A   1      42.075  36.475  36.016  1.00  0.00     0.031 C 
ATOM     72  C   UNL A   1      43.744  36.773  34.204  1.00  0.00     0.037 A 
BRANCH  59  73
ATOM     73  C   UNL A   1      45.940  34.212  29.003  1.00  0.00     0.058 A 
ATOM     74  C   UNL A   1      47.160  33.523  29.114  1.00  0.00     0.135 A 
ATOM     75  C   UNL A   1      45.713  34.950  27.829  1.00  0.00     0.135 A 
ATOM     76  F   UNL A   1      47.440  32.820  30.224  1.00  0.00    -0.206 F 
ATOM     77  C   UNL A   1      48.136  33.609  28.128  1.00  0.00     0.059 A 
ATOM     78  C   UNL A   1      46.660  35.019  26.814  1.00  0.00     0.059 A 
ATOM     79  F   UNL A   1      44.568  35.632  27.671  1.00  0.00    -0.206 F 
ATOM     80  C   UNL A   1      47.879  34.365  26.984  1.00  0.00     0.060 A 
BRANCH  80  81
ATOM     81  S   UNL A   1      49.170  34.498  25.729  1.00  0.00     0.124 S 
ATOM     82  O   UNL A   1      48.400  34.930  24.566  1.00  0.00    -0.237 OA
ATOM     83  O   UNL A   1      50.062  35.498  26.305  1.00  0.00    -0.237 OA
ATOM     84  O   UNL A   1      49.712  33.145  25.655  1.00  0.00    -0.744 OA
ENDBRANCH  80  81
ENDBRANCH  59  73
BRANCH  60  85
ATOM     85  C   UNL A   1      39.201  33.369  36.378  1.00  0.00     0.058 A 
ATOM     86  C   UNL A   1      37.850  33.727  36.262  1.00  0.00     0.135 A 
ATOM     87  C   UNL A   1      39.617  32.765  37.576  1.00  0.00     0.135 A 
ATOM     88  F   UNL A   1      37.408  34.321  35.143  1.00  0.00    -0.206 F 
ATOM     89  C   UNL A   1      36.941  33.478  37.285  1.00  0.00     0.059 A 
ATOM     90  C   UNL A   1      38.721  32.482  38.604  1.00  0.00     0.059 A 
ATOM     91  F   UNL A   1      40.897  32.395  37.733  1.00  0.00    -0.206 F 
ATOM     92  C   UNL A   1      37.383  32.839  38.446  1.00  0.00     0.060 A 
BRANCH  92  93
ATOM     93  S   UNL A   1      36.169  32.413  39.713  1.00  0.00     0.124 S 
ATOM     94  O   UNL A   1      36.415  30.987  39.892  1.00  0.00    -0.237 OA
ATOM     95  O   UNL A   1      36.573  33.275  40.820  1.00  0.00    -0.237 OA
ATOM     96  O   UNL A   1      34.896  32.763  39.091  1.00  0.00    -0.744 OA
ENDBRANCH  92  93
ENDBRANCH  60  85
BRANCH  72  97
ATOM     97  C   UNL A   1      44.198  38.048  34.863  1.00  0.00     0.058 A 
ATOM     98  C   UNL A   1      43.740  39.307  34.450  1.00  0.00     0.135 A 
ATOM     99  C   UNL A   1      45.027  37.990  35.997  1.00  0.00     0.135 A 
ATOM    100  F   UNL A   1      42.951  39.419  33.369  1.00  0.00    -0.206 F 
ATOM    101  C   UNL A   1      44.092  40.467  35.135  1.00  0.00     0.059 A 
ATOM    102  C   UNL A   1      45.366  39.132  36.713  1.00  0.00     0.059 A 
ATOM    103  F   UNL A   1      45.485  36.810  36.440  1.00  0.00    -0.206 F 
ATOM    104  C   UNL A   1      44.897  40.368  36.272  1.00  0.00     0.060 A 
BRANCH 104 105
ATOM    105  S   UNL A   1      45.290  41.873  37.189  1.00  0.00     0.124 S 
ATOM    106  O   UNL A   1      44.488  42.867  36.482  1.00  0.00    -0.237 OA
ATOM    107  O   UNL A   1      44.844  41.540  38.538  1.00  0.00    -0.237 OA
ATOM    108  O   UNL A   1      46.735  42.003  37.026  1.00  0.00    -0.744 OA
ENDBRANCH 104 105
ENDBRANCH  72  97
ENDBRANCH  46  47
ENDBRANCH  39  41
ENDBRANCH  38  39
ENDBRANCH  37  38
ENDBRANCH  36  37
ENDBRANCH  35  36
ENDBRANCH  34  35
ENDBRANCH  33  34
ENDBRANCH  32  33
ENDBRANCH   1  32
TORSDOF 28
ENDMDL
