MODEL 1
REMARK VINA RESULT:      -9.3      0.000      0.000
REMARK SMILES Cc1ccc(C2=NN(C(=O)CCC(=O)OCCOCCOCCOCCOC(=O)c3ccc(-c4c5nc(c(-c6c(F)cc(S(=O)(=O)[O-])cc6F)c6ccc([nH]6)c(-c6c(F)cc(S(=O)(=O)[O-])cc6F)c6nc(c(-c7c(F)cc(S(=O)(=O)[O-])cc7F)c7ccc4[nH]7)C=C6)C=C5)cc3)[C@H](C[C@H]3C=c4cccc(C)c4=NC3=O)C2)cc1
REMARK SMILES IDX 20 1 19 2 18 3 17 4 16 5 15 6 13 7 14 8 12 9 11 10 9 11
REMARK SMILES IDX 10 12 8 13 6 14 7 15 110 16 96 17 5 18 1 19 2 20 3 21 112 22
REMARK SMILES IDX 4 23 111 24 97 25 98 26 99 27 108 28 100 29 107 30 109 31
REMARK SMILES IDX 101 32 106 33 102 34 104 35 103 36 105 37 21 38 22 39 23 40
REMARK SMILES IDX 24 41 25 42 26 43 27 44 28 45 29 46 30 47 31 48 95 49 32 50
REMARK SMILES IDX 94 51 33 52 34 53 35 54 88 55 36 56 93 57 87 58 89 59 37 60
REMARK SMILES IDX 92 61 86 62 85 63 38 65 72 66 51 67 71 68 52 69 55 70 70 71
REMARK SMILES IDX 90 72 53 73 54 74 69 76 91 77 56 78 39 79 40 80 49 81 41 82
REMARK SMILES IDX 42 83 48 84 50 85 43 86 44 87 45 88 46 89 47 90 73 91 74 92
REMARK SMILES IDX 83 93 75 94 76 95 82 96 84 97 77 98 78 99 79 100 80 101
REMARK SMILES IDX 81 102 57 103 58 104 67 105 59 106 60 107 66 108 68 109
REMARK SMILES IDX 61 110 62 111 63 112 64 113 65 114
REMARK H PARENT 89 64 55 75
REMARK Flexibility Score: inf
ROOT
ATOM      1  C   UNL A   1      45.613  35.789  32.694  1.00  0.00     0.188 C 
ENDROOT
BRANCH   1   2
ATOM      2  C   UNL A   1      44.459  36.880  33.206  1.00  0.00     0.188 C 
BRANCH   2   3
ATOM      3  O   UNL A   1      44.121  38.102  32.543  1.00  0.00    -0.376 OA
BRANCH   3   4
ATOM      4  C   UNL A   1      44.190  39.275  33.332  1.00  0.00     0.202 C 
BRANCH   4   5
ATOM      5  C   UNL A   1      43.457  40.479  32.828  1.00  0.00     0.261 C 
BRANCH   5   6
ATOM      6  O   UNL A   1      43.104  40.175  31.460  1.00  0.00    -0.463 OA
BRANCH   6   7
ATOM      7  C   UNL A   1      42.297  40.907  30.705  1.00  0.00     0.306 C 
ATOM      8  O   UNL A   1      41.934  42.034  31.019  1.00  0.00    -0.252 OA
BRANCH   7   9
ATOM      9  C   UNL A   1      41.983  40.269  29.313  1.00  0.00     0.132 C 
BRANCH   9  10
ATOM     10  C   UNL A   1      42.477  40.297  27.744  1.00  0.00     0.114 C 
BRANCH  10  11
ATOM     11  C   UNL A   1      43.524  40.616  26.353  1.00  0.00     0.243 C 
ATOM     12  O   UNL A   1      44.209  39.585  26.142  1.00  0.00    -0.273 OA
BRANCH  11  13
ATOM     13  N   UNL A   1      43.701  41.894  25.433  1.00  0.00    -0.230 N 
ATOM     14  C   UNL A   1      43.633  43.442  22.778  1.00  0.00     0.070 C 
ATOM     15  N   UNL A   1      42.981  42.184  23.512  1.00  0.00    -0.174 NA
ATOM     16  C   UNL A   1      44.910  44.394  23.991  1.00  0.00     0.086 C 
ATOM     17  C   UNL A   1      44.845  43.479  25.814  1.00  0.00     0.118 C 
BRANCH  14  18
ATOM     18  C   UNL A   1      43.488  43.687  21.381  1.00  0.00    -0.002 A 
ATOM     19  C   UNL A   1      42.995  44.230  17.240  1.00  0.00     0.044 C 
ATOM     20  C   UNL A   1      43.265  43.981  18.686  1.00  0.00    -0.051 A 
ATOM     21  C   UNL A   1      42.506  43.001  19.347  1.00  0.00     0.004 A 
ATOM     22  C   UNL A   1      44.207  44.753  19.383  1.00  0.00     0.004 A 
ATOM     23  C   UNL A   1      42.631  42.836  20.709  1.00  0.00     0.010 A 
ATOM     24  C   UNL A   1      44.320  44.609  20.755  1.00  0.00     0.010 A 
ENDBRANCH  14  18
BRANCH  17  25
ATOM     25  C   UNL A   1      45.156  44.139  27.651  1.00  0.00     0.045 C 
BRANCH  25  26
ATOM     26  C   UNL A   1      46.008  43.247  29.259  1.00  0.00     0.106 C 
ATOM     27  C   UNL A   1      47.713  43.152  29.441  1.00  0.00    -0.003 C 
ATOM     28  C   UNL A   1      45.691  43.141  30.832  1.00  0.00     0.253 C 
ATOM     29  C   UNL A   1      48.505  42.925  30.476  1.00  0.00    -0.003 A 
ATOM     30  N   UNL A   1      46.417  42.112  31.489  1.00  0.00    -0.212 NA
ATOM     31  O   UNL A   1      44.797  43.746  31.409  1.00  0.00    -0.272 OA
ATOM     32  C   UNL A   1      49.922  42.777  30.170  1.00  0.00     0.010 A 
ATOM     33  C   UNL A   1      47.693  41.978  31.235  1.00  0.00     0.077 A 
ATOM     34  C   UNL A   1      50.493  41.582  30.342  1.00  0.00     0.001 A 
ATOM     35  C   UNL A   1      48.466  40.688  31.435  1.00  0.00    -0.025 A 
ATOM     36  C   UNL A   1      49.732  40.530  30.977  1.00  0.00     0.005 A 
ATOM     37  C   UNL A   1      47.650  39.549  31.916  1.00  0.00     0.047 C 
ENDBRANCH  25  26
ENDBRANCH  17  25
ENDBRANCH  11  13
ENDBRANCH  10  11
ENDBRANCH   9  10
ENDBRANCH   7   9
ENDBRANCH   6   7
ENDBRANCH   5   6
ENDBRANCH   4   5
ENDBRANCH   3   4
ENDBRANCH   2   3
ENDBRANCH   1   2
BRANCH   1  38
ATOM     38  O   UNL A   1      46.273  35.069  31.273  1.00  0.00    -0.377 OA
BRANCH  38  39
ATOM     39  C   UNL A   1      46.318  33.548  30.429  1.00  0.00     0.188 C 
BRANCH  39  40
ATOM     40  C   UNL A   1      47.527  32.361  30.222  1.00  0.00     0.188 C 
BRANCH  40  41
ATOM     41  O   UNL A   1      48.293  31.962  31.389  1.00  0.00    -0.376 OA
BRANCH  41  42
ATOM     42  C   UNL A   1      49.485  31.257  31.488  1.00  0.00     0.202 C 
BRANCH  42  43
ATOM     43  C   UNL A   1      49.547  30.804  32.875  1.00  0.00     0.261 C 
BRANCH  43  44
ATOM     44  O   UNL A   1      49.324  31.961  33.784  1.00  0.00    -0.460 OA
BRANCH  44  45
ATOM     45  C   UNL A   1      48.463  32.439  34.757  1.00  0.00     0.338 C 
ATOM     46  O   UNL A   1      49.017  33.146  35.607  1.00  0.00    -0.246 OA
BRANCH  45  47
ATOM     47  C   UNL A   1      46.920  32.267  35.009  1.00  0.00     0.060 A 
ATOM     48  C   UNL A   1      46.319  30.996  35.114  1.00  0.00     0.016 A 
ATOM     49  C   UNL A   1      45.979  33.249  35.277  1.00  0.00     0.016 A 
ATOM     50  C   UNL A   1      44.849  30.770  35.150  1.00  0.00     0.010 A 
ATOM     51  C   UNL A   1      44.534  32.998  35.150  1.00  0.00     0.010 A 
ATOM     52  C   UNL A   1      43.906  31.761  34.801  1.00  0.00    -0.014 A 
BRANCH  52  53
ATOM     53  C   UNL A   1      42.190  31.670  34.380  1.00  0.00     0.031 A 
ATOM     54  C   UNL A   1      42.269  31.604  32.865  1.00  0.00     0.074 A 
ATOM     55  C   UNL A   1      40.849  31.353  35.052  1.00  0.00     0.049 A 
ATOM     56  N   UNL A   1      41.290  31.275  32.127  1.00  0.00    -0.248 NA
ATOM     57  C   UNL A   1      43.510  31.613  32.067  1.00  0.00     0.031 C 
ATOM     58  C   UNL A   1      39.483  30.845  34.623  1.00  0.00     0.029 A 
ATOM     59  N   UNL A   1      40.332  31.243  36.375  1.00  0.00    -0.354 N 
ATOM     60  C   UNL A   1      41.778  30.521  31.072  1.00  0.00     0.074 A 
ATOM     61  C   UNL A   1      43.177  30.847  31.019  1.00  0.00     0.031 C 
ATOM     62  C   UNL A   1      38.443  30.873  35.523  1.00  0.00     0.029 A 
ATOM     63  C   UNL A   1      38.978  31.477  36.679  1.00  0.00     0.049 A 
ATOM     64  H   UNL A   1      40.945  30.994  37.105  1.00  0.00     0.167 HD
ATOM     65  C   UNL A   1      40.917  29.609  30.524  1.00  0.00     0.037 A 
ATOM     66  C   UNL A   1      38.597  32.644  37.290  1.00  0.00     0.037 A 
ATOM     67  C   UNL A   1      39.549  29.787  31.125  1.00  0.00     0.049 A 
ATOM     68  C   UNL A   1      38.347  33.513  35.958  1.00  0.00     0.074 A 
ATOM     69  C   UNL A   1      38.581  28.981  31.701  1.00  0.00     0.029 A 
ATOM     70  N   UNL A   1      39.122  31.090  31.418  1.00  0.00    -0.354 N 
ATOM     71  N   UNL A   1      38.861  33.215  34.768  1.00  0.00    -0.248 NA
ATOM     72  C   UNL A   1      37.295  34.511  35.761  1.00  0.00     0.031 C 
ATOM     73  C   UNL A   1      37.639  29.840  32.397  1.00  0.00     0.029 A 
ATOM     74  C   UNL A   1      38.072  31.178  32.315  1.00  0.00     0.049 A 
ATOM     75  H   UNL A   1      39.539  31.886  31.015  1.00  0.00     0.167 HD
ATOM     76  C   UNL A   1      37.895  33.369  33.794  1.00  0.00     0.074 A 
ATOM     77  C   UNL A   1      37.180  34.497  34.410  1.00  0.00     0.031 C 
ATOM     78  C   UNL A   1      37.568  32.535  32.698  1.00  0.00     0.037 A 
BRANCH  65  79
ATOM     79  C   UNL A   1      41.266  28.466  29.556  1.00  0.00     0.058 A 
ATOM     80  C   UNL A   1      42.252  27.533  29.950  1.00  0.00     0.135 A 
ATOM     81  C   UNL A   1      40.737  28.210  28.263  1.00  0.00     0.135 A 
ATOM     82  F   UNL A   1      42.850  27.615  31.144  1.00  0.00    -0.206 F 
ATOM     83  C   UNL A   1      42.664  26.449  29.172  1.00  0.00     0.059 A 
ATOM     84  C   UNL A   1      41.104  27.092  27.475  1.00  0.00     0.059 A 
ATOM     85  F   UNL A   1      39.849  29.036  27.692  1.00  0.00    -0.206 F 
ATOM     86  C   UNL A   1      42.066  26.208  27.948  1.00  0.00     0.060 A 
BRANCH  86  87
ATOM     87  S   UNL A   1      42.526  24.689  27.081  1.00  0.00     0.124 S 
ATOM     88  O   UNL A   1      43.983  24.717  27.161  1.00  0.00    -0.237 OA
ATOM     89  O   UNL A   1      41.870  23.668  27.892  1.00  0.00    -0.237 OA
ATOM     90  O   UNL A   1      41.968  24.871  25.744  1.00  0.00    -0.744 OA
ENDBRANCH  86  87
ENDBRANCH  65  79
BRANCH  66  91
ATOM     91  C   UNL A   1      39.620  32.818  38.437  1.00  0.00     0.058 A 
ATOM     92  C   UNL A   1      41.224  33.541  38.583  1.00  0.00     0.135 A 
ATOM     93  C   UNL A   1      38.786  32.698  39.950  1.00  0.00     0.135 A 
ATOM     94  F   UNL A   1      41.937  33.780  37.467  1.00  0.00    -0.206 F 
ATOM     95  C   UNL A   1      42.001  34.085  40.102  1.00  0.00     0.059 A 
ATOM     96  C   UNL A   1      39.726  33.383  41.638  1.00  0.00     0.059 A 
ATOM     97  F   UNL A   1      37.825  31.751  39.812  1.00  0.00    -0.206 F 
ATOM     98  C   UNL A   1      41.268  34.014  41.593  1.00  0.00     0.060 A 
BRANCH  98  99
ATOM     99  S   UNL A   1      42.014  33.973  43.286  1.00  0.00     0.124 S 
ATOM    100  O   UNL A   1      41.715  32.633  43.763  1.00  0.00    -0.237 OA
ATOM    101  O   UNL A   1      43.417  34.305  43.056  1.00  0.00    -0.237 OA
ATOM    102  O   UNL A   1      41.298  35.033  44.011  1.00  0.00    -0.744 OA
ENDBRANCH  98  99
ENDBRANCH  66  91
BRANCH  78 103
ATOM    103  C   UNL A   1      36.655  33.033  31.630  1.00  0.00     0.058 A 
ATOM    104  C   UNL A   1      37.129  33.562  30.446  1.00  0.00     0.135 A 
ATOM    105  C   UNL A   1      35.243  32.944  31.766  1.00  0.00     0.135 A 
ATOM    106  F   UNL A   1      38.384  34.021  30.337  1.00  0.00    -0.206 F 
ATOM    107  C   UNL A   1      36.306  33.646  29.347  1.00  0.00     0.059 A 
ATOM    108  C   UNL A   1      34.388  33.117  30.718  1.00  0.00     0.059 A 
ATOM    109  F   UNL A   1      34.594  32.702  32.909  1.00  0.00    -0.206 F 
ATOM    110  C   UNL A   1      34.943  33.393  29.494  1.00  0.00     0.060 A 
BRANCH 110 111
ATOM    111  S   UNL A   1      33.878  33.557  28.084  1.00  0.00     0.124 S 
ATOM    112  O   UNL A   1      32.735  34.248  28.672  1.00  0.00    -0.237 OA
ATOM    113  O   UNL A   1      34.716  34.343  27.187  1.00  0.00    -0.237 OA
ATOM    114  O   UNL A   1      33.635  32.176  27.677  1.00  0.00    -0.744 OA
ENDBRANCH 110 111
ENDBRANCH  78 103
ENDBRANCH  52  53
ENDBRANCH  45  47
ENDBRANCH  44  45
ENDBRANCH  43  44
ENDBRANCH  42  43
ENDBRANCH  41  42
ENDBRANCH  40  41
ENDBRANCH  39  40
ENDBRANCH  38  39
ENDBRANCH   1  38
TORSDOF 29
ENDMDL
MODEL 2
REMARK VINA RESULT:      -9.3      1.751      2.176
REMARK SMILES Cc1ccc(C2=NN(C(=O)CCC(=O)OCCOCCOCCOCCOC(=O)c3ccc(-c4c5nc(c(-c6c(F)cc(S(=O)(=O)[O-])cc6F)c6ccc([nH]6)c(-c6c(F)cc(S(=O)(=O)[O-])cc6F)c6nc(c(-c7c(F)cc(S(=O)(=O)[O-])cc7F)c7ccc4[nH]7)C=C6)C=C5)cc3)[C@H](C[C@H]3C=c4cccc(C)c4=NC3=O)C2)cc1
REMARK SMILES IDX 20 1 19 2 18 3 17 4 16 5 15 6 13 7 14 8 12 9 11 10 9 11
REMARK SMILES IDX 10 12 8 13 6 14 7 15 110 16 96 17 5 18 1 19 2 20 3 21 112 22
REMARK SMILES IDX 4 23 111 24 97 25 98 26 99 27 108 28 100 29 107 30 109 31
REMARK SMILES IDX 101 32 106 33 102 34 104 35 103 36 105 37 21 38 22 39 23 40
REMARK SMILES IDX 24 41 25 42 26 43 27 44 28 45 29 46 30 47 31 48 95 49 32 50
REMARK SMILES IDX 94 51 33 52 34 53 35 54 88 55 36 56 93 57 87 58 89 59 37 60
REMARK SMILES IDX 92 61 86 62 85 63 38 65 72 66 51 67 71 68 52 69 55 70 70 71
REMARK SMILES IDX 90 72 53 73 54 74 69 76 91 77 56 78 39 79 40 80 49 81 41 82
REMARK SMILES IDX 42 83 48 84 50 85 43 86 44 87 45 88 46 89 47 90 73 91 74 92
REMARK SMILES IDX 83 93 75 94 76 95 82 96 84 97 77 98 78 99 79 100 80 101
REMARK SMILES IDX 81 102 57 103 58 104 67 105 59 106 60 107 66 108 68 109
REMARK SMILES IDX 61 110 62 111 63 112 64 113 65 114
REMARK H PARENT 89 64 55 75
REMARK Flexibility Score: inf
ROOT
ATOM      1  C   UNL A   1      45.490  36.102  32.547  1.00  0.00     0.188 C 
ENDROOT
BRANCH   1   2
ATOM      2  C   UNL A   1      44.196  37.069  32.964  1.00  0.00     0.188 C 
BRANCH   2   3
ATOM      3  O   UNL A   1      43.888  38.340  32.382  1.00  0.00    -0.376 OA
BRANCH   3   4
ATOM      4  C   UNL A   1      43.982  39.457  33.245  1.00  0.00     0.202 C 
BRANCH   4   5
ATOM      5  C   UNL A   1      43.210  40.681  32.862  1.00  0.00     0.261 C 
BRANCH   5   6
ATOM      6  O   UNL A   1      42.808  40.474  31.490  1.00  0.00    -0.463 OA
BRANCH   6   7
ATOM      7  C   UNL A   1      42.057  41.308  30.785  1.00  0.00     0.306 C 
ATOM      8  O   UNL A   1      41.902  42.484  31.094  1.00  0.00    -0.252 OA
BRANCH   7   9
ATOM      9  C   UNL A   1      41.522  40.701  29.449  1.00  0.00     0.132 C 
BRANCH   9  10
ATOM     10  C   UNL A   1      41.975  40.418  27.892  1.00  0.00     0.114 C 
BRANCH  10  11
ATOM     11  C   UNL A   1      43.052  40.168  26.510  1.00  0.00     0.243 C 
ATOM     12  O   UNL A   1      43.335  38.945  26.459  1.00  0.00    -0.273 OA
BRANCH  11  13
ATOM     13  N   UNL A   1      43.650  41.171  25.440  1.00  0.00    -0.230 N 
ATOM     14  C   UNL A   1      43.654  42.748  22.801  1.00  0.00     0.070 C 
ATOM     15  N   UNL A   1      42.666  42.073  23.856  1.00  0.00    -0.174 NA
ATOM     16  C   UNL A   1      45.560  42.563  23.388  1.00  0.00     0.086 C 
ATOM     17  C   UNL A   1      45.568  41.665  25.221  1.00  0.00     0.118 C 
BRANCH  14  18
ATOM     18  C   UNL A   1      43.230  43.198  21.517  1.00  0.00    -0.002 A 
ATOM     19  C   UNL A   1      42.102  44.671  17.743  1.00  0.00     0.044 C 
ATOM     20  C   UNL A   1      42.439  44.230  19.127  1.00  0.00    -0.051 A 
ATOM     21  C   UNL A   1      43.712  44.538  19.634  1.00  0.00     0.004 A 
ATOM     22  C   UNL A   1      41.531  43.469  19.879  1.00  0.00     0.004 A 
ATOM     23  C   UNL A   1      44.108  44.033  20.853  1.00  0.00     0.010 A 
ATOM     24  C   UNL A   1      41.931  42.939  21.093  1.00  0.00     0.010 A 
ENDBRANCH  14  18
BRANCH  17  25
ATOM     25  C   UNL A   1      46.813  41.766  26.752  1.00  0.00     0.045 C 
BRANCH  25  26
ATOM     26  C   UNL A   1      48.164  40.431  27.460  1.00  0.00     0.106 C 
ATOM     27  C   UNL A   1      48.446  38.930  26.677  1.00  0.00    -0.003 C 
ATOM     28  C   UNL A   1      49.612  40.503  28.155  1.00  0.00     0.253 C 
ATOM     29  C   UNL A   1      49.434  38.051  26.726  1.00  0.00    -0.003 A 
ATOM     30  N   UNL A   1      50.006  39.286  28.773  1.00  0.00    -0.212 NA
ATOM     31  O   UNL A   1      50.264  41.527  28.312  1.00  0.00    -0.272 OA
ATOM     32  C   UNL A   1      49.211  36.806  26.001  1.00  0.00     0.010 A 
ATOM     33  C   UNL A   1      49.826  38.163  28.127  1.00  0.00     0.077 A 
ATOM     34  C   UNL A   1      49.082  35.674  26.697  1.00  0.00     0.001 A 
ATOM     35  C   UNL A   1      49.712  36.807  28.800  1.00  0.00    -0.025 A 
ATOM     36  C   UNL A   1      49.329  35.698  28.121  1.00  0.00     0.005 A 
ATOM     37  C   UNL A   1      49.784  36.846  30.279  1.00  0.00     0.047 C 
ENDBRANCH  25  26
ENDBRANCH  17  25
ENDBRANCH  11  13
ENDBRANCH  10  11
ENDBRANCH   9  10
ENDBRANCH   7   9
ENDBRANCH   6   7
ENDBRANCH   5   6
ENDBRANCH   4   5
ENDBRANCH   3   4
ENDBRANCH   2   3
ENDBRANCH   1   2
BRANCH   1  38
ATOM     38  O   UNL A   1      46.401  35.554  31.190  1.00  0.00    -0.377 OA
BRANCH  38  39
ATOM     39  C   UNL A   1      46.834  34.087  30.362  1.00  0.00     0.188 C 
BRANCH  39  40
ATOM     40  C   UNL A   1      48.195  33.060  30.435  1.00  0.00     0.188 C 
BRANCH  40  41
ATOM     41  O   UNL A   1      48.608  32.574  31.740  1.00  0.00    -0.376 OA
BRANCH  41  42
ATOM     42  C   UNL A   1      49.752  31.887  32.126  1.00  0.00     0.202 C 
BRANCH  42  43
ATOM     43  C   UNL A   1      49.482  31.430  33.487  1.00  0.00     0.261 C 
BRANCH  43  44
ATOM     44  O   UNL A   1      49.146  32.599  34.344  1.00  0.00    -0.460 OA
BRANCH  44  45
ATOM     45  C   UNL A   1      48.201  33.063  35.243  1.00  0.00     0.338 C 
ATOM     46  O   UNL A   1      48.661  33.836  36.093  1.00  0.00    -0.246 OA
BRANCH  45  47
ATOM     47  C   UNL A   1      46.658  32.808  35.412  1.00  0.00     0.060 A 
ATOM     48  C   UNL A   1      46.123  31.506  35.492  1.00  0.00     0.016 A 
ATOM     49  C   UNL A   1      45.653  33.738  35.623  1.00  0.00     0.016 A 
ATOM     50  C   UNL A   1      44.667  31.200  35.450  1.00  0.00     0.010 A 
ATOM     51  C   UNL A   1      44.233  33.408  35.419  1.00  0.00     0.010 A 
ATOM     52  C   UNL A   1      43.693  32.137  35.044  1.00  0.00    -0.014 A 
BRANCH  52  53
ATOM     53  C   UNL A   1      42.009  31.951  34.531  1.00  0.00     0.031 A 
ATOM     54  C   UNL A   1      42.161  32.016  33.022  1.00  0.00     0.074 A 
ATOM     55  C   UNL A   1      40.669  31.480  35.107  1.00  0.00     0.049 A 
ATOM     56  N   UNL A   1      41.244  31.675  32.212  1.00  0.00    -0.248 NA
ATOM     57  C   UNL A   1      43.431  32.184  32.291  1.00  0.00     0.031 C 
ATOM     58  C   UNL A   1      39.368  30.906  34.572  1.00  0.00     0.029 A 
ATOM     59  N   UNL A   1      40.105  31.223  36.391  1.00  0.00    -0.354 N 
ATOM     60  C   UNL A   1      41.837  31.050  31.127  1.00  0.00     0.074 A 
ATOM     61  C   UNL A   1      43.207  31.484  31.171  1.00  0.00     0.031 C 
ATOM     62  C   UNL A   1      38.291  30.783  35.418  1.00  0.00     0.029 A 
ATOM     63  C   UNL A   1      38.724  31.328  36.643  1.00  0.00     0.049 A 
ATOM     64  H   UNL A   1      40.703  30.963  37.129  1.00  0.00     0.167 HD
ATOM     65  C   UNL A   1      41.076  30.123  30.467  1.00  0.00     0.037 A 
ATOM     66  C   UNL A   1      38.225  32.409  37.323  1.00  0.00     0.037 A 
ATOM     67  C   UNL A   1      39.674  30.147  31.010  1.00  0.00     0.049 A 
ATOM     68  C   UNL A   1      37.966  33.363  36.052  1.00  0.00     0.074 A 
ATOM     69  C   UNL A   1      38.748  29.226  31.471  1.00  0.00     0.029 A 
ATOM     70  N   UNL A   1      39.132  31.386  31.382  1.00  0.00    -0.354 N 
ATOM     71  N   UNL A   1      38.554  33.203  34.871  1.00  0.00    -0.248 NA
ATOM     72  C   UNL A   1      36.848  34.291  35.881  1.00  0.00     0.031 C 
ATOM     73  C   UNL A   1      37.711  29.951  32.184  1.00  0.00     0.029 A 
ATOM     74  C   UNL A   1      38.039  31.320  32.228  1.00  0.00     0.049 A 
ATOM     75  H   UNL A   1      39.501  32.241  31.064  1.00  0.00     0.167 HD
ATOM     76  C   UNL A   1      37.623  33.363  33.864  1.00  0.00     0.074 A 
ATOM     77  C   UNL A   1      36.794  34.379  34.529  1.00  0.00     0.031 C 
ATOM     78  C   UNL A   1      37.412  32.599  32.691  1.00  0.00     0.037 A 
BRANCH  65  79
ATOM     79  C   UNL A   1      41.558  29.093  29.431  1.00  0.00     0.058 A 
ATOM     80  C   UNL A   1      41.396  27.720  29.727  1.00  0.00     0.135 A 
ATOM     81  C   UNL A   1      42.185  29.326  28.179  1.00  0.00     0.135 A 
ATOM     82  F   UNL A   1      40.813  27.317  30.862  1.00  0.00    -0.206 F 
ATOM     83  C   UNL A   1      41.786  26.682  28.879  1.00  0.00     0.059 A 
ATOM     84  C   UNL A   1      42.547  28.291  27.281  1.00  0.00     0.059 A 
ATOM     85  F   UNL A   1      42.493  30.563  27.766  1.00  0.00    -0.206 F 
ATOM     86  C   UNL A   1      42.331  26.967  27.640  1.00  0.00     0.060 A 
BRANCH  86  87
ATOM     87  S   UNL A   1      42.647  25.576  26.528  1.00  0.00     0.124 S 
ATOM     88  O   UNL A   1      41.325  24.968  26.412  1.00  0.00    -0.237 OA
ATOM     89  O   UNL A   1      43.137  26.252  25.330  1.00  0.00    -0.237 OA
ATOM     90  O   UNL A   1      43.641  24.781  27.242  1.00  0.00    -0.744 OA
ENDBRANCH  86  87
ENDBRANCH  65  79
BRANCH  66  91
ATOM     91  C   UNL A   1      39.179  32.565  38.531  1.00  0.00     0.058 A 
ATOM     92  C   UNL A   1      40.751  33.325  38.792  1.00  0.00     0.135 A 
ATOM     93  C   UNL A   1      38.268  32.364  39.990  1.00  0.00     0.135 A 
ATOM     94  F   UNL A   1      41.517  33.626  37.726  1.00  0.00    -0.206 F 
ATOM     95  C   UNL A   1      41.429  33.830  40.370  1.00  0.00     0.059 A 
ATOM     96  C   UNL A   1      39.096  33.008  41.752  1.00  0.00     0.059 A 
ATOM     97  F   UNL A   1      37.345  31.398  39.763  1.00  0.00    -0.206 F 
ATOM     98  C   UNL A   1      40.620  33.681  41.816  1.00  0.00     0.060 A 
BRANCH  98  99
ATOM     99  S   UNL A   1      41.274  33.594  43.544  1.00  0.00     0.124 S 
ATOM    100  O   UNL A   1      41.901  34.890  43.741  1.00  0.00    -0.237 OA
ATOM    101  O   UNL A   1      40.094  33.290  44.347  1.00  0.00    -0.237 OA
ATOM    102  O   UNL A   1      42.228  32.476  43.503  1.00  0.00    -0.744 OA
ENDBRANCH  98  99
ENDBRANCH  66  91
BRANCH  78 103
ATOM    103  C   UNL A   1      36.511  33.112  31.620  1.00  0.00     0.058 A 
ATOM    104  C   UNL A   1      36.995  33.749  30.495  1.00  0.00     0.135 A 
ATOM    105  C   UNL A   1      35.103  32.927  31.690  1.00  0.00     0.135 A 
ATOM    106  F   UNL A   1      38.221  34.291  30.471  1.00  0.00    -0.206 F 
ATOM    107  C   UNL A   1      36.211  33.858  29.370  1.00  0.00     0.059 A 
ATOM    108  C   UNL A   1      34.280  33.120  30.620  1.00  0.00     0.059 A 
ATOM    109  F   UNL A   1      34.428  32.568  32.786  1.00  0.00    -0.206 F 
ATOM    110  C   UNL A   1      34.862  33.512  29.442  1.00  0.00     0.060 A 
BRANCH 110 111
ATOM    111  S   UNL A   1      33.844  33.707  28.002  1.00  0.00     0.124 S 
ATOM    112  O   UNL A   1      32.710  34.442  28.555  1.00  0.00    -0.237 OA
ATOM    113  O   UNL A   1      34.735  34.458  27.126  1.00  0.00    -0.237 OA
ATOM    114  O   UNL A   1      33.562  32.334  27.594  1.00  0.00    -0.744 OA
ENDBRANCH 110 111
ENDBRANCH  78 103
ENDBRANCH  52  53
ENDBRANCH  45  47
ENDBRANCH  44  45
ENDBRANCH  43  44
ENDBRANCH  42  43
ENDBRANCH  41  42
ENDBRANCH  40  41
ENDBRANCH  39  40
ENDBRANCH  38  39
ENDBRANCH   1  38
TORSDOF 29
ENDMDL
MODEL 3
REMARK VINA RESULT:      -9.1      4.087      9.693
REMARK SMILES Cc1ccc(C2=NN(C(=O)CCC(=O)OCCOCCOCCOCCOC(=O)c3ccc(-c4c5nc(c(-c6c(F)cc(S(=O)(=O)[O-])cc6F)c6ccc([nH]6)c(-c6c(F)cc(S(=O)(=O)[O-])cc6F)c6nc(c(-c7c(F)cc(S(=O)(=O)[O-])cc7F)c7ccc4[nH]7)C=C6)C=C5)cc3)[C@H](C[C@H]3C=c4cccc(C)c4=NC3=O)C2)cc1
REMARK SMILES IDX 20 1 19 2 18 3 17 4 16 5 15 6 13 7 14 8 12 9 11 10 9 11
REMARK SMILES IDX 10 12 8 13 6 14 7 15 110 16 96 17 5 18 1 19 2 20 3 21 112 22
REMARK SMILES IDX 4 23 111 24 97 25 98 26 99 27 108 28 100 29 107 30 109 31
REMARK SMILES IDX 101 32 106 33 102 34 104 35 103 36 105 37 21 38 22 39 23 40
REMARK SMILES IDX 24 41 25 42 26 43 27 44 28 45 29 46 30 47 31 48 95 49 32 50
REMARK SMILES IDX 94 51 33 52 34 53 35 54 88 55 36 56 93 57 87 58 89 59 37 60
REMARK SMILES IDX 92 61 86 62 85 63 38 65 72 66 51 67 71 68 52 69 55 70 70 71
REMARK SMILES IDX 90 72 53 73 54 74 69 76 91 77 56 78 39 79 40 80 49 81 41 82
REMARK SMILES IDX 42 83 48 84 50 85 43 86 44 87 45 88 46 89 47 90 73 91 74 92
REMARK SMILES IDX 83 93 75 94 76 95 82 96 84 97 77 98 78 99 79 100 80 101
REMARK SMILES IDX 81 102 57 103 58 104 67 105 59 106 60 107 66 108 68 109
REMARK SMILES IDX 61 110 62 111 63 112 64 113 65 114
REMARK H PARENT 89 64 55 75
REMARK Flexibility Score: inf
ROOT
ATOM      1  C   UNL A   1      49.931  38.643  37.404  1.00  0.00     0.188 C 
ENDROOT
BRANCH   1   2
ATOM      2  C   UNL A   1      50.331  40.221  37.770  1.00  0.00     0.188 C 
BRANCH   2   3
ATOM      3  O   UNL A   1      49.398  41.268  38.059  1.00  0.00    -0.376 OA
BRANCH   3   4
ATOM      4  C   UNL A   1      48.385  41.479  37.096  1.00  0.00     0.202 C 
BRANCH   4   5
ATOM      5  C   UNL A   1      47.838  42.867  36.974  1.00  0.00     0.261 C 
BRANCH   5   6
ATOM      6  O   UNL A   1      48.690  43.538  36.019  1.00  0.00    -0.463 OA
BRANCH   6   7
ATOM      7  C   UNL A   1      48.836  44.852  35.925  1.00  0.00     0.306 C 
ATOM      8  O   UNL A   1      49.932  45.401  35.931  1.00  0.00    -0.252 OA
BRANCH   7   9
ATOM      9  C   UNL A   1      47.502  45.617  35.647  1.00  0.00     0.132 C 
BRANCH   9  10
ATOM     10  C   UNL A   1      46.124  45.518  34.752  1.00  0.00     0.114 C 
BRANCH  10  11
ATOM     11  C   UNL A   1      44.861  44.789  33.749  1.00  0.00     0.243 C 
ATOM     12  O   UNL A   1      44.062  45.699  33.415  1.00  0.00    -0.273 OA
BRANCH  11  13
ATOM     13  N   UNL A   1      44.622  43.299  33.268  1.00  0.00    -0.230 N 
ATOM     14  C   UNL A   1      44.108  40.295  33.668  1.00  0.00     0.070 C 
ATOM     15  N   UNL A   1      43.899  41.707  34.380  1.00  0.00    -0.174 NA
ATOM     16  C   UNL A   1      44.956  40.520  31.867  1.00  0.00     0.086 C 
ATOM     17  C   UNL A   1      45.153  42.520  31.513  1.00  0.00     0.118 C 
BRANCH  14  18
ATOM     18  C   UNL A   1      43.927  39.052  34.341  1.00  0.00    -0.002 A 
ATOM     19  C   UNL A   1      43.568  35.404  36.404  1.00  0.00     0.044 C 
ATOM     20  C   UNL A   1      43.759  36.643  35.597  1.00  0.00    -0.051 A 
ATOM     21  C   UNL A   1      44.653  37.617  36.071  1.00  0.00     0.004 A 
ATOM     22  C   UNL A   1      43.014  36.860  34.427  1.00  0.00     0.004 A 
ATOM     23  C   UNL A   1      44.755  38.831  35.426  1.00  0.00     0.010 A 
ATOM     24  C   UNL A   1      43.093  38.085  33.789  1.00  0.00     0.010 A 
ENDBRANCH  14  18
BRANCH  17  25
ATOM     25  C   UNL A   1      45.173  43.586  29.849  1.00  0.00     0.045 C 
BRANCH  25  26
ATOM     26  C   UNL A   1      44.801  43.061  27.927  1.00  0.00     0.106 C 
ATOM     27  C   UNL A   1      45.264  44.061  26.611  1.00  0.00    -0.003 C 
ATOM     28  C   UNL A   1      44.801  41.697  27.076  1.00  0.00     0.253 C 
ATOM     29  C   UNL A   1      45.427  43.843  25.317  1.00  0.00    -0.003 A 
ATOM     30  N   UNL A   1      44.140  41.810  25.823  1.00  0.00    -0.212 NA
ATOM     31  O   UNL A   1      45.166  40.607  27.497  1.00  0.00    -0.272 OA
ATOM     32  C   UNL A   1      45.688  45.023  24.503  1.00  0.00     0.010 A 
ATOM     33  C   UNL A   1      44.378  42.856  25.075  1.00  0.00     0.077 A 
ATOM     34  C   UNL A   1      44.762  45.413  23.624  1.00  0.00     0.001 A 
ATOM     35  C   UNL A   1      43.428  43.370  24.010  1.00  0.00    -0.025 A 
ATOM     36  C   UNL A   1      43.615  44.564  23.396  1.00  0.00     0.005 A 
ATOM     37  C   UNL A   1      42.162  42.609  23.895  1.00  0.00     0.047 C 
ENDBRANCH  25  26
ENDBRANCH  17  25
ENDBRANCH  11  13
ENDBRANCH  10  11
ENDBRANCH   9  10
ENDBRANCH   7   9
ENDBRANCH   6   7
ENDBRANCH   5   6
ENDBRANCH   4   5
ENDBRANCH   3   4
ENDBRANCH   2   3
ENDBRANCH   1   2
BRANCH   1  38
ATOM     38  O   UNL A   1      48.771  37.693  36.554  1.00  0.00    -0.377 OA
BRANCH  38  39
ATOM     39  C   UNL A   1      48.137  37.457  34.950  1.00  0.00     0.188 C 
BRANCH  39  40
ATOM     40  C   UNL A   1      48.515  38.136  33.432  1.00  0.00     0.188 C 
BRANCH  40  41
ATOM     41  O   UNL A   1      47.791  37.650  32.271  1.00  0.00    -0.376 OA
BRANCH  41  42
ATOM     42  C   UNL A   1      48.230  37.379  30.981  1.00  0.00     0.202 C 
BRANCH  42  43
ATOM     43  C   UNL A   1      47.424  38.236  30.115  1.00  0.00     0.261 C 
BRANCH  43  44
ATOM     44  O   UNL A   1      45.981  38.008  30.398  1.00  0.00    -0.460 OA
BRANCH  44  45
ATOM     45  C   UNL A   1      44.856  37.368  29.906  1.00  0.00     0.338 C 
ATOM     46  O   UNL A   1      44.219  38.042  29.087  1.00  0.00    -0.246 OA
BRANCH  45  47
ATOM     47  C   UNL A   1      44.215  35.957  30.177  1.00  0.00     0.060 A 
ATOM     48  C   UNL A   1      44.622  35.148  31.256  1.00  0.00     0.016 A 
ATOM     49  C   UNL A   1      43.139  35.367  29.534  1.00  0.00     0.016 A 
ATOM     50  C   UNL A   1      44.199  33.734  31.444  1.00  0.00     0.010 A 
ATOM     51  C   UNL A   1      42.862  33.925  29.644  1.00  0.00     0.010 A 
ATOM     52  C   UNL A   1      43.585  32.970  30.428  1.00  0.00    -0.014 A 
BRANCH  52  53
ATOM     53  C   UNL A   1      43.346  31.228  30.233  1.00  0.00     0.031 A 
ATOM     54  C   UNL A   1      44.629  30.841  29.519  1.00  0.00     0.074 A 
ATOM     55  C   UNL A   1      42.466  30.110  30.802  1.00  0.00     0.049 A 
ATOM     56  N   UNL A   1      45.024  29.641  29.391  1.00  0.00    -0.248 NA
ATOM     57  C   UNL A   1      45.718  31.764  29.146  1.00  0.00     0.031 C 
ATOM     58  C   UNL A   1      42.554  28.603  30.974  1.00  0.00     0.029 A 
ATOM     59  N   UNL A   1      41.261  29.996  31.555  1.00  0.00    -0.354 N 
ATOM     60  C   UNL A   1      46.403  29.625  29.517  1.00  0.00     0.074 A 
ATOM     61  C   UNL A   1      46.801  30.982  29.258  1.00  0.00     0.031 C 
ATOM     62  C   UNL A   1      41.438  27.905  31.373  1.00  0.00     0.029 A 
ATOM     63  C   UNL A   1      40.417  28.873  31.463  1.00  0.00     0.049 A 
ATOM     64  H   UNL A   1      41.009  30.729  32.162  1.00  0.00     0.167 HD
ATOM     65  C   UNL A   1      46.959  28.467  29.992  1.00  0.00     0.037 A 
ATOM     66  C   UNL A   1      39.242  28.946  30.759  1.00  0.00     0.037 A 
ATOM     67  C   UNL A   1      45.896  27.409  30.100  1.00  0.00     0.049 A 
ATOM     68  C   UNL A   1      39.823  28.504  29.324  1.00  0.00     0.074 A 
ATOM     69  C   UNL A   1      45.456  26.506  31.053  1.00  0.00     0.029 A 
ATOM     70  N   UNL A   1      44.898  27.373  29.115  1.00  0.00    -0.354 N 
ATOM     71  N   UNL A   1      41.109  28.569  28.990  1.00  0.00    -0.248 NA
ATOM     72  C   UNL A   1      39.137  27.678  28.330  1.00  0.00     0.031 C 
ATOM     73  C   UNL A   1      44.153  26.016  30.638  1.00  0.00     0.029 A 
ATOM     74  C   UNL A   1      43.753  26.678  29.461  1.00  0.00     0.049 A 
ATOM     75  H   UNL A   1      45.005  27.811  28.239  1.00  0.00     0.167 HD
ATOM     76  C   UNL A   1      41.474  27.415  28.327  1.00  0.00     0.074 A 
ATOM     77  C   UNL A   1      40.193  27.169  27.649  1.00  0.00     0.031 C 
ATOM     78  C   UNL A   1      42.630  26.609  28.474  1.00  0.00     0.037 A 
BRANCH  65  79
ATOM     79  C   UNL A   1      48.400  28.265  30.492  1.00  0.00     0.058 A 
ATOM     80  C   UNL A   1      49.453  28.353  29.554  1.00  0.00     0.135 A 
ATOM     81  C   UNL A   1      48.844  27.970  31.808  1.00  0.00     0.135 A 
ATOM     82  F   UNL A   1      49.217  28.635  28.268  1.00  0.00    -0.206 F 
ATOM     83  C   UNL A   1      50.803  28.192  29.871  1.00  0.00     0.059 A 
ATOM     84  C   UNL A   1      50.210  27.849  32.163  1.00  0.00     0.059 A 
ATOM     85  F   UNL A   1      47.981  27.770  32.813  1.00  0.00    -0.206 F 
ATOM     86  C   UNL A   1      51.186  27.973  31.182  1.00  0.00     0.060 A 
BRANCH  86  87
ATOM     87  S   UNL A   1      52.959  27.951  31.540  1.00  0.00     0.124 S 
ATOM     88  O   UNL A   1      53.139  26.628  32.129  1.00  0.00    -0.237 OA
ATOM     89  O   UNL A   1      53.537  28.134  30.212  1.00  0.00    -0.237 OA
ATOM     90  O   UNL A   1      53.140  29.074  32.455  1.00  0.00    -0.744 OA
ENDBRANCH  86  87
ENDBRANCH  65  79
BRANCH  66  91
ATOM     91  C   UNL A   1      38.605  30.274  31.230  1.00  0.00     0.058 A 
ATOM     92  C   UNL A   1      38.709  31.961  30.719  1.00  0.00     0.135 A 
ATOM     93  C   UNL A   1      37.156  29.916  32.109  1.00  0.00     0.135 A 
ATOM     94  F   UNL A   1      39.741  32.348  29.946  1.00  0.00    -0.206 F 
ATOM     95  C   UNL A   1      37.509  33.244  31.065  1.00  0.00     0.059 A 
ATOM     96  C   UNL A   1      35.809  31.429  32.425  1.00  0.00     0.059 A 
ATOM     97  F   UNL A   1      37.383  28.788  32.825  1.00  0.00    -0.206 F 
ATOM     98  C   UNL A   1      36.089  32.984  31.893  1.00  0.00     0.060 A 
BRANCH  98  99
ATOM     99  S   UNL A   1      35.021  34.171  32.827  1.00  0.00     0.124 S 
ATOM    100  O   UNL A   1      33.819  34.266  32.015  1.00  0.00    -0.237 OA
ATOM    101  O   UNL A   1      34.892  33.559  34.146  1.00  0.00    -0.237 OA
ATOM    102  O   UNL A   1      35.814  35.409  32.858  1.00  0.00    -0.744 OA
ENDBRANCH  98  99
ENDBRANCH  66  91
BRANCH  78 103
ATOM    103  C   UNL A   1      42.931  25.550  27.470  1.00  0.00     0.058 A 
ATOM    104  C   UNL A   1      43.598  25.821  26.292  1.00  0.00     0.135 A 
ATOM    105  C   UNL A   1      42.580  24.192  27.703  1.00  0.00     0.135 A 
ATOM    106  F   UNL A   1      43.664  27.065  25.796  1.00  0.00    -0.206 F 
ATOM    107  C   UNL A   1      44.197  24.804  25.586  1.00  0.00     0.059 A 
ATOM    108  C   UNL A   1      43.079  23.163  26.961  1.00  0.00     0.059 A 
ATOM    109  F   UNL A   1      41.727  23.768  28.642  1.00  0.00    -0.206 F 
ATOM    110  C   UNL A   1      43.951  23.481  25.951  1.00  0.00     0.060 A 
BRANCH 110 111
ATOM    111  S   UNL A   1      44.683  22.174  25.003  1.00  0.00     0.124 S 
ATOM    112  O   UNL A   1      46.104  22.454  25.184  1.00  0.00    -0.237 OA
ATOM    113  O   UNL A   1      44.163  20.999  25.692  1.00  0.00    -0.237 OA
ATOM    114  O   UNL A   1      44.168  22.398  23.656  1.00  0.00    -0.744 OA
ENDBRANCH 110 111
ENDBRANCH  78 103
ENDBRANCH  52  53
ENDBRANCH  45  47
ENDBRANCH  44  45
ENDBRANCH  43  44
ENDBRANCH  42  43
ENDBRANCH  41  42
ENDBRANCH  40  41
ENDBRANCH  39  40
ENDBRANCH  38  39
ENDBRANCH   1  38
TORSDOF 29
ENDMDL
