MODEL 1
REMARK VINA RESULT:      -9.9      0.000      0.000
REMARK SMILES O=C(CN(CC(=O)OCCOCCOCCOCCOC(=O)c1ccc(-c2c3nc(c(-c4c(F)cc(S(=O)(=O)[O-])cc4F)c4ccc([nH]4)c(-c4c(F)cc(S(=O)(=O)[O-])cc4F)c4nc(c(-c5c(F)cc(S(=O)(=O)[O-])cc5F)c5ccc2[nH]5)C=C4)C=C3)cc1)c1ccccc1)NCc1ccccc1
REMARK SMILES IDX 13 1 12 2 11 3 10 4 9 5 8 6 6 7 7 8 5 9 4 10 3 11 2 12 1 13
REMARK SMILES IDX 95 14 96 16 97 17 98 18 102 19 99 20 101 21 100 22 89 23
REMARK SMILES IDX 90 24 94 25 91 26 93 27 92 28 14 29 15 30 16 31 17 32 18 33
REMARK SMILES IDX 19 34 20 35 21 36 22 37 23 38 24 39 88 40 25 41 87 42 26 43
REMARK SMILES IDX 27 44 28 45 81 46 29 47 86 48 80 49 82 50 30 51 85 52 79 53
REMARK SMILES IDX 78 54 31 56 65 57 44 58 64 59 45 60 48 61 63 62 83 63 46 64
REMARK SMILES IDX 47 65 62 67 84 68 49 69 32 70 33 71 42 72 34 73 35 74 41 75
REMARK SMILES IDX 43 76 36 77 37 78 38 79 39 80 40 81 66 82 67 83 76 84 68 85
REMARK SMILES IDX 69 86 75 87 77 88 70 89 71 90 72 91 73 92 74 93 50 94 51 95
REMARK SMILES IDX 60 96 52 97 53 98 59 99 61 100 54 101 55 102 56 103 57 104
REMARK SMILES IDX 58 105
REMARK H PARENT 95 15 82 55 48 66
REMARK Flexibility Score: inf
ROOT
ATOM      1  C   UNL A   1      38.927  21.811  26.102  1.00  0.00     0.188 C 
ENDROOT
BRANCH   1   2
ATOM      2  C   UNL A   1      37.703  21.795  25.152  1.00  0.00     0.188 C 
BRANCH   2   3
ATOM      3  O   UNL A   1      36.455  21.715  25.806  1.00  0.00    -0.376 OA
BRANCH   3   4
ATOM      4  C   UNL A   1      35.842  22.904  26.266  1.00  0.00     0.202 C 
BRANCH   4   5
ATOM      5  C   UNL A   1      34.641  22.867  27.233  1.00  0.00     0.261 C 
BRANCH   5   6
ATOM      6  O   UNL A   1      33.553  21.962  26.928  1.00  0.00    -0.462 OA
BRANCH   6   7
ATOM      7  C   UNL A   1      32.351  22.481  26.585  1.00  0.00     0.325 C 
ATOM      8  O   UNL A   1      31.664  23.148  27.354  1.00  0.00    -0.250 OA
BRANCH   7   9
ATOM      9  C   UNL A   1      31.887  22.157  25.148  1.00  0.00     0.239 C 
BRANCH   9  10
ATOM     10  N   UNL A   1      32.861  21.610  24.152  1.00  0.00    -0.351 N 
BRANCH  10  11
ATOM     11  C   UNL A   1      33.800  22.613  23.560  1.00  0.00     0.217 C 
BRANCH  11  12
ATOM     12  C   UNL A   1      33.175  23.397  22.382  1.00  0.00     0.239 C 
ATOM     13  O   UNL A   1      33.369  23.085  21.209  1.00  0.00    -0.273 OA
ATOM     14  N   UNL A   1      32.425  24.491  22.757  1.00  0.00    -0.350 N 
ATOM     15  H   UNL A   1      32.148  24.567  23.699  1.00  0.00     0.163 HD
BRANCH  14  16
ATOM     16  C   UNL A   1      32.027  25.529  21.841  1.00  0.00     0.151 C 
BRANCH  16  17
ATOM     17  C   UNL A   1      31.566  26.768  22.556  1.00  0.00    -0.029 A 
ATOM     18  C   UNL A   1      30.345  26.791  23.244  1.00  0.00     0.005 A 
ATOM     19  C   UNL A   1      32.372  27.914  22.561  1.00  0.00     0.005 A 
ATOM     20  C   UNL A   1      29.935  27.946  23.911  1.00  0.00     0.000 A 
ATOM     21  C   UNL A   1      31.958  29.069  23.222  1.00  0.00     0.000 A 
ATOM     22  C   UNL A   1      30.739  29.085  23.896  1.00  0.00     0.000 A 
ENDBRANCH  16  17
ENDBRANCH  14  16
ENDBRANCH  11  12
ENDBRANCH  10  11
BRANCH  10  23
ATOM     23  C   UNL A   1      33.028  20.251  23.855  1.00  0.00     0.038 A 
ATOM     24  C   UNL A   1      33.945  19.430  24.527  1.00  0.00     0.026 A 
ATOM     25  C   UNL A   1      32.254  19.592  22.866  1.00  0.00     0.026 A 
ATOM     26  C   UNL A   1      34.066  18.054  24.251  1.00  0.00     0.002 A 
ATOM     27  C   UNL A   1      32.406  18.235  22.545  1.00  0.00     0.002 A 
ATOM     28  C   UNL A   1      33.307  17.458  23.251  1.00  0.00     0.000 A 
ENDBRANCH  10  23
ENDBRANCH   9  10
ENDBRANCH   7   9
ENDBRANCH   6   7
ENDBRANCH   5   6
ENDBRANCH   4   5
ENDBRANCH   3   4
ENDBRANCH   2   3
ENDBRANCH   1   2
BRANCH   1  29
ATOM     29  O   UNL A   1      39.885  20.764  26.201  1.00  0.00    -0.377 OA
BRANCH  29  30
ATOM     30  C   UNL A   1      40.852  20.827  27.224  1.00  0.00     0.188 C 
BRANCH  30  31
ATOM     31  C   UNL A   1      42.254  21.242  26.752  1.00  0.00     0.188 C 
BRANCH  31  32
ATOM     32  O   UNL A   1      42.309  21.643  25.393  1.00  0.00    -0.376 OA
BRANCH  32  33
ATOM     33  C   UNL A   1      43.046  22.805  25.042  1.00  0.00     0.202 C 
BRANCH  33  34
ATOM     34  C   UNL A   1      44.211  23.296  25.923  1.00  0.00     0.261 C 
BRANCH  34  35
ATOM     35  O   UNL A   1      43.932  24.364  26.828  1.00  0.00    -0.460 OA
BRANCH  35  36
ATOM     36  C   UNL A   1      43.675  25.576  26.291  1.00  0.00     0.338 C 
ATOM     37  O   UNL A   1      43.739  25.890  25.125  1.00  0.00    -0.246 OA
BRANCH  36  38
ATOM     38  C   UNL A   1      43.071  26.383  27.371  1.00  0.00     0.060 A 
ATOM     39  C   UNL A   1      43.442  27.729  27.470  1.00  0.00     0.016 A 
ATOM     40  C   UNL A   1      42.107  25.842  28.226  1.00  0.00     0.016 A 
ATOM     41  C   UNL A   1      42.839  28.542  28.421  1.00  0.00     0.010 A 
ATOM     42  C   UNL A   1      41.533  26.648  29.211  1.00  0.00     0.010 A 
ATOM     43  C   UNL A   1      41.915  27.995  29.320  1.00  0.00    -0.014 A 
BRANCH  43  44
ATOM     44  C   UNL A   1      41.525  28.811  30.488  1.00  0.00     0.031 A 
ATOM     45  C   UNL A   1      42.363  28.704  31.729  1.00  0.00     0.074 A 
ATOM     46  C   UNL A   1      40.515  29.692  30.404  1.00  0.00     0.049 A 
ATOM     47  N   UNL A   1      42.292  29.387  32.839  1.00  0.00    -0.248 NA
ATOM     48  C   UNL A   1      43.435  27.694  31.708  1.00  0.00     0.031 C 
ATOM     49  C   UNL A   1      39.666  29.892  29.230  1.00  0.00     0.029 A 
ATOM     50  N   UNL A   1      40.043  30.593  31.322  1.00  0.00    -0.354 N 
ATOM     51  C   UNL A   1      43.309  28.894  33.647  1.00  0.00     0.074 A 
ATOM     52  C   UNL A   1      43.962  27.833  32.914  1.00  0.00     0.031 C 
ATOM     53  C   UNL A   1      38.770  30.857  29.503  1.00  0.00     0.029 A 
ATOM     54  C   UNL A   1      38.971  31.324  30.874  1.00  0.00     0.049 A 
ATOM     55  H   UNL A   1      40.434  30.703  32.218  1.00  0.00     0.167 HD
ATOM     56  C   UNL A   1      43.668  29.300  34.887  1.00  0.00     0.037 A 
ATOM     57  C   UNL A   1      38.232  32.255  31.509  1.00  0.00     0.037 A 
ATOM     58  C   UNL A   1      42.990  30.346  35.608  1.00  0.00     0.049 A 
ATOM     59  C   UNL A   1      38.616  32.653  32.911  1.00  0.00     0.074 A 
ATOM     60  C   UNL A   1      43.275  30.849  36.865  1.00  0.00     0.029 A 
ATOM     61  N   UNL A   1      41.879  31.036  35.143  1.00  0.00    -0.354 N 
ATOM     62  N   UNL A   1      39.605  32.211  33.654  1.00  0.00    -0.248 NA
ATOM     63  C   UNL A   1      37.795  33.686  33.554  1.00  0.00     0.031 C 
ATOM     64  C   UNL A   1      42.296  31.795  37.186  1.00  0.00     0.029 A 
ATOM     65  C   UNL A   1      41.442  31.935  36.102  1.00  0.00     0.049 A 
ATOM     66  H   UNL A   1      41.462  30.905  34.261  1.00  0.00     0.167 HD
ATOM     67  C   UNL A   1      39.536  32.924  34.846  1.00  0.00     0.074 A 
ATOM     68  C   UNL A   1      38.424  33.845  34.711  1.00  0.00     0.031 C 
ATOM     69  C   UNL A   1      40.317  32.829  35.953  1.00  0.00     0.037 A 
BRANCH  56  70
ATOM     70  C   UNL A   1      44.804  28.571  35.553  1.00  0.00     0.058 A 
ATOM     71  C   UNL A   1      46.128  29.033  35.490  1.00  0.00     0.135 A 
ATOM     72  C   UNL A   1      44.559  27.389  36.269  1.00  0.00     0.135 A 
ATOM     73  F   UNL A   1      46.426  30.146  34.798  1.00  0.00    -0.206 F 
ATOM     74  C   UNL A   1      47.173  28.333  36.087  1.00  0.00     0.059 A 
ATOM     75  C   UNL A   1      45.583  26.689  36.900  1.00  0.00     0.059 A 
ATOM     76  F   UNL A   1      43.314  26.895  36.353  1.00  0.00    -0.206 F 
ATOM     77  C   UNL A   1      46.889  27.162  36.790  1.00  0.00     0.060 A 
BRANCH  77  78
ATOM     78  S   UNL A   1      48.254  26.265  37.560  1.00  0.00     0.124 S 
ATOM     79  O   UNL A   1      49.379  27.154  37.287  1.00  0.00    -0.237 OA
ATOM     80  O   UNL A   1      47.830  26.189  38.954  1.00  0.00    -0.237 OA
ATOM     81  O   UNL A   1      48.273  24.993  36.843  1.00  0.00    -0.744 OA
ENDBRANCH  77  78
ENDBRANCH  56  70
BRANCH  57  82
ATOM     82  C   UNL A   1      37.057  32.861  30.824  1.00  0.00     0.058 A 
ATOM     83  C   UNL A   1      35.744  32.542  31.195  1.00  0.00     0.135 A 
ATOM     84  C   UNL A   1      37.235  33.796  29.791  1.00  0.00     0.135 A 
ATOM     85  F   UNL A   1      35.518  31.645  32.167  1.00  0.00    -0.206 F 
ATOM     86  C   UNL A   1      34.647  33.124  30.565  1.00  0.00     0.059 A 
ATOM     87  C   UNL A   1      36.156  34.413  29.166  1.00  0.00     0.059 A 
ATOM     88  F   UNL A   1      38.472  34.142  29.402  1.00  0.00    -0.206 F 
ATOM     89  C   UNL A   1      34.864  34.067  29.558  1.00  0.00     0.060 A 
BRANCH  89  90
ATOM     90  S   UNL A   1      33.436  34.873  28.801  1.00  0.00     0.124 S 
ATOM     91  O   UNL A   1      33.201  34.029  27.636  1.00  0.00    -0.237 OA
ATOM     92  O   UNL A   1      32.440  34.787  29.865  1.00  0.00    -0.237 OA
ATOM     93  O   UNL A   1      33.921  36.221  28.517  1.00  0.00    -0.744 OA
ENDBRANCH  89  90
ENDBRANCH  57  82
BRANCH  69  94
ATOM     94  C   UNL A   1      40.003  33.761  37.094  1.00  0.00     0.058 A 
ATOM     95  C   UNL A   1      39.207  33.362  38.180  1.00  0.00     0.135 A 
ATOM     96  C   UNL A   1      40.517  35.069  37.107  1.00  0.00     0.135 A 
ATOM     97  F   UNL A   1      38.690  32.123  38.221  1.00  0.00    -0.206 F 
ATOM     98  C   UNL A   1      38.884  34.242  39.208  1.00  0.00     0.059 A 
ATOM     99  C   UNL A   1      40.239  35.953  38.144  1.00  0.00     0.059 A 
ATOM    100  F   UNL A   1      41.301  35.499  36.105  1.00  0.00    -0.206 F 
ATOM    101  C   UNL A   1      39.401  35.539  39.177  1.00  0.00     0.060 A 
BRANCH 101 102
ATOM    102  S   UNL A   1      38.959  36.678  40.505  1.00  0.00     0.124 S 
ATOM    103  O   UNL A   1      37.922  35.927  41.202  1.00  0.00    -0.237 OA
ATOM    104  O   UNL A   1      40.222  36.829  41.220  1.00  0.00    -0.237 OA
ATOM    105  O   UNL A   1      38.502  37.868  39.794  1.00  0.00    -0.744 OA
ENDBRANCH 101 102
ENDBRANCH  69  94
ENDBRANCH  43  44
ENDBRANCH  36  38
ENDBRANCH  35  36
ENDBRANCH  34  35
ENDBRANCH  33  34
ENDBRANCH  32  33
ENDBRANCH  31  32
ENDBRANCH  30  31
ENDBRANCH  29  30
ENDBRANCH   1  29
TORSDOF 29
ENDMDL
MODEL 2
REMARK VINA RESULT:      -8.7      1.393      2.108
REMARK SMILES O=C(CN(CC(=O)OCCOCCOCCOCCOC(=O)c1ccc(-c2c3nc(c(-c4c(F)cc(S(=O)(=O)[O-])cc4F)c4ccc([nH]4)c(-c4c(F)cc(S(=O)(=O)[O-])cc4F)c4nc(c(-c5c(F)cc(S(=O)(=O)[O-])cc5F)c5ccc2[nH]5)C=C4)C=C3)cc1)c1ccccc1)NCc1ccccc1
REMARK SMILES IDX 13 1 12 2 11 3 10 4 9 5 8 6 6 7 7 8 5 9 4 10 3 11 2 12 1 13
REMARK SMILES IDX 95 14 96 16 97 17 98 18 102 19 99 20 101 21 100 22 89 23
REMARK SMILES IDX 90 24 94 25 91 26 93 27 92 28 14 29 15 30 16 31 17 32 18 33
REMARK SMILES IDX 19 34 20 35 21 36 22 37 23 38 24 39 88 40 25 41 87 42 26 43
REMARK SMILES IDX 27 44 28 45 81 46 29 47 86 48 80 49 82 50 30 51 85 52 79 53
REMARK SMILES IDX 78 54 31 56 65 57 44 58 64 59 45 60 48 61 63 62 83 63 46 64
REMARK SMILES IDX 47 65 62 67 84 68 49 69 32 70 33 71 42 72 34 73 35 74 41 75
REMARK SMILES IDX 43 76 36 77 37 78 38 79 39 80 40 81 66 82 67 83 76 84 68 85
REMARK SMILES IDX 69 86 75 87 77 88 70 89 71 90 72 91 73 92 74 93 50 94 51 95
REMARK SMILES IDX 60 96 52 97 53 98 59 99 61 100 54 101 55 102 56 103 57 104
REMARK SMILES IDX 58 105
REMARK H PARENT 95 15 82 55 48 66
REMARK Flexibility Score: inf
ROOT
ATOM      1  C   UNL A   1      38.366  20.064  24.707  1.00  0.00     0.188 C 
ENDROOT
BRANCH   1   2
ATOM      2  C   UNL A   1      37.283  20.541  25.706  1.00  0.00     0.188 C 
BRANCH   2   3
ATOM      3  O   UNL A   1      36.726  21.804  25.410  1.00  0.00    -0.376 OA
BRANCH   3   4
ATOM      4  C   UNL A   1      35.346  22.017  25.638  1.00  0.00     0.202 C 
BRANCH   4   5
ATOM      5  C   UNL A   1      34.746  21.952  27.057  1.00  0.00     0.261 C 
BRANCH   5   6
ATOM      6  O   UNL A   1      33.343  22.271  27.214  1.00  0.00    -0.462 OA
BRANCH   6   7
ATOM      7  C   UNL A   1      32.804  23.239  26.438  1.00  0.00     0.325 C 
ATOM      8  O   UNL A   1      33.153  24.415  26.493  1.00  0.00    -0.250 OA
BRANCH   7   9
ATOM      9  C   UNL A   1      31.693  22.761  25.477  1.00  0.00     0.239 C 
BRANCH   9  10
ATOM     10  N   UNL A   1      32.044  22.292  24.100  1.00  0.00    -0.351 N 
BRANCH  10  11
ATOM     11  C   UNL A   1      32.399  23.372  23.128  1.00  0.00     0.217 C 
BRANCH  11  12
ATOM     12  C   UNL A   1      31.530  24.640  23.299  1.00  0.00     0.239 C 
ATOM     13  O   UNL A   1      30.310  24.624  23.153  1.00  0.00    -0.273 OA
ATOM     14  N   UNL A   1      32.241  25.786  23.581  1.00  0.00    -0.350 N 
ATOM     15  H   UNL A   1      33.176  25.695  23.878  1.00  0.00     0.163 HD
BRANCH  14  16
ATOM     16  C   UNL A   1      31.687  27.111  23.463  1.00  0.00     0.151 C 
BRANCH  16  17
ATOM     17  C   UNL A   1      31.744  27.865  24.762  1.00  0.00    -0.029 A 
ATOM     18  C   UNL A   1      31.537  27.212  25.984  1.00  0.00     0.005 A 
ATOM     19  C   UNL A   1      32.031  29.236  24.763  1.00  0.00     0.005 A 
ATOM     20  C   UNL A   1      31.602  27.924  27.183  1.00  0.00     0.000 A 
ATOM     21  C   UNL A   1      32.090  29.947  25.960  1.00  0.00     0.000 A 
ATOM     22  C   UNL A   1      31.874  29.292  27.169  1.00  0.00     0.000 A 
ENDBRANCH  16  17
ENDBRANCH  14  16
ENDBRANCH  11  12
ENDBRANCH  10  11
BRANCH  10  23
ATOM     23  C   UNL A   1      32.185  20.950  23.722  1.00  0.00     0.038 A 
ATOM     24  C   UNL A   1      32.059  20.513  22.394  1.00  0.00     0.026 A 
ATOM     25  C   UNL A   1      32.498  19.930  24.655  1.00  0.00     0.026 A 
ATOM     26  C   UNL A   1      32.253  19.168  22.023  1.00  0.00     0.002 A 
ATOM     27  C   UNL A   1      32.639  18.578  24.303  1.00  0.00     0.002 A 
ATOM     28  C   UNL A   1      32.528  18.198  22.978  1.00  0.00     0.000 A 
ENDBRANCH  10  23
ENDBRANCH   9  10
ENDBRANCH   7   9
ENDBRANCH   6   7
ENDBRANCH   5   6
ENDBRANCH   4   5
ENDBRANCH   3   4
ENDBRANCH   2   3
ENDBRANCH   1   2
BRANCH   1  29
ATOM     29  O   UNL A   1      39.570  19.402  25.075  1.00  0.00    -0.377 OA
BRANCH  29  30
ATOM     30  C   UNL A   1      40.037  19.533  26.397  1.00  0.00     0.188 C 
BRANCH  30  31
ATOM     31  C   UNL A   1      40.631  20.910  26.730  1.00  0.00     0.188 C 
BRANCH  31  32
ATOM     32  O   UNL A   1      41.864  21.178  26.083  1.00  0.00    -0.376 OA
BRANCH  32  33
ATOM     33  C   UNL A   1      42.146  22.499  25.645  1.00  0.00     0.202 C 
BRANCH  33  34
ATOM     34  C   UNL A   1      43.188  23.368  26.376  1.00  0.00     0.261 C 
BRANCH  34  35
ATOM     35  O   UNL A   1      42.834  24.727  26.628  1.00  0.00    -0.460 OA
BRANCH  35  36
ATOM     36  C   UNL A   1      43.836  25.633  26.633  1.00  0.00     0.338 C 
ATOM     37  O   UNL A   1      44.677  25.801  25.782  1.00  0.00    -0.246 OA
BRANCH  36  38
ATOM     38  C   UNL A   1      43.566  26.536  27.772  1.00  0.00     0.060 A 
ATOM     39  C   UNL A   1      42.732  26.070  28.795  1.00  0.00     0.016 A 
ATOM     40  C   UNL A   1      44.176  27.790  27.861  1.00  0.00     0.016 A 
ATOM     41  C   UNL A   1      42.515  26.857  29.919  1.00  0.00     0.010 A 
ATOM     42  C   UNL A   1      43.923  28.599  28.970  1.00  0.00     0.010 A 
ATOM     43  C   UNL A   1      43.075  28.138  29.991  1.00  0.00    -0.014 A 
BRANCH  43  44
ATOM     44  C   UNL A   1      42.587  29.044  31.050  1.00  0.00     0.031 A 
ATOM     45  C   UNL A   1      43.410  29.168  32.300  1.00  0.00     0.074 A 
ATOM     46  C   UNL A   1      41.497  29.805  30.856  1.00  0.00     0.049 A 
ATOM     47  N   UNL A   1      43.253  29.967  33.320  1.00  0.00    -0.248 NA
ATOM     48  C   UNL A   1      44.575  28.274  32.405  1.00  0.00     0.031 C 
ATOM     49  C   UNL A   1      40.652  29.779  29.662  1.00  0.00     0.029 A 
ATOM     50  N   UNL A   1      40.923  30.756  31.658  1.00  0.00    -0.354 N 
ATOM     51  C   UNL A   1      44.300  29.677  34.186  1.00  0.00     0.074 A 
ATOM     52  C   UNL A   1      45.066  28.606  33.589  1.00  0.00     0.031 C 
ATOM     53  C   UNL A   1      39.662  30.676  29.814  1.00  0.00     0.029 A 
ATOM     54  C   UNL A   1      39.793  31.320  31.120  1.00  0.00     0.049 A 
ATOM     55  H   UNL A   1      41.286  31.010  32.537  1.00  0.00     0.167 HD
ATOM     56  C   UNL A   1      44.596  30.260  35.371  1.00  0.00     0.037 A 
ATOM     57  C   UNL A   1      38.955  32.241  31.635  1.00  0.00     0.037 A 
ATOM     58  C   UNL A   1      43.807  31.311  35.959  1.00  0.00     0.049 A 
ATOM     59  C   UNL A   1      39.275  32.838  32.981  1.00  0.00     0.074 A 
ATOM     60  C   UNL A   1      44.019  31.986  37.148  1.00  0.00     0.029 A 
ATOM     61  N   UNL A   1      42.641  31.828  35.409  1.00  0.00    -0.354 N 
ATOM     62  N   UNL A   1      40.289  32.588  33.777  1.00  0.00    -0.248 NA
ATOM     63  C   UNL A   1      38.346  33.854  33.492  1.00  0.00     0.031 C 
ATOM     64  C   UNL A   1      42.947  32.861  37.349  1.00  0.00     0.029 A 
ATOM     65  C   UNL A   1      42.102  32.786  36.250  1.00  0.00     0.049 A 
ATOM     66  H   UNL A   1      42.254  31.553  34.546  1.00  0.00     0.167 HD
ATOM     67  C   UNL A   1      40.130  33.426  34.876  1.00  0.00     0.074 A 
ATOM     68  C   UNL A   1      38.936  34.210  34.625  1.00  0.00     0.031 C 
ATOM     69  C   UNL A   1      40.898  33.541  35.990  1.00  0.00     0.037 A 
BRANCH  56  70
ATOM     70  C   UNL A   1      45.786  29.731  36.125  1.00  0.00     0.058 A 
ATOM     71  C   UNL A   1      45.673  28.703  37.076  1.00  0.00     0.135 A 
ATOM     72  C   UNL A   1      47.063  30.264  35.889  1.00  0.00     0.135 A 
ATOM     73  F   UNL A   1      44.472  28.172  37.361  1.00  0.00    -0.206 F 
ATOM     74  C   UNL A   1      46.779  28.244  37.785  1.00  0.00     0.059 A 
ATOM     75  C   UNL A   1      48.187  29.799  36.564  1.00  0.00     0.059 A 
ATOM     76  F   UNL A   1      47.228  31.255  35.000  1.00  0.00    -0.206 F 
ATOM     77  C   UNL A   1      48.032  28.798  37.522  1.00  0.00     0.060 A 
BRANCH  77  78
ATOM     78  S   UNL A   1      49.457  28.191  38.450  1.00  0.00     0.124 S 
ATOM     79  O   UNL A   1      49.145  28.652  39.799  1.00  0.00    -0.237 OA
ATOM     80  O   UNL A   1      49.376  26.750  38.237  1.00  0.00    -0.237 OA
ATOM     81  O   UNL A   1      50.589  28.854  37.808  1.00  0.00    -0.744 OA
ENDBRANCH  77  78
ENDBRANCH  56  70
BRANCH  57  82
ATOM     82  C   UNL A   1      37.739  32.642  30.877  1.00  0.00     0.058 A 
ATOM     83  C   UNL A   1      36.469  32.155  31.211  1.00  0.00     0.135 A 
ATOM     84  C   UNL A   1      37.829  33.548  29.807  1.00  0.00     0.135 A 
ATOM     85  F   UNL A   1      36.329  31.277  32.216  1.00  0.00    -0.206 F 
ATOM     86  C   UNL A   1      35.330  32.546  30.512  1.00  0.00     0.059 A 
ATOM     87  C   UNL A   1      36.704  33.977  29.111  1.00  0.00     0.059 A 
ATOM     88  F   UNL A   1      39.021  34.051  29.449  1.00  0.00    -0.206 F 
ATOM     89  C   UNL A   1      35.457  33.466  29.468  1.00  0.00     0.060 A 
BRANCH  89  90
ATOM     90  S   UNL A   1      33.966  34.026  28.618  1.00  0.00     0.124 S 
ATOM     91  O   UNL A   1      33.581  32.832  27.876  1.00  0.00    -0.237 OA
ATOM     92  O   UNL A   1      33.099  34.391  29.736  1.00  0.00    -0.237 OA
ATOM     93  O   UNL A   1      34.438  35.147  27.812  1.00  0.00    -0.744 OA
ENDBRANCH  89  90
ENDBRANCH  57  82
BRANCH  69  94
ATOM     94  C   UNL A   1      40.475  34.566  37.010  1.00  0.00     0.058 A 
ATOM     95  C   UNL A   1      41.014  35.863  37.024  1.00  0.00     0.135 A 
ATOM     96  C   UNL A   1      39.510  34.248  37.980  1.00  0.00     0.135 A 
ATOM     97  F   UNL A   1      41.939  36.221  36.121  1.00  0.00    -0.206 F 
ATOM     98  C   UNL A   1      40.651  36.790  37.997  1.00  0.00     0.059 A 
ATOM     99  C   UNL A   1      39.104  35.171  38.937  1.00  0.00     0.059 A 
ATOM    100  F   UNL A   1      38.946  33.029  38.001  1.00  0.00    -0.206 F 
ATOM    101  C   UNL A   1      39.699  36.431  38.953  1.00  0.00     0.060 A 
BRANCH 101 102
ATOM    102  S   UNL A   1      39.252  37.635  40.222  1.00  0.00     0.124 S 
ATOM    103  O   UNL A   1      40.514  38.341  40.413  1.00  0.00    -0.237 OA
ATOM    104  O   UNL A   1      38.192  38.396  39.571  1.00  0.00    -0.237 OA
ATOM    105  O   UNL A   1      38.822  36.803  41.342  1.00  0.00    -0.744 OA
ENDBRANCH 101 102
ENDBRANCH  69  94
ENDBRANCH  43  44
ENDBRANCH  36  38
ENDBRANCH  35  36
ENDBRANCH  34  35
ENDBRANCH  33  34
ENDBRANCH  32  33
ENDBRANCH  31  32
ENDBRANCH  30  31
ENDBRANCH  29  30
ENDBRANCH   1  29
TORSDOF 29
ENDMDL
MODEL 3
REMARK VINA RESULT:      -8.5      1.592      8.209
REMARK SMILES O=C(CN(CC(=O)OCCOCCOCCOCCOC(=O)c1ccc(-c2c3nc(c(-c4c(F)cc(S(=O)(=O)[O-])cc4F)c4ccc([nH]4)c(-c4c(F)cc(S(=O)(=O)[O-])cc4F)c4nc(c(-c5c(F)cc(S(=O)(=O)[O-])cc5F)c5ccc2[nH]5)C=C4)C=C3)cc1)c1ccccc1)NCc1ccccc1
REMARK SMILES IDX 13 1 12 2 11 3 10 4 9 5 8 6 6 7 7 8 5 9 4 10 3 11 2 12 1 13
REMARK SMILES IDX 95 14 96 16 97 17 98 18 102 19 99 20 101 21 100 22 89 23
REMARK SMILES IDX 90 24 94 25 91 26 93 27 92 28 14 29 15 30 16 31 17 32 18 33
REMARK SMILES IDX 19 34 20 35 21 36 22 37 23 38 24 39 88 40 25 41 87 42 26 43
REMARK SMILES IDX 27 44 28 45 81 46 29 47 86 48 80 49 82 50 30 51 85 52 79 53
REMARK SMILES IDX 78 54 31 56 65 57 44 58 64 59 45 60 48 61 63 62 83 63 46 64
REMARK SMILES IDX 47 65 62 67 84 68 49 69 32 70 33 71 42 72 34 73 35 74 41 75
REMARK SMILES IDX 43 76 36 77 37 78 38 79 39 80 40 81 66 82 67 83 76 84 68 85
REMARK SMILES IDX 69 86 75 87 77 88 70 89 71 90 72 91 73 92 74 93 50 94 51 95
REMARK SMILES IDX 60 96 52 97 53 98 59 99 61 100 54 101 55 102 56 103 57 104
REMARK SMILES IDX 58 105
REMARK H PARENT 95 15 82 55 48 66
REMARK Flexibility Score: inf
ROOT
ATOM      1  C   UNL A   1      37.677  20.534  24.613  1.00  0.00     0.188 C 
ENDROOT
BRANCH   1   2
ATOM      2  C   UNL A   1      36.370  20.147  25.348  1.00  0.00     0.188 C 
BRANCH   2   3
ATOM      3  O   UNL A   1      35.221  20.122  24.528  1.00  0.00    -0.376 OA
BRANCH   3   4
ATOM      4  C   UNL A   1      33.991  19.695  25.081  1.00  0.00     0.202 C 
BRANCH   4   5
ATOM      5  C   UNL A   1      33.035  20.685  25.777  1.00  0.00     0.261 C 
BRANCH   5   6
ATOM      6  O   UNL A   1      31.710  20.854  25.219  1.00  0.00    -0.462 OA
BRANCH   6   7
ATOM      7  C   UNL A   1      31.136  22.078  25.263  1.00  0.00     0.325 C 
ATOM      8  O   UNL A   1      30.770  22.610  26.308  1.00  0.00    -0.250 OA
BRANCH   7   9
ATOM      9  C   UNL A   1      30.951  22.762  23.891  1.00  0.00     0.239 C 
BRANCH   9  10
ATOM     10  N   UNL A   1      31.899  23.837  23.456  1.00  0.00    -0.351 N 
BRANCH  10  11
ATOM     11  C   UNL A   1      31.268  24.998  22.754  1.00  0.00     0.217 C 
BRANCH  11  12
ATOM     12  C   UNL A   1      30.841  26.123  23.725  1.00  0.00     0.239 C 
ATOM     13  O   UNL A   1      30.007  25.946  24.610  1.00  0.00    -0.273 OA
ATOM     14  N   UNL A   1      31.438  27.342  23.486  1.00  0.00    -0.350 N 
ATOM     15  H   UNL A   1      32.232  27.368  22.903  1.00  0.00     0.163 HD
BRANCH  14  16
ATOM     16  C   UNL A   1      30.960  28.581  24.045  1.00  0.00     0.151 C 
BRANCH  16  17
ATOM     17  C   UNL A   1      31.757  29.004  25.246  1.00  0.00    -0.029 A 
ATOM     18  C   UNL A   1      31.660  30.306  25.754  1.00  0.00     0.005 A 
ATOM     19  C   UNL A   1      32.594  28.083  25.891  1.00  0.00     0.005 A 
ATOM     20  C   UNL A   1      32.399  30.682  26.877  1.00  0.00     0.000 A 
ATOM     21  C   UNL A   1      33.337  28.461  27.008  1.00  0.00     0.000 A 
ATOM     22  C   UNL A   1      33.241  29.760  27.499  1.00  0.00     0.000 A 
ENDBRANCH  16  17
ENDBRANCH  14  16
ENDBRANCH  11  12
ENDBRANCH  10  11
BRANCH  10  23
ATOM     23  C   UNL A   1      33.263  23.881  23.774  1.00  0.00     0.038 A 
ATOM     24  C   UNL A   1      33.765  24.572  24.887  1.00  0.00     0.026 A 
ATOM     25  C   UNL A   1      34.241  23.200  23.007  1.00  0.00     0.026 A 
ATOM     26  C   UNL A   1      35.134  24.566  25.221  1.00  0.00     0.002 A 
ATOM     27  C   UNL A   1      35.613  23.234  23.299  1.00  0.00     0.002 A 
ATOM     28  C   UNL A   1      36.060  23.910  24.420  1.00  0.00     0.000 A 
ENDBRANCH  10  23
ENDBRANCH   9  10
ENDBRANCH   7   9
ENDBRANCH   6   7
ENDBRANCH   5   6
ENDBRANCH   4   5
ENDBRANCH   3   4
ENDBRANCH   2   3
ENDBRANCH   1   2
BRANCH   1  29
ATOM     29  O   UNL A   1      38.693  21.368  25.157  1.00  0.00    -0.377 OA
BRANCH  29  30
ATOM     30  C   UNL A   1      38.396  22.141  26.296  1.00  0.00     0.188 C 
BRANCH  30  31
ATOM     31  C   UNL A   1      39.480  23.162  26.673  1.00  0.00     0.188 C 
BRANCH  31  32
ATOM     32  O   UNL A   1      39.265  24.456  26.134  1.00  0.00    -0.376 OA
BRANCH  32  33
ATOM     33  C   UNL A   1      40.279  25.442  26.269  1.00  0.00     0.202 C 
BRANCH  33  34
ATOM     34  C   UNL A   1      41.769  25.051  26.232  1.00  0.00     0.261 C 
BRANCH  34  35
ATOM     35  O   UNL A   1      42.697  26.073  25.871  1.00  0.00    -0.460 OA
BRANCH  35  36
ATOM     36  C   UNL A   1      43.767  26.246  26.677  1.00  0.00     0.338 C 
ATOM     37  O   UNL A   1      44.921  25.984  26.431  1.00  0.00    -0.246 OA
BRANCH  36  38
ATOM     38  C   UNL A   1      43.287  27.038  27.830  1.00  0.00     0.060 A 
ATOM     39  C   UNL A   1      43.550  28.412  27.836  1.00  0.00     0.016 A 
ATOM     40  C   UNL A   1      42.535  26.448  28.849  1.00  0.00     0.016 A 
ATOM     41  C   UNL A   1      43.049  29.205  28.861  1.00  0.00     0.010 A 
ATOM     42  C   UNL A   1      42.069  27.237  29.903  1.00  0.00     0.010 A 
ATOM     43  C   UNL A   1      42.344  28.615  29.917  1.00  0.00    -0.014 A 
BRANCH  43  44
ATOM     44  C   UNL A   1      42.089  29.436  31.118  1.00  0.00     0.031 A 
ATOM     45  C   UNL A   1      40.873  30.317  31.118  1.00  0.00     0.074 A 
ATOM     46  C   UNL A   1      42.863  29.318  32.209  1.00  0.00     0.049 A 
ATOM     47  N   UNL A   1      40.378  31.046  32.081  1.00  0.00    -0.248 NA
ATOM     48  C   UNL A   1      40.109  30.375  29.860  1.00  0.00     0.031 C 
ATOM     49  C   UNL A   1      44.044  28.462  32.316  1.00  0.00     0.029 A 
ATOM     50  N   UNL A   1      42.761  29.912  33.439  1.00  0.00    -0.354 N 
ATOM     51  C   UNL A   1      39.242  31.646  31.549  1.00  0.00     0.074 A 
ATOM     52  C   UNL A   1      39.140  31.222  30.170  1.00  0.00     0.031 C 
ATOM     53  C   UNL A   1      44.562  28.591  33.551  1.00  0.00     0.029 A 
ATOM     54  C   UNL A   1      43.761  29.552  34.308  1.00  0.00     0.049 A 
ATOM     55  H   UNL A   1      42.041  30.540  33.676  1.00  0.00     0.167 HD
ATOM     56  C   UNL A   1      38.362  32.470  32.163  1.00  0.00     0.037 A 
ATOM     57  C   UNL A   1      44.004  29.965  35.568  1.00  0.00     0.037 A 
ATOM     58  C   UNL A   1      38.494  32.896  33.532  1.00  0.00     0.049 A 
ATOM     59  C   UNL A   1      43.039  30.925  36.214  1.00  0.00     0.074 A 
ATOM     60  C   UNL A   1      37.655  33.718  34.263  1.00  0.00     0.029 A 
ATOM     61  N   UNL A   1      39.544  32.548  34.372  1.00  0.00    -0.354 N 
ATOM     62  N   UNL A   1      41.945  31.457  35.719  1.00  0.00    -0.248 NA
ATOM     63  C   UNL A   1      43.333  31.331  37.594  1.00  0.00     0.031 C 
ATOM     64  C   UNL A   1      38.233  33.921  35.520  1.00  0.00     0.029 A 
ATOM     65  C   UNL A   1      39.395  33.167  35.601  1.00  0.00     0.049 A 
ATOM     66  H   UNL A   1      40.286  31.949  34.128  1.00  0.00     0.167 HD
ATOM     67  C   UNL A   1      41.410  32.246  36.731  1.00  0.00     0.074 A 
ATOM     68  C   UNL A   1      42.288  32.097  37.875  1.00  0.00     0.031 C 
ATOM     69  C   UNL A   1      40.295  33.022  36.721  1.00  0.00     0.037 A 
BRANCH  56  70
ATOM     70  C   UNL A   1      37.220  33.001  31.339  1.00  0.00     0.058 A 
ATOM     71  C   UNL A   1      35.922  32.473  31.431  1.00  0.00     0.135 A 
ATOM     72  C   UNL A   1      37.431  34.060  30.443  1.00  0.00     0.135 A 
ATOM     73  F   UNL A   1      35.666  31.442  32.254  1.00  0.00    -0.206 F 
ATOM     74  C   UNL A   1      34.882  32.956  30.642  1.00  0.00     0.059 A 
ATOM     75  C   UNL A   1      36.399  34.580  29.666  1.00  0.00     0.059 A 
ATOM     76  F   UNL A   1      38.653  34.596  30.306  1.00  0.00    -0.206 F 
ATOM     77  C   UNL A   1      35.131  34.010  29.763  1.00  0.00     0.060 A 
BRANCH  77  78
ATOM     78  S   UNL A   1      33.772  34.627  28.747  1.00  0.00     0.124 S 
ATOM     79  O   UNL A   1      33.572  33.516  27.821  1.00  0.00    -0.237 OA
ATOM     80  O   UNL A   1      32.715  34.830  29.732  1.00  0.00    -0.237 OA
ATOM     81  O   UNL A   1      34.316  35.846  28.154  1.00  0.00    -0.744 OA
ENDBRANCH  77  78
ENDBRANCH  56  70
BRANCH  57  82
ATOM     82  C   UNL A   1      45.212  29.476  36.287  1.00  0.00     0.058 A 
ATOM     83  C   UNL A   1      45.170  28.343  37.111  1.00  0.00     0.135 A 
ATOM     84  C   UNL A   1      46.445  30.131  36.141  1.00  0.00     0.135 A 
ATOM     85  F   UNL A   1      44.014  27.688  37.295  1.00  0.00    -0.206 F 
ATOM     86  C   UNL A   1      46.305  27.876  37.768  1.00  0.00     0.059 A 
ATOM     87  C   UNL A   1      47.600  29.668  36.764  1.00  0.00     0.059 A 
ATOM     88  F   UNL A   1      46.543  31.217  35.358  1.00  0.00    -0.206 F 
ATOM     89  C   UNL A   1      47.519  28.542  37.579  1.00  0.00     0.060 A 
BRANCH  89  90
ATOM     90  S   UNL A   1      49.002  27.884  38.374  1.00  0.00     0.124 S 
ATOM     91  O   UNL A   1      48.508  26.631  38.932  1.00  0.00    -0.237 OA
ATOM     92  O   UNL A   1      49.922  27.762  37.246  1.00  0.00    -0.237 OA
ATOM     93  O   UNL A   1      49.349  28.915  39.346  1.00  0.00    -0.744 OA
ENDBRANCH  89  90
ENDBRANCH  57  82
BRANCH  69  94
ATOM     94  C   UNL A   1      39.958  33.753  37.994  1.00  0.00     0.058 A 
ATOM     95  C   UNL A   1      40.566  34.973  38.331  1.00  0.00     0.135 A 
ATOM     96  C   UNL A   1      39.006  33.230  38.885  1.00  0.00     0.135 A 
ATOM     97  F   UNL A   1      41.483  35.520  37.517  1.00  0.00    -0.206 F 
ATOM     98  C   UNL A   1      40.283  35.620  39.530  1.00  0.00     0.059 A 
ATOM     99  C   UNL A   1      38.679  33.879  40.070  1.00  0.00     0.059 A 
ATOM    100  F   UNL A   1      38.379  32.076  38.605  1.00  0.00    -0.206 F 
ATOM    101  C   UNL A   1      39.342  35.061  40.396  1.00  0.00     0.060 A 
BRANCH 101 102
ATOM    102  S   UNL A   1      38.998  35.898  41.958  1.00  0.00     0.124 S 
ATOM    103  O   UNL A   1      40.049  35.360  42.815  1.00  0.00    -0.237 OA
ATOM    104  O   UNL A   1      39.134  37.304  41.595  1.00  0.00    -0.237 OA
ATOM    105  O   UNL A   1      37.642  35.467  42.283  1.00  0.00    -0.744 OA
ENDBRANCH 101 102
ENDBRANCH  69  94
ENDBRANCH  43  44
ENDBRANCH  36  38
ENDBRANCH  35  36
ENDBRANCH  34  35
ENDBRANCH  33  34
ENDBRANCH  32  33
ENDBRANCH  31  32
ENDBRANCH  30  31
ENDBRANCH  29  30
ENDBRANCH   1  29
TORSDOF 29
ENDMDL
