MODEL 1
REMARK VINA RESULT:      -7.0      0.000      0.000
REMARK SMILES COc1ccc2c(c1)c(CC(=O)OCCOCCOCCOCCOC(=O)c1ccc(-c3c4nc(c(-c5c(F)cc(S(=O)(=O)[O-])cc5F)c5ccc([nH]5)c(-c5c(F)cc(S(=O)(=O)[O-])cc5F)c5nc(c(-c6c(F)cc(S(=O)(=O)[O-])cc6F)c6ccc3[nH]6)C=C5)C=C4)cc1)c(C)n2Cc1ccn(C(F)F)c(=O)c1
REMARK SMILES IDX 18 1 17 2 16 3 15 4 14 5 13 6 11 7 12 8 10 9 9 10 3 11 4 12
REMARK SMILES IDX 8 13 5 14 7 15 6 16 96 17 94 18 95 19 2 20 1 21 97 22 98 23
REMARK SMILES IDX 99 24 107 25 100 26 105 27 101 28 106 29 102 30 103 31
REMARK SMILES IDX 104 32 19 33 20 34 21 35 22 36 23 37 24 38 25 39 26 40 27 41
REMARK SMILES IDX 28 42 29 43 93 44 30 45 92 46 31 47 32 48 33 49 86 50 34 51
REMARK SMILES IDX 91 52 85 53 87 54 35 55 90 56 84 57 83 58 36 60 70 61 49 62
REMARK SMILES IDX 69 63 50 64 53 65 68 66 88 67 51 68 52 69 67 71 89 72 54 73
REMARK SMILES IDX 37 74 38 75 47 76 39 77 40 78 46 79 48 80 41 81 42 82 43 83
REMARK SMILES IDX 44 84 45 85 71 86 72 87 81 88 73 89 74 90 80 91 82 92 75 93
REMARK SMILES IDX 76 94 77 95 78 96 79 97 55 98 56 99 65 100 57 101 58 102
REMARK SMILES IDX 64 103 66 104 59 105 60 106 61 107 62 108 63 109
REMARK H PARENT 87 59 53 70
REMARK Flexibility Score: inf
ROOT
ATOM      1  C   UNL A   1      37.857  28.650  30.900  1.00  0.00     0.188 C 
ENDROOT
BRANCH   1   2
ATOM      2  C   UNL A   1      38.519  28.938  29.561  1.00  0.00     0.188 C 
BRANCH   2   3
ATOM      3  O   UNL A   1      37.747  28.448  28.483  1.00  0.00    -0.376 OA
BRANCH   3   4
ATOM      4  C   UNL A   1      37.138  29.375  27.597  1.00  0.00     0.202 C 
BRANCH   4   5
ATOM      5  C   UNL A   1      35.607  29.598  27.544  1.00  0.00     0.261 C 
BRANCH   5   6
ATOM      6  O   UNL A   1      35.080  30.906  27.224  1.00  0.00    -0.463 OA
BRANCH   6   7
ATOM      7  C   UNL A   1      35.079  31.874  28.165  1.00  0.00     0.310 C 
ATOM      8  O   UNL A   1      34.659  33.009  27.960  1.00  0.00    -0.252 OA
BRANCH   7   9
ATOM      9  C   UNL A   1      35.592  31.448  29.544  1.00  0.00     0.160 C 
BRANCH   9  10
ATOM     10  C   UNL A   1      36.273  32.461  30.453  1.00  0.00    -0.008 A 
ATOM     11  C   UNL A   1      33.933  34.835  32.366  1.00  0.00     0.119 A 
ATOM     12  C   UNL A   1      34.912  35.377  33.187  1.00  0.00     0.048 A 
ATOM     13  C   UNL A   1      34.303  33.945  31.347  1.00  0.00     0.057 A 
ATOM     14  C   UNL A   1      36.264  35.034  33.019  1.00  0.00     0.031 A 
ATOM     15  C   UNL A   1      35.641  33.497  31.222  1.00  0.00     0.007 A 
ATOM     16  C   UNL A   1      36.615  34.097  32.025  1.00  0.00     0.049 A 
ATOM     17  N   UNL A   1      37.848  33.610  31.597  1.00  0.00    -0.340 N 
ATOM     18  C   UNL A   1      37.639  32.700  30.567  1.00  0.00     0.020 A 
ATOM     19  C   UNL A   1      38.718  32.124  29.719  1.00  0.00     0.065 C 
BRANCH  11  20
ATOM     20  O   UNL A   1      32.585  35.047  32.461  1.00  0.00    -0.497 OA
ATOM     21  C   UNL A   1      32.125  36.379  32.652  1.00  0.00     0.278 C 
ENDBRANCH  11  20
BRANCH  17  22
ATOM     22  C   UNL A   1      39.137  34.211  31.993  1.00  0.00     0.158 C 
BRANCH  22  23
ATOM     23  C   UNL A   1      40.205  34.311  30.925  1.00  0.00    -0.021 A 
ATOM     24  C   UNL A   1      39.960  35.143  29.765  1.00  0.00     0.024 A 
ATOM     25  C   UNL A   1      41.432  33.772  31.059  1.00  0.00     0.077 A 
ATOM     26  C   UNL A   1      40.854  35.241  28.777  1.00  0.00     0.095 A 
ATOM     27  C   UNL A   1      42.487  33.958  30.011  1.00  0.00     0.255 A 
ATOM     28  N   UNL A   1      42.084  34.625  28.867  1.00  0.00    -0.258 N 
ATOM     29  O   UNL A   1      43.614  33.529  30.239  1.00  0.00    -0.269 OA
BRANCH  28  30
ATOM     30  C   UNL A   1      43.040  34.783  27.798  1.00  0.00     0.451 C 
ATOM     31  F   UNL A   1      43.551  33.577  27.441  1.00  0.00    -0.185 F 
ATOM     32  F   UNL A   1      42.478  35.338  26.699  1.00  0.00    -0.185 F 
ENDBRANCH  28  30
ENDBRANCH  22  23
ENDBRANCH  17  22
ENDBRANCH   9  10
ENDBRANCH   7   9
ENDBRANCH   6   7
ENDBRANCH   5   6
ENDBRANCH   4   5
ENDBRANCH   3   4
ENDBRANCH   2   3
ENDBRANCH   1   2
BRANCH   1  33
ATOM     33  O   UNL A   1      38.649  28.339  32.016  1.00  0.00    -0.377 OA
BRANCH  33  34
ATOM     34  C   UNL A   1      38.345  29.003  33.214  1.00  0.00     0.188 C 
BRANCH  34  35
ATOM     35  C   UNL A   1      37.332  30.128  32.992  1.00  0.00     0.188 C 
BRANCH  35  36
ATOM     36  O   UNL A   1      37.149  31.178  33.955  1.00  0.00    -0.376 OA
BRANCH  36  37
ATOM     37  C   UNL A   1      38.076  31.353  35.020  1.00  0.00     0.202 C 
BRANCH  37  38
ATOM     38  C   UNL A   1      38.413  32.821  35.338  1.00  0.00     0.261 C 
BRANCH  38  39
ATOM     39  O   UNL A   1      38.843  33.021  36.688  1.00  0.00    -0.460 OA
BRANCH  39  40
ATOM     40  C   UNL A   1      39.922  33.817  36.893  1.00  0.00     0.338 C 
ATOM     41  O   UNL A   1      39.997  34.799  37.611  1.00  0.00    -0.246 OA
BRANCH  40  42
ATOM     42  C   UNL A   1      41.075  33.079  36.338  1.00  0.00     0.060 A 
ATOM     43  C   UNL A   1      41.485  33.272  35.014  1.00  0.00     0.016 A 
ATOM     44  C   UNL A   1      41.507  31.964  37.070  1.00  0.00     0.016 A 
ATOM     45  C   UNL A   1      42.207  32.259  34.384  1.00  0.00     0.010 A 
ATOM     46  C   UNL A   1      42.226  30.954  36.433  1.00  0.00     0.010 A 
ATOM     47  C   UNL A   1      42.532  31.075  35.075  1.00  0.00    -0.014 A 
BRANCH  47  48
ATOM     48  C   UNL A   1      43.440  30.127  34.410  1.00  0.00     0.031 A 
ATOM     49  C   UNL A   1      44.772  30.740  34.157  1.00  0.00     0.074 A 
ATOM     50  C   UNL A   1      43.263  28.803  34.207  1.00  0.00     0.049 A 
ATOM     51  N   UNL A   1      45.399  30.886  33.037  1.00  0.00    -0.248 NA
ATOM     52  C   UNL A   1      45.418  31.393  35.312  1.00  0.00     0.031 C 
ATOM     53  C   UNL A   1      42.161  27.977  34.700  1.00  0.00     0.029 A 
ATOM     54  N   UNL A   1      44.101  27.886  33.614  1.00  0.00    -0.354 N 
ATOM     55  C   UNL A   1      46.606  31.484  33.383  1.00  0.00     0.074 A 
ATOM     56  C   UNL A   1      46.493  31.931  34.746  1.00  0.00     0.031 C 
ATOM     57  C   UNL A   1      42.498  26.673  34.578  1.00  0.00     0.029 A 
ATOM     58  C   UNL A   1      43.789  26.562  33.912  1.00  0.00     0.049 A 
ATOM     59  H   UNL A   1      44.851  28.143  33.031  1.00  0.00     0.167 HD
ATOM     60  C   UNL A   1      47.731  31.331  32.641  1.00  0.00     0.037 A 
ATOM     61  C   UNL A   1      44.558  25.461  33.706  1.00  0.00     0.037 A 
ATOM     62  C   UNL A   1      47.483  30.823  31.328  1.00  0.00     0.049 A 
ATOM     63  C   UNL A   1      45.562  25.764  32.653  1.00  0.00     0.074 A 
ATOM     64  C   UNL A   1      47.078  31.336  30.116  1.00  0.00     0.029 A 
ATOM     65  N   UNL A   1      47.379  29.462  31.253  1.00  0.00    -0.354 N 
ATOM     66  N   UNL A   1      45.273  25.995  31.402  1.00  0.00    -0.248 NA
ATOM     67  C   UNL A   1      46.945  26.041  33.033  1.00  0.00     0.031 C 
ATOM     68  C   UNL A   1      46.596  30.235  29.351  1.00  0.00     0.029 A 
ATOM     69  C   UNL A   1      46.711  29.079  30.118  1.00  0.00     0.049 A 
ATOM     70  H   UNL A   1      47.737  28.838  31.925  1.00  0.00     0.167 HD
ATOM     71  C   UNL A   1      46.300  26.799  30.954  1.00  0.00     0.074 A 
ATOM     72  C   UNL A   1      47.370  26.653  31.926  1.00  0.00     0.031 C 
ATOM     73  C   UNL A   1      46.076  27.780  30.038  1.00  0.00     0.037 A 
BRANCH  60  74
ATOM     74  C   UNL A   1      49.080  31.234  33.290  1.00  0.00     0.058 A 
ATOM     75  C   UNL A   1      50.083  32.171  33.006  1.00  0.00     0.135 A 
ATOM     76  C   UNL A   1      49.481  30.084  34.011  1.00  0.00     0.135 A 
ATOM     77  F   UNL A   1      49.805  33.263  32.275  1.00  0.00    -0.206 F 
ATOM     78  C   UNL A   1      51.401  31.986  33.426  1.00  0.00     0.059 A 
ATOM     79  C   UNL A   1      50.769  29.907  34.490  1.00  0.00     0.059 A 
ATOM     80  F   UNL A   1      48.646  29.051  34.200  1.00  0.00    -0.206 F 
ATOM     81  C   UNL A   1      51.731  30.851  34.170  1.00  0.00     0.060 A 
BRANCH  81  82
ATOM     82  S   UNL A   1      53.439  30.589  34.680  1.00  0.00     0.124 S 
ATOM     83  O   UNL A   1      53.307  29.426  35.549  1.00  0.00    -0.237 OA
ATOM     84  O   UNL A   1      54.108  30.363  33.403  1.00  0.00    -0.237 OA
ATOM     85  O   UNL A   1      53.784  31.842  35.345  1.00  0.00    -0.744 OA
ENDBRANCH  81  82
ENDBRANCH  60  74
BRANCH  61  86
ATOM     86  C   UNL A   1      44.643  24.203  34.508  1.00  0.00     0.058 A 
ATOM     87  C   UNL A   1      44.314  22.954  33.940  1.00  0.00     0.135 A 
ATOM     88  C   UNL A   1      45.312  24.153  35.747  1.00  0.00     0.135 A 
ATOM     89  F   UNL A   1      43.683  22.891  32.757  1.00  0.00    -0.206 F 
ATOM     90  C   UNL A   1      44.695  21.740  34.523  1.00  0.00     0.059 A 
ATOM     91  C   UNL A   1      45.679  22.955  36.359  1.00  0.00     0.059 A 
ATOM     92  F   UNL A   1      45.725  25.270  36.360  1.00  0.00    -0.206 F 
ATOM     93  C   UNL A   1      45.402  21.752  35.722  1.00  0.00     0.060 A 
BRANCH  93  94
ATOM     94  S   UNL A   1      46.085  20.208  36.366  1.00  0.00     0.124 S 
ATOM     95  O   UNL A   1      45.239  19.210  35.721  1.00  0.00    -0.237 OA
ATOM     96  O   UNL A   1      47.468  20.270  35.903  1.00  0.00    -0.237 OA
ATOM     97  O   UNL A   1      45.909  20.337  37.810  1.00  0.00    -0.744 OA
ENDBRANCH  93  94
ENDBRANCH  61  86
BRANCH  73  98
ATOM     98  C   UNL A   1      44.992  27.567  29.030  1.00  0.00     0.058 A 
ATOM     99  C   UNL A   1      43.664  27.994  29.177  1.00  0.00     0.135 A 
ATOM    100  C   UNL A   1      45.349  26.962  27.813  1.00  0.00     0.135 A 
ATOM    101  F   UNL A   1      43.264  28.644  30.280  1.00  0.00    -0.206 F 
ATOM    102  C   UNL A   1      42.727  27.811  28.160  1.00  0.00     0.059 A 
ATOM    103  C   UNL A   1      44.439  26.799  26.775  1.00  0.00     0.059 A 
ATOM    104  F   UNL A   1      46.615  26.564  27.604  1.00  0.00    -0.206 F 
ATOM    105  C   UNL A   1      43.126  27.224  26.957  1.00  0.00     0.060 A 
BRANCH 105 106
ATOM    106  S   UNL A   1      41.941  27.112  25.600  1.00  0.00     0.124 S 
ATOM    107  O   UNL A   1      40.666  27.253  26.293  1.00  0.00    -0.237 OA
ATOM    108  O   UNL A   1      42.333  28.236  24.752  1.00  0.00    -0.237 OA
ATOM    109  O   UNL A   1      42.202  25.795  25.027  1.00  0.00    -0.744 OA
ENDBRANCH 105 106
ENDBRANCH  73  98
ENDBRANCH  47  48
ENDBRANCH  40  42
ENDBRANCH  39  40
ENDBRANCH  38  39
ENDBRANCH  37  38
ENDBRANCH  36  37
ENDBRANCH  35  36
ENDBRANCH  34  35
ENDBRANCH  33  34
ENDBRANCH   1  33
TORSDOF 28
ENDMDL
MODEL 2
REMARK VINA RESULT:      -6.8      5.688     12.669
REMARK SMILES COc1ccc2c(c1)c(CC(=O)OCCOCCOCCOCCOC(=O)c1ccc(-c3c4nc(c(-c5c(F)cc(S(=O)(=O)[O-])cc5F)c5ccc([nH]5)c(-c5c(F)cc(S(=O)(=O)[O-])cc5F)c5nc(c(-c6c(F)cc(S(=O)(=O)[O-])cc6F)c6ccc3[nH]6)C=C5)C=C4)cc1)c(C)n2Cc1ccn(C(F)F)c(=O)c1
REMARK SMILES IDX 18 1 17 2 16 3 15 4 14 5 13 6 11 7 12 8 10 9 9 10 3 11 4 12
REMARK SMILES IDX 8 13 5 14 7 15 6 16 96 17 94 18 95 19 2 20 1 21 97 22 98 23
REMARK SMILES IDX 99 24 107 25 100 26 105 27 101 28 106 29 102 30 103 31
REMARK SMILES IDX 104 32 19 33 20 34 21 35 22 36 23 37 24 38 25 39 26 40 27 41
REMARK SMILES IDX 28 42 29 43 93 44 30 45 92 46 31 47 32 48 33 49 86 50 34 51
REMARK SMILES IDX 91 52 85 53 87 54 35 55 90 56 84 57 83 58 36 60 70 61 49 62
REMARK SMILES IDX 69 63 50 64 53 65 68 66 88 67 51 68 52 69 67 71 89 72 54 73
REMARK SMILES IDX 37 74 38 75 47 76 39 77 40 78 46 79 48 80 41 81 42 82 43 83
REMARK SMILES IDX 44 84 45 85 71 86 72 87 81 88 73 89 74 90 80 91 82 92 75 93
REMARK SMILES IDX 76 94 77 95 78 96 79 97 55 98 56 99 65 100 57 101 58 102
REMARK SMILES IDX 64 103 66 104 59 105 60 106 61 107 62 108 63 109
REMARK H PARENT 87 59 53 70
REMARK Flexibility Score: inf
ROOT
ATOM      1  C   UNL A   1      51.573  21.834  39.214  1.00  0.00     0.188 C 
ENDROOT
BRANCH   1   2
ATOM      2  C   UNL A   1      50.858  21.130  40.357  1.00  0.00     0.188 C 
BRANCH   2   3
ATOM      3  O   UNL A   1      50.834  19.729  40.169  1.00  0.00    -0.376 OA
BRANCH   3   4
ATOM      4  C   UNL A   1      49.673  19.130  39.612  1.00  0.00     0.202 C 
BRANCH   4   5
ATOM      5  C   UNL A   1      48.435  19.954  39.180  1.00  0.00     0.261 C 
BRANCH   5   6
ATOM      6  O   UNL A   1      48.289  20.363  37.801  1.00  0.00    -0.463 OA
BRANCH   6   7
ATOM      7  C   UNL A   1      47.811  21.592  37.515  1.00  0.00     0.310 C 
ATOM      8  O   UNL A   1      48.107  22.595  38.159  1.00  0.00    -0.252 OA
BRANCH   7   9
ATOM      9  C   UNL A   1      46.903  21.673  36.284  1.00  0.00     0.160 C 
BRANCH   9  10
ATOM     10  C   UNL A   1      46.777  22.977  35.509  1.00  0.00    -0.008 A 
ATOM     11  C   UNL A   1      43.326  24.666  35.624  1.00  0.00     0.119 A 
ATOM     12  C   UNL A   1      43.723  25.853  35.024  1.00  0.00     0.048 A 
ATOM     13  C   UNL A   1      44.239  23.606  35.724  1.00  0.00     0.057 A 
ATOM     14  C   UNL A   1      45.029  26.009  34.529  1.00  0.00     0.031 A 
ATOM     15  C   UNL A   1      45.590  23.769  35.334  1.00  0.00     0.007 A 
ATOM     16  C   UNL A   1      45.951  24.953  34.685  1.00  0.00     0.049 A 
ATOM     17  N   UNL A   1      47.269  24.797  34.263  1.00  0.00    -0.340 N 
ATOM     18  C   UNL A   1      47.728  23.549  34.670  1.00  0.00     0.020 A 
ATOM     19  C   UNL A   1      49.012  22.938  34.232  1.00  0.00     0.065 C 
BRANCH  11  20
ATOM     20  O   UNL A   1      42.107  24.410  36.189  1.00  0.00    -0.497 OA
ATOM     21  C   UNL A   1      40.984  25.154  35.731  1.00  0.00     0.278 C 
ENDBRANCH  11  20
BRANCH  17  22
ATOM     22  C   UNL A   1      47.921  25.700  33.294  1.00  0.00     0.158 C 
BRANCH  22  23
ATOM     23  C   UNL A   1      48.717  26.857  33.861  1.00  0.00    -0.021 A 
ATOM     24  C   UNL A   1      48.064  28.138  34.036  1.00  0.00     0.024 A 
ATOM     25  C   UNL A   1      49.969  26.723  34.340  1.00  0.00     0.077 A 
ATOM     26  C   UNL A   1      48.728  29.200  34.501  1.00  0.00     0.095 A 
ATOM     27  C   UNL A   1      50.694  27.875  34.963  1.00  0.00     0.255 A 
ATOM     28  N   UNL A   1      50.038  29.093  34.918  1.00  0.00    -0.258 N 
ATOM     29  O   UNL A   1      51.791  27.665  35.472  1.00  0.00    -0.269 OA
BRANCH  28  30
ATOM     30  C   UNL A   1      50.712  30.252  35.450  1.00  0.00     0.451 C 
ATOM     31  F   UNL A   1      50.735  31.248  34.529  1.00  0.00    -0.185 F 
ATOM     32  F   UNL A   1      50.098  30.726  36.559  1.00  0.00    -0.185 F 
ENDBRANCH  28  30
ENDBRANCH  22  23
ENDBRANCH  17  22
ENDBRANCH   9  10
ENDBRANCH   7   9
ENDBRANCH   6   7
ENDBRANCH   5   6
ENDBRANCH   4   5
ENDBRANCH   3   4
ENDBRANCH   2   3
ENDBRANCH   1   2
BRANCH   1  33
ATOM     33  O   UNL A   1      51.848  21.136  38.028  1.00  0.00    -0.377 OA
BRANCH  33  34
ATOM     34  C   UNL A   1      51.315  21.663  36.842  1.00  0.00     0.188 C 
BRANCH  34  35
ATOM     35  C   UNL A   1      51.341  23.193  36.846  1.00  0.00     0.188 C 
BRANCH  35  36
ATOM     36  O   UNL A   1      52.575  23.926  36.878  1.00  0.00    -0.376 OA
BRANCH  36  37
ATOM     37  C   UNL A   1      53.514  23.809  35.816  1.00  0.00     0.202 C 
BRANCH  37  38
ATOM     38  C   UNL A   1      52.885  23.549  34.435  1.00  0.00     0.261 C 
BRANCH  38  39
ATOM     39  O   UNL A   1      53.655  24.087  33.354  1.00  0.00    -0.460 OA
BRANCH  39  40
ATOM     40  C   UNL A   1      53.511  25.407  33.075  1.00  0.00     0.338 C 
ATOM     41  O   UNL A   1      54.099  26.344  33.584  1.00  0.00    -0.246 OA
BRANCH  40  42
ATOM     42  C   UNL A   1      52.746  25.466  31.812  1.00  0.00     0.060 A 
ATOM     43  C   UNL A   1      53.035  26.431  30.839  1.00  0.00     0.016 A 
ATOM     44  C   UNL A   1      51.538  24.757  31.785  1.00  0.00     0.016 A 
ATOM     45  C   UNL A   1      52.038  26.783  29.931  1.00  0.00     0.010 A 
ATOM     46  C   UNL A   1      50.544  25.116  30.877  1.00  0.00     0.010 A 
ATOM     47  C   UNL A   1      50.772  26.166  29.982  1.00  0.00    -0.014 A 
BRANCH  47  48
ATOM     48  C   UNL A   1      49.829  26.458  28.892  1.00  0.00     0.031 A 
ATOM     49  C   UNL A   1      48.715  27.326  29.357  1.00  0.00     0.074 A 
ATOM     50  C   UNL A   1      49.972  26.201  27.573  1.00  0.00     0.049 A 
ATOM     51  N   UNL A   1      47.443  27.105  29.320  1.00  0.00    -0.248 NA
ATOM     52  C   UNL A   1      49.104  28.552  30.081  1.00  0.00     0.031 C 
ATOM     53  C   UNL A   1      51.157  25.663  26.904  1.00  0.00     0.029 A 
ATOM     54  N   UNL A   1      49.123  26.482  26.526  1.00  0.00    -0.354 N 
ATOM     55  C   UNL A   1      46.868  28.255  29.850  1.00  0.00     0.074 A 
ATOM     56  C   UNL A   1      47.921  29.025  30.458  1.00  0.00     0.031 C 
ATOM     57  C   UNL A   1      51.038  25.856  25.571  1.00  0.00     0.029 A 
ATOM     58  C   UNL A   1      49.735  26.438  25.276  1.00  0.00     0.049 A 
ATOM     59  H   UNL A   1      48.171  26.695  26.650  1.00  0.00     0.167 HD
ATOM     60  C   UNL A   1      45.617  28.661  29.518  1.00  0.00     0.037 A 
ATOM     61  C   UNL A   1      49.252  26.912  24.097  1.00  0.00     0.037 A 
ATOM     62  C   UNL A   1      44.837  27.643  28.886  1.00  0.00     0.049 A 
ATOM     63  C   UNL A   1      47.774  27.024  24.192  1.00  0.00     0.074 A 
ATOM     64  C   UNL A   1      44.088  26.562  29.290  1.00  0.00     0.029 A 
ATOM     65  N   UNL A   1      45.038  27.525  27.539  1.00  0.00    -0.354 N 
ATOM     66  N   UNL A   1      46.962  26.009  24.302  1.00  0.00    -0.248 NA
ATOM     67  C   UNL A   1      47.161  28.335  24.393  1.00  0.00     0.031 C 
ATOM     68  C   UNL A   1      43.959  25.712  28.153  1.00  0.00     0.029 A 
ATOM     69  C   UNL A   1      44.640  26.293  27.087  1.00  0.00     0.049 A 
ATOM     70  H   UNL A   1      45.418  28.232  26.968  1.00  0.00     0.167 HD
ATOM     71  C   UNL A   1      45.862  26.518  24.960  1.00  0.00     0.074 A 
ATOM     72  C   UNL A   1      45.959  27.962  24.836  1.00  0.00     0.031 C 
ATOM     73  C   UNL A   1      45.159  25.759  25.845  1.00  0.00     0.037 A 
BRANCH  60  74
ATOM     74  C   UNL A   1      45.285  30.118  29.383  1.00  0.00     0.058 A 
ATOM     75  C   UNL A   1      44.166  30.663  30.027  1.00  0.00     0.135 A 
ATOM     76  C   UNL A   1      45.923  30.943  28.426  1.00  0.00     0.135 A 
ATOM     77  F   UNL A   1      43.463  29.929  30.905  1.00  0.00    -0.206 F 
ATOM     78  C   UNL A   1      43.716  31.954  29.750  1.00  0.00     0.059 A 
ATOM     79  C   UNL A   1      45.532  32.249  28.178  1.00  0.00     0.059 A 
ATOM     80  F   UNL A   1      46.901  30.473  27.638  1.00  0.00    -0.206 F 
ATOM     81  C   UNL A   1      44.409  32.739  28.826  1.00  0.00     0.060 A 
BRANCH  81  82
ATOM     82  S   UNL A   1      43.808  34.392  28.436  1.00  0.00     0.124 S 
ATOM     83  O   UNL A   1      44.962  35.211  28.790  1.00  0.00    -0.237 OA
ATOM     84  O   UNL A   1      43.512  34.282  27.012  1.00  0.00    -0.237 OA
ATOM     85  O   UNL A   1      42.641  34.535  29.301  1.00  0.00    -0.744 OA
ENDBRANCH  81  82
ENDBRANCH  60  74
BRANCH  61  86
ATOM     86  C   UNL A   1      49.994  27.493  22.937  1.00  0.00     0.058 A 
ATOM     87  C   UNL A   1      51.056  28.401  23.134  1.00  0.00     0.135 A 
ATOM     88  C   UNL A   1      49.876  26.965  21.636  1.00  0.00     0.135 A 
ATOM     89  F   UNL A   1      51.261  28.954  24.340  1.00  0.00    -0.206 F 
ATOM     90  C   UNL A   1      51.983  28.701  22.131  1.00  0.00     0.059 A 
ATOM     91  C   UNL A   1      50.772  27.270  20.614  1.00  0.00     0.059 A 
ATOM     92  F   UNL A   1      48.940  26.053  21.338  1.00  0.00    -0.206 F 
ATOM     93  C   UNL A   1      51.847  28.108  20.878  1.00  0.00     0.060 A 
BRANCH  93  94
ATOM     94  S   UNL A   1      53.156  28.318  19.650  1.00  0.00     0.124 S 
ATOM     95  O   UNL A   1      54.262  27.584  20.256  1.00  0.00    -0.237 OA
ATOM     96  O   UNL A   1      52.561  27.713  18.463  1.00  0.00    -0.237 OA
ATOM     97  O   UNL A   1      53.329  29.767  19.585  1.00  0.00    -0.744 OA
ENDBRANCH  93  94
ENDBRANCH  61  86
BRANCH  73  98
ATOM     98  C   UNL A   1      45.094  24.284  25.610  1.00  0.00     0.058 A 
ATOM     99  C   UNL A   1      46.001  23.347  26.129  1.00  0.00     0.135 A 
ATOM    100  C   UNL A   1      43.999  23.792  24.880  1.00  0.00     0.135 A 
ATOM    101  F   UNL A   1      47.031  23.733  26.897  1.00  0.00    -0.206 F 
ATOM    102  C   UNL A   1      45.833  21.979  25.914  1.00  0.00     0.059 A 
ATOM    103  C   UNL A   1      43.796  22.431  24.681  1.00  0.00     0.059 A 
ATOM    104  F   UNL A   1      43.081  24.641  24.388  1.00  0.00    -0.206 F 
ATOM    105  C   UNL A   1      44.721  21.529  25.200  1.00  0.00     0.060 A 
BRANCH 105 106
ATOM    106  S   UNL A   1      44.440  19.753  25.041  1.00  0.00     0.124 S 
ATOM    107  O   UNL A   1      43.300  19.542  25.925  1.00  0.00    -0.237 OA
ATOM    108  O   UNL A   1      44.174  19.606  23.612  1.00  0.00    -0.237 OA
ATOM    109  O   UNL A   1      45.700  19.167  25.492  1.00  0.00    -0.744 OA
ENDBRANCH 105 106
ENDBRANCH  73  98
ENDBRANCH  47  48
ENDBRANCH  40  42
ENDBRANCH  39  40
ENDBRANCH  38  39
ENDBRANCH  37  38
ENDBRANCH  36  37
ENDBRANCH  35  36
ENDBRANCH  34  35
ENDBRANCH  33  34
ENDBRANCH   1  33
TORSDOF 28
ENDMDL
MODEL 3
REMARK VINA RESULT:      -6.7      4.545     11.360
REMARK SMILES COc1ccc2c(c1)c(CC(=O)OCCOCCOCCOCCOC(=O)c1ccc(-c3c4nc(c(-c5c(F)cc(S(=O)(=O)[O-])cc5F)c5ccc([nH]5)c(-c5c(F)cc(S(=O)(=O)[O-])cc5F)c5nc(c(-c6c(F)cc(S(=O)(=O)[O-])cc6F)c6ccc3[nH]6)C=C5)C=C4)cc1)c(C)n2Cc1ccn(C(F)F)c(=O)c1
REMARK SMILES IDX 18 1 17 2 16 3 15 4 14 5 13 6 11 7 12 8 10 9 9 10 3 11 4 12
REMARK SMILES IDX 8 13 5 14 7 15 6 16 96 17 94 18 95 19 2 20 1 21 97 22 98 23
REMARK SMILES IDX 99 24 107 25 100 26 105 27 101 28 106 29 102 30 103 31
REMARK SMILES IDX 104 32 19 33 20 34 21 35 22 36 23 37 24 38 25 39 26 40 27 41
REMARK SMILES IDX 28 42 29 43 93 44 30 45 92 46 31 47 32 48 33 49 86 50 34 51
REMARK SMILES IDX 91 52 85 53 87 54 35 55 90 56 84 57 83 58 36 60 70 61 49 62
REMARK SMILES IDX 69 63 50 64 53 65 68 66 88 67 51 68 52 69 67 71 89 72 54 73
REMARK SMILES IDX 37 74 38 75 47 76 39 77 40 78 46 79 48 80 41 81 42 82 43 83
REMARK SMILES IDX 44 84 45 85 71 86 72 87 81 88 73 89 74 90 80 91 82 92 75 93
REMARK SMILES IDX 76 94 77 95 78 96 79 97 55 98 56 99 65 100 57 101 58 102
REMARK SMILES IDX 64 103 66 104 59 105 60 106 61 107 62 108 63 109
REMARK H PARENT 87 59 53 70
REMARK Flexibility Score: inf
ROOT
ATOM      1  C   UNL A   1      46.049  32.021  35.993  1.00  0.00     0.188 C 
ENDROOT
BRANCH   1   2
ATOM      2  C   UNL A   1      46.650  30.756  35.398  1.00  0.00     0.188 C 
BRANCH   2   3
ATOM      3  O   UNL A   1      48.033  30.659  35.673  1.00  0.00    -0.376 OA
BRANCH   3   4
ATOM      4  C   UNL A   1      48.453  30.009  36.864  1.00  0.00     0.202 C 
BRANCH   4   5
ATOM      5  C   UNL A   1      49.166  28.634  36.857  1.00  0.00     0.261 C 
BRANCH   5   6
ATOM      6  O   UNL A   1      50.101  28.314  35.802  1.00  0.00    -0.463 OA
BRANCH   6   7
ATOM      7  C   UNL A   1      51.424  28.297  36.065  1.00  0.00     0.310 C 
ATOM      8  O   UNL A   1      52.140  29.291  35.973  1.00  0.00    -0.252 OA
BRANCH   7   9
ATOM      9  C   UNL A   1      51.982  26.953  36.546  1.00  0.00     0.160 C 
BRANCH   9  10
ATOM     10  C   UNL A   1      51.329  25.652  36.104  1.00  0.00    -0.008 A 
ATOM     11  C   UNL A   1      51.359  24.963  32.323  1.00  0.00     0.119 A 
ATOM     12  C   UNL A   1      50.906  23.654  32.408  1.00  0.00     0.048 A 
ATOM     13  C   UNL A   1      51.421  25.748  33.484  1.00  0.00     0.057 A 
ATOM     14  C   UNL A   1      50.524  23.103  33.642  1.00  0.00     0.031 A 
ATOM     15  C   UNL A   1      51.147  25.189  34.756  1.00  0.00     0.007 A 
ATOM     16  C   UNL A   1      50.643  23.886  34.809  1.00  0.00     0.049 A 
ATOM     17  N   UNL A   1      50.303  23.638  36.137  1.00  0.00    -0.340 N 
ATOM     18  C   UNL A   1      50.620  24.757  36.899  1.00  0.00     0.020 A 
ATOM     19  C   UNL A   1      50.218  24.952  38.319  1.00  0.00     0.065 C 
BRANCH  11  20
ATOM     20  O   UNL A   1      51.807  25.596  31.195  1.00  0.00    -0.497 OA
ATOM     21  C   UNL A   1      52.183  26.964  31.297  1.00  0.00     0.278 C 
ENDBRANCH  11  20
BRANCH  17  22
ATOM     22  C   UNL A   1      49.475  22.491  36.560  1.00  0.00     0.158 C 
BRANCH  22  23
ATOM     23  C   UNL A   1      48.054  22.440  36.040  1.00  0.00    -0.021 A 
ATOM     24  C   UNL A   1      47.365  23.684  35.762  1.00  0.00     0.024 A 
ATOM     25  C   UNL A   1      47.439  21.294  35.693  1.00  0.00     0.077 A 
ATOM     26  C   UNL A   1      46.099  23.698  35.333  1.00  0.00     0.095 A 
ATOM     27  C   UNL A   1      46.059  21.293  35.110  1.00  0.00     0.255 A 
ATOM     28  N   UNL A   1      45.431  22.525  35.052  1.00  0.00    -0.258 N 
ATOM     29  O   UNL A   1      45.593  20.226  34.720  1.00  0.00    -0.269 OA
BRANCH  28  30
ATOM     30  C   UNL A   1      44.078  22.578  34.555  1.00  0.00     0.451 C 
ATOM     31  F   UNL A   1      43.249  23.091  35.500  1.00  0.00    -0.185 F 
ATOM     32  F   UNL A   1      43.979  23.354  33.451  1.00  0.00    -0.185 F 
ENDBRANCH  28  30
ENDBRANCH  22  23
ENDBRANCH  17  22
ENDBRANCH   9  10
ENDBRANCH   7   9
ENDBRANCH   6   7
ENDBRANCH   5   6
ENDBRANCH   4   5
ENDBRANCH   3   4
ENDBRANCH   2   3
ENDBRANCH   1   2
BRANCH   1  33
ATOM     33  O   UNL A   1      45.609  32.022  37.326  1.00  0.00    -0.377 OA
BRANCH  33  34
ATOM     34  C   UNL A   1      45.037  30.835  37.807  1.00  0.00     0.188 C 
BRANCH  34  35
ATOM     35  C   UNL A   1      45.579  30.471  39.191  1.00  0.00     0.188 C 
BRANCH  35  36
ATOM     36  O   UNL A   1      45.284  29.209  39.809  1.00  0.00    -0.376 OA
BRANCH  36  37
ATOM     37  C   UNL A   1      46.327  28.405  40.347  1.00  0.00     0.202 C 
BRANCH  37  38
ATOM     38  C   UNL A   1      46.051  26.891  40.306  1.00  0.00     0.261 C 
BRANCH  38  39
ATOM     39  O   UNL A   1      45.830  26.394  38.982  1.00  0.00    -0.460 OA
BRANCH  39  40
ATOM     40  C   UNL A   1      44.546  26.215  38.584  1.00  0.00     0.338 C 
ATOM     41  O   UNL A   1      43.579  25.956  39.279  1.00  0.00    -0.246 OA
BRANCH  40  42
ATOM     42  C   UNL A   1      44.485  26.717  37.195  1.00  0.00     0.060 A 
ATOM     43  C   UNL A   1      43.434  26.358  36.344  1.00  0.00     0.016 A 
ATOM     44  C   UNL A   1      45.668  27.269  36.684  1.00  0.00     0.016 A 
ATOM     45  C   UNL A   1      43.639  26.417  34.966  1.00  0.00     0.010 A 
ATOM     46  C   UNL A   1      45.868  27.323  35.306  1.00  0.00     0.010 A 
ATOM     47  C   UNL A   1      44.875  26.848  34.445  1.00  0.00    -0.014 A 
BRANCH  47  48
ATOM     48  C   UNL A   1      44.965  27.052  32.990  1.00  0.00     0.031 A 
ATOM     49  C   UNL A   1      44.100  28.177  32.547  1.00  0.00     0.074 A 
ATOM     50  C   UNL A   1      45.837  26.494  32.121  1.00  0.00     0.049 A 
ATOM     51  N   UNL A   1      43.144  28.172  31.678  1.00  0.00    -0.248 NA
ATOM     52  C   UNL A   1      44.254  29.446  33.284  1.00  0.00     0.031 C 
ATOM     53  C   UNL A   1      46.972  25.630  32.446  1.00  0.00     0.029 A 
ATOM     54  N   UNL A   1      45.965  26.681  30.764  1.00  0.00    -0.354 N 
ATOM     55  C   UNL A   1      42.704  29.491  31.629  1.00  0.00     0.074 A 
ATOM     56  C   UNL A   1      43.288  30.184  32.747  1.00  0.00     0.031 C 
ATOM     57  C   UNL A   1      47.786  25.546  31.369  1.00  0.00     0.029 A 
ATOM     58  C   UNL A   1      47.189  26.264  30.249  1.00  0.00     0.049 A 
ATOM     59  H   UNL A   1      45.255  27.075  30.207  1.00  0.00     0.167 HD
ATOM     60  C   UNL A   1      42.121  30.022  30.526  1.00  0.00     0.037 A 
ATOM     61  C   UNL A   1      47.718  26.544  29.029  1.00  0.00     0.037 A 
ATOM     62  C   UNL A   1      41.682  29.039  29.585  1.00  0.00     0.049 A 
ATOM     63  C   UNL A   1      46.620  26.925  28.104  1.00  0.00     0.074 A 
ATOM     64  C   UNL A   1      40.590  28.215  29.435  1.00  0.00     0.029 A 
ATOM     65  N   UNL A   1      42.651  28.599  28.727  1.00  0.00    -0.354 N 
ATOM     66  N   UNL A   1      45.687  26.111  27.691  1.00  0.00    -0.248 NA
ATOM     67  C   UNL A   1      46.405  28.333  27.778  1.00  0.00     0.031 C 
ATOM     68  C   UNL A   1      40.989  27.173  28.548  1.00  0.00     0.029 A 
ATOM     69  C   UNL A   1      42.316  27.384  28.186  1.00  0.00     0.049 A 
ATOM     70  H   UNL A   1      43.481  29.089  28.524  1.00  0.00     0.167 HD
ATOM     71  C   UNL A   1      44.612  26.930  27.417  1.00  0.00     0.074 A 
ATOM     72  C   UNL A   1      45.153  28.274  27.320  1.00  0.00     0.031 C 
ATOM     73  C   UNL A   1      43.336  26.512  27.639  1.00  0.00     0.037 A 
BRANCH  60  74
ATOM     74  C   UNL A   1      42.363  31.449  30.132  1.00  0.00     0.058 A 
ATOM     75  C   UNL A   1      41.339  32.402  30.222  1.00  0.00     0.135 A 
ATOM     76  C   UNL A   1      43.530  31.844  29.435  1.00  0.00     0.135 A 
ATOM     77  F   UNL A   1      40.173  32.094  30.811  1.00  0.00    -0.206 F 
ATOM     78  C   UNL A   1      41.471  33.676  29.667  1.00  0.00     0.059 A 
ATOM     79  C   UNL A   1      43.708  33.122  28.929  1.00  0.00     0.059 A 
ATOM     80  F   UNL A   1      44.505  30.968  29.151  1.00  0.00    -0.206 F 
ATOM     81  C   UNL A   1      42.662  34.025  29.026  1.00  0.00     0.060 A 
BRANCH  81  82
ATOM     82  S   UNL A   1      42.822  35.654  28.274  1.00  0.00     0.124 S 
ATOM     83  O   UNL A   1      43.949  35.448  27.372  1.00  0.00    -0.237 OA
ATOM     84  O   UNL A   1      41.518  35.830  27.642  1.00  0.00    -0.237 OA
ATOM     85  O   UNL A   1      43.077  36.525  29.417  1.00  0.00    -0.744 OA
ENDBRANCH  81  82
ENDBRANCH  60  74
BRANCH  61  86
ATOM     86  C   UNL A   1      49.149  26.725  28.638  1.00  0.00     0.058 A 
ATOM     87  C   UNL A   1      49.846  25.714  27.941  1.00  0.00     0.135 A 
ATOM     88  C   UNL A   1      49.780  27.984  28.678  1.00  0.00     0.135 A 
ATOM     89  F   UNL A   1      49.326  24.481  27.836  1.00  0.00    -0.206 F 
ATOM     90  C   UNL A   1      51.046  25.958  27.266  1.00  0.00     0.059 A 
ATOM     91  C   UNL A   1      50.989  28.243  28.034  1.00  0.00     0.059 A 
ATOM     92  F   UNL A   1      49.194  29.037  29.263  1.00  0.00    -0.206 F 
ATOM     93  C   UNL A   1      51.597  27.237  27.296  1.00  0.00     0.060 A 
BRANCH  93  94
ATOM     94  S   UNL A   1      53.023  27.614  26.252  1.00  0.00     0.124 S 
ATOM     95  O   UNL A   1      54.139  27.333  27.149  1.00  0.00    -0.237 OA
ATOM     96  O   UNL A   1      52.844  26.682  25.143  1.00  0.00    -0.237 OA
ATOM     97  O   UNL A   1      52.831  29.022  25.915  1.00  0.00    -0.744 OA
ENDBRANCH  93  94
ENDBRANCH  61  86
BRANCH  73  98
ATOM     98  C   UNL A   1      43.038  25.054  27.494  1.00  0.00     0.058 A 
ATOM     99  C   UNL A   1      43.013  24.131  28.550  1.00  0.00     0.135 A 
ATOM    100  C   UNL A   1      42.679  24.591  26.217  1.00  0.00     0.135 A 
ATOM    101  F   UNL A   1      43.272  24.512  29.810  1.00  0.00    -0.206 F 
ATOM    102  C   UNL A   1      42.663  22.797  28.338  1.00  0.00     0.059 A 
ATOM    103  C   UNL A   1      42.296  23.274  25.990  1.00  0.00     0.059 A 
ATOM    104  F   UNL A   1      42.653  25.439  25.175  1.00  0.00    -0.206 F 
ATOM    105  C   UNL A   1      42.294  22.380  27.058  1.00  0.00     0.060 A 
BRANCH 105 106
ATOM    106  S   UNL A   1      41.715  20.687  26.820  1.00  0.00     0.124 S 
ATOM    107  O   UNL A   1      41.842  20.519  25.377  1.00  0.00    -0.237 OA
ATOM    108  O   UNL A   1      42.653  19.919  27.636  1.00  0.00    -0.237 OA
ATOM    109  O   UNL A   1      40.346  20.720  27.329  1.00  0.00    -0.744 OA
ENDBRANCH 105 106
ENDBRANCH  73  98
ENDBRANCH  47  48
ENDBRANCH  40  42
ENDBRANCH  39  40
ENDBRANCH  38  39
ENDBRANCH  37  38
ENDBRANCH  36  37
ENDBRANCH  35  36
ENDBRANCH  34  35
ENDBRANCH  33  34
ENDBRANCH   1  33
TORSDOF 28
ENDMDL
