MODEL 1
REMARK VINA RESULT:     -10.0      0.000      0.000
REMARK SMILES Cc1cc(Cl)c2c(c1)C=C(C(=O)OCCOCCOCCOCCOC(=O)c1ccc(-c3c4nc(c(-c5c(F)cc(S(=O)(=O)[O-])cc5F)c5ccc([nH]5)c(-c5c(F)cc(S(=O)(=O)[O-])cc5F)c5nc(c(-c6c(F)cc(S(=O)(=O)[O-])cc6F)c6ccc3[nH]6)C=C5)C=C4)cc1)[C@@H](C(F)(F)F)O2
REMARK SMILES IDX 20 1 19 2 18 3 17 4 16 5 15 6 14 7 13 8 11 9 12 10 10 11
REMARK SMILES IDX 1 12 2 13 3 14 8 15 4 16 7 17 5 18 6 19 9 20 99 21 94 22
REMARK SMILES IDX 95 23 96 24 97 25 98 26 21 27 22 28 23 29 24 30 25 31 26 32
REMARK SMILES IDX 27 33 28 34 29 35 93 36 30 37 92 38 31 39 32 40 33 41 86 42
REMARK SMILES IDX 34 43 91 44 85 45 87 46 35 47 90 48 84 49 83 50 36 52 70 53
REMARK SMILES IDX 49 54 69 55 50 56 53 57 68 58 88 59 51 60 52 61 67 63 89 64
REMARK SMILES IDX 54 65 37 66 38 67 47 68 39 69 40 70 46 71 48 72 41 73 42 74
REMARK SMILES IDX 43 75 44 76 45 77 71 78 72 79 81 80 73 81 74 82 80 83 82 84
REMARK SMILES IDX 75 85 76 86 77 87 78 88 79 89 55 90 56 91 65 92 57 93 58 94
REMARK SMILES IDX 64 95 66 96 59 97 60 98 61 99 62 100 63 101
REMARK H PARENT 87 51 53 62
REMARK Flexibility Score: inf
ROOT
ATOM      1  C   UNL A   1      34.407  22.240  26.444  1.00  0.00     0.188 C 
ENDROOT
BRANCH   1   2
ATOM      2  O   UNL A   1      33.496  23.339  26.501  1.00  0.00    -0.377 OA
BRANCH   2   3
ATOM      3  C   UNL A   1      32.148  23.071  26.849  1.00  0.00     0.188 C 
BRANCH   3   4
ATOM      4  C   UNL A   1      31.144  23.575  25.797  1.00  0.00     0.188 C 
BRANCH   4   5
ATOM      5  O   UNL A   1      31.282  22.925  24.543  1.00  0.00    -0.376 OA
BRANCH   5   6
ATOM      6  C   UNL A   1      31.558  23.685  23.376  1.00  0.00     0.202 C 
BRANCH   6   7
ATOM      7  C   UNL A   1      32.993  24.002  22.916  1.00  0.00     0.261 C 
BRANCH   7   8
ATOM      8  O   UNL A   1      33.590  25.197  23.431  1.00  0.00    -0.460 OA
BRANCH   8   9
ATOM      9  C   UNL A   1      33.541  26.307  22.677  1.00  0.00     0.338 C 
ATOM     10  O   UNL A   1      33.562  26.370  21.460  1.00  0.00    -0.246 OA
BRANCH   9  11
ATOM     11  C   UNL A   1      33.257  27.446  23.580  1.00  0.00     0.087 C 
ATOM     12  C   UNL A   1      35.412  30.211  28.641  1.00  0.00     0.044 C 
ATOM     13  C   UNL A   1      34.495  30.020  27.470  1.00  0.00    -0.049 A 
ATOM     14  C   UNL A   1      33.330  30.781  27.330  1.00  0.00     0.028 A 
ATOM     15  C   UNL A   1      34.772  29.027  26.523  1.00  0.00     0.015 A 
ATOM     16  C   UNL A   1      32.474  30.570  26.245  1.00  0.00     0.084 A 
ATOM     17  C   UNL A   1      33.892  28.783  25.459  1.00  0.00     0.019 A 
ATOM     18  Cl  UNL A   1      31.050  31.543  26.134  1.00  0.00    -0.080 Cl
ATOM     19  C   UNL A   1      32.753  29.575  25.299  1.00  0.00     0.146 A 
ATOM     20  C   UNL A   1      34.138  27.668  24.563  1.00  0.00     0.027 C 
ATOM     21  O   UNL A   1      31.881  29.417  24.257  1.00  0.00    -0.474 OA
ATOM     22  C   UNL A   1      32.066  28.331  23.308  1.00  0.00     0.316 C 
BRANCH  22  23
ATOM     23  C   UNL A   1      30.758  27.529  23.237  1.00  0.00     0.430 C 
ATOM     24  F   UNL A   1      30.680  26.814  22.091  1.00  0.00    -0.167 F 
ATOM     25  F   UNL A   1      30.647  26.653  24.260  1.00  0.00    -0.167 F 
ATOM     26  F   UNL A   1      29.679  28.346  23.283  1.00  0.00    -0.167 F 
ENDBRANCH  22  23
ENDBRANCH   9  11
ENDBRANCH   8   9
ENDBRANCH   7   8
ENDBRANCH   6   7
ENDBRANCH   5   6
ENDBRANCH   4   5
ENDBRANCH   3   4
ENDBRANCH   2   3
ENDBRANCH   1   2
BRANCH   1  27
ATOM     27  C   UNL A   1      34.928  21.673  25.100  1.00  0.00     0.188 C 
BRANCH  27  28
ATOM     28  O   UNL A   1      35.586  20.415  25.209  1.00  0.00    -0.376 OA
BRANCH  28  29
ATOM     29  C   UNL A   1      36.988  20.391  24.994  1.00  0.00     0.202 C 
BRANCH  29  30
ATOM     30  C   UNL A   1      37.656  21.770  24.929  1.00  0.00     0.261 C 
BRANCH  30  31
ATOM     31  O   UNL A   1      38.137  22.284  26.179  1.00  0.00    -0.460 OA
BRANCH  31  32
ATOM     32  C   UNL A   1      39.461  22.185  26.428  1.00  0.00     0.338 C 
ATOM     33  O   UNL A   1      40.200  21.264  26.131  1.00  0.00    -0.246 OA
BRANCH  32  34
ATOM     34  C   UNL A   1      39.900  23.489  26.963  1.00  0.00     0.060 A 
ATOM     35  C   UNL A   1      39.366  24.666  26.424  1.00  0.00     0.016 A 
ATOM     36  C   UNL A   1      40.811  23.542  28.022  1.00  0.00     0.016 A 
ATOM     37  C   UNL A   1      39.758  25.904  26.936  1.00  0.00     0.010 A 
ATOM     38  C   UNL A   1      41.215  24.781  28.520  1.00  0.00     0.010 A 
ATOM     39  C   UNL A   1      40.708  25.969  27.965  1.00  0.00    -0.014 A 
BRANCH  39  40
ATOM     40  C   UNL A   1      41.297  27.273  28.348  1.00  0.00     0.031 A 
ATOM     41  C   UNL A   1      42.780  27.464  28.188  1.00  0.00     0.074 A 
ATOM     42  C   UNL A   1      40.527  28.276  28.809  1.00  0.00     0.049 A 
ATOM     43  N   UNL A   1      43.515  28.510  28.459  1.00  0.00    -0.248 NA
ATOM     44  C   UNL A   1      43.534  26.320  27.646  1.00  0.00     0.031 C 
ATOM     45  C   UNL A   1      39.076  28.220  28.978  1.00  0.00     0.029 A 
ATOM     46  N   UNL A   1      40.863  29.542  29.219  1.00  0.00    -0.354 N 
ATOM     47  C   UNL A   1      44.813  28.158  28.109  1.00  0.00     0.074 A 
ATOM     48  C   UNL A   1      44.774  26.788  27.649  1.00  0.00     0.031 C 
ATOM     49  C   UNL A   1      38.646  29.402  29.454  1.00  0.00     0.029 A 
ATOM     50  C   UNL A   1      39.792  30.289  29.650  1.00  0.00     0.049 A 
ATOM     51  H   UNL A   1      41.787  29.884  29.207  1.00  0.00     0.167 HD
ATOM     52  C   UNL A   1      45.933  28.917  28.151  1.00  0.00     0.037 A 
ATOM     53  C   UNL A   1      39.746  31.540  30.151  1.00  0.00     0.037 A 
ATOM     54  C   UNL A   1      45.967  30.275  28.622  1.00  0.00     0.049 A 
ATOM     55  C   UNL A   1      41.022  32.335  30.272  1.00  0.00     0.074 A 
ATOM     56  C   UNL A   1      47.055  31.126  28.707  1.00  0.00     0.029 A 
ATOM     57  N   UNL A   1      44.869  30.980  29.091  1.00  0.00    -0.354 N 
ATOM     58  N   UNL A   1      42.240  31.999  29.918  1.00  0.00    -0.248 NA
ATOM     59  C   UNL A   1      40.921  33.681  30.857  1.00  0.00     0.031 C 
ATOM     60  C   UNL A   1      46.624  32.327  29.274  1.00  0.00     0.029 A 
ATOM     61  C   UNL A   1      45.257  32.248  29.489  1.00  0.00     0.049 A 
ATOM     62  H   UNL A   1      43.950  30.629  29.136  1.00  0.00     0.167 HD
ATOM     63  C   UNL A   1      43.041  33.100  30.206  1.00  0.00     0.074 A 
ATOM     64  C   UNL A   1      42.171  34.115  30.760  1.00  0.00     0.031 C 
ATOM     65  C   UNL A   1      44.375  33.257  30.022  1.00  0.00     0.037 A 
BRANCH  52  66
ATOM     66  C   UNL A   1      47.216  28.294  27.679  1.00  0.00     0.058 A 
ATOM     67  C   UNL A   1      47.643  28.419  26.347  1.00  0.00     0.135 A 
ATOM     68  C   UNL A   1      48.056  27.617  28.577  1.00  0.00     0.135 A 
ATOM     69  F   UNL A   1      46.868  29.038  25.443  1.00  0.00    -0.206 F 
ATOM     70  C   UNL A   1      48.854  27.884  25.920  1.00  0.00     0.059 A 
ATOM     71  C   UNL A   1      49.284  27.097  28.177  1.00  0.00     0.059 A 
ATOM     72  F   UNL A   1      47.692  27.464  29.859  1.00  0.00    -0.206 F 
ATOM     73  C   UNL A   1      49.670  27.230  26.843  1.00  0.00     0.060 A 
BRANCH  73  74
ATOM     74  S   UNL A   1      51.248  26.566  26.274  1.00  0.00     0.124 S 
ATOM     75  O   UNL A   1      51.517  25.545  27.283  1.00  0.00    -0.237 OA
ATOM     76  O   UNL A   1      50.912  26.068  24.944  1.00  0.00    -0.237 OA
ATOM     77  O   UNL A   1      52.137  27.723  26.303  1.00  0.00    -0.744 OA
ENDBRANCH  73  74
ENDBRANCH  52  66
BRANCH  53  78
ATOM     78  C   UNL A   1      38.442  32.131  30.563  1.00  0.00     0.058 A 
ATOM     79  C   UNL A   1      37.891  31.855  31.823  1.00  0.00     0.135 A 
ATOM     80  C   UNL A   1      37.725  32.984  29.709  1.00  0.00     0.135 A 
ATOM     81  F   UNL A   1      38.531  31.035  32.669  1.00  0.00    -0.206 F 
ATOM     82  C   UNL A   1      36.673  32.398  32.221  1.00  0.00     0.059 A 
ATOM     83  C   UNL A   1      36.517  33.559  30.095  1.00  0.00     0.059 A 
ATOM     84  F   UNL A   1      38.211  33.285  28.494  1.00  0.00    -0.206 F 
ATOM     85  C   UNL A   1      35.996  33.255  31.351  1.00  0.00     0.060 A 
BRANCH  85  86
ATOM     86  S   UNL A   1      34.442  33.990  31.903  1.00  0.00     0.124 S 
ATOM     87  O   UNL A   1      33.709  34.108  30.647  1.00  0.00    -0.237 OA
ATOM     88  O   UNL A   1      33.947  32.985  32.838  1.00  0.00    -0.237 OA
ATOM     89  O   UNL A   1      34.861  35.250  32.510  1.00  0.00    -0.744 OA
ENDBRANCH  85  86
ENDBRANCH  53  78
BRANCH  65  90
ATOM     90  C   UNL A   1      44.992  34.581  30.383  1.00  0.00     0.058 A 
ATOM     91  C   UNL A   1      45.571  34.806  31.640  1.00  0.00     0.135 A 
ATOM     92  C   UNL A   1      45.107  35.594  29.416  1.00  0.00     0.135 A 
ATOM     93  F   UNL A   1      45.487  33.872  32.602  1.00  0.00    -0.206 F 
ATOM     94  C   UNL A   1      46.242  35.991  31.928  1.00  0.00     0.059 A 
ATOM     95  C   UNL A   1      45.796  36.775  29.674  1.00  0.00     0.059 A 
ATOM     96  F   UNL A   1      44.580  35.425  28.193  1.00  0.00    -0.206 F 
ATOM     97  C   UNL A   1      46.358  36.965  30.934  1.00  0.00     0.060 A 
BRANCH  97  98
ATOM     98  S   UNL A   1      47.296  38.464  31.302  1.00  0.00     0.124 S 
ATOM     99  O   UNL A   1      46.938  39.321  30.175  1.00  0.00    -0.237 OA
ATOM    100  O   UNL A   1      46.752  38.861  32.597  1.00  0.00    -0.237 OA
ATOM    101  O   UNL A   1      48.682  38.004  31.325  1.00  0.00    -0.744 OA
ENDBRANCH  97  98
ENDBRANCH  65  90
ENDBRANCH  39  40
ENDBRANCH  32  34
ENDBRANCH  31  32
ENDBRANCH  30  31
ENDBRANCH  29  30
ENDBRANCH  28  29
ENDBRANCH  27  28
ENDBRANCH   1  27
TORSDOF 24
ENDMDL
MODEL 2
REMARK VINA RESULT:     -10.0      0.417      1.570
REMARK SMILES Cc1cc(Cl)c2c(c1)C=C(C(=O)OCCOCCOCCOCCOC(=O)c1ccc(-c3c4nc(c(-c5c(F)cc(S(=O)(=O)[O-])cc5F)c5ccc([nH]5)c(-c5c(F)cc(S(=O)(=O)[O-])cc5F)c5nc(c(-c6c(F)cc(S(=O)(=O)[O-])cc6F)c6ccc3[nH]6)C=C5)C=C4)cc1)[C@@H](C(F)(F)F)O2
REMARK SMILES IDX 20 1 19 2 18 3 17 4 16 5 15 6 14 7 13 8 11 9 12 10 10 11
REMARK SMILES IDX 1 12 2 13 3 14 8 15 4 16 7 17 5 18 6 19 9 20 99 21 94 22
REMARK SMILES IDX 95 23 96 24 97 25 98 26 21 27 22 28 23 29 24 30 25 31 26 32
REMARK SMILES IDX 27 33 28 34 29 35 93 36 30 37 92 38 31 39 32 40 33 41 86 42
REMARK SMILES IDX 34 43 91 44 85 45 87 46 35 47 90 48 84 49 83 50 36 52 70 53
REMARK SMILES IDX 49 54 69 55 50 56 53 57 68 58 88 59 51 60 52 61 67 63 89 64
REMARK SMILES IDX 54 65 37 66 38 67 47 68 39 69 40 70 46 71 48 72 41 73 42 74
REMARK SMILES IDX 43 75 44 76 45 77 71 78 72 79 81 80 73 81 74 82 80 83 82 84
REMARK SMILES IDX 75 85 76 86 77 87 78 88 79 89 55 90 56 91 65 92 57 93 58 94
REMARK SMILES IDX 64 95 66 96 59 97 60 98 61 99 62 100 63 101
REMARK H PARENT 87 51 53 62
REMARK Flexibility Score: inf
ROOT
ATOM      1  C   UNL A   1      34.663  22.117  26.485  1.00  0.00     0.188 C 
ENDROOT
BRANCH   1   2
ATOM      2  O   UNL A   1      33.667  23.123  26.683  1.00  0.00    -0.377 OA
BRANCH   2   3
ATOM      3  C   UNL A   1      32.428  22.731  27.250  1.00  0.00     0.188 C 
BRANCH   3   4
ATOM      4  C   UNL A   1      31.225  23.467  26.631  1.00  0.00     0.188 C 
BRANCH   4   5
ATOM      5  O   UNL A   1      30.867  22.965  25.353  1.00  0.00    -0.376 OA
BRANCH   5   6
ATOM      6  C   UNL A   1      31.033  23.775  24.200  1.00  0.00     0.202 C 
BRANCH   6   7
ATOM      7  C   UNL A   1      32.390  23.928  23.486  1.00  0.00     0.261 C 
BRANCH   7   8
ATOM      8  O   UNL A   1      33.166  25.086  23.810  1.00  0.00    -0.460 OA
BRANCH   8   9
ATOM      9  C   UNL A   1      33.084  26.153  22.998  1.00  0.00     0.338 C 
ATOM     10  O   UNL A   1      32.990  26.146  21.784  1.00  0.00    -0.246 OA
BRANCH   9  11
ATOM     11  C   UNL A   1      32.929  27.351  23.854  1.00  0.00     0.087 C 
ATOM     12  C   UNL A   1      35.534  30.189  28.657  1.00  0.00     0.044 C 
ATOM     13  C   UNL A   1      34.546  30.010  27.543  1.00  0.00    -0.049 A 
ATOM     14  C   UNL A   1      33.432  30.847  27.421  1.00  0.00     0.028 A 
ATOM     15  C   UNL A   1      34.703  28.955  26.636  1.00  0.00     0.015 A 
ATOM     16  C   UNL A   1      32.509  30.648  26.390  1.00  0.00     0.084 A 
ATOM     17  C   UNL A   1      33.753  28.727  25.629  1.00  0.00     0.019 A 
ATOM     18  Cl  UNL A   1      31.153  31.717  26.298  1.00  0.00    -0.080 Cl
ATOM     19  C   UNL A   1      32.666  29.591  25.484  1.00  0.00     0.146 A 
ATOM     20  C   UNL A   1      33.873  27.554  24.781  1.00  0.00     0.027 C 
ATOM     21  O   UNL A   1      31.733  29.448  24.495  1.00  0.00    -0.474 OA
ATOM     22  C   UNL A   1      31.791  28.307  23.595  1.00  0.00     0.316 C 
BRANCH  22  23
ATOM     23  C   UNL A   1      30.428  27.601  23.628  1.00  0.00     0.430 C 
ATOM     24  F   UNL A   1      29.414  28.477  23.439  1.00  0.00    -0.167 F 
ATOM     25  F   UNL A   1      30.324  26.658  22.665  1.00  0.00    -0.167 F 
ATOM     26  F   UNL A   1      30.222  26.989  24.819  1.00  0.00    -0.167 F 
ENDBRANCH  22  23
ENDBRANCH   9  11
ENDBRANCH   8   9
ENDBRANCH   7   8
ENDBRANCH   6   7
ENDBRANCH   5   6
ENDBRANCH   4   5
ENDBRANCH   3   4
ENDBRANCH   2   3
ENDBRANCH   1   2
BRANCH   1  27
ATOM     27  C   UNL A   1      35.067  21.627  25.073  1.00  0.00     0.188 C 
BRANCH  27  28
ATOM     28  O   UNL A   1      35.760  20.383  25.059  1.00  0.00    -0.376 OA
BRANCH  28  29
ATOM     29  C   UNL A   1      37.164  20.420  24.855  1.00  0.00     0.202 C 
BRANCH  29  30
ATOM     30  C   UNL A   1      37.782  21.824  24.860  1.00  0.00     0.261 C 
BRANCH  30  31
ATOM     31  O   UNL A   1      38.217  22.303  26.140  1.00  0.00    -0.460 OA
BRANCH  31  32
ATOM     32  C   UNL A   1      39.530  22.189  26.437  1.00  0.00     0.338 C 
ATOM     33  O   UNL A   1      40.266  21.253  26.178  1.00  0.00    -0.246 OA
BRANCH  32  34
ATOM     34  C   UNL A   1      39.969  23.494  26.970  1.00  0.00     0.060 A 
ATOM     35  C   UNL A   1      39.417  24.669  26.445  1.00  0.00     0.016 A 
ATOM     36  C   UNL A   1      40.898  23.549  28.012  1.00  0.00     0.016 A 
ATOM     37  C   UNL A   1      39.809  25.908  26.956  1.00  0.00     0.010 A 
ATOM     38  C   UNL A   1      41.302  24.789  28.509  1.00  0.00     0.010 A 
ATOM     39  C   UNL A   1      40.777  25.975  27.967  1.00  0.00    -0.014 A 
BRANCH  39  40
ATOM     40  C   UNL A   1      41.363  27.282  28.345  1.00  0.00     0.031 A 
ATOM     41  C   UNL A   1      42.843  27.482  28.167  1.00  0.00     0.074 A 
ATOM     42  C   UNL A   1      40.593  28.279  28.819  1.00  0.00     0.049 A 
ATOM     43  N   UNL A   1      43.575  28.531  28.431  1.00  0.00    -0.248 NA
ATOM     44  C   UNL A   1      43.597  26.343  27.613  1.00  0.00     0.031 C 
ATOM     45  C   UNL A   1      39.145  28.214  29.006  1.00  0.00     0.029 A 
ATOM     46  N   UNL A   1      40.928  29.547  29.227  1.00  0.00    -0.354 N 
ATOM     47  C   UNL A   1      44.870  28.188  28.063  1.00  0.00     0.074 A 
ATOM     48  C   UNL A   1      44.834  26.818  27.601  1.00  0.00     0.031 C 
ATOM     49  C   UNL A   1      38.714  29.393  29.490  1.00  0.00     0.029 A 
ATOM     50  C   UNL A   1      39.858  30.286  29.674  1.00  0.00     0.049 A 
ATOM     51  H   UNL A   1      41.849  29.894  29.204  1.00  0.00     0.167 HD
ATOM     52  C   UNL A   1      45.987  28.953  28.093  1.00  0.00     0.037 A 
ATOM     53  C   UNL A   1      39.811  31.536  30.178  1.00  0.00     0.037 A 
ATOM     54  C   UNL A   1      46.019  30.310  28.566  1.00  0.00     0.049 A 
ATOM     55  C   UNL A   1      41.084  32.339  30.284  1.00  0.00     0.074 A 
ATOM     56  C   UNL A   1      47.103  31.168  28.639  1.00  0.00     0.029 A 
ATOM     57  N   UNL A   1      44.923  31.008  29.051  1.00  0.00    -0.354 N 
ATOM     58  N   UNL A   1      42.299  32.010  29.914  1.00  0.00    -0.248 NA
ATOM     59  C   UNL A   1      40.982  33.682  30.873  1.00  0.00     0.031 C 
ATOM     60  C   UNL A   1      46.673  32.365  29.214  1.00  0.00     0.029 A 
ATOM     61  C   UNL A   1      45.308  32.277  29.446  1.00  0.00     0.049 A 
ATOM     62  H   UNL A   1      44.006  30.652  29.107  1.00  0.00     0.167 HD
ATOM     63  C   UNL A   1      43.097  33.115  30.194  1.00  0.00     0.074 A 
ATOM     64  C   UNL A   1      42.228  34.124  30.761  1.00  0.00     0.031 C 
ATOM     65  C   UNL A   1      44.428  33.280  29.993  1.00  0.00     0.037 A 
BRANCH  52  66
ATOM     66  C   UNL A   1      47.267  28.338  27.602  1.00  0.00     0.058 A 
ATOM     67  C   UNL A   1      48.167  27.721  28.485  1.00  0.00     0.135 A 
ATOM     68  C   UNL A   1      47.569  28.313  26.232  1.00  0.00     0.135 A 
ATOM     69  F   UNL A   1      47.937  27.735  29.807  1.00  0.00    -0.206 F 
ATOM     70  C   UNL A   1      49.329  27.109  28.027  1.00  0.00     0.059 A 
ATOM     71  C   UNL A   1      48.713  27.684  25.749  1.00  0.00     0.059 A 
ATOM     72  F   UNL A   1      46.745  28.895  25.347  1.00  0.00    -0.206 F 
ATOM     73  C   UNL A   1      49.591  27.091  26.656  1.00  0.00     0.060 A 
BRANCH  73  74
ATOM     74  S   UNL A   1      51.091  26.271  26.080  1.00  0.00     0.124 S 
ATOM     75  O   UNL A   1      50.868  24.902  26.533  1.00  0.00    -0.237 OA
ATOM     76  O   UNL A   1      51.024  26.479  24.637  1.00  0.00    -0.237 OA
ATOM     77  O   UNL A   1      52.160  26.991  26.767  1.00  0.00    -0.744 OA
ENDBRANCH  73  74
ENDBRANCH  52  66
BRANCH  53  78
ATOM     78  C   UNL A   1      38.509  32.118  30.607  1.00  0.00     0.058 A 
ATOM     79  C   UNL A   1      37.760  32.927  29.741  1.00  0.00     0.135 A 
ATOM     80  C   UNL A   1      37.986  31.873  31.887  1.00  0.00     0.135 A 
ATOM     81  F   UNL A   1      38.223  33.203  28.512  1.00  0.00    -0.206 F 
ATOM     82  C   UNL A   1      36.542  33.480  30.127  1.00  0.00     0.059 A 
ATOM     83  C   UNL A   1      36.758  32.394  32.288  1.00  0.00     0.059 A 
ATOM     84  F   UNL A   1      38.660  31.100  32.753  1.00  0.00    -0.206 F 
ATOM     85  C   UNL A   1      36.047  33.201  31.402  1.00  0.00     0.060 A 
BRANCH  85  86
ATOM     86  S   UNL A   1      34.442  33.885  31.871  1.00  0.00     0.124 S 
ATOM     87  O   UNL A   1      33.894  34.266  30.574  1.00  0.00    -0.237 OA
ATOM     88  O   UNL A   1      33.806  32.745  32.522  1.00  0.00    -0.237 OA
ATOM     89  O   UNL A   1      34.792  34.990  32.758  1.00  0.00    -0.744 OA
ENDBRANCH  85  86
ENDBRANCH  53  78
BRANCH  65  90
ATOM     90  C   UNL A   1      45.042  34.607  30.348  1.00  0.00     0.058 A 
ATOM     91  C   UNL A   1      45.174  35.634  29.403  1.00  0.00     0.135 A 
ATOM     92  C   UNL A   1      45.395  34.889  31.679  1.00  0.00     0.135 A 
ATOM     93  F   UNL A   1      44.855  35.416  28.117  1.00  0.00    -0.206 F 
ATOM     94  C   UNL A   1      45.635  36.897  29.764  1.00  0.00     0.059 A 
ATOM     95  C   UNL A   1      45.834  36.151  32.067  1.00  0.00     0.059 A 
ATOM     96  F   UNL A   1      45.278  33.943  32.625  1.00  0.00    -0.206 F 
ATOM     97  C   UNL A   1      45.952  37.149  31.100  1.00  0.00     0.060 A 
BRANCH  97  98
ATOM     98  S   UNL A   1      46.479  38.813  31.563  1.00  0.00     0.124 S 
ATOM     99  O   UNL A   1      47.764  38.917  30.879  1.00  0.00    -0.237 OA
ATOM    100  O   UNL A   1      45.404  39.640  31.023  1.00  0.00    -0.237 OA
ATOM    101  O   UNL A   1      46.547  38.758  33.021  1.00  0.00    -0.744 OA
ENDBRANCH  97  98
ENDBRANCH  65  90
ENDBRANCH  39  40
ENDBRANCH  32  34
ENDBRANCH  31  32
ENDBRANCH  30  31
ENDBRANCH  29  30
ENDBRANCH  28  29
ENDBRANCH  27  28
ENDBRANCH   1  27
TORSDOF 24
ENDMDL
MODEL 3
REMARK VINA RESULT:      -9.9      0.673      7.991
REMARK SMILES Cc1cc(Cl)c2c(c1)C=C(C(=O)OCCOCCOCCOCCOC(=O)c1ccc(-c3c4nc(c(-c5c(F)cc(S(=O)(=O)[O-])cc5F)c5ccc([nH]5)c(-c5c(F)cc(S(=O)(=O)[O-])cc5F)c5nc(c(-c6c(F)cc(S(=O)(=O)[O-])cc6F)c6ccc3[nH]6)C=C5)C=C4)cc1)[C@@H](C(F)(F)F)O2
REMARK SMILES IDX 20 1 19 2 18 3 17 4 16 5 15 6 14 7 13 8 11 9 12 10 10 11
REMARK SMILES IDX 1 12 2 13 3 14 8 15 4 16 7 17 5 18 6 19 9 20 99 21 94 22
REMARK SMILES IDX 95 23 96 24 97 25 98 26 21 27 22 28 23 29 24 30 25 31 26 32
REMARK SMILES IDX 27 33 28 34 29 35 93 36 30 37 92 38 31 39 32 40 33 41 86 42
REMARK SMILES IDX 34 43 91 44 85 45 87 46 35 47 90 48 84 49 83 50 36 52 70 53
REMARK SMILES IDX 49 54 69 55 50 56 53 57 68 58 88 59 51 60 52 61 67 63 89 64
REMARK SMILES IDX 54 65 37 66 38 67 47 68 39 69 40 70 46 71 48 72 41 73 42 74
REMARK SMILES IDX 43 75 44 76 45 77 71 78 72 79 81 80 73 81 74 82 80 83 82 84
REMARK SMILES IDX 75 85 76 86 77 87 78 88 79 89 55 90 56 91 65 92 57 93 58 94
REMARK SMILES IDX 64 95 66 96 59 97 60 98 61 99 62 100 63 101
REMARK H PARENT 87 51 53 62
REMARK Flexibility Score: inf
ROOT
ATOM      1  C   UNL A   1      34.334  22.270  26.561  1.00  0.00     0.188 C 
ENDROOT
BRANCH   1   2
ATOM      2  O   UNL A   1      33.454  23.388  26.694  1.00  0.00    -0.377 OA
BRANCH   2   3
ATOM      3  C   UNL A   1      32.132  23.146  27.146  1.00  0.00     0.188 C 
BRANCH   3   4
ATOM      4  C   UNL A   1      31.061  23.545  26.114  1.00  0.00     0.188 C 
BRANCH   4   5
ATOM      5  O   UNL A   1      31.198  22.858  24.880  1.00  0.00    -0.376 OA
BRANCH   5   6
ATOM      6  C   UNL A   1      31.370  23.589  23.676  1.00  0.00     0.202 C 
BRANCH   6   7
ATOM      7  C   UNL A   1      32.759  23.974  23.133  1.00  0.00     0.261 C 
BRANCH   7   8
ATOM      8  O   UNL A   1      33.361  25.156  23.672  1.00  0.00    -0.460 OA
BRANCH   8   9
ATOM      9  C   UNL A   1      33.373  26.265  22.914  1.00  0.00     0.338 C 
ATOM     10  O   UNL A   1      33.375  26.322  21.697  1.00  0.00    -0.246 OA
BRANCH   9  11
ATOM     11  C   UNL A   1      33.183  27.423  23.818  1.00  0.00     0.087 C 
ATOM     12  C   UNL A   1      35.693  30.122  28.749  1.00  0.00     0.044 C 
ATOM     13  C   UNL A   1      34.716  29.965  27.623  1.00  0.00    -0.049 A 
ATOM     14  C   UNL A   1      33.582  30.779  27.528  1.00  0.00     0.028 A 
ATOM     15  C   UNL A   1      34.903  28.953  26.674  1.00  0.00     0.015 A 
ATOM     16  C   UNL A   1      32.670  30.601  26.484  1.00  0.00     0.084 A 
ATOM     17  C   UNL A   1      33.965  28.743  25.653  1.00  0.00     0.019 A 
ATOM     18  Cl  UNL A   1      31.289  31.639  26.427  1.00  0.00    -0.080 Cl
ATOM     19  C   UNL A   1      32.858  29.586  25.536  1.00  0.00     0.146 A 
ATOM     20  C   UNL A   1      34.118  27.610  24.758  1.00  0.00     0.027 C 
ATOM     21  O   UNL A   1      31.934  29.462  24.536  1.00  0.00    -0.474 OA
ATOM     22  C   UNL A   1      32.025  28.361  23.591  1.00  0.00     0.316 C 
BRANCH  22  23
ATOM     23  C   UNL A   1      30.679  27.621  23.586  1.00  0.00     0.430 C 
ATOM     24  F   UNL A   1      30.500  26.931  22.436  1.00  0.00    -0.167 F 
ATOM     25  F   UNL A   1      30.587  26.733  24.601  1.00  0.00    -0.167 F 
ATOM     26  F   UNL A   1      29.644  28.486  23.708  1.00  0.00    -0.167 F 
ENDBRANCH  22  23
ENDBRANCH   9  11
ENDBRANCH   8   9
ENDBRANCH   7   8
ENDBRANCH   6   7
ENDBRANCH   5   6
ENDBRANCH   4   5
ENDBRANCH   3   4
ENDBRANCH   2   3
ENDBRANCH   1   2
BRANCH   1  27
ATOM     27  C   UNL A   1      34.692  21.666  25.181  1.00  0.00     0.188 C 
BRANCH  27  28
ATOM     28  O   UNL A   1      35.346  20.402  25.245  1.00  0.00    -0.376 OA
BRANCH  28  29
ATOM     29  C   UNL A   1      36.741  20.376  24.990  1.00  0.00     0.202 C 
BRANCH  29  30
ATOM     30  C   UNL A   1      37.392  21.753  24.810  1.00  0.00     0.261 C 
BRANCH  30  31
ATOM     31  O   UNL A   1      37.915  22.351  26.004  1.00  0.00    -0.460 OA
BRANCH  31  32
ATOM     32  C   UNL A   1      39.196  22.076  26.333  1.00  0.00     0.338 C 
ATOM     33  O   UNL A   1      39.803  21.039  26.129  1.00  0.00    -0.246 OA
BRANCH  32  34
ATOM     34  C   UNL A   1      39.799  23.333  26.817  1.00  0.00     0.060 A 
ATOM     35  C   UNL A   1      39.575  24.519  26.106  1.00  0.00     0.016 A 
ATOM     36  C   UNL A   1      40.554  23.342  27.993  1.00  0.00     0.016 A 
ATOM     37  C   UNL A   1      40.122  25.718  26.567  1.00  0.00     0.010 A 
ATOM     38  C   UNL A   1      41.115  24.537  28.442  1.00  0.00     0.010 A 
ATOM     39  C   UNL A   1      40.922  25.727  27.718  1.00  0.00    -0.014 A 
BRANCH  39  40
ATOM     40  C   UNL A   1      41.691  26.942  28.076  1.00  0.00     0.031 A 
ATOM     41  C   UNL A   1      40.961  28.087  28.723  1.00  0.00     0.074 A 
ATOM     42  C   UNL A   1      43.015  27.020  27.848  1.00  0.00     0.049 A 
ATOM     43  N   UNL A   1      41.419  29.245  29.117  1.00  0.00    -0.248 NA
ATOM     44  C   UNL A   1      39.519  27.896  28.960  1.00  0.00     0.031 C 
ATOM     45  C   UNL A   1      43.835  25.965  27.256  1.00  0.00     0.029 A 
ATOM     46  N   UNL A   1      43.903  28.038  28.093  1.00  0.00    -0.354 N 
ATOM     47  C   UNL A   1      40.330  29.915  29.660  1.00  0.00     0.074 A 
ATOM     48  C   UNL A   1      39.178  29.055  29.504  1.00  0.00     0.031 C 
ATOM     49  C   UNL A   1      45.109  26.390  27.186  1.00  0.00     0.029 A 
ATOM     50  C   UNL A   1      45.190  27.756  27.702  1.00  0.00     0.049 A 
ATOM     51  H   UNL A   1      43.641  28.892  28.509  1.00  0.00     0.167 HD
ATOM     52  C   UNL A   1      40.297  31.133  30.251  1.00  0.00     0.037 A 
ATOM     53  C   UNL A   1      46.303  28.518  27.750  1.00  0.00     0.037 A 
ATOM     54  C   UNL A   1      41.443  31.989  30.392  1.00  0.00     0.049 A 
ATOM     55  C   UNL A   1      46.223  29.907  28.334  1.00  0.00     0.074 A 
ATOM     56  C   UNL A   1      41.511  33.243  30.973  1.00  0.00     0.029 A 
ATOM     57  N   UNL A   1      42.720  31.686  29.943  1.00  0.00    -0.354 N 
ATOM     58  N   UNL A   1      45.192  30.521  28.862  1.00  0.00    -0.248 NA
ATOM     59  C   UNL A   1      47.458  30.707  28.330  1.00  0.00     0.031 C 
ATOM     60  C   UNL A   1      42.816  33.718  30.832  1.00  0.00     0.029 A 
ATOM     61  C   UNL A   1      43.578  32.738  30.215  1.00  0.00     0.049 A 
ATOM     62  H   UNL A   1      42.978  30.847  29.497  1.00  0.00     0.167 HD
ATOM     63  C   UNL A   1      45.659  31.763  29.283  1.00  0.00     0.074 A 
ATOM     64  C   UNL A   1      47.067  31.813  28.951  1.00  0.00     0.031 C 
ATOM     65  C   UNL A   1      44.984  32.767  29.894  1.00  0.00     0.037 A 
BRANCH  52  66
ATOM     66  C   UNL A   1      38.979  31.613  30.789  1.00  0.00     0.058 A 
ATOM     67  C   UNL A   1      38.495  31.180  32.033  1.00  0.00     0.135 A 
ATOM     68  C   UNL A   1      38.220  32.560  30.083  1.00  0.00     0.135 A 
ATOM     69  F   UNL A   1      39.171  30.259  32.740  1.00  0.00    -0.206 F 
ATOM     70  C   UNL A   1      37.298  31.660  32.554  1.00  0.00     0.059 A 
ATOM     71  C   UNL A   1      37.033  33.073  30.597  1.00  0.00     0.059 A 
ATOM     72  F   UNL A   1      38.635  33.001  28.886  1.00  0.00    -0.206 F 
ATOM     73  C   UNL A   1      36.577  32.611  31.831  1.00  0.00     0.060 A 
BRANCH  73  74
ATOM     74  S   UNL A   1      35.040  33.239  32.536  1.00  0.00     0.124 S 
ATOM     75  O   UNL A   1      35.312  33.139  33.967  1.00  0.00    -0.237 OA
ATOM     76  O   UNL A   1      34.982  34.594  31.996  1.00  0.00    -0.237 OA
ATOM     77  O   UNL A   1      34.028  32.319  32.026  1.00  0.00    -0.744 OA
ENDBRANCH  73  74
ENDBRANCH  52  66
BRANCH  53  78
ATOM     78  C   UNL A   1      47.597  27.979  27.247  1.00  0.00     0.058 A 
ATOM     79  C   UNL A   1      48.543  27.434  28.128  1.00  0.00     0.135 A 
ATOM     80  C   UNL A   1      47.911  27.993  25.879  1.00  0.00     0.135 A 
ATOM     81  F   UNL A   1      48.296  27.410  29.446  1.00  0.00    -0.206 F 
ATOM     82  C   UNL A   1      49.757  26.927  27.673  1.00  0.00     0.059 A 
ATOM     83  C   UNL A   1      49.108  27.469  25.398  1.00  0.00     0.059 A 
ATOM     84  F   UNL A   1      47.039  28.498  24.993  1.00  0.00    -0.206 F 
ATOM     85  C   UNL A   1      50.027  26.945  26.304  1.00  0.00     0.060 A 
BRANCH  85  86
ATOM     86  S   UNL A   1      51.586  26.239  25.726  1.00  0.00     0.124 S 
ATOM     87  O   UNL A   1      51.502  26.474  24.288  1.00  0.00    -0.237 OA
ATOM     88  O   UNL A   1      52.568  27.041  26.447  1.00  0.00    -0.237 OA
ATOM     89  O   UNL A   1      51.499  24.842  26.143  1.00  0.00    -0.744 OA
ENDBRANCH  85  86
ENDBRANCH  53  78
BRANCH  65  90
ATOM     90  C   UNL A   1      45.748  34.002  30.287  1.00  0.00     0.058 A 
ATOM     91  C   UNL A   1      45.726  35.163  29.500  1.00  0.00     0.135 A 
ATOM     92  C   UNL A   1      46.413  34.060  31.523  1.00  0.00     0.135 A 
ATOM     93  F   UNL A   1      45.109  35.161  28.307  1.00  0.00    -0.206 F 
ATOM     94  C   UNL A   1      46.339  36.338  29.924  1.00  0.00     0.059 A 
ATOM     95  C   UNL A   1      47.009  35.231  31.979  1.00  0.00     0.059 A 
ATOM     96  F   UNL A   1      46.454  32.979  32.320  1.00  0.00    -0.206 F 
ATOM     97  C   UNL A   1      46.969  36.365  31.171  1.00  0.00     0.060 A 
BRANCH  97  98
ATOM     98  S   UNL A   1      47.694  37.920  31.737  1.00  0.00     0.124 S 
ATOM     99  O   UNL A   1      48.984  37.473  32.254  1.00  0.00    -0.237 OA
ATOM    100  O   UNL A   1      47.741  38.706  30.508  1.00  0.00    -0.237 OA
ATOM    101  O   UNL A   1      46.746  38.393  32.741  1.00  0.00    -0.744 OA
ENDBRANCH  97  98
ENDBRANCH  65  90
ENDBRANCH  39  40
ENDBRANCH  32  34
ENDBRANCH  31  32
ENDBRANCH  30  31
ENDBRANCH  29  30
ENDBRANCH  28  29
ENDBRANCH  27  28
ENDBRANCH   1  27
TORSDOF 24
ENDMDL
