MODEL 1
REMARK VINA RESULT:      -9.2      0.000      0.000
REMARK SMILES O=C(N[C@@H](CS)C(=O)N[C@@H](CO)C(=O)OCCOCCOCCOCCOC(=O)c1ccc(-c2c3nc(c(-c4c(F)cc(S(=O)(=O)[O-])cc4F)c4ccc([nH]4)c(-c4c(F)cc(S(=O)(=O)[O-])cc4F)c4nc(c(-c5c(F)cc(S(=O)(=O)[O-])cc5F)c5ccc2[nH]5)C=C4)C=C3)cc1)c1ccc(F)cc1
REMARK SMILES IDX 20 1 19 2 18 3 17 4 16 5 15 6 13 7 14 8 10 9 9 10 7 11 8 12
REMARK SMILES IDX 4 14 3 15 1 16 2 17 96 19 97 20 102 21 98 22 101 23 99 24
REMARK SMILES IDX 100 25 5 26 6 27 11 29 12 30 21 32 22 33 23 34 24 35 25 36
REMARK SMILES IDX 26 37 27 38 28 39 29 40 30 41 31 42 95 43 32 44 94 45 33 46
REMARK SMILES IDX 34 47 35 48 88 49 36 50 93 51 87 52 89 53 37 54 92 55 86 56
REMARK SMILES IDX 85 57 38 59 72 60 51 61 71 62 52 63 55 64 70 65 90 66 53 67
REMARK SMILES IDX 54 68 69 70 91 71 56 72 39 73 40 74 49 75 41 76 42 77 48 78
REMARK SMILES IDX 50 79 43 80 44 81 45 82 46 83 47 84 73 85 74 86 83 87 75 88
REMARK SMILES IDX 76 89 82 90 84 91 77 92 78 93 79 94 80 95 81 96 57 97 58 98
REMARK SMILES IDX 67 99 59 100 60 101 66 102 68 103 61 104 62 105 63 106
REMARK SMILES IDX 64 107 65 108
REMARK H PARENT 9 13 3 18 6 28 12 31 89 58 55 69
REMARK Flexibility Score: inf
ROOT
ATOM      1  C   UNL A   1      36.778  22.012  25.279  1.00  0.00     0.188 C 
ENDROOT
BRANCH   1   2
ATOM      2  C   UNL A   1      35.438  21.367  25.667  1.00  0.00     0.188 C 
BRANCH   2   3
ATOM      3  O   UNL A   1      34.752  20.519  24.760  1.00  0.00    -0.376 OA
BRANCH   3   4
ATOM      4  C   UNL A   1      33.538  19.900  25.163  1.00  0.00     0.202 C 
BRANCH   4   5
ATOM      5  C   UNL A   1      32.189  20.623  24.977  1.00  0.00     0.261 C 
BRANCH   5   6
ATOM      6  O   UNL A   1      32.240  22.061  24.854  1.00  0.00    -0.462 OA
BRANCH   6   7
ATOM      7  C   UNL A   1      32.226  22.568  23.595  1.00  0.00     0.331 C 
ATOM      8  O   UNL A   1      31.780  21.983  22.612  1.00  0.00    -0.250 OA
BRANCH   7   9
ATOM      9  C   UNL A   1      32.876  23.964  23.474  1.00  0.00     0.218 C 
BRANCH   9  10
ATOM     10  N   UNL A   1      34.090  24.273  24.246  1.00  0.00    -0.339 N 
ATOM     11  C   UNL A   1      34.383  25.240  25.157  1.00  0.00     0.244 C 
ATOM     12  O   UNL A   1      35.490  25.163  25.708  1.00  0.00    -0.273 OA
ATOM     13  H   UNL A   1      34.838  23.658  24.069  1.00  0.00     0.164 HD
BRANCH  11  14
ATOM     14  C   UNL A   1      33.410  26.348  25.618  1.00  0.00     0.181 C 
BRANCH  14  15
ATOM     15  N   UNL A   1      32.098  25.856  26.031  1.00  0.00    -0.339 N 
ATOM     16  O   UNL A   1      29.862  25.772  26.170  1.00  0.00    -0.269 OA
ATOM     17  C   UNL A   1      30.850  26.240  25.610  1.00  0.00     0.251 C 
ATOM     18  H   UNL A   1      32.110  25.146  26.713  1.00  0.00     0.164 HD
BRANCH  17  19
ATOM     19  C   UNL A   1      30.668  27.243  24.534  1.00  0.00     0.040 A 
ATOM     20  C   UNL A   1      30.625  28.620  24.792  1.00  0.00     0.017 A 
ATOM     21  C   UNL A   1      30.596  26.777  23.215  1.00  0.00     0.017 A 
ATOM     22  C   UNL A   1      30.416  29.518  23.744  1.00  0.00     0.040 A 
ATOM     23  C   UNL A   1      30.414  27.681  22.165  1.00  0.00     0.040 A 
ATOM     24  C   UNL A   1      30.310  29.040  22.441  1.00  0.00     0.123 A 
ATOM     25  F   UNL A   1      30.116  29.902  21.436  1.00  0.00    -0.207 F 
ENDBRANCH  17  19
ENDBRANCH  14  15
BRANCH  14  26
ATOM     26  C   UNL A   1      34.023  27.443  26.511  1.00  0.00     0.101 C 
BRANCH  26  27
ATOM     27  S   UNL A   1      33.758  29.190  26.069  1.00  0.00    -0.177 SA
ATOM     28  H   UNL A   1      32.582  29.619  26.600  1.00  0.00     0.102 HD
ENDBRANCH  26  27
ENDBRANCH  14  26
ENDBRANCH  11  14
ENDBRANCH   9  10
BRANCH   9  29
ATOM     29  C   UNL A   1      33.157  24.195  21.986  1.00  0.00     0.193 C 
BRANCH  29  30
ATOM     30  O   UNL A   1      33.651  25.512  21.745  1.00  0.00    -0.394 OA
ATOM     31  H   UNL A   1      34.273  25.757  22.447  1.00  0.00     0.210 HD
ENDBRANCH  29  30
ENDBRANCH   9  29
ENDBRANCH   7   9
ENDBRANCH   6   7
ENDBRANCH   5   6
ENDBRANCH   4   5
ENDBRANCH   3   4
ENDBRANCH   2   3
ENDBRANCH   1   2
BRANCH   1  32
ATOM     32  O   UNL A   1      37.265  22.992  26.167  1.00  0.00    -0.377 OA
BRANCH  32  33
ATOM     33  C   UNL A   1      38.678  23.094  26.254  1.00  0.00     0.188 C 
BRANCH  33  34
ATOM     34  C   UNL A   1      39.479  21.783  26.124  1.00  0.00     0.188 C 
BRANCH  34  35
ATOM     35  O   UNL A   1      40.370  21.539  27.212  1.00  0.00    -0.376 OA
BRANCH  35  36
ATOM     36  C   UNL A   1      41.427  22.458  27.449  1.00  0.00     0.202 C 
BRANCH  36  37
ATOM     37  C   UNL A   1      42.143  23.061  26.227  1.00  0.00     0.261 C 
BRANCH  37  38
ATOM     38  O   UNL A   1      42.674  24.386  26.377  1.00  0.00    -0.460 OA
BRANCH  38  39
ATOM     39  C   UNL A   1      41.826  25.426  26.210  1.00  0.00     0.338 C 
ATOM     40  O   UNL A   1      41.101  25.629  25.260  1.00  0.00    -0.246 OA
BRANCH  39  41
ATOM     41  C   UNL A   1      41.761  26.166  27.492  1.00  0.00     0.060 A 
ATOM     42  C   UNL A   1      40.622  26.009  28.292  1.00  0.00     0.016 A 
ATOM     43  C   UNL A   1      42.805  26.998  27.903  1.00  0.00     0.016 A 
ATOM     44  C   UNL A   1      40.500  26.726  29.480  1.00  0.00     0.010 A 
ATOM     45  C   UNL A   1      42.670  27.736  29.084  1.00  0.00     0.010 A 
ATOM     46  C   UNL A   1      41.497  27.637  29.853  1.00  0.00    -0.014 A 
BRANCH  46  47
ATOM     47  C   UNL A   1      41.195  28.634  30.908  1.00  0.00     0.031 A 
ATOM     48  C   UNL A   1      42.048  28.634  32.149  1.00  0.00     0.074 A 
ATOM     49  C   UNL A   1      40.234  29.561  30.745  1.00  0.00     0.049 A 
ATOM     50  N   UNL A   1      41.996  29.416  33.195  1.00  0.00    -0.248 NA
ATOM     51  C   UNL A   1      43.109  27.613  32.215  1.00  0.00     0.031 C 
ATOM     52  C   UNL A   1      39.372  29.688  29.571  1.00  0.00     0.029 A 
ATOM     53  N   UNL A   1      39.825  30.575  31.574  1.00  0.00    -0.354 N 
ATOM     54  C   UNL A   1      43.011  28.982  34.041  1.00  0.00     0.074 A 
ATOM     55  C   UNL A   1      43.637  27.845  33.406  1.00  0.00     0.031 C 
ATOM     56  C   UNL A   1      38.532  30.721  29.757  1.00  0.00     0.029 A 
ATOM     57  C   UNL A   1      38.776  31.310  31.074  1.00  0.00     0.049 A 
ATOM     58  H   UNL A   1      40.243  30.759  32.445  1.00  0.00     0.167 HD
ATOM     59  C   UNL A   1      43.395  29.494  35.234  1.00  0.00     0.037 A 
ATOM     60  C   UNL A   1      38.087  32.329  31.624  1.00  0.00     0.037 A 
ATOM     61  C   UNL A   1      42.764  30.625  35.863  1.00  0.00     0.049 A 
ATOM     62  C   UNL A   1      38.486  32.837  32.988  1.00  0.00     0.074 A 
ATOM     63  C   UNL A   1      43.083  31.228  37.066  1.00  0.00     0.029 A 
ATOM     64  N   UNL A   1      41.680  31.318  35.344  1.00  0.00    -0.354 N 
ATOM     65  N   UNL A   1      39.463  32.434  33.767  1.00  0.00    -0.248 NA
ATOM     66  C   UNL A   1      37.696  33.945  33.543  1.00  0.00     0.031 C 
ATOM     67  C   UNL A   1      42.155  32.248  37.302  1.00  0.00     0.029 A 
ATOM     68  C   UNL A   1      41.299  32.324  36.215  1.00  0.00     0.049 A 
ATOM     69  H   UNL A   1      41.244  31.123  34.482  1.00  0.00     0.167 HD
ATOM     70  C   UNL A   1      39.424  33.260  34.888  1.00  0.00     0.074 A 
ATOM     71  C   UNL A   1      38.336  34.193  34.677  1.00  0.00     0.031 C 
ATOM     72  C   UNL A   1      40.216  33.249  35.990  1.00  0.00     0.037 A 
BRANCH  59  73
ATOM     73  C   UNL A   1      44.531  28.816  35.951  1.00  0.00     0.058 A 
ATOM     74  C   UNL A   1      45.863  29.232  35.793  1.00  0.00     0.135 A 
ATOM     75  C   UNL A   1      44.279  27.752  36.832  1.00  0.00     0.135 A 
ATOM     76  F   UNL A   1      46.164  30.229  34.946  1.00  0.00    -0.206 F 
ATOM     77  C   UNL A   1      46.906  28.602  36.464  1.00  0.00     0.059 A 
ATOM     78  C   UNL A   1      45.303  27.127  37.538  1.00  0.00     0.059 A 
ATOM     79  F   UNL A   1      43.026  27.308  37.016  1.00  0.00    -0.206 F 
ATOM     80  C   UNL A   1      46.615  27.552  37.338  1.00  0.00     0.060 A 
BRANCH  80  81
ATOM     81  S   UNL A   1      47.979  26.754  38.210  1.00  0.00     0.124 S 
ATOM     82  O   UNL A   1      47.980  25.428  37.598  1.00  0.00    -0.237 OA
ATOM     83  O   UNL A   1      49.110  27.610  37.867  1.00  0.00    -0.237 OA
ATOM     84  O   UNL A   1      47.564  26.799  39.607  1.00  0.00    -0.744 OA
ENDBRANCH  80  81
ENDBRANCH  59  73
BRANCH  60  85
ATOM     85  C   UNL A   1      36.940  32.936  30.894  1.00  0.00     0.058 A 
ATOM     86  C   UNL A   1      37.139  33.876  29.873  1.00  0.00     0.135 A 
ATOM     87  C   UNL A   1      35.615  32.595  31.215  1.00  0.00     0.135 A 
ATOM     88  F   UNL A   1      38.384  34.247  29.537  1.00  0.00    -0.206 F 
ATOM     89  C   UNL A   1      36.070  34.469  29.206  1.00  0.00     0.059 A 
ATOM     90  C   UNL A   1      34.532  33.152  30.543  1.00  0.00     0.059 A 
ATOM     91  F   UNL A   1      35.367  31.695  32.180  1.00  0.00    -0.206 F 
ATOM     92  C   UNL A   1      34.769  34.096  29.547  1.00  0.00     0.060 A 
BRANCH  92  93
ATOM     93  S   UNL A   1      33.392  34.838  28.645  1.00  0.00     0.124 S 
ATOM     94  O   UNL A   1      32.443  35.102  29.719  1.00  0.00    -0.237 OA
ATOM     95  O   UNL A   1      34.018  36.010  28.043  1.00  0.00    -0.237 OA
ATOM     96  O   UNL A   1      33.005  33.790  27.704  1.00  0.00    -0.744 OA
ENDBRANCH  92  93
ENDBRANCH  60  85
BRANCH  72  97
ATOM     97  C   UNL A   1      39.968  34.306  37.035  1.00  0.00     0.058 A 
ATOM     98  C   UNL A   1      39.113  34.085  38.127  1.00  0.00     0.135 A 
ATOM     99  C   UNL A   1      40.630  35.543  36.965  1.00  0.00     0.135 A 
ATOM    100  F   UNL A   1      38.452  32.922  38.245  1.00  0.00    -0.206 F 
ATOM    101  C   UNL A   1      38.895  35.066  39.090  1.00  0.00     0.059 A 
ATOM    102  C   UNL A   1      40.454  36.525  37.934  1.00  0.00     0.059 A 
ATOM    103  F   UNL A   1      41.472  35.802  35.951  1.00  0.00    -0.206 F 
ATOM    104  C   UNL A   1      39.570  36.284  38.984  1.00  0.00     0.060 A 
BRANCH 104 105
ATOM    105  S   UNL A   1      39.288  37.542  40.247  1.00  0.00     0.124 S 
ATOM    106  O   UNL A   1      40.597  38.183  40.319  1.00  0.00    -0.237 OA
ATOM    107  O   UNL A   1      38.221  38.344  39.655  1.00  0.00    -0.237 OA
ATOM    108  O   UNL A   1      38.903  36.767  41.422  1.00  0.00    -0.744 OA
ENDBRANCH 104 105
ENDBRANCH  72  97
ENDBRANCH  46  47
ENDBRANCH  39  41
ENDBRANCH  38  39
ENDBRANCH  37  38
ENDBRANCH  36  37
ENDBRANCH  35  36
ENDBRANCH  34  35
ENDBRANCH  33  34
ENDBRANCH  32  33
ENDBRANCH   1  32
TORSDOF 31
ENDMDL
MODEL 2
REMARK VINA RESULT:      -8.1      3.629      9.412
REMARK SMILES O=C(N[C@@H](CS)C(=O)N[C@@H](CO)C(=O)OCCOCCOCCOCCOC(=O)c1ccc(-c2c3nc(c(-c4c(F)cc(S(=O)(=O)[O-])cc4F)c4ccc([nH]4)c(-c4c(F)cc(S(=O)(=O)[O-])cc4F)c4nc(c(-c5c(F)cc(S(=O)(=O)[O-])cc5F)c5ccc2[nH]5)C=C4)C=C3)cc1)c1ccc(F)cc1
REMARK SMILES IDX 20 1 19 2 18 3 17 4 16 5 15 6 13 7 14 8 10 9 9 10 7 11 8 12
REMARK SMILES IDX 4 14 3 15 1 16 2 17 96 19 97 20 102 21 98 22 101 23 99 24
REMARK SMILES IDX 100 25 5 26 6 27 11 29 12 30 21 32 22 33 23 34 24 35 25 36
REMARK SMILES IDX 26 37 27 38 28 39 29 40 30 41 31 42 95 43 32 44 94 45 33 46
REMARK SMILES IDX 34 47 35 48 88 49 36 50 93 51 87 52 89 53 37 54 92 55 86 56
REMARK SMILES IDX 85 57 38 59 72 60 51 61 71 62 52 63 55 64 70 65 90 66 53 67
REMARK SMILES IDX 54 68 69 70 91 71 56 72 39 73 40 74 49 75 41 76 42 77 48 78
REMARK SMILES IDX 50 79 43 80 44 81 45 82 46 83 47 84 73 85 74 86 83 87 75 88
REMARK SMILES IDX 76 89 82 90 84 91 77 92 78 93 79 94 80 95 81 96 57 97 58 98
REMARK SMILES IDX 67 99 59 100 60 101 66 102 68 103 61 104 62 105 63 106
REMARK SMILES IDX 64 107 65 108
REMARK H PARENT 9 13 3 18 6 28 12 31 89 58 55 69
REMARK Flexibility Score: inf
ROOT
ATOM      1  C   UNL A   1      34.173  29.416  26.528  1.00  0.00     0.188 C 
ENDROOT
BRANCH   1   2
ATOM      2  C   UNL A   1      32.649  29.580  26.644  1.00  0.00     0.188 C 
BRANCH   2   3
ATOM      3  O   UNL A   1      31.772  28.599  26.114  1.00  0.00    -0.376 OA
BRANCH   3   4
ATOM      4  C   UNL A   1      31.767  28.349  24.715  1.00  0.00     0.202 C 
BRANCH   4   5
ATOM      5  C   UNL A   1      32.713  27.296  24.103  1.00  0.00     0.261 C 
BRANCH   5   6
ATOM      6  O   UNL A   1      32.339  25.913  24.283  1.00  0.00    -0.462 OA
BRANCH   6   7
ATOM      7  C   UNL A   1      32.870  25.272  25.356  1.00  0.00     0.331 C 
ATOM      8  O   UNL A   1      33.820  25.683  26.015  1.00  0.00    -0.250 OA
BRANCH   7   9
ATOM      9  C   UNL A   1      32.198  23.917  25.672  1.00  0.00     0.218 C 
BRANCH   9  10
ATOM     10  N   UNL A   1      32.831  22.994  26.627  1.00  0.00    -0.339 N 
ATOM     11  C   UNL A   1      33.669  21.933  26.467  1.00  0.00     0.244 C 
ATOM     12  O   UNL A   1      34.109  21.416  27.504  1.00  0.00    -0.273 OA
ATOM     13  H   UNL A   1      32.605  23.180  27.566  1.00  0.00     0.164 HD
BRANCH  11  14
ATOM     14  C   UNL A   1      34.181  21.403  25.110  1.00  0.00     0.181 C 
BRANCH  14  15
ATOM     15  N   UNL A   1      33.151  21.315  24.077  1.00  0.00    -0.339 N 
ATOM     16  O   UNL A   1      31.790  20.352  22.578  1.00  0.00    -0.269 OA
ATOM     17  C   UNL A   1      32.565  20.207  23.520  1.00  0.00     0.251 C 
ATOM     18  H   UNL A   1      32.832  22.178  23.727  1.00  0.00     0.164 HD
BRANCH  17  19
ATOM     19  C   UNL A   1      32.884  18.840  23.994  1.00  0.00     0.040 A 
ATOM     20  C   UNL A   1      33.585  17.917  23.206  1.00  0.00     0.017 A 
ATOM     21  C   UNL A   1      32.510  18.500  25.301  1.00  0.00     0.017 A 
ATOM     22  C   UNL A   1      33.828  16.630  23.690  1.00  0.00     0.040 A 
ATOM     23  C   UNL A   1      32.779  17.220  25.792  1.00  0.00     0.040 A 
ATOM     24  C   UNL A   1      33.420  16.293  24.977  1.00  0.00     0.123 A 
ATOM     25  F   UNL A   1      33.658  15.061  25.443  1.00  0.00    -0.207 F 
ENDBRANCH  17  19
ENDBRANCH  14  15
BRANCH  14  26
ATOM     26  C   UNL A   1      35.542  21.956  24.649  1.00  0.00     0.101 C 
BRANCH  26  27
ATOM     27  S   UNL A   1      37.048  20.992  24.998  1.00  0.00    -0.177 SA
ATOM     28  H   UNL A   1      38.086  21.840  25.227  1.00  0.00     0.102 HD
ENDBRANCH  26  27
ENDBRANCH  14  26
ENDBRANCH  11  14
ENDBRANCH   9  10
BRANCH   9  29
ATOM     29  C   UNL A   1      30.774  24.227  26.145  1.00  0.00     0.193 C 
BRANCH  29  30
ATOM     30  O   UNL A   1      29.949  24.664  25.067  1.00  0.00    -0.394 OA
ATOM     31  H   UNL A   1      29.577  25.535  25.276  1.00  0.00     0.210 HD
ENDBRANCH  29  30
ENDBRANCH   9  29
ENDBRANCH   7   9
ENDBRANCH   6   7
ENDBRANCH   5   6
ENDBRANCH   4   5
ENDBRANCH   3   4
ENDBRANCH   2   3
ENDBRANCH   1   2
BRANCH   1  32
ATOM     32  O   UNL A   1      34.931  29.988  27.569  1.00  0.00    -0.377 OA
BRANCH  32  33
ATOM     33  C   UNL A   1      34.469  31.241  28.050  1.00  0.00     0.188 C 
BRANCH  33  34
ATOM     34  C   UNL A   1      35.481  32.404  28.046  1.00  0.00     0.188 C 
BRANCH  34  35
ATOM     35  O   UNL A   1      34.900  33.675  27.761  1.00  0.00    -0.376 OA
BRANCH  35  36
ATOM     36  C   UNL A   1      34.782  34.624  28.812  1.00  0.00     0.202 C 
BRANCH  36  37
ATOM     37  C   UNL A   1      33.638  34.435  29.826  1.00  0.00     0.261 C 
BRANCH  37  38
ATOM     38  O   UNL A   1      33.602  35.343  30.937  1.00  0.00    -0.460 OA
BRANCH  38  39
ATOM     39  C   UNL A   1      33.490  34.817  32.177  1.00  0.00     0.338 C 
ATOM     40  O   UNL A   1      32.466  34.626  32.797  1.00  0.00    -0.246 OA
BRANCH  39  41
ATOM     41  C   UNL A   1      34.821  34.296  32.569  1.00  0.00     0.060 A 
ATOM     42  C   UNL A   1      34.896  33.006  33.109  1.00  0.00     0.016 A 
ATOM     43  C   UNL A   1      35.977  35.063  32.404  1.00  0.00     0.016 A 
ATOM     44  C   UNL A   1      36.122  32.499  33.536  1.00  0.00     0.010 A 
ATOM     45  C   UNL A   1      37.203  34.563  32.856  1.00  0.00     0.010 A 
ATOM     46  C   UNL A   1      37.271  33.297  33.465  1.00  0.00    -0.014 A 
BRANCH  46  47
ATOM     47  C   UNL A   1      38.471  32.890  34.236  1.00  0.00     0.031 A 
ATOM     48  C   UNL A   1      39.598  32.221  33.493  1.00  0.00     0.074 A 
ATOM     49  C   UNL A   1      38.591  33.166  35.547  1.00  0.00     0.049 A 
ATOM     50  N   UNL A   1      40.751  31.796  33.937  1.00  0.00    -0.248 NA
ATOM     51  C   UNL A   1      39.395  32.007  32.049  1.00  0.00     0.031 C 
ATOM     52  C   UNL A   1      37.588  33.846  36.364  1.00  0.00     0.029 A 
ATOM     53  N   UNL A   1      39.617  32.907  36.420  1.00  0.00    -0.354 N 
ATOM     54  C   UNL A   1      41.408  31.265  32.834  1.00  0.00     0.074 A 
ATOM     55  C   UNL A   1      40.512  31.385  31.706  1.00  0.00     0.031 C 
ATOM     56  C   UNL A   1      38.047  33.947  37.624  1.00  0.00     0.029 A 
ATOM     57  C   UNL A   1      39.363  33.314  37.709  1.00  0.00     0.049 A 
ATOM     58  H   UNL A   1      40.457  32.470  36.151  1.00  0.00     0.167 HD
ATOM     59  C   UNL A   1      42.653  30.737  32.762  1.00  0.00     0.037 A 
ATOM     60  C   UNL A   1      40.102  33.177  38.828  1.00  0.00     0.037 A 
ATOM     61  C   UNL A   1      43.540  30.617  33.890  1.00  0.00     0.049 A 
ATOM     62  C   UNL A   1      41.458  32.519  38.738  1.00  0.00     0.074 A 
ATOM     63  C   UNL A   1      44.825  30.106  33.922  1.00  0.00     0.029 A 
ATOM     64  N   UNL A   1      43.231  31.005  35.186  1.00  0.00    -0.354 N 
ATOM     65  N   UNL A   1      42.078  32.042  37.684  1.00  0.00    -0.248 NA
ATOM     66  C   UNL A   1      42.218  32.389  39.989  1.00  0.00     0.031 C 
ATOM     67  C   UNL A   1      45.271  30.131  35.248  1.00  0.00     0.029 A 
ATOM     68  C   UNL A   1      44.290  30.719  36.031  1.00  0.00     0.049 A 
ATOM     69  H   UNL A   1      42.383  31.422  35.464  1.00  0.00     0.167 HD
ATOM     70  C   UNL A   1      43.313  31.586  38.139  1.00  0.00     0.074 A 
ATOM     71  C   UNL A   1      43.356  31.858  39.562  1.00  0.00     0.031 C 
ATOM     72  C   UNL A   1      44.320  30.999  37.445  1.00  0.00     0.037 A 
BRANCH  59  73
ATOM     73  C   UNL A   1      43.116  30.221  31.427  1.00  0.00     0.058 A 
ATOM     74  C   UNL A   1      42.968  28.874  31.058  1.00  0.00     0.135 A 
ATOM     75  C   UNL A   1      43.691  31.097  30.490  1.00  0.00     0.135 A 
ATOM     76  F   UNL A   1      42.447  27.989  31.922  1.00  0.00    -0.206 F 
ATOM     77  C   UNL A   1      43.396  28.409  29.818  1.00  0.00     0.059 A 
ATOM     78  C   UNL A   1      44.097  30.658  29.233  1.00  0.00     0.059 A 
ATOM     79  F   UNL A   1      43.863  32.392  30.792  1.00  0.00    -0.206 F 
ATOM     80  C   UNL A   1      43.956  29.310  28.911  1.00  0.00     0.060 A 
BRANCH  80  81
ATOM     81  S   UNL A   1      44.493  28.691  27.303  1.00  0.00     0.124 S 
ATOM     82  O   UNL A   1      43.807  29.606  26.394  1.00  0.00    -0.237 OA
ATOM     83  O   UNL A   1      45.942  28.843  27.379  1.00  0.00    -0.237 OA
ATOM     84  O   UNL A   1      44.010  27.314  27.288  1.00  0.00    -0.744 OA
ENDBRANCH  80  81
ENDBRANCH  59  73
BRANCH  60  85
ATOM     85  C   UNL A   1      39.579  33.662  40.134  1.00  0.00     0.058 A 
ATOM     86  C   UNL A   1      38.919  32.800  41.022  1.00  0.00     0.135 A 
ATOM     87  C   UNL A   1      39.721  35.006  40.516  1.00  0.00     0.135 A 
ATOM     88  F   UNL A   1      38.745  31.509  40.699  1.00  0.00    -0.206 F 
ATOM     89  C   UNL A   1      38.403  33.254  42.233  1.00  0.00     0.059 A 
ATOM     90  C   UNL A   1      39.240  35.476  41.734  1.00  0.00     0.059 A 
ATOM     91  F   UNL A   1      40.352  35.873  39.708  1.00  0.00    -0.206 F 
ATOM     92  C   UNL A   1      38.572  34.595  42.581  1.00  0.00     0.060 A 
BRANCH  92  93
ATOM     93  S   UNL A   1      37.939  35.162  44.174  1.00  0.00     0.124 S 
ATOM     94  O   UNL A   1      36.512  35.281  43.899  1.00  0.00    -0.237 OA
ATOM     95  O   UNL A   1      38.329  34.072  45.063  1.00  0.00    -0.237 OA
ATOM     96  O   UNL A   1      38.648  36.420  44.389  1.00  0.00    -0.744 OA
ENDBRANCH  92  93
ENDBRANCH  60  85
BRANCH  72  97
ATOM     97  C   UNL A   1      45.575  30.650  38.202  1.00  0.00     0.058 A 
ATOM     98  C   UNL A   1      45.799  29.362  38.715  1.00  0.00     0.135 A 
ATOM     99  C   UNL A   1      46.587  31.608  38.379  1.00  0.00     0.135 A 
ATOM    100  F   UNL A   1      44.867  28.407  38.577  1.00  0.00    -0.206 F 
ATOM    101  C   UNL A   1      46.965  29.049  39.409  1.00  0.00     0.059 A 
ATOM    102  C   UNL A   1      47.774  31.308  39.039  1.00  0.00     0.059 A 
ATOM    103  F   UNL A   1      46.433  32.852  37.895  1.00  0.00    -0.206 F 
ATOM    104  C   UNL A   1      47.947  30.029  39.566  1.00  0.00     0.060 A 
BRANCH 104 105
ATOM    105  S   UNL A   1      49.459  29.605  40.455  1.00  0.00     0.124 S 
ATOM    106  O   UNL A   1      50.462  30.347  39.699  1.00  0.00    -0.237 OA
ATOM    107  O   UNL A   1      49.180  30.105  41.799  1.00  0.00    -0.237 OA
ATOM    108  O   UNL A   1      49.530  28.153  40.337  1.00  0.00    -0.744 OA
ENDBRANCH 104 105
ENDBRANCH  72  97
ENDBRANCH  46  47
ENDBRANCH  39  41
ENDBRANCH  38  39
ENDBRANCH  37  38
ENDBRANCH  36  37
ENDBRANCH  35  36
ENDBRANCH  34  35
ENDBRANCH  33  34
ENDBRANCH  32  33
ENDBRANCH   1  32
TORSDOF 31
ENDMDL
MODEL 3
REMARK VINA RESULT:      -7.9      4.134      5.337
REMARK SMILES O=C(N[C@@H](CS)C(=O)N[C@@H](CO)C(=O)OCCOCCOCCOCCOC(=O)c1ccc(-c2c3nc(c(-c4c(F)cc(S(=O)(=O)[O-])cc4F)c4ccc([nH]4)c(-c4c(F)cc(S(=O)(=O)[O-])cc4F)c4nc(c(-c5c(F)cc(S(=O)(=O)[O-])cc5F)c5ccc2[nH]5)C=C4)C=C3)cc1)c1ccc(F)cc1
REMARK SMILES IDX 20 1 19 2 18 3 17 4 16 5 15 6 13 7 14 8 10 9 9 10 7 11 8 12
REMARK SMILES IDX 4 14 3 15 1 16 2 17 96 19 97 20 102 21 98 22 101 23 99 24
REMARK SMILES IDX 100 25 5 26 6 27 11 29 12 30 21 32 22 33 23 34 24 35 25 36
REMARK SMILES IDX 26 37 27 38 28 39 29 40 30 41 31 42 95 43 32 44 94 45 33 46
REMARK SMILES IDX 34 47 35 48 88 49 36 50 93 51 87 52 89 53 37 54 92 55 86 56
REMARK SMILES IDX 85 57 38 59 72 60 51 61 71 62 52 63 55 64 70 65 90 66 53 67
REMARK SMILES IDX 54 68 69 70 91 71 56 72 39 73 40 74 49 75 41 76 42 77 48 78
REMARK SMILES IDX 50 79 43 80 44 81 45 82 46 83 47 84 73 85 74 86 83 87 75 88
REMARK SMILES IDX 76 89 82 90 84 91 77 92 78 93 79 94 80 95 81 96 57 97 58 98
REMARK SMILES IDX 67 99 59 100 60 101 66 102 68 103 61 104 62 105 63 106
REMARK SMILES IDX 64 107 65 108
REMARK H PARENT 9 13 3 18 6 28 12 31 89 58 55 69
REMARK Flexibility Score: inf
ROOT
ATOM      1  C   UNL A   1      42.286  24.623  26.622  1.00  0.00     0.188 C 
ENDROOT
BRANCH   1   2
ATOM      2  C   UNL A   1      41.197  23.924  27.451  1.00  0.00     0.188 C 
BRANCH   2   3
ATOM      3  O   UNL A   1      39.970  23.535  26.855  1.00  0.00    -0.376 OA
BRANCH   3   4
ATOM      4  C   UNL A   1      39.686  22.154  26.674  1.00  0.00     0.202 C 
BRANCH   4   5
ATOM      5  C   UNL A   1      38.615  21.699  25.663  1.00  0.00     0.261 C 
BRANCH   5   6
ATOM      6  O   UNL A   1      37.289  22.243  25.840  1.00  0.00    -0.462 OA
BRANCH   6   7
ATOM      7  C   UNL A   1      36.299  21.694  25.091  1.00  0.00     0.331 C 
ATOM      8  O   UNL A   1      36.192  20.496  24.844  1.00  0.00    -0.250 OA
BRANCH   7   9
ATOM      9  C   UNL A   1      35.305  22.726  24.512  1.00  0.00     0.218 C 
BRANCH   9  10
ATOM     10  N   UNL A   1      34.538  23.590  25.423  1.00  0.00    -0.339 N 
ATOM     11  C   UNL A   1      33.324  24.195  25.318  1.00  0.00     0.244 C 
ATOM     12  O   UNL A   1      32.914  24.789  26.325  1.00  0.00    -0.273 OA
ATOM     13  H   UNL A   1      34.994  23.766  26.278  1.00  0.00     0.164 HD
BRANCH  11  14
ATOM     14  C   UNL A   1      32.394  24.109  24.088  1.00  0.00     0.181 C 
BRANCH  14  15
ATOM     15  N   UNL A   1      32.998  24.590  22.847  1.00  0.00    -0.339 N 
ATOM     16  O   UNL A   1      33.530  26.040  21.223  1.00  0.00    -0.269 OA
ATOM     17  C   UNL A   1      33.070  25.865  22.348  1.00  0.00     0.251 C 
ATOM     18  H   UNL A   1      33.414  23.896  22.285  1.00  0.00     0.164 HD
BRANCH  17  19
ATOM     19  C   UNL A   1      32.558  27.027  23.112  1.00  0.00     0.040 A 
ATOM     20  C   UNL A   1      31.191  27.232  23.340  1.00  0.00     0.017 A 
ATOM     21  C   UNL A   1      33.497  27.908  23.666  1.00  0.00     0.017 A 
ATOM     22  C   UNL A   1      30.762  28.363  24.038  1.00  0.00     0.040 A 
ATOM     23  C   UNL A   1      33.066  29.024  24.386  1.00  0.00     0.040 A 
ATOM     24  C   UNL A   1      31.704  29.250  24.551  1.00  0.00     0.123 A 
ATOM     25  F   UNL A   1      31.292  30.331  25.224  1.00  0.00    -0.207 F 
ENDBRANCH  17  19
ENDBRANCH  14  15
BRANCH  14  26
ATOM     26  C   UNL A   1      31.567  22.816  23.968  1.00  0.00     0.101 C 
BRANCH  26  27
ATOM     27  S   UNL A   1      32.396  21.287  23.426  1.00  0.00    -0.177 SA
ATOM     28  H   UNL A   1      33.714  21.538  23.209  1.00  0.00     0.102 HD
ENDBRANCH  26  27
ENDBRANCH  14  26
ENDBRANCH  11  14
ENDBRANCH   9  10
BRANCH   9  29
ATOM     29  C   UNL A   1      36.095  23.603  23.536  1.00  0.00     0.193 C 
BRANCH  29  30
ATOM     30  O   UNL A   1      36.964  22.822  22.717  1.00  0.00    -0.394 OA
ATOM     31  H   UNL A   1      36.909  21.891  22.983  1.00  0.00     0.210 HD
ENDBRANCH  29  30
ENDBRANCH   9  29
ENDBRANCH   7   9
ENDBRANCH   6   7
ENDBRANCH   5   6
ENDBRANCH   4   5
ENDBRANCH   3   4
ENDBRANCH   2   3
ENDBRANCH   1   2
BRANCH   1  32
ATOM     32  O   UNL A   1      43.366  23.811  26.222  1.00  0.00    -0.377 OA
BRANCH  32  33
ATOM     33  C   UNL A   1      43.028  22.685  25.428  1.00  0.00     0.188 C 
BRANCH  33  34
ATOM     34  C   UNL A   1      44.049  22.259  24.354  1.00  0.00     0.188 C 
BRANCH  34  35
ATOM     35  O   UNL A   1      45.379  22.104  24.850  1.00  0.00    -0.376 OA
BRANCH  35  36
ATOM     36  C   UNL A   1      46.400  22.949  24.340  1.00  0.00     0.202 C 
BRANCH  36  37
ATOM     37  C   UNL A   1      46.691  24.260  25.093  1.00  0.00     0.261 C 
BRANCH  37  38
ATOM     38  O   UNL A   1      46.075  25.451  24.579  1.00  0.00    -0.460 OA
BRANCH  38  39
ATOM     39  C   UNL A   1      46.836  26.565  24.489  1.00  0.00     0.338 C 
ATOM     40  O   UNL A   1      47.700  26.792  23.669  1.00  0.00    -0.246 OA
BRANCH  39  41
ATOM     41  C   UNL A   1      46.281  27.569  25.427  1.00  0.00     0.060 A 
ATOM     42  C   UNL A   1      47.169  28.451  26.057  1.00  0.00     0.016 A 
ATOM     43  C   UNL A   1      44.909  27.644  25.681  1.00  0.00     0.016 A 
ATOM     44  C   UNL A   1      46.693  29.376  26.983  1.00  0.00     0.010 A 
ATOM     45  C   UNL A   1      44.436  28.556  26.630  1.00  0.00     0.010 A 
ATOM     46  C   UNL A   1      45.333  29.395  27.317  1.00  0.00    -0.014 A 
BRANCH  46  47
ATOM     47  C   UNL A   1      44.907  30.121  28.538  1.00  0.00     0.031 A 
ATOM     48  C   UNL A   1      44.874  29.362  29.839  1.00  0.00     0.074 A 
ATOM     49  C   UNL A   1      44.623  31.436  28.511  1.00  0.00     0.049 A 
ATOM     50  N   UNL A   1      44.561  29.778  31.038  1.00  0.00    -0.248 NA
ATOM     51  C   UNL A   1      45.251  27.939  29.778  1.00  0.00     0.031 C 
ATOM     52  C   UNL A   1      44.662  32.285  27.322  1.00  0.00     0.029 A 
ATOM     53  N   UNL A   1      44.247  32.285  29.521  1.00  0.00    -0.354 N 
ATOM     54  C   UNL A   1      44.700  28.673  31.869  1.00  0.00     0.074 A 
ATOM     55  C   UNL A   1      45.088  27.559  31.035  1.00  0.00     0.031 C 
ATOM     56  C   UNL A   1      44.318  33.537  27.671  1.00  0.00     0.029 A 
ATOM     57  C   UNL A   1      44.008  33.572  29.100  1.00  0.00     0.049 A 
ATOM     58  H   UNL A   1      44.157  32.001  30.458  1.00  0.00     0.167 HD
ATOM     59  C   UNL A   1      44.533  28.596  33.211  1.00  0.00     0.037 A 
ATOM     60  C   UNL A   1      43.575  34.647  29.788  1.00  0.00     0.037 A 
ATOM     61  C   UNL A   1      44.143  29.710  34.036  1.00  0.00     0.049 A 
ATOM     62  C   UNL A   1      43.325  34.521  31.271  1.00  0.00     0.074 A 
ATOM     63  C   UNL A   1      43.956  29.740  35.406  1.00  0.00     0.029 A 
ATOM     64  N   UNL A   1      43.871  30.987  33.567  1.00  0.00    -0.354 N 
ATOM     65  N   UNL A   1      43.483  33.476  32.050  1.00  0.00    -0.248 NA
ATOM     66  C   UNL A   1      42.847  35.721  31.970  1.00  0.00     0.031 C 
ATOM     67  C   UNL A   1      43.514  31.020  35.758  1.00  0.00     0.029 A 
ATOM     68  C   UNL A   1      43.491  31.806  34.617  1.00  0.00     0.049 A 
ATOM     69  H   UNL A   1      43.939  31.270  32.626  1.00  0.00     0.167 HD
ATOM     70  C   UNL A   1      43.155  33.903  33.335  1.00  0.00     0.074 A 
ATOM     71  C   UNL A   1      42.804  35.304  33.228  1.00  0.00     0.031 C 
ATOM     72  C   UNL A   1      43.148  33.202  34.496  1.00  0.00     0.037 A 
BRANCH  59  73
ATOM     73  C   UNL A   1      44.742  27.257  33.864  1.00  0.00     0.058 A 
ATOM     74  C   UNL A   1      43.685  26.353  34.060  1.00  0.00     0.135 A 
ATOM     75  C   UNL A   1      46.026  26.861  34.274  1.00  0.00     0.135 A 
ATOM     76  F   UNL A   1      42.434  26.687  33.708  1.00  0.00    -0.206 F 
ATOM     77  C   UNL A   1      43.890  25.114  34.660  1.00  0.00     0.059 A 
ATOM     78  C   UNL A   1      46.258  25.615  34.848  1.00  0.00     0.059 A 
ATOM     79  F   UNL A   1      47.071  27.688  34.118  1.00  0.00    -0.206 F 
ATOM     80  C   UNL A   1      45.182  24.753  35.049  1.00  0.00     0.060 A 
BRANCH  80  81
ATOM     81  S   UNL A   1      45.431  23.138  35.815  1.00  0.00     0.124 S 
ATOM     82  O   UNL A   1      44.247  22.414  35.360  1.00  0.00    -0.237 OA
ATOM     83  O   UNL A   1      46.698  22.710  35.232  1.00  0.00    -0.237 OA
ATOM     84  O   UNL A   1      45.471  23.440  37.242  1.00  0.00    -0.744 OA
ENDBRANCH  80  81
ENDBRANCH  59  73
BRANCH  60  85
ATOM     85  C   UNL A   1      43.338  35.939  29.087  1.00  0.00     0.058 A 
ATOM     86  C   UNL A   1      44.332  36.926  29.019  1.00  0.00     0.135 A 
ATOM     87  C   UNL A   1      42.103  36.217  28.478  1.00  0.00     0.135 A 
ATOM     88  F   UNL A   1      45.525  36.716  29.596  1.00  0.00    -0.206 F 
ATOM     89  C   UNL A   1      44.108  38.147  28.390  1.00  0.00     0.059 A 
ATOM     90  C   UNL A   1      41.865  37.418  27.817  1.00  0.00     0.059 A 
ATOM     91  F   UNL A   1      41.119  35.304  28.506  1.00  0.00    -0.206 F 
ATOM     92  C   UNL A   1      42.870  38.382  27.788  1.00  0.00     0.060 A 
BRANCH  92  93
ATOM     93  S   UNL A   1      42.606  39.951  26.935  1.00  0.00     0.124 S 
ATOM     94  O   UNL A   1      41.352  39.700  26.235  1.00  0.00    -0.237 OA
ATOM     95  O   UNL A   1      42.540  40.895  28.046  1.00  0.00    -0.237 OA
ATOM     96  O   UNL A   1      43.788  40.075  26.087  1.00  0.00    -0.744 OA
ENDBRANCH  92  93
ENDBRANCH  60  85
BRANCH  72  97
ATOM     97  C   UNL A   1      42.791  33.947  35.756  1.00  0.00     0.058 A 
ATOM     98  C   UNL A   1      43.753  34.638  36.509  1.00  0.00     0.135 A 
ATOM     99  C   UNL A   1      41.456  34.005  36.192  1.00  0.00     0.135 A 
ATOM    100  F   UNL A   1      45.043  34.617  36.141  1.00  0.00    -0.206 F 
ATOM    101  C   UNL A   1      43.410  35.328  37.669  1.00  0.00     0.059 A 
ATOM    102  C   UNL A   1      41.086  34.716  37.328  1.00  0.00     0.059 A 
ATOM    103  F   UNL A   1      40.491  33.376  35.501  1.00  0.00    -0.206 F 
ATOM    104  C   UNL A   1      42.075  35.361  38.071  1.00  0.00     0.060 A 
BRANCH 104 105
ATOM    105  S   UNL A   1      41.642  36.270  39.569  1.00  0.00     0.124 S 
ATOM    106  O   UNL A   1      42.677  35.821  40.494  1.00  0.00    -0.237 OA
ATOM    107  O   UNL A   1      41.744  37.660  39.130  1.00  0.00    -0.237 OA
ATOM    108  O   UNL A   1      40.290  35.812  39.868  1.00  0.00    -0.744 OA
ENDBRANCH 104 105
ENDBRANCH  72  97
ENDBRANCH  46  47
ENDBRANCH  39  41
ENDBRANCH  38  39
ENDBRANCH  37  38
ENDBRANCH  36  37
ENDBRANCH  35  36
ENDBRANCH  34  35
ENDBRANCH  33  34
ENDBRANCH  32  33
ENDBRANCH   1  32
TORSDOF 31
ENDMDL
