MODEL 1
REMARK VINA RESULT:      -6.5      0.000      0.000
REMARK SMILES COc1ccc(/C=C/c2ncc(C(=O)OCCOCCOCCOCCOC(=O)c3ccc(-c4c5nc(c(-c6c(F)cc(S(=O)(=O)[O-])cc6F)c6ccc([nH]6)c(-c6c(F)cc(S(=O)(=O)[O-])cc6F)c6nc(c(-c7c(F)cc(S(=O)(=O)[O-])cc7F)c7ccc4[nH]7)C=C6)C=C5)cc3)s2)cc1O
REMARK SMILES IDX 21 1 20 2 19 3 18 4 17 5 16 6 15 7 13 8 14 9 12 10 9 11
REMARK SMILES IDX 10 12 96 13 11 14 8 15 7 16 6 17 3 18 4 19 98 20 5 21 97 22
REMARK SMILES IDX 2 23 1 24 99 25 22 27 23 28 24 29 25 30 26 31 27 32 28 33
REMARK SMILES IDX 29 34 30 35 31 36 95 37 32 38 94 39 33 40 34 41 35 42 88 43
REMARK SMILES IDX 36 44 93 45 87 46 89 47 37 48 92 49 86 50 85 51 38 53 72 54
REMARK SMILES IDX 51 55 71 56 52 57 55 58 70 59 90 60 53 61 54 62 69 64 91 65
REMARK SMILES IDX 56 66 39 67 40 68 49 69 41 70 42 71 48 72 50 73 43 74 44 75
REMARK SMILES IDX 45 76 46 77 47 78 73 79 74 80 83 81 75 82 76 83 82 84 84 85
REMARK SMILES IDX 77 86 78 87 79 88 80 89 81 90 57 91 58 92 67 93 59 94 60 95
REMARK SMILES IDX 66 96 68 97 61 98 62 99 63 100 64 101 65 102
REMARK H PARENT 99 26 89 52 55 63
REMARK Flexibility Score: inf
ROOT
ATOM      1  O   UNL A   1      47.056  28.804  25.625  1.00  0.00    -0.377 OA
ENDROOT
BRANCH   1   2
ATOM      2  C   UNL A   1      47.263  29.567  26.804  1.00  0.00     0.188 C 
BRANCH   2   3
ATOM      3  C   UNL A   1      47.078  31.072  26.549  1.00  0.00     0.188 C 
BRANCH   3   4
ATOM      4  O   UNL A   1      46.256  31.703  27.527  1.00  0.00    -0.376 OA
BRANCH   4   5
ATOM      5  C   UNL A   1      45.066  32.345  27.080  1.00  0.00     0.202 C 
BRANCH   5   6
ATOM      6  C   UNL A   1      44.083  32.906  28.125  1.00  0.00     0.261 C 
BRANCH   6   7
ATOM      7  O   UNL A   1      43.155  31.964  28.688  1.00  0.00    -0.459 OA
BRANCH   7   8
ATOM      8  C   UNL A   1      42.663  32.209  29.930  1.00  0.00     0.350 C 
ATOM      9  O   UNL A   1      41.569  32.695  30.160  1.00  0.00    -0.245 OA
BRANCH   8  10
ATOM     10  C   UNL A   1      43.584  31.659  30.896  1.00  0.00     0.132 A 
ATOM     11  C   UNL A   1      45.332  30.391  32.026  1.00  0.00     0.116 A 
ATOM     12  N   UNL A   1      44.952  31.408  32.775  1.00  0.00    -0.244 NA
ATOM     13  S   UNL A   1      44.489  30.256  30.523  1.00  0.00    -0.107 S 
ATOM     14  C   UNL A   1      43.975  32.142  32.127  1.00  0.00     0.139 A 
BRANCH  11  15
ATOM     15  C   UNL A   1      46.299  29.402  32.357  1.00  0.00     0.040 C 
ATOM     16  C   UNL A   1      46.387  28.292  31.609  1.00  0.00     0.011 C 
BRANCH  16  17
ATOM     17  C   UNL A   1      47.419  27.257  31.754  1.00  0.00    -0.022 A 
ATOM     18  C   UNL A   1      49.389  25.268  32.197  1.00  0.00     0.160 A 
ATOM     19  C   UNL A   1      49.418  26.073  31.052  1.00  0.00     0.051 A 
ATOM     20  C   UNL A   1      48.365  25.477  33.121  1.00  0.00     0.158 A 
ATOM     21  C   UNL A   1      48.451  27.064  30.833  1.00  0.00     0.012 A 
ATOM     22  C   UNL A   1      47.387  26.451  32.900  1.00  0.00     0.058 A 
BRANCH  18  23
ATOM     23  O   UNL A   1      50.415  24.367  32.246  1.00  0.00    -0.493 OA
ATOM     24  C   UNL A   1      51.751  24.842  32.202  1.00  0.00     0.278 C 
ENDBRANCH  18  23
BRANCH  20  25
ATOM     25  O   UNL A   1      48.256  24.799  34.301  1.00  0.00    -0.504 OA
ATOM     26  H   UNL A   1      47.441  24.790  34.762  1.00  0.00     0.293 HD
ENDBRANCH  20  25
ENDBRANCH  16  17
ENDBRANCH  11  15
ENDBRANCH   8  10
ENDBRANCH   7   8
ENDBRANCH   6   7
ENDBRANCH   5   6
ENDBRANCH   4   5
ENDBRANCH   3   4
ENDBRANCH   2   3
ENDBRANCH   1   2
BRANCH   1  27
ATOM     27  C   UNL A   1      46.648  27.450  25.817  1.00  0.00     0.188 C 
BRANCH  27  28
ATOM     28  C   UNL A   1      45.452  26.909  25.007  1.00  0.00     0.188 C 
BRANCH  28  29
ATOM     29  O   UNL A   1      45.470  25.485  24.858  1.00  0.00    -0.376 OA
BRANCH  29  30
ATOM     30  C   UNL A   1      44.438  24.772  25.535  1.00  0.00     0.202 C 
BRANCH  30  31
ATOM     31  C   UNL A   1      43.063  24.896  24.866  1.00  0.00     0.261 C 
BRANCH  31  32
ATOM     32  O   UNL A   1      42.154  25.796  25.520  1.00  0.00    -0.460 OA
BRANCH  32  33
ATOM     33  C   UNL A   1      41.257  25.250  26.369  1.00  0.00     0.338 C 
ATOM     34  O   UNL A   1      40.641  24.211  26.216  1.00  0.00    -0.246 OA
BRANCH  33  35
ATOM     35  C   UNL A   1      41.280  26.026  27.624  1.00  0.00     0.060 A 
ATOM     36  C   UNL A   1      40.253  25.826  28.554  1.00  0.00     0.016 A 
ATOM     37  C   UNL A   1      42.291  26.960  27.869  1.00  0.00     0.016 A 
ATOM     38  C   UNL A   1      40.201  26.604  29.709  1.00  0.00     0.010 A 
ATOM     39  C   UNL A   1      42.230  27.748  29.019  1.00  0.00     0.010 A 
ATOM     40  C   UNL A   1      41.162  27.603  29.921  1.00  0.00    -0.014 A 
BRANCH  40  41
ATOM     41  C   UNL A   1      40.932  28.632  30.960  1.00  0.00     0.031 A 
ATOM     42  C   UNL A   1      41.762  28.574  32.214  1.00  0.00     0.074 A 
ATOM     43  C   UNL A   1      40.016  29.602  30.795  1.00  0.00     0.049 A 
ATOM     44  N   UNL A   1      41.728  29.343  33.270  1.00  0.00    -0.248 NA
ATOM     45  C   UNL A   1      42.764  27.496  32.283  1.00  0.00     0.031 C 
ATOM     46  C   UNL A   1      39.163  29.770  29.620  1.00  0.00     0.029 A 
ATOM     47  N   UNL A   1      39.643  30.622  31.634  1.00  0.00    -0.354 N 
ATOM     48  C   UNL A   1      42.706  28.849  34.124  1.00  0.00     0.074 A 
ATOM     49  C   UNL A   1      43.288  27.691  33.483  1.00  0.00     0.031 C 
ATOM     50  C   UNL A   1      38.351  30.822  29.822  1.00  0.00     0.029 A 
ATOM     51  C   UNL A   1      38.612  31.387  31.146  1.00  0.00     0.049 A 
ATOM     52  H   UNL A   1      40.073  30.789  32.503  1.00  0.00     0.167 HD
ATOM     53  C   UNL A   1      43.094  29.325  35.331  1.00  0.00     0.037 A 
ATOM     54  C   UNL A   1      37.948  32.414  31.712  1.00  0.00     0.037 A 
ATOM     55  C   UNL A   1      42.499  30.463  35.978  1.00  0.00     0.049 A 
ATOM     56  C   UNL A   1      38.359  32.898  33.078  1.00  0.00     0.074 A 
ATOM     57  C   UNL A   1      42.813  31.021  37.204  1.00  0.00     0.029 A 
ATOM     58  N   UNL A   1      41.456  31.212  35.452  1.00  0.00    -0.354 N 
ATOM     59  N   UNL A   1      39.304  32.440  33.867  1.00  0.00    -0.248 NA
ATOM     60  C   UNL A   1      37.623  34.044  33.629  1.00  0.00     0.031 C 
ATOM     61  C   UNL A   1      41.937  32.087  37.436  1.00  0.00     0.029 A 
ATOM     62  C   UNL A   1      41.105  32.220  36.335  1.00  0.00     0.049 A 
ATOM     63  H   UNL A   1      41.029  31.051  34.580  1.00  0.00     0.167 HD
ATOM     64  C   UNL A   1      39.289  33.255  34.994  1.00  0.00     0.074 A 
ATOM     65  C   UNL A   1      38.248  34.240  34.783  1.00  0.00     0.031 C 
ATOM     66  C   UNL A   1      40.068  33.195  36.103  1.00  0.00     0.037 A 
BRANCH  53  67
ATOM     67  C   UNL A   1      44.204  28.591  36.029  1.00  0.00     0.058 A 
ATOM     68  C   UNL A   1      43.972  27.386  36.711  1.00  0.00     0.135 A 
ATOM     69  C   UNL A   1      45.512  29.104  36.029  1.00  0.00     0.135 A 
ATOM     70  F   UNL A   1      42.735  26.865  36.760  1.00  0.00    -0.206 F 
ATOM     71  C   UNL A   1      44.988  26.733  37.400  1.00  0.00     0.059 A 
ATOM     72  C   UNL A   1      46.549  28.455  36.691  1.00  0.00     0.059 A 
ATOM     73  F   UNL A   1      45.787  30.256  35.397  1.00  0.00    -0.206 F 
ATOM     74  C   UNL A   1      46.272  27.279  37.391  1.00  0.00     0.060 A 
BRANCH  74  75
ATOM     75  S   UNL A   1      47.576  26.437  38.310  1.00  0.00     0.124 S 
ATOM     76  O   UNL A   1      46.989  26.361  39.644  1.00  0.00    -0.237 OA
ATOM     77  O   UNL A   1      47.694  25.168  37.598  1.00  0.00    -0.237 OA
ATOM     78  O   UNL A   1      48.720  27.335  38.178  1.00  0.00    -0.744 OA
ENDBRANCH  74  75
ENDBRANCH  53  67
BRANCH  54  79
ATOM     79  C   UNL A   1      36.819  33.051  30.985  1.00  0.00     0.058 A 
ATOM     80  C   UNL A   1      35.487  32.794  31.339  1.00  0.00     0.135 A 
ATOM     81  C   UNL A   1      37.055  33.947  29.930  1.00  0.00     0.135 A 
ATOM     82  F   UNL A   1      35.211  31.935  32.332  1.00  0.00    -0.206 F 
ATOM     83  C   UNL A   1      34.427  33.399  30.671  1.00  0.00     0.059 A 
ATOM     84  C   UNL A   1      36.012  34.581  29.262  1.00  0.00     0.059 A 
ATOM     85  F   UNL A   1      38.313  34.232  29.559  1.00  0.00    -0.206 F 
ATOM     86  C   UNL A   1      34.701  34.296  29.637  1.00  0.00     0.060 A 
BRANCH  86  87
ATOM     87  S   UNL A   1      33.321  35.130  28.823  1.00  0.00     0.124 S 
ATOM     88  O   UNL A   1      32.484  35.492  29.960  1.00  0.00    -0.237 OA
ATOM     89  O   UNL A   1      33.988  36.236  28.142  1.00  0.00    -0.237 OA
ATOM     90  O   UNL A   1      32.780  34.098  27.942  1.00  0.00    -0.744 OA
ENDBRANCH  86  87
ENDBRANCH  54  79
BRANCH  66  91
ATOM     91  C   UNL A   1      39.850  34.240  37.163  1.00  0.00     0.058 A 
ATOM     92  C   UNL A   1      39.044  33.996  38.285  1.00  0.00     0.135 A 
ATOM     93  C   UNL A   1      40.502  35.481  37.081  1.00  0.00     0.135 A 
ATOM     94  F   UNL A   1      38.395  32.826  38.410  1.00  0.00    -0.206 F 
ATOM     95  C   UNL A   1      38.875  34.952  39.281  1.00  0.00     0.059 A 
ATOM     96  C   UNL A   1      40.367  36.444  38.076  1.00  0.00     0.059 A 
ATOM     97  F   UNL A   1      41.294  35.760  36.034  1.00  0.00    -0.206 F 
ATOM     98  C   UNL A   1      39.541  36.175  39.167  1.00  0.00     0.060 A 
BRANCH  98  99
ATOM     99  S   UNL A   1      39.342  37.399  40.480  1.00  0.00     0.124 S 
ATOM    100  O   UNL A   1      38.711  36.606  41.528  1.00  0.00    -0.237 OA
ATOM    101  O   UNL A   1      40.720  37.810  40.737  1.00  0.00    -0.237 OA
ATOM    102  O   UNL A   1      38.496  38.418  39.867  1.00  0.00    -0.744 OA
ENDBRANCH  98  99
ENDBRANCH  66  91
ENDBRANCH  40  41
ENDBRANCH  33  35
ENDBRANCH  32  33
ENDBRANCH  31  32
ENDBRANCH  30  31
ENDBRANCH  29  30
ENDBRANCH  28  29
ENDBRANCH  27  28
ENDBRANCH   1  27
TORSDOF 27
ENDMDL
MODEL 2
REMARK VINA RESULT:      -6.2      2.398      9.551
REMARK SMILES COc1ccc(/C=C/c2ncc(C(=O)OCCOCCOCCOCCOC(=O)c3ccc(-c4c5nc(c(-c6c(F)cc(S(=O)(=O)[O-])cc6F)c6ccc([nH]6)c(-c6c(F)cc(S(=O)(=O)[O-])cc6F)c6nc(c(-c7c(F)cc(S(=O)(=O)[O-])cc7F)c7ccc4[nH]7)C=C6)C=C5)cc3)s2)cc1O
REMARK SMILES IDX 21 1 20 2 19 3 18 4 17 5 16 6 15 7 13 8 14 9 12 10 9 11
REMARK SMILES IDX 10 12 96 13 11 14 8 15 7 16 6 17 3 18 4 19 98 20 5 21 97 22
REMARK SMILES IDX 2 23 1 24 99 25 22 27 23 28 24 29 25 30 26 31 27 32 28 33
REMARK SMILES IDX 29 34 30 35 31 36 95 37 32 38 94 39 33 40 34 41 35 42 88 43
REMARK SMILES IDX 36 44 93 45 87 46 89 47 37 48 92 49 86 50 85 51 38 53 72 54
REMARK SMILES IDX 51 55 71 56 52 57 55 58 70 59 90 60 53 61 54 62 69 64 91 65
REMARK SMILES IDX 56 66 39 67 40 68 49 69 41 70 42 71 48 72 50 73 43 74 44 75
REMARK SMILES IDX 45 76 46 77 47 78 73 79 74 80 83 81 75 82 76 83 82 84 84 85
REMARK SMILES IDX 77 86 78 87 79 88 80 89 81 90 57 91 58 92 67 93 59 94 60 95
REMARK SMILES IDX 66 96 68 97 61 98 62 99 63 100 64 101 65 102
REMARK H PARENT 99 26 89 52 55 63
REMARK Flexibility Score: inf
ROOT
ATOM      1  O   UNL A   1      43.182  24.152  29.677  1.00  0.00    -0.377 OA
ENDROOT
BRANCH   1   2
ATOM      2  C   UNL A   1      44.205  25.126  29.819  1.00  0.00     0.188 C 
BRANCH   2   3
ATOM      3  C   UNL A   1      45.442  24.781  28.974  1.00  0.00     0.188 C 
BRANCH   3   4
ATOM      4  O   UNL A   1      46.566  25.604  29.275  1.00  0.00    -0.376 OA
BRANCH   4   5
ATOM      5  C   UNL A   1      46.377  26.681  30.187  1.00  0.00     0.202 C 
BRANCH   5   6
ATOM      6  C   UNL A   1      46.380  28.124  29.650  1.00  0.00     0.261 C 
BRANCH   6   7
ATOM      7  O   UNL A   1      45.289  28.476  28.782  1.00  0.00    -0.459 OA
BRANCH   7   8
ATOM      8  C   UNL A   1      45.548  28.641  27.459  1.00  0.00     0.350 C 
ATOM      9  O   UNL A   1      45.636  27.734  26.651  1.00  0.00    -0.245 OA
BRANCH   8  10
ATOM     10  C   UNL A   1      45.541  30.056  27.172  1.00  0.00     0.132 A 
ATOM     11  C   UNL A   1      45.217  32.471  27.240  1.00  0.00     0.116 A 
ATOM     12  N   UNL A   1      46.117  32.159  26.327  1.00  0.00    -0.244 NA
ATOM     13  S   UNL A   1      44.545  31.114  28.074  1.00  0.00    -0.107 S 
ATOM     14  C   UNL A   1      46.318  30.791  26.301  1.00  0.00     0.139 A 
BRANCH  11  15
ATOM     15  C   UNL A   1      44.730  33.771  27.547  1.00  0.00     0.040 C 
ATOM     16  C   UNL A   1      44.673  34.698  26.578  1.00  0.00     0.011 C 
BRANCH  16  17
ATOM     17  C   UNL A   1      44.072  36.030  26.721  1.00  0.00    -0.022 A 
ATOM     18  C   UNL A   1      43.046  38.648  27.081  1.00  0.00     0.160 A 
ATOM     19  C   UNL A   1      42.192  37.556  26.882  1.00  0.00     0.051 A 
ATOM     20  C   UNL A   1      44.420  38.410  27.105  1.00  0.00     0.158 A 
ATOM     21  C   UNL A   1      42.694  36.259  26.712  1.00  0.00     0.012 A 
ATOM     22  C   UNL A   1      44.929  37.121  26.918  1.00  0.00     0.058 A 
BRANCH  18  23
ATOM     23  O   UNL A   1      42.379  39.830  27.238  1.00  0.00    -0.493 OA
ATOM     24  C   UNL A   1      41.657  40.059  28.438  1.00  0.00     0.278 C 
ENDBRANCH  18  23
BRANCH  20  25
ATOM     25  O   UNL A   1      45.354  39.377  27.345  1.00  0.00    -0.504 OA
ATOM     26  H   UNL A   1      45.860  39.354  28.133  1.00  0.00     0.293 HD
ENDBRANCH  20  25
ENDBRANCH  16  17
ENDBRANCH  11  15
ENDBRANCH   8  10
ENDBRANCH   7   8
ENDBRANCH   6   7
ENDBRANCH   5   6
ENDBRANCH   4   5
ENDBRANCH   3   4
ENDBRANCH   2   3
ENDBRANCH   1   2
BRANCH   1  27
ATOM     27  C   UNL A   1      43.617  22.821  29.404  1.00  0.00     0.188 C 
BRANCH  27  28
ATOM     28  C   UNL A   1      42.677  21.872  28.633  1.00  0.00     0.188 C 
BRANCH  28  29
ATOM     29  O   UNL A   1      41.371  22.418  28.424  1.00  0.00    -0.376 OA
BRANCH  29  30
ATOM     30  C   UNL A   1      40.842  22.293  27.107  1.00  0.00     0.202 C 
BRANCH  30  31
ATOM     31  C   UNL A   1      40.935  23.584  26.281  1.00  0.00     0.261 C 
BRANCH  31  32
ATOM     32  O   UNL A   1      41.986  24.479  26.679  1.00  0.00    -0.460 OA
BRANCH  32  33
ATOM     33  C   UNL A   1      41.937  25.737  26.187  1.00  0.00     0.338 C 
ATOM     34  O   UNL A   1      42.086  26.076  25.028  1.00  0.00    -0.246 OA
BRANCH  33  35
ATOM     35  C   UNL A   1      41.480  26.634  27.265  1.00  0.00     0.060 A 
ATOM     36  C   UNL A   1      41.938  27.956  27.274  1.00  0.00     0.016 A 
ATOM     37  C   UNL A   1      40.627  26.169  28.270  1.00  0.00     0.016 A 
ATOM     38  C   UNL A   1      41.591  28.805  28.325  1.00  0.00     0.010 A 
ATOM     39  C   UNL A   1      40.291  27.014  29.329  1.00  0.00     0.010 A 
ATOM     40  C   UNL A   1      40.808  28.320  29.382  1.00  0.00    -0.014 A 
BRANCH  40  41
ATOM     41  C   UNL A   1      40.709  29.099  30.637  1.00  0.00     0.031 A 
ATOM     42  C   UNL A   1      39.668  30.183  30.721  1.00  0.00     0.074 A 
ATOM     43  C   UNL A   1      41.515  28.849  31.683  1.00  0.00     0.049 A 
ATOM     44  N   UNL A   1      39.406  31.011  31.698  1.00  0.00    -0.248 NA
ATOM     45  C   UNL A   1      38.809  30.355  29.537  1.00  0.00     0.031 C 
ATOM     46  C   UNL A   1      42.550  27.818  31.726  1.00  0.00     0.029 A 
ATOM     47  N   UNL A   1      41.595  29.461  32.908  1.00  0.00    -0.354 N 
ATOM     48  C   UNL A   1      38.350  31.795  31.252  1.00  0.00     0.074 A 
ATOM     49  C   UNL A   1      38.045  31.373  29.902  1.00  0.00     0.031 C 
ATOM     50  C   UNL A   1      43.176  27.882  32.914  1.00  0.00     0.029 A 
ATOM     51  C   UNL A   1      42.600  28.969  33.705  1.00  0.00     0.049 A 
ATOM     52  H   UNL A   1      40.990  30.185  33.190  1.00  0.00     0.167 HD
ATOM     53  C   UNL A   1      37.684  32.773  31.911  1.00  0.00     0.037 A 
ATOM     54  C   UNL A   1      43.015  29.365  34.924  1.00  0.00     0.037 A 
ATOM     55  C   UNL A   1      38.003  33.207  33.243  1.00  0.00     0.049 A 
ATOM     56  C   UNL A   1      42.295  30.489  35.623  1.00  0.00     0.074 A 
ATOM     57  C   UNL A   1      37.395  34.194  33.998  1.00  0.00     0.029 A 
ATOM     58  N   UNL A   1      39.029  32.685  34.018  1.00  0.00    -0.354 N 
ATOM     59  N   UNL A   1      41.280  31.206  35.202  1.00  0.00    -0.248 NA
ATOM     60  C   UNL A   1      42.769  30.852  36.966  1.00  0.00     0.031 C 
ATOM     61  C   UNL A   1      38.076  34.293  35.217  1.00  0.00     0.029 A 
ATOM     62  C   UNL A   1      39.080  33.338  35.238  1.00  0.00     0.049 A 
ATOM     63  H   UNL A   1      39.631  31.957  33.741  1.00  0.00     0.167 HD
ATOM     64  C   UNL A   1      40.980  32.089  36.235  1.00  0.00     0.074 A 
ATOM     65  C   UNL A   1      41.916  31.809  37.305  1.00  0.00     0.031 C 
ATOM     66  C   UNL A   1      40.017  33.042  36.294  1.00  0.00     0.037 A 
BRANCH  53  67
ATOM     67  C   UNL A   1      36.557  33.444  31.177  1.00  0.00     0.058 A 
ATOM     68  C   UNL A   1      35.217  33.234  31.541  1.00  0.00     0.135 A 
ATOM     69  C   UNL A   1      36.817  34.295  30.091  1.00  0.00     0.135 A 
ATOM     70  F   UNL A   1      34.914  32.412  32.558  1.00  0.00    -0.206 F 
ATOM     71  C   UNL A   1      34.172  33.814  30.830  1.00  0.00     0.059 A 
ATOM     72  C   UNL A   1      35.788  34.905  29.381  1.00  0.00     0.059 A 
ATOM     73  F   UNL A   1      38.080  34.525  29.699  1.00  0.00    -0.206 F 
ATOM     74  C   UNL A   1      34.467  34.643  29.747  1.00  0.00     0.060 A 
BRANCH  74  75
ATOM     75  S   UNL A   1      33.102  35.369  28.817  1.00  0.00     0.124 S 
ATOM     76  O   UNL A   1      33.796  36.373  28.018  1.00  0.00    -0.237 OA
ATOM     77  O   UNL A   1      32.580  34.223  28.078  1.00  0.00    -0.237 OA
ATOM     78  O   UNL A   1      32.222  35.892  29.858  1.00  0.00    -0.744 OA
ENDBRANCH  74  75
ENDBRANCH  53  67
BRANCH  54  79
ATOM     79  C   UNL A   1      44.178  28.691  35.561  1.00  0.00     0.058 A 
ATOM     80  C   UNL A   1      44.004  27.603  36.428  1.00  0.00     0.135 A 
ATOM     81  C   UNL A   1      45.490  29.114  35.294  1.00  0.00     0.135 A 
ATOM     82  F   UNL A   1      42.768  27.172  36.722  1.00  0.00    -0.206 F 
ATOM     83  C   UNL A   1      45.089  26.960  37.014  1.00  0.00     0.059 A 
ATOM     84  C   UNL A   1      46.592  28.472  35.852  1.00  0.00     0.059 A 
ATOM     85  F   UNL A   1      45.709  30.144  34.464  1.00  0.00    -0.206 F 
ATOM     86  C   UNL A   1      46.380  27.399  36.715  1.00  0.00     0.060 A 
BRANCH  86  87
ATOM     87  S   UNL A   1      47.784  26.512  37.426  1.00  0.00     0.124 S 
ATOM     88  O   UNL A   1      48.817  26.743  36.422  1.00  0.00    -0.237 OA
ATOM     89  O   UNL A   1      47.968  27.199  38.701  1.00  0.00    -0.237 OA
ATOM     90  O   UNL A   1      47.296  25.140  37.528  1.00  0.00    -0.744 OA
ENDBRANCH  86  87
ENDBRANCH  54  79
BRANCH  66  91
ATOM     91  C   UNL A   1      39.901  33.835  37.567  1.00  0.00     0.058 A 
ATOM     92  C   UNL A   1      40.627  35.018  37.768  1.00  0.00     0.135 A 
ATOM     93  C   UNL A   1      39.008  33.434  38.574  1.00  0.00     0.135 A 
ATOM     94  F   UNL A   1      41.497  35.444  36.837  1.00  0.00    -0.206 F 
ATOM     95  C   UNL A   1      40.488  35.768  38.932  1.00  0.00     0.059 A 
ATOM     96  C   UNL A   1      38.835  34.179  39.736  1.00  0.00     0.059 A 
ATOM     97  F   UNL A   1      38.280  32.316  38.426  1.00  0.00    -0.206 F 
ATOM     98  C   UNL A   1      39.589  35.340  39.911  1.00  0.00     0.060 A 
BRANCH  98  99
ATOM     99  S   UNL A   1      39.391  36.335  41.405  1.00  0.00     0.124 S 
ATOM    100  O   UNL A   1      38.327  35.617  42.097  1.00  0.00    -0.237 OA
ATOM    101  O   UNL A   1      40.715  36.250  42.015  1.00  0.00    -0.237 OA
ATOM    102  O   UNL A   1      39.030  37.652  40.890  1.00  0.00    -0.744 OA
ENDBRANCH  98  99
ENDBRANCH  66  91
ENDBRANCH  40  41
ENDBRANCH  33  35
ENDBRANCH  32  33
ENDBRANCH  31  32
ENDBRANCH  30  31
ENDBRANCH  29  30
ENDBRANCH  28  29
ENDBRANCH  27  28
ENDBRANCH   1  27
TORSDOF 27
ENDMDL
MODEL 3
REMARK VINA RESULT:      -6.2      4.602     12.178
REMARK SMILES COc1ccc(/C=C/c2ncc(C(=O)OCCOCCOCCOCCOC(=O)c3ccc(-c4c5nc(c(-c6c(F)cc(S(=O)(=O)[O-])cc6F)c6ccc([nH]6)c(-c6c(F)cc(S(=O)(=O)[O-])cc6F)c6nc(c(-c7c(F)cc(S(=O)(=O)[O-])cc7F)c7ccc4[nH]7)C=C6)C=C5)cc3)s2)cc1O
REMARK SMILES IDX 21 1 20 2 19 3 18 4 17 5 16 6 15 7 13 8 14 9 12 10 9 11
REMARK SMILES IDX 10 12 96 13 11 14 8 15 7 16 6 17 3 18 4 19 98 20 5 21 97 22
REMARK SMILES IDX 2 23 1 24 99 25 22 27 23 28 24 29 25 30 26 31 27 32 28 33
REMARK SMILES IDX 29 34 30 35 31 36 95 37 32 38 94 39 33 40 34 41 35 42 88 43
REMARK SMILES IDX 36 44 93 45 87 46 89 47 37 48 92 49 86 50 85 51 38 53 72 54
REMARK SMILES IDX 51 55 71 56 52 57 55 58 70 59 90 60 53 61 54 62 69 64 91 65
REMARK SMILES IDX 56 66 39 67 40 68 49 69 41 70 42 71 48 72 50 73 43 74 44 75
REMARK SMILES IDX 45 76 46 77 47 78 73 79 74 80 83 81 75 82 76 83 82 84 84 85
REMARK SMILES IDX 77 86 78 87 79 88 80 89 81 90 57 91 58 92 67 93 59 94 60 95
REMARK SMILES IDX 66 96 68 97 61 98 62 99 63 100 64 101 65 102
REMARK H PARENT 99 26 89 52 55 63
REMARK Flexibility Score: inf
ROOT
ATOM      1  O   UNL A   1      37.127  31.971  34.807  1.00  0.00    -0.377 OA
ENDROOT
BRANCH   1   2
ATOM      2  C   UNL A   1      37.130  33.374  35.025  1.00  0.00     0.188 C 
BRANCH   2   3
ATOM      3  C   UNL A   1      37.375  34.153  33.722  1.00  0.00     0.188 C 
BRANCH   3   4
ATOM      4  O   UNL A   1      36.472  35.241  33.548  1.00  0.00    -0.376 OA
BRANCH   4   5
ATOM      5  C   UNL A   1      35.080  34.946  33.486  1.00  0.00     0.202 C 
BRANCH   5   6
ATOM      6  C   UNL A   1      34.571  33.970  32.407  1.00  0.00     0.261 C 
BRANCH   6   7
ATOM      7  O   UNL A   1      34.959  34.267  31.056  1.00  0.00    -0.459 OA
BRANCH   7   8
ATOM      8  C   UNL A   1      34.018  34.766  30.212  1.00  0.00     0.350 C 
ATOM      9  O   UNL A   1      33.529  35.879  30.298  1.00  0.00    -0.245 OA
BRANCH   8  10
ATOM     10  C   UNL A   1      33.828  33.820  29.138  1.00  0.00     0.132 A 
ATOM     11  C   UNL A   1      33.799  31.829  27.732  1.00  0.00     0.116 A 
ATOM     12  N   UNL A   1      32.980  32.742  27.246  1.00  0.00    -0.244 NA
ATOM     13  S   UNL A   1      34.636  32.312  29.166  1.00  0.00    -0.107 S 
ATOM     14  C   UNL A   1      32.978  33.864  28.053  1.00  0.00     0.139 A 
BRANCH  11  15
ATOM     15  C   UNL A   1      34.084  30.554  27.172  1.00  0.00     0.040 C 
ATOM     16  C   UNL A   1      33.194  29.986  26.343  1.00  0.00     0.011 C 
BRANCH  16  17
ATOM     17  C   UNL A   1      33.416  28.742  25.594  1.00  0.00    -0.022 A 
ATOM     18  C   UNL A   1      33.754  26.406  24.023  1.00  0.00     0.160 A 
ATOM     19  C   UNL A   1      33.809  26.354  25.422  1.00  0.00     0.051 A 
ATOM     20  C   UNL A   1      33.519  27.643  23.423  1.00  0.00     0.158 A 
ATOM     21  C   UNL A   1      33.633  27.504  26.203  1.00  0.00     0.012 A 
ATOM     22  C   UNL A   1      33.362  28.798  24.195  1.00  0.00     0.058 A 
BRANCH  18  23
ATOM     23  O   UNL A   1      33.936  25.189  23.432  1.00  0.00    -0.493 OA
ATOM     24  C   UNL A   1      34.807  24.250  24.043  1.00  0.00     0.278 C 
ENDBRANCH  18  23
BRANCH  20  25
ATOM     25  O   UNL A   1      33.389  27.821  22.075  1.00  0.00    -0.504 OA
ATOM     26  H   UNL A   1      32.619  27.518  21.635  1.00  0.00     0.293 HD
ENDBRANCH  20  25
ENDBRANCH  16  17
ENDBRANCH  11  15
ENDBRANCH   8  10
ENDBRANCH   7   8
ENDBRANCH   6   7
ENDBRANCH   5   6
ENDBRANCH   4   5
ENDBRANCH   3   4
ENDBRANCH   2   3
ENDBRANCH   1   2
BRANCH   1  27
ATOM     27  C   UNL A   1      37.183  31.548  33.446  1.00  0.00     0.188 C 
BRANCH  27  28
ATOM     28  C   UNL A   1      37.599  30.096  33.133  1.00  0.00     0.188 C 
BRANCH  28  29
ATOM     29  O   UNL A   1      36.695  29.429  32.247  1.00  0.00    -0.376 OA
BRANCH  29  30
ATOM     30  C   UNL A   1      36.881  29.679  30.856  1.00  0.00     0.202 C 
BRANCH  30  31
ATOM     31  C   UNL A   1      38.017  28.860  30.229  1.00  0.00     0.261 C 
BRANCH  31  32
ATOM     32  O   UNL A   1      39.236  29.588  30.014  1.00  0.00    -0.460 OA
BRANCH  32  33
ATOM     33  C   UNL A   1      40.393  28.920  30.218  1.00  0.00     0.338 C 
ATOM     34  O   UNL A   1      41.103  28.409  29.372  1.00  0.00    -0.246 OA
BRANCH  33  35
ATOM     35  C   UNL A   1      40.766  29.071  31.638  1.00  0.00     0.060 A 
ATOM     36  C   UNL A   1      41.491  30.205  32.022  1.00  0.00     0.016 A 
ATOM     37  C   UNL A   1      40.424  28.093  32.576  1.00  0.00     0.016 A 
ATOM     38  C   UNL A   1      41.931  30.335  33.338  1.00  0.00     0.010 A 
ATOM     39  C   UNL A   1      40.876  28.217  33.891  1.00  0.00     0.010 A 
ATOM     40  C   UNL A   1      41.668  29.316  34.265  1.00  0.00    -0.014 A 
BRANCH  40  41
ATOM     41  C   UNL A   1      42.397  29.292  35.554  1.00  0.00     0.031 A 
ATOM     42  C   UNL A   1      42.229  30.462  36.486  1.00  0.00     0.074 A 
ATOM     43  C   UNL A   1      43.182  28.257  35.896  1.00  0.00     0.049 A 
ATOM     44  N   UNL A   1      42.779  30.681  37.651  1.00  0.00    -0.248 NA
ATOM     45  C   UNL A   1      41.319  31.529  36.037  1.00  0.00     0.031 C 
ATOM     46  C   UNL A   1      43.410  27.063  35.084  1.00  0.00     0.029 A 
ATOM     47  N   UNL A   1      43.945  28.055  37.018  1.00  0.00    -0.354 N 
ATOM     48  C   UNL A   1      42.278  31.904  38.078  1.00  0.00     0.074 A 
ATOM     49  C   UNL A   1      41.412  32.399  37.031  1.00  0.00     0.031 C 
ATOM     50  C   UNL A   1      44.275  26.260  35.728  1.00  0.00     0.029 A 
ATOM     51  C   UNL A   1      44.675  26.891  36.985  1.00  0.00     0.049 A 
ATOM     52  H   UNL A   1      43.968  28.684  37.774  1.00  0.00     0.167 HD
ATOM     53  C   UNL A   1      42.507  32.553  39.245  1.00  0.00     0.037 A 
ATOM     54  C   UNL A   1      45.573  26.404  37.863  1.00  0.00     0.037 A 
ATOM     55  C   UNL A   1      43.386  32.071  40.275  1.00  0.00     0.049 A 
ATOM     56  C   UNL A   1      45.855  27.164  39.133  1.00  0.00     0.074 A 
ATOM     57  C   UNL A   1      43.694  32.655  41.490  1.00  0.00     0.029 A 
ATOM     58  N   UNL A   1      44.108  30.888  40.205  1.00  0.00    -0.354 N 
ATOM     59  N   UNL A   1      45.354  28.308  39.539  1.00  0.00    -0.248 NA
ATOM     60  C   UNL A   1      46.817  26.565  40.070  1.00  0.00     0.031 C 
ATOM     61  C   UNL A   1      44.630  31.843  42.140  1.00  0.00     0.029 A 
ATOM     62  C   UNL A   1      44.872  30.731  41.350  1.00  0.00     0.049 A 
ATOM     63  H   UNL A   1      44.081  30.253  39.452  1.00  0.00     0.167 HD
ATOM     64  C   UNL A   1      45.922  28.553  40.785  1.00  0.00     0.074 A 
ATOM     65  C   UNL A   1      46.797  27.435  41.071  1.00  0.00     0.031 C 
ATOM     66  C   UNL A   1      45.735  29.607  41.618  1.00  0.00     0.037 A 
BRANCH  53  67
ATOM     67  C   UNL A   1      41.804  33.866  39.445  1.00  0.00     0.058 A 
ATOM     68  C   UNL A   1      42.372  35.075  39.011  1.00  0.00     0.135 A 
ATOM     69  C   UNL A   1      40.558  33.920  40.089  1.00  0.00     0.135 A 
ATOM     70  F   UNL A   1      43.572  35.080  38.409  1.00  0.00    -0.206 F 
ATOM     71  C   UNL A   1      41.746  36.295  39.241  1.00  0.00     0.059 A 
ATOM     72  C   UNL A   1      39.903  35.127  40.309  1.00  0.00     0.059 A 
ATOM     73  F   UNL A   1      39.975  32.793  40.529  1.00  0.00    -0.206 F 
ATOM     74  C   UNL A   1      40.515  36.312  39.899  1.00  0.00     0.060 A 
BRANCH  74  75
ATOM     75  S   UNL A   1      39.726  37.904  40.215  1.00  0.00     0.124 S 
ATOM     76  O   UNL A   1      39.346  37.766  41.617  1.00  0.00    -0.237 OA
ATOM     77  O   UNL A   1      40.803  38.849  39.941  1.00  0.00    -0.237 OA
ATOM     78  O   UNL A   1      38.618  37.928  39.264  1.00  0.00    -0.744 OA
ENDBRANCH  74  75
ENDBRANCH  53  67
BRANCH  54  79
ATOM     79  C   UNL A   1      46.274  25.127  37.567  1.00  0.00     0.058 A 
ATOM     80  C   UNL A   1      45.836  23.911  38.110  1.00  0.00     0.135 A 
ATOM     81  C   UNL A   1      47.389  25.099  36.713  1.00  0.00     0.135 A 
ATOM     82  F   UNL A   1      44.782  23.890  38.941  1.00  0.00    -0.206 F 
ATOM     83  C   UNL A   1      46.480  22.712  37.823  1.00  0.00     0.059 A 
ATOM     84  C   UNL A   1      48.036  23.909  36.395  1.00  0.00     0.059 A 
ATOM     85  F   UNL A   1      47.842  26.235  36.161  1.00  0.00    -0.206 F 
ATOM     86  C   UNL A   1      47.576  22.721  36.959  1.00  0.00     0.060 A 
BRANCH  86  87
ATOM     87  S   UNL A   1      48.361  21.150  36.538  1.00  0.00     0.124 S 
ATOM     88  O   UNL A   1      47.211  20.257  36.458  1.00  0.00    -0.237 OA
ATOM     89  O   UNL A   1      49.016  21.463  35.271  1.00  0.00    -0.237 OA
ATOM     90  O   UNL A   1      49.267  20.917  37.660  1.00  0.00    -0.744 OA
ENDBRANCH  86  87
ENDBRANCH  54  79
BRANCH  66  91
ATOM     91  C   UNL A   1      46.463  29.591  42.934  1.00  0.00     0.058 A 
ATOM     92  C   UNL A   1      45.971  28.884  44.042  1.00  0.00     0.135 A 
ATOM     93  C   UNL A   1      47.698  30.247  43.070  1.00  0.00     0.135 A 
ATOM     94  F   UNL A   1      44.793  28.244  43.965  1.00  0.00    -0.206 F 
ATOM     95  C   UNL A   1      46.667  28.842  45.245  1.00  0.00     0.059 A 
ATOM     96  C   UNL A   1      48.423  30.199  44.256  1.00  0.00     0.059 A 
ATOM     97  F   UNL A   1      48.219  30.927  42.037  1.00  0.00    -0.206 F 
ATOM     98  C   UNL A   1      47.893  29.504  45.343  1.00  0.00     0.060 A 
BRANCH  98  99
ATOM     99  S   UNL A   1      48.806  29.418  46.899  1.00  0.00     0.124 S 
ATOM    100  O   UNL A   1      48.873  30.825  47.278  1.00  0.00    -0.237 OA
ATOM    101  O   UNL A   1      47.940  28.580  47.724  1.00  0.00    -0.237 OA
ATOM    102  O   UNL A   1      50.075  28.809  46.515  1.00  0.00    -0.744 OA
ENDBRANCH  98  99
ENDBRANCH  66  91
ENDBRANCH  40  41
ENDBRANCH  33  35
ENDBRANCH  32  33
ENDBRANCH  31  32
ENDBRANCH  30  31
ENDBRANCH  29  30
ENDBRANCH  28  29
ENDBRANCH  27  28
ENDBRANCH   1  27
TORSDOF 27
ENDMDL
