MODEL 1
REMARK VINA RESULT:      -8.1      0.000      0.000
REMARK SMILES Cc1ccc(S(=O)(=O)N2CCCC2)cc1C(=O)N[C@H](CC1=c2ccccc2=NC1)C(=O)OCCOCCOCCOCCOC(=O)c1ccc(-c2c3nc(c(-c4c(F)cc(S(=O)(=O)[O-])cc4F)c4ccc([nH]4)c(-c4c(F)cc(S(=O)(=O)[O-])cc4F)c4nc(c(-c5c(F)cc(S(=O)(=O)[O-])cc5F)c5ccc2[nH]5)C=C4)C=C3)cc1
REMARK SMILES IDX 37 1 36 2 35 3 34 4 33 5 32 6 30 7 31 8 19 9 18 10 16 11
REMARK SMILES IDX 17 12 15 14 1 15 2 16 3 17 4 18 14 19 5 20 6 21 7 22 8 23
REMARK SMILES IDX 9 24 10 25 13 26 11 27 12 28 20 29 21 30 22 31 29 32 23 33
REMARK SMILES IDX 27 34 28 35 24 36 26 37 25 38 38 39 39 40 40 41 41 42 42 43
REMARK SMILES IDX 43 44 44 45 45 46 46 47 47 48 48 49 112 50 49 51 111 52
REMARK SMILES IDX 50 53 51 54 52 55 105 56 53 57 110 58 104 59 106 60 54 61
REMARK SMILES IDX 109 62 103 63 102 64 55 66 89 67 68 68 88 69 69 70 72 71
REMARK SMILES IDX 87 72 107 73 70 74 71 75 86 77 108 78 73 79 56 80 57 81
REMARK SMILES IDX 66 82 58 83 59 84 65 85 67 86 60 87 61 88 62 89 63 90 64 91
REMARK SMILES IDX 90 92 91 93 100 94 92 95 93 96 99 97 101 98 94 99 95 100
REMARK SMILES IDX 96 101 97 102 98 103 74 104 75 105 84 106 76 107 77 108
REMARK SMILES IDX 83 109 85 110 78 111 79 112 80 113 81 114 82 115
REMARK H PARENT 18 13 106 65 72 76
REMARK Flexibility Score: inf
ROOT
ATOM      1  C   UNL A   1      39.944  30.946  35.360  1.00  0.00     0.188 C 
ENDROOT
BRANCH   1   2
ATOM      2  C   UNL A   1      38.861  32.029  35.180  1.00  0.00     0.188 C 
BRANCH   2   3
ATOM      3  O   UNL A   1      38.300  32.322  33.930  1.00  0.00    -0.376 OA
BRANCH   3   4
ATOM      4  C   UNL A   1      38.003  31.236  33.124  1.00  0.00     0.202 C 
BRANCH   4   5
ATOM      5  C   UNL A   1      36.527  31.202  32.775  1.00  0.00     0.261 C 
BRANCH   5   6
ATOM      6  O   UNL A   1      35.891  32.077  31.753  1.00  0.00    -0.462 OA
BRANCH   6   7
ATOM      7  C   UNL A   1      36.037  33.389  31.458  1.00  0.00     0.329 C 
ATOM      8  O   UNL A   1      36.185  34.301  32.260  1.00  0.00    -0.250 OA
BRANCH   7   9
ATOM      9  C   UNL A   1      36.042  33.710  29.926  1.00  0.00     0.196 C 
BRANCH   9  10
ATOM     10  N   UNL A   1      34.770  33.579  29.167  1.00  0.00    -0.338 N 
ATOM     11  C   UNL A   1      34.089  32.795  28.284  1.00  0.00     0.252 C 
ATOM     12  O   UNL A   1      33.049  33.340  27.875  1.00  0.00    -0.269 OA
ATOM     13  H   UNL A   1      34.204  34.354  29.385  1.00  0.00     0.164 HD
BRANCH  11  14
ATOM     14  C   UNL A   1      34.383  31.433  27.711  1.00  0.00     0.044 A 
ATOM     15  C   UNL A   1      35.521  30.193  29.514  1.00  0.00     0.045 C 
ATOM     16  C   UNL A   1      35.340  30.470  28.065  1.00  0.00    -0.038 A 
ATOM     17  C   UNL A   1      35.540  29.282  27.328  1.00  0.00     0.005 A 
ATOM     18  C   UNL A   1      34.513  28.826  26.530  1.00  0.00     0.022 A 
ATOM     19  C   UNL A   1      33.386  30.955  26.846  1.00  0.00     0.035 A 
ATOM     20  C   UNL A   1      33.404  29.642  26.350  1.00  0.00     0.083 A 
BRANCH  20  21
ATOM     21  S   UNL A   1      31.936  28.869  25.714  1.00  0.00     0.243 S 
ATOM     22  O   UNL A   1      31.382  28.065  26.757  1.00  0.00    -0.207 OA
ATOM     23  O   UNL A   1      31.169  29.934  25.067  1.00  0.00    -0.207 OA
BRANCH  21  24
ATOM     24  N   UNL A   1      32.504  27.867  24.509  1.00  0.00    -0.198 NA
ATOM     25  C   UNL A   1      32.579  26.422  24.726  1.00  0.00     0.102 C 
ATOM     26  C   UNL A   1      32.193  28.144  23.098  1.00  0.00     0.102 C 
ATOM     27  C   UNL A   1      33.186  25.961  23.414  1.00  0.00     0.018 C 
ATOM     28  C   UNL A   1      32.428  26.803  22.395  1.00  0.00     0.018 C 
ENDBRANCH  21  24
ENDBRANCH  20  21
ENDBRANCH  11  14
ENDBRANCH   9  10
BRANCH   9  29
ATOM     29  C   UNL A   1      37.273  33.284  29.062  1.00  0.00     0.070 C 
BRANCH  29  30
ATOM     30  C   UNL A   1      38.545  32.774  29.687  1.00  0.00    -0.037 C 
ATOM     31  C   UNL A   1      39.156  31.592  29.598  1.00  0.00     0.001 A 
ATOM     32  C   UNL A   1      39.350  33.690  30.576  1.00  0.00     0.174 C 
ATOM     33  C   UNL A   1      38.870  30.331  28.991  1.00  0.00     0.010 A 
ATOM     34  C   UNL A   1      40.458  31.842  30.247  1.00  0.00     0.065 A 
ATOM     35  N   UNL A   1      40.631  32.987  30.836  1.00  0.00    -0.280 NA
ATOM     36  C   UNL A   1      39.844  29.408  28.920  1.00  0.00     0.001 A 
ATOM     37  C   UNL A   1      41.495  30.796  30.087  1.00  0.00     0.028 A 
ATOM     38  C   UNL A   1      41.179  29.668  29.429  1.00  0.00     0.002 A 
ENDBRANCH  29  30
ENDBRANCH   9  29
ENDBRANCH   7   9
ENDBRANCH   6   7
ENDBRANCH   5   6
ENDBRANCH   4   5
ENDBRANCH   3   4
ENDBRANCH   2   3
ENDBRANCH   1   2
BRANCH   1  39
ATOM     39  O   UNL A   1      40.804  30.744  36.469  1.00  0.00    -0.377 OA
BRANCH  39  40
ATOM     40  C   UNL A   1      41.695  31.691  37.045  1.00  0.00     0.188 C 
BRANCH  40  41
ATOM     41  C   UNL A   1      41.256  33.141  37.158  1.00  0.00     0.188 C 
BRANCH  41  42
ATOM     42  O   UNL A   1      42.164  33.872  37.957  1.00  0.00    -0.376 OA
BRANCH  42  43
ATOM     43  C   UNL A   1      41.722  35.160  38.360  1.00  0.00     0.202 C 
BRANCH  43  44
ATOM     44  C   UNL A   1      42.637  36.217  37.762  1.00  0.00     0.261 C 
BRANCH  44  45
ATOM     45  O   UNL A   1      41.805  37.164  37.062  1.00  0.00    -0.460 OA
BRANCH  45  46
ATOM     46  C   UNL A   1      41.144  36.681  35.969  1.00  0.00     0.338 C 
ATOM     47  O   UNL A   1      39.937  36.530  35.895  1.00  0.00    -0.246 OA
BRANCH  46  48
ATOM     48  C   UNL A   1      42.129  36.280  34.916  1.00  0.00     0.060 A 
ATOM     49  C   UNL A   1      43.386  36.904  34.820  1.00  0.00     0.016 A 
ATOM     50  C   UNL A   1      41.740  35.403  33.907  1.00  0.00     0.016 A 
ATOM     51  C   UNL A   1      44.227  36.678  33.703  1.00  0.00     0.010 A 
ATOM     52  C   UNL A   1      42.541  35.241  32.784  1.00  0.00     0.010 A 
ATOM     53  C   UNL A   1      43.797  35.861  32.652  1.00  0.00    -0.014 A 
BRANCH  53  54
ATOM     54  C   UNL A   1      44.464  35.699  31.340  1.00  0.00     0.031 A 
ATOM     55  C   UNL A   1      44.926  34.368  30.866  1.00  0.00     0.074 A 
ATOM     56  C   UNL A   1      44.490  36.649  30.370  1.00  0.00     0.049 A 
ATOM     57  N   UNL A   1      45.870  34.231  29.986  1.00  0.00    -0.248 NA
ATOM     58  C   UNL A   1      44.340  33.098  31.286  1.00  0.00     0.031 C 
ATOM     59  C   UNL A   1      44.509  36.384  28.929  1.00  0.00     0.029 A 
ATOM     60  N   UNL A   1      44.322  38.031  30.423  1.00  0.00    -0.354 N 
ATOM     61  C   UNL A   1      45.750  32.963  29.483  1.00  0.00     0.074 A 
ATOM     62  C   UNL A   1      44.884  32.256  30.405  1.00  0.00     0.031 C 
ATOM     63  C   UNL A   1      44.583  37.533  28.249  1.00  0.00     0.029 A 
ATOM     64  C   UNL A   1      44.666  38.618  29.207  1.00  0.00     0.049 A 
ATOM     65  H   UNL A   1      44.003  38.526  31.213  1.00  0.00     0.167 HD
ATOM     66  C   UNL A   1      46.160  32.640  28.225  1.00  0.00     0.037 A 
ATOM     67  C   UNL A   1      45.228  39.828  28.974  1.00  0.00     0.037 A 
ATOM     68  C   UNL A   1      46.406  33.818  27.374  1.00  0.00     0.049 A 
ATOM     69  C   UNL A   1      46.434  39.539  28.154  1.00  0.00     0.074 A 
ATOM     70  C   UNL A   1      45.722  34.322  26.275  1.00  0.00     0.029 A 
ATOM     71  N   UNL A   1      47.301  34.831  27.741  1.00  0.00    -0.354 N 
ATOM     72  N   UNL A   1      47.090  38.423  28.342  1.00  0.00    -0.248 NA
ATOM     73  C   UNL A   1      46.856  40.279  26.970  1.00  0.00     0.031 C 
ATOM     74  C   UNL A   1      46.268  35.583  25.929  1.00  0.00     0.029 A 
ATOM     75  C   UNL A   1      47.269  35.885  26.834  1.00  0.00     0.049 A 
ATOM     76  H   UNL A   1      47.879  34.801  28.538  1.00  0.00     0.167 HD
ATOM     77  C   UNL A   1      47.851  38.200  27.243  1.00  0.00     0.074 A 
ATOM     78  C   UNL A   1      47.732  39.409  26.433  1.00  0.00     0.031 C 
ATOM     79  C   UNL A   1      48.245  36.963  26.847  1.00  0.00     0.037 A 
BRANCH  66  80
ATOM     80  C   UNL A   1      45.992  31.212  27.731  1.00  0.00     0.058 A 
ATOM     81  C   UNL A   1      44.782  30.698  27.232  1.00  0.00     0.135 A 
ATOM     82  C   UNL A   1      47.071  30.294  27.722  1.00  0.00     0.135 A 
ATOM     83  F   UNL A   1      43.698  31.465  27.076  1.00  0.00    -0.206 F 
ATOM     84  C   UNL A   1      44.625  29.360  26.861  1.00  0.00     0.059 A 
ATOM     85  C   UNL A   1      46.926  28.940  27.413  1.00  0.00     0.059 A 
ATOM     86  F   UNL A   1      48.319  30.694  28.019  1.00  0.00    -0.206 F 
ATOM     87  C   UNL A   1      45.694  28.482  26.974  1.00  0.00     0.060 A 
BRANCH  87  88
ATOM     88  S   UNL A   1      45.465  26.755  26.514  1.00  0.00     0.124 S 
ATOM     89  O   UNL A   1      46.829  26.238  26.545  1.00  0.00    -0.237 OA
ATOM     90  O   UNL A   1      44.580  26.282  27.573  1.00  0.00    -0.237 OA
ATOM     91  O   UNL A   1      44.867  26.837  25.183  1.00  0.00    -0.744 OA
ENDBRANCH  87  88
ENDBRANCH  66  80
BRANCH  67  92
ATOM     92  C   UNL A   1      44.937  40.959  29.883  1.00  0.00     0.058 A 
ATOM     93  C   UNL A   1      43.677  41.586  29.757  1.00  0.00     0.135 A 
ATOM     94  C   UNL A   1      45.609  41.121  31.101  1.00  0.00     0.135 A 
ATOM     95  F   UNL A   1      42.979  41.457  28.616  1.00  0.00    -0.206 F 
ATOM     96  C   UNL A   1      43.038  42.199  30.841  1.00  0.00     0.059 A 
ATOM     97  C   UNL A   1      44.983  41.708  32.204  1.00  0.00     0.059 A 
ATOM     98  F   UNL A   1      46.825  40.584  31.277  1.00  0.00    -0.206 F 
ATOM     99  C   UNL A   1      43.672  42.182  32.083  1.00  0.00     0.060 A 
BRANCH  99 100
ATOM    100  S   UNL A   1      42.706  42.456  33.599  1.00  0.00     0.124 S 
ATOM    101  O   UNL A   1      41.812  41.306  33.609  1.00  0.00    -0.237 OA
ATOM    102  O   UNL A   1      43.723  42.491  34.647  1.00  0.00    -0.237 OA
ATOM    103  O   UNL A   1      42.086  43.751  33.338  1.00  0.00    -0.744 OA
ENDBRANCH  99 100
ENDBRANCH  67  92
BRANCH  79 104
ATOM    104  C   UNL A   1      49.676  36.745  26.473  1.00  0.00     0.058 A 
ATOM    105  C   UNL A   1      50.136  36.828  25.144  1.00  0.00     0.135 A 
ATOM    106  C   UNL A   1      50.662  36.601  27.470  1.00  0.00     0.135 A 
ATOM    107  F   UNL A   1      49.298  37.019  24.114  1.00  0.00    -0.206 F 
ATOM    108  C   UNL A   1      51.482  36.733  24.825  1.00  0.00     0.059 A 
ATOM    109  C   UNL A   1      52.015  36.537  27.173  1.00  0.00     0.059 A 
ATOM    110  F   UNL A   1      50.349  36.534  28.772  1.00  0.00    -0.206 F 
ATOM    111  C   UNL A   1      52.413  36.577  25.845  1.00  0.00     0.060 A 
BRANCH 111 112
ATOM    112  S   UNL A   1      54.148  36.417  25.416  1.00  0.00     0.124 S 
ATOM    113  O   UNL A   1      54.148  35.136  24.717  1.00  0.00    -0.237 OA
ATOM    114  O   UNL A   1      54.379  37.593  24.583  1.00  0.00    -0.237 OA
ATOM    115  O   UNL A   1      54.819  36.432  26.712  1.00  0.00    -0.744 OA
ENDBRANCH 111 112
ENDBRANCH  79 104
ENDBRANCH  53  54
ENDBRANCH  46  48
ENDBRANCH  45  46
ENDBRANCH  44  45
ENDBRANCH  43  44
ENDBRANCH  42  43
ENDBRANCH  41  42
ENDBRANCH  40  41
ENDBRANCH  39  40
ENDBRANCH   1  39
TORSDOF 29
ENDMDL
MODEL 2
REMARK VINA RESULT:      -7.4      5.139     11.132
REMARK SMILES Cc1ccc(S(=O)(=O)N2CCCC2)cc1C(=O)N[C@H](CC1=c2ccccc2=NC1)C(=O)OCCOCCOCCOCCOC(=O)c1ccc(-c2c3nc(c(-c4c(F)cc(S(=O)(=O)[O-])cc4F)c4ccc([nH]4)c(-c4c(F)cc(S(=O)(=O)[O-])cc4F)c4nc(c(-c5c(F)cc(S(=O)(=O)[O-])cc5F)c5ccc2[nH]5)C=C4)C=C3)cc1
REMARK SMILES IDX 37 1 36 2 35 3 34 4 33 5 32 6 30 7 31 8 19 9 18 10 16 11
REMARK SMILES IDX 17 12 15 14 1 15 2 16 3 17 4 18 14 19 5 20 6 21 7 22 8 23
REMARK SMILES IDX 9 24 10 25 13 26 11 27 12 28 20 29 21 30 22 31 29 32 23 33
REMARK SMILES IDX 27 34 28 35 24 36 26 37 25 38 38 39 39 40 40 41 41 42 42 43
REMARK SMILES IDX 43 44 44 45 45 46 46 47 47 48 48 49 112 50 49 51 111 52
REMARK SMILES IDX 50 53 51 54 52 55 105 56 53 57 110 58 104 59 106 60 54 61
REMARK SMILES IDX 109 62 103 63 102 64 55 66 89 67 68 68 88 69 69 70 72 71
REMARK SMILES IDX 87 72 107 73 70 74 71 75 86 77 108 78 73 79 56 80 57 81
REMARK SMILES IDX 66 82 58 83 59 84 65 85 67 86 60 87 61 88 62 89 63 90 64 91
REMARK SMILES IDX 90 92 91 93 100 94 92 95 93 96 99 97 101 98 94 99 95 100
REMARK SMILES IDX 96 101 97 102 98 103 74 104 75 105 84 106 76 107 77 108
REMARK SMILES IDX 83 109 85 110 78 111 79 112 80 113 81 114 82 115
REMARK H PARENT 18 13 106 65 72 76
REMARK Flexibility Score: inf
ROOT
ATOM      1  C   UNL A   1      47.639  26.288  31.293  1.00  0.00     0.188 C 
ENDROOT
BRANCH   1   2
ATOM      2  C   UNL A   1      46.259  25.627  31.103  1.00  0.00     0.188 C 
BRANCH   2   3
ATOM      3  O   UNL A   1      45.385  26.008  30.075  1.00  0.00    -0.376 OA
BRANCH   3   4
ATOM      4  C   UNL A   1      44.440  25.069  29.699  1.00  0.00     0.202 C 
BRANCH   4   5
ATOM      5  C   UNL A   1      43.802  25.437  28.372  1.00  0.00     0.261 C 
BRANCH   5   6
ATOM      6  O   UNL A   1      42.422  25.048  27.974  1.00  0.00    -0.462 OA
BRANCH   6   7
ATOM      7  C   UNL A   1      41.485  25.661  27.214  1.00  0.00     0.329 C 
ATOM      8  O   UNL A   1      41.059  25.272  26.136  1.00  0.00    -0.250 OA
BRANCH   7   9
ATOM      9  C   UNL A   1      40.903  26.972  27.839  1.00  0.00     0.196 C 
BRANCH   9  10
ATOM     10  N   UNL A   1      41.739  28.202  27.821  1.00  0.00    -0.338 N 
ATOM     11  C   UNL A   1      42.076  29.316  28.530  1.00  0.00     0.252 C 
ATOM     12  O   UNL A   1      42.765  30.108  27.864  1.00  0.00    -0.269 OA
ATOM     13  H   UNL A   1      42.239  28.218  26.973  1.00  0.00     0.164 HD
BRANCH  11  14
ATOM     14  C   UNL A   1      41.745  29.756  29.932  1.00  0.00     0.044 A 
ATOM     15  C   UNL A   1      43.753  29.254  31.271  1.00  0.00     0.045 C 
ATOM     16  C   UNL A   1      42.275  29.367  31.171  1.00  0.00    -0.038 A 
ATOM     17  C   UNL A   1      41.751  29.814  32.403  1.00  0.00     0.005 A 
ATOM     18  C   UNL A   1      41.016  30.981  32.418  1.00  0.00     0.022 A 
ATOM     19  C   UNL A   1      40.949  30.911  29.990  1.00  0.00     0.035 A 
ATOM     20  C   UNL A   1      40.678  31.564  31.203  1.00  0.00     0.083 A 
BRANCH  20  21
ATOM     21  S   UNL A   1      40.147  33.258  31.249  1.00  0.00     0.243 S 
ATOM     22  O   UNL A   1      41.176  34.019  31.885  1.00  0.00    -0.207 OA
ATOM     23  O   UNL A   1      39.678  33.569  29.898  1.00  0.00    -0.207 OA
BRANCH  21  24
ATOM     24  N   UNL A   1      38.809  33.230  32.242  1.00  0.00    -0.198 NA
ATOM     25  C   UNL A   1      38.893  33.748  33.608  1.00  0.00     0.102 C 
ATOM     26  C   UNL A   1      37.466  33.481  31.696  1.00  0.00     0.102 C 
ATOM     27  C   UNL A   1      37.491  33.466  34.115  1.00  0.00     0.018 C 
ATOM     28  C   UNL A   1      36.631  33.865  32.921  1.00  0.00     0.018 C 
ENDBRANCH  21  24
ENDBRANCH  20  21
ENDBRANCH  11  14
ENDBRANCH   9  10
BRANCH   9  29
ATOM     29  C   UNL A   1      40.044  26.880  29.143  1.00  0.00     0.070 C 
BRANCH  29  30
ATOM     30  C   UNL A   1      38.908  27.831  29.415  1.00  0.00    -0.037 C 
ATOM     31  C   UNL A   1      38.333  28.210  30.557  1.00  0.00     0.001 A 
ATOM     32  C   UNL A   1      38.247  28.541  28.259  1.00  0.00     0.174 C 
ATOM     33  C   UNL A   1      38.454  27.856  31.935  1.00  0.00     0.010 A 
ATOM     34  C   UNL A   1      37.465  29.327  30.135  1.00  0.00     0.065 A 
ATOM     35  N   UNL A   1      37.348  29.557  28.862  1.00  0.00    -0.280 NA
ATOM     36  C   UNL A   1      37.853  28.623  32.859  1.00  0.00     0.001 A 
ATOM     37  C   UNL A   1      36.872  30.154  31.212  1.00  0.00     0.028 A 
ATOM     38  C   UNL A   1      37.099  29.810  32.490  1.00  0.00     0.002 A 
ENDBRANCH  29  30
ENDBRANCH   9  29
ENDBRANCH   7   9
ENDBRANCH   6   7
ENDBRANCH   5   6
ENDBRANCH   4   5
ENDBRANCH   3   4
ENDBRANCH   2   3
ENDBRANCH   1   2
BRANCH   1  39
ATOM     39  O   UNL A   1      48.094  27.528  30.777  1.00  0.00    -0.377 OA
BRANCH  39  40
ATOM     40  C   UNL A   1      48.549  27.789  29.456  1.00  0.00     0.188 C 
BRANCH  40  41
ATOM     41  C   UNL A   1      47.531  28.137  28.382  1.00  0.00     0.188 C 
BRANCH  41  42
ATOM     42  O   UNL A   1      46.778  29.272  28.762  1.00  0.00    -0.376 OA
BRANCH  42  43
ATOM     43  C   UNL A   1      46.182  29.994  27.695  1.00  0.00     0.202 C 
BRANCH  43  44
ATOM     44  C   UNL A   1      47.195  30.970  27.119  1.00  0.00     0.261 C 
BRANCH  44  45
ATOM     45  O   UNL A   1      47.476  31.954  28.135  1.00  0.00    -0.460 OA
BRANCH  45  46
ATOM     46  C   UNL A   1      46.609  33.006  28.199  1.00  0.00     0.338 C 
ATOM     47  O   UNL A   1      46.303  33.716  27.255  1.00  0.00    -0.246 OA
BRANCH  46  48
ATOM     48  C   UNL A   1      46.165  33.214  29.612  1.00  0.00     0.060 A 
ATOM     49  C   UNL A   1      47.088  33.523  30.628  1.00  0.00     0.016 A 
ATOM     50  C   UNL A   1      44.850  32.928  29.971  1.00  0.00     0.016 A 
ATOM     51  C   UNL A   1      46.703  33.509  31.991  1.00  0.00     0.010 A 
ATOM     52  C   UNL A   1      44.500  32.849  31.313  1.00  0.00     0.010 A 
ATOM     53  C   UNL A   1      45.403  33.140  32.351  1.00  0.00    -0.014 A 
BRANCH  53  54
ATOM     54  C   UNL A   1      44.917  32.877  33.724  1.00  0.00     0.031 A 
ATOM     55  C   UNL A   1      44.709  31.492  34.219  1.00  0.00     0.074 A 
ATOM     56  C   UNL A   1      44.861  33.810  34.710  1.00  0.00     0.049 A 
ATOM     57  N   UNL A   1      43.898  31.215  35.195  1.00  0.00    -0.248 NA
ATOM     58  C   UNL A   1      45.423  30.323  33.713  1.00  0.00     0.031 C 
ATOM     59  C   UNL A   1      45.042  33.540  36.139  1.00  0.00     0.029 A 
ATOM     60  N   UNL A   1      44.820  35.203  34.667  1.00  0.00    -0.354 N 
ATOM     61  C   UNL A   1      44.257  29.977  35.657  1.00  0.00     0.074 A 
ATOM     62  C   UNL A   1      45.108  29.408  34.632  1.00  0.00     0.031 C 
ATOM     63  C   UNL A   1      44.878  34.663  36.845  1.00  0.00     0.029 A 
ATOM     64  C   UNL A   1      44.532  35.728  35.925  1.00  0.00     0.049 A 
ATOM     65  H   UNL A   1      44.973  35.741  33.856  1.00  0.00     0.167 HD
ATOM     66  C   UNL A   1      44.041  29.592  36.945  1.00  0.00     0.037 A 
ATOM     67  C   UNL A   1      43.830  36.842  36.241  1.00  0.00     0.037 A 
ATOM     68  C   UNL A   1      43.723  30.719  37.842  1.00  0.00     0.049 A 
ATOM     69  C   UNL A   1      42.778  36.376  37.183  1.00  0.00     0.074 A 
ATOM     70  C   UNL A   1      44.445  31.314  38.869  1.00  0.00     0.029 A 
ATOM     71  N   UNL A   1      42.655  31.591  37.596  1.00  0.00    -0.354 N 
ATOM     72  N   UNL A   1      42.274  35.178  37.046  1.00  0.00    -0.248 NA
ATOM     73  C   UNL A   1      42.388  37.043  38.421  1.00  0.00     0.031 C 
ATOM     74  C   UNL A   1      43.764  32.480  39.298  1.00  0.00     0.029 A 
ATOM     75  C   UNL A   1      42.635  32.635  38.514  1.00  0.00     0.049 A 
ATOM     76  H   UNL A   1      42.002  31.479  36.866  1.00  0.00     0.167 HD
ATOM     77  C   UNL A   1      41.680  34.841  38.217  1.00  0.00     0.074 A 
ATOM     78  C   UNL A   1      41.713  36.052  39.033  1.00  0.00     0.031 C 
ATOM     79  C   UNL A   1      41.518  33.559  38.630  1.00  0.00     0.037 A 
BRANCH  66  80
ATOM     80  C   UNL A   1      44.469  28.203  37.390  1.00  0.00     0.058 A 
ATOM     81  C   UNL A   1      45.679  27.935  38.054  1.00  0.00     0.135 A 
ATOM     82  C   UNL A   1      43.649  27.067  37.177  1.00  0.00     0.135 A 
ATOM     83  F   UNL A   1      46.515  28.912  38.422  1.00  0.00    -0.206 F 
ATOM     84  C   UNL A   1      46.093  26.641  38.380  1.00  0.00     0.059 A 
ATOM     85  C   UNL A   1      44.065  25.760  37.439  1.00  0.00     0.059 A 
ATOM     86  F   UNL A   1      42.400  27.197  36.700  1.00  0.00    -0.206 F 
ATOM     87  C   UNL A   1      45.292  25.556  38.050  1.00  0.00     0.060 A 
BRANCH  87  88
ATOM     88  S   UNL A   1      45.855  23.894  38.456  1.00  0.00     0.124 S 
ATOM     89  O   UNL A   1      47.307  24.036  38.418  1.00  0.00    -0.237 OA
ATOM     90  O   UNL A   1      45.268  23.697  39.777  1.00  0.00    -0.237 OA
ATOM     91  O   UNL A   1      45.288  23.075  37.386  1.00  0.00    -0.744 OA
ENDBRANCH  87  88
ENDBRANCH  66  80
BRANCH  67  92
ATOM     92  C   UNL A   1      43.850  38.007  35.329  1.00  0.00     0.058 A 
ATOM     93  C   UNL A   1      44.890  38.949  35.501  1.00  0.00     0.135 A 
ATOM     94  C   UNL A   1      43.218  37.978  34.079  1.00  0.00     0.135 A 
ATOM     95  F   UNL A   1      45.542  39.016  36.674  1.00  0.00    -0.206 F 
ATOM     96  C   UNL A   1      45.392  39.707  34.437  1.00  0.00     0.059 A 
ATOM     97  C   UNL A   1      43.717  38.708  32.996  1.00  0.00     0.059 A 
ATOM     98  F   UNL A   1      42.200  37.135  33.858  1.00  0.00    -0.206 F 
ATOM     99  C   UNL A   1      44.844  39.517  33.169  1.00  0.00     0.060 A 
BRANCH  99 100
ATOM    100  S   UNL A   1      45.773  40.035  31.693  1.00  0.00     0.124 S 
ATOM    101  O   UNL A   1      46.585  41.130  32.206  1.00  0.00    -0.237 OA
ATOM    102  O   UNL A   1      46.494  38.825  31.305  1.00  0.00    -0.237 OA
ATOM    103  O   UNL A   1      44.704  40.405  30.771  1.00  0.00    -0.744 OA
ENDBRANCH  99 100
ENDBRANCH  67  92
BRANCH  79 104
ATOM    104  C   UNL A   1      40.184  33.132  39.155  1.00  0.00     0.058 A 
ATOM    105  C   UNL A   1      39.938  32.920  40.526  1.00  0.00     0.135 A 
ATOM    106  C   UNL A   1      39.063  33.077  38.301  1.00  0.00     0.135 A 
ATOM    107  F   UNL A   1      40.914  33.000  41.442  1.00  0.00    -0.206 F 
ATOM    108  C   UNL A   1      38.670  32.633  41.009  1.00  0.00     0.059 A 
ATOM    109  C   UNL A   1      37.783  32.823  38.770  1.00  0.00     0.059 A 
ATOM    110  F   UNL A   1      39.167  33.285  36.980  1.00  0.00    -0.206 F 
ATOM    111  C   UNL A   1      37.602  32.576  40.123  1.00  0.00     0.060 A 
BRANCH 111 112
ATOM    112  S   UNL A   1      35.974  32.165  40.755  1.00  0.00     0.124 S 
ATOM    113  O   UNL A   1      35.500  33.477  41.186  1.00  0.00    -0.237 OA
ATOM    114  O   UNL A   1      35.309  31.607  39.582  1.00  0.00    -0.237 OA
ATOM    115  O   UNL A   1      36.256  31.212  41.823  1.00  0.00    -0.744 OA
ENDBRANCH 111 112
ENDBRANCH  79 104
ENDBRANCH  53  54
ENDBRANCH  46  48
ENDBRANCH  45  46
ENDBRANCH  44  45
ENDBRANCH  43  44
ENDBRANCH  42  43
ENDBRANCH  41  42
ENDBRANCH  40  41
ENDBRANCH  39  40
ENDBRANCH   1  39
TORSDOF 29
ENDMDL
MODEL 3
REMARK VINA RESULT:      -7.4      6.465     11.294
REMARK SMILES Cc1ccc(S(=O)(=O)N2CCCC2)cc1C(=O)N[C@H](CC1=c2ccccc2=NC1)C(=O)OCCOCCOCCOCCOC(=O)c1ccc(-c2c3nc(c(-c4c(F)cc(S(=O)(=O)[O-])cc4F)c4ccc([nH]4)c(-c4c(F)cc(S(=O)(=O)[O-])cc4F)c4nc(c(-c5c(F)cc(S(=O)(=O)[O-])cc5F)c5ccc2[nH]5)C=C4)C=C3)cc1
REMARK SMILES IDX 37 1 36 2 35 3 34 4 33 5 32 6 30 7 31 8 19 9 18 10 16 11
REMARK SMILES IDX 17 12 15 14 1 15 2 16 3 17 4 18 14 19 5 20 6 21 7 22 8 23
REMARK SMILES IDX 9 24 10 25 13 26 11 27 12 28 20 29 21 30 22 31 29 32 23 33
REMARK SMILES IDX 27 34 28 35 24 36 26 37 25 38 38 39 39 40 40 41 41 42 42 43
REMARK SMILES IDX 43 44 44 45 45 46 46 47 47 48 48 49 112 50 49 51 111 52
REMARK SMILES IDX 50 53 51 54 52 55 105 56 53 57 110 58 104 59 106 60 54 61
REMARK SMILES IDX 109 62 103 63 102 64 55 66 89 67 68 68 88 69 69 70 72 71
REMARK SMILES IDX 87 72 107 73 70 74 71 75 86 77 108 78 73 79 56 80 57 81
REMARK SMILES IDX 66 82 58 83 59 84 65 85 67 86 60 87 61 88 62 89 63 90 64 91
REMARK SMILES IDX 90 92 91 93 100 94 92 95 93 96 99 97 101 98 94 99 95 100
REMARK SMILES IDX 96 101 97 102 98 103 74 104 75 105 84 106 76 107 77 108
REMARK SMILES IDX 83 109 85 110 78 111 79 112 80 113 81 114 82 115
REMARK H PARENT 18 13 106 65 72 76
REMARK Flexibility Score: inf
ROOT
ATOM      1  C   UNL A   1      42.510  32.081  30.041  1.00  0.00     0.188 C 
ENDROOT
BRANCH   1   2
ATOM      2  C   UNL A   1      43.050  33.398  30.635  1.00  0.00     0.188 C 
BRANCH   2   3
ATOM      3  O   UNL A   1      42.203  34.455  30.995  1.00  0.00    -0.376 OA
BRANCH   3   4
ATOM      4  C   UNL A   1      41.870  34.540  32.336  1.00  0.00     0.202 C 
BRANCH   4   5
ATOM      5  C   UNL A   1      40.416  34.169  32.562  1.00  0.00     0.261 C 
BRANCH   5   6
ATOM      6  O   UNL A   1      39.818  33.917  33.901  1.00  0.00    -0.462 OA
BRANCH   6   7
ATOM      7  C   UNL A   1      38.539  33.909  34.342  1.00  0.00     0.329 C 
ATOM      8  O   UNL A   1      38.076  34.606  35.235  1.00  0.00    -0.250 OA
BRANCH   7   9
ATOM      9  C   UNL A   1      37.599  32.917  33.580  1.00  0.00     0.196 C 
BRANCH   9  10
ATOM     10  N   UNL A   1      36.147  32.926  33.897  1.00  0.00    -0.338 N 
ATOM     11  C   UNL A   1      34.913  33.233  33.404  1.00  0.00     0.252 C 
ATOM     12  O   UNL A   1      34.027  33.157  34.273  1.00  0.00    -0.269 OA
ATOM     13  H   UNL A   1      36.032  32.579  34.811  1.00  0.00     0.164 HD
BRANCH  11  14
ATOM     14  C   UNL A   1      34.453  33.663  32.035  1.00  0.00     0.044 A 
ATOM     15  C   UNL A   1      34.457  36.128  32.084  1.00  0.00     0.045 C 
ATOM     16  C   UNL A   1      33.866  34.857  31.592  1.00  0.00    -0.038 A 
ATOM     17  C   UNL A   1      33.393  35.035  30.273  1.00  0.00     0.005 A 
ATOM     18  C   UNL A   1      33.903  34.225  29.281  1.00  0.00     0.022 A 
ATOM     19  C   UNL A   1      34.905  32.830  30.999  1.00  0.00     0.035 A 
ATOM     20  C   UNL A   1      34.719  33.163  29.648  1.00  0.00     0.083 A 
BRANCH  20  21
ATOM     21  S   UNL A   1      35.709  32.434  28.366  1.00  0.00     0.243 S 
ATOM     22  O   UNL A   1      35.658  33.301  27.232  1.00  0.00    -0.207 OA
ATOM     23  O   UNL A   1      36.975  32.062  28.999  1.00  0.00    -0.207 OA
BRANCH  21  24
ATOM     24  N   UNL A   1      34.907  31.020  27.998  1.00  0.00    -0.198 NA
ATOM     25  C   UNL A   1      33.553  31.063  27.445  1.00  0.00     0.102 C 
ATOM     26  C   UNL A   1      35.636  29.870  27.442  1.00  0.00     0.102 C 
ATOM     27  C   UNL A   1      33.237  29.583  27.332  1.00  0.00     0.018 C 
ATOM     28  C   UNL A   1      34.544  29.015  26.791  1.00  0.00     0.018 C 
ENDBRANCH  21  24
ENDBRANCH  20  21
ENDBRANCH  11  14
ENDBRANCH   9  10
BRANCH   9  29
ATOM     29  C   UNL A   1      38.110  31.472  33.265  1.00  0.00     0.070 C 
BRANCH  29  30
ATOM     30  C   UNL A   1      39.037  30.736  34.197  1.00  0.00    -0.037 C 
ATOM     31  C   UNL A   1      40.167  30.069  33.965  1.00  0.00     0.001 A 
ATOM     32  C   UNL A   1      38.726  30.704  35.673  1.00  0.00     0.174 C 
ATOM     33  C   UNL A   1      40.920  29.693  32.812  1.00  0.00     0.010 A 
ATOM     34  C   UNL A   1      40.684  29.811  35.325  1.00  0.00     0.065 A 
ATOM     35  N   UNL A   1      39.922  30.119  36.331  1.00  0.00    -0.280 NA
ATOM     36  C   UNL A   1      42.160  29.200  32.977  1.00  0.00     0.001 A 
ATOM     37  C   UNL A   1      42.075  29.309  35.426  1.00  0.00     0.028 A 
ATOM     38  C   UNL A   1      42.754  29.057  34.295  1.00  0.00     0.002 A 
ENDBRANCH  29  30
ENDBRANCH   9  29
ENDBRANCH   7   9
ENDBRANCH   6   7
ENDBRANCH   5   6
ENDBRANCH   4   5
ENDBRANCH   3   4
ENDBRANCH   2   3
ENDBRANCH   1   2
BRANCH   1  39
ATOM     39  O   UNL A   1      41.187  31.575  30.094  1.00  0.00    -0.377 OA
BRANCH  39  40
ATOM     40  C   UNL A   1      40.620  30.574  29.258  1.00  0.00     0.188 C 
BRANCH  40  41
ATOM     41  C   UNL A   1      41.248  29.190  29.236  1.00  0.00     0.188 C 
BRANCH  41  42
ATOM     42  O   UNL A   1      40.628  28.380  28.257  1.00  0.00    -0.376 OA
BRANCH  42  43
ATOM     43  C   UNL A   1      39.435  27.730  28.670  1.00  0.00     0.202 C 
BRANCH  43  44
ATOM     44  C   UNL A   1      39.591  26.228  28.491  1.00  0.00     0.261 C 
BRANCH  44  45
ATOM     45  O   UNL A   1      40.840  26.001  27.806  1.00  0.00    -0.460 OA
BRANCH  45  46
ATOM     46  C   UNL A   1      41.387  24.761  27.963  1.00  0.00     0.338 C 
ATOM     47  O   UNL A   1      40.890  23.723  27.559  1.00  0.00    -0.246 OA
BRANCH  46  48
ATOM     48  C   UNL A   1      42.635  24.856  28.783  1.00  0.00     0.060 A 
ATOM     49  C   UNL A   1      43.277  23.703  29.269  1.00  0.00     0.016 A 
ATOM     50  C   UNL A   1      43.077  26.102  29.223  1.00  0.00     0.016 A 
ATOM     51  C   UNL A   1      44.327  23.798  30.215  1.00  0.00     0.010 A 
ATOM     52  C   UNL A   1      44.060  26.181  30.202  1.00  0.00     0.010 A 
ATOM     53  C   UNL A   1      44.711  25.046  30.717  1.00  0.00    -0.014 A 
BRANCH  53  54
ATOM     54  C   UNL A   1      45.634  25.287  31.849  1.00  0.00     0.031 A 
ATOM     55  C   UNL A   1      45.345  24.761  33.208  1.00  0.00     0.074 A 
ATOM     56  C   UNL A   1      46.900  25.764  31.719  1.00  0.00     0.049 A 
ATOM     57  N   UNL A   1      45.848  25.291  34.282  1.00  0.00    -0.248 NA
ATOM     58  C   UNL A   1      44.530  23.579  33.475  1.00  0.00     0.031 C 
ATOM     59  C   UNL A   1      48.025  25.421  32.594  1.00  0.00     0.029 A 
ATOM     60  N   UNL A   1      47.516  26.493  30.704  1.00  0.00    -0.354 N 
ATOM     61  C   UNL A   1      45.734  24.348  35.268  1.00  0.00     0.074 A 
ATOM     62  C   UNL A   1      44.798  23.364  34.765  1.00  0.00     0.031 C 
ATOM     63  C   UNL A   1      49.118  26.096  32.225  1.00  0.00     0.029 A 
ATOM     64  C   UNL A   1      48.762  26.958  31.116  1.00  0.00     0.049 A 
ATOM     65  H   UNL A   1      47.122  26.657  29.816  1.00  0.00     0.167 HD
ATOM     66  C   UNL A   1      46.592  24.297  36.326  1.00  0.00     0.037 A 
ATOM     67  C   UNL A   1      49.394  28.110  30.783  1.00  0.00     0.037 A 
ATOM     68  C   UNL A   1      47.811  25.100  36.123  1.00  0.00     0.049 A 
ATOM     69  C   UNL A   1      49.720  28.756  32.082  1.00  0.00     0.074 A 
ATOM     70  C   UNL A   1      49.135  24.734  35.919  1.00  0.00     0.029 A 
ATOM     71  N   UNL A   1      47.764  26.469  35.827  1.00  0.00    -0.354 N 
ATOM     72  N   UNL A   1      48.914  28.602  33.100  1.00  0.00    -0.248 NA
ATOM     73  C   UNL A   1      50.993  29.381  32.426  1.00  0.00     0.031 C 
ATOM     74  C   UNL A   1      49.892  25.888  35.599  1.00  0.00     0.029 A 
ATOM     75  C   UNL A   1      49.033  26.972  35.565  1.00  0.00     0.049 A 
ATOM     76  H   UNL A   1      46.938  27.006  35.807  1.00  0.00     0.167 HD
ATOM     77  C   UNL A   1      49.605  28.907  34.225  1.00  0.00     0.074 A 
ATOM     78  C   UNL A   1      50.879  29.451  33.765  1.00  0.00     0.031 C 
ATOM     79  C   UNL A   1      49.306  28.396  35.446  1.00  0.00     0.037 A 
BRANCH  66  80
ATOM     80  C   UNL A   1      46.409  23.220  37.381  1.00  0.00     0.058 A 
ATOM     81  C   UNL A   1      45.770  23.437  38.615  1.00  0.00     0.135 A 
ATOM     82  C   UNL A   1      46.863  21.893  37.178  1.00  0.00     0.135 A 
ATOM     83  F   UNL A   1      45.193  24.605  38.916  1.00  0.00    -0.206 F 
ATOM     84  C   UNL A   1      45.685  22.456  39.606  1.00  0.00     0.059 A 
ATOM     85  C   UNL A   1      46.844  20.913  38.174  1.00  0.00     0.059 A 
ATOM     86  F   UNL A   1      47.347  21.504  35.987  1.00  0.00    -0.206 F 
ATOM     87  C   UNL A   1      46.243  21.204  39.388  1.00  0.00     0.060 A 
BRANCH  87  88
ATOM     88  S   UNL A   1      46.147  19.961  40.689  1.00  0.00     0.124 S 
ATOM     89  O   UNL A   1      45.695  18.779  39.961  1.00  0.00    -0.237 OA
ATOM     90  O   UNL A   1      47.524  19.927  41.168  1.00  0.00    -0.237 OA
ATOM     91  O   UNL A   1      45.169  20.521  41.619  1.00  0.00    -0.744 OA
ENDBRANCH  87  88
ENDBRANCH  66  80
BRANCH  67  92
ATOM     92  C   UNL A   1      49.180  28.704  29.445  1.00  0.00     0.058 A 
ATOM     93  C   UNL A   1      49.606  27.954  28.325  1.00  0.00     0.135 A 
ATOM     94  C   UNL A   1      48.208  29.687  29.219  1.00  0.00     0.135 A 
ATOM     95  F   UNL A   1      50.528  26.989  28.481  1.00  0.00    -0.206 F 
ATOM     96  C   UNL A   1      48.980  28.056  27.078  1.00  0.00     0.059 A 
ATOM     97  C   UNL A   1      47.552  29.792  27.989  1.00  0.00     0.059 A 
ATOM     98  F   UNL A   1      47.784  30.460  30.229  1.00  0.00    -0.206 F 
ATOM     99  C   UNL A   1      47.899  28.926  26.946  1.00  0.00     0.060 A 
BRANCH  99 100
ATOM    100  S   UNL A   1      46.729  28.717  25.569  1.00  0.00     0.124 S 
ATOM    101  O   UNL A   1      45.702  27.870  26.161  1.00  0.00    -0.237 OA
ATOM    102  O   UNL A   1      46.330  30.087  25.252  1.00  0.00    -0.237 OA
ATOM    103  O   UNL A   1      47.565  28.096  24.547  1.00  0.00    -0.744 OA
ENDBRANCH  99 100
ENDBRANCH  67  92
BRANCH  79 104
ATOM    104  C   UNL A   1      49.231  29.321  36.618  1.00  0.00     0.058 A 
ATOM    105  C   UNL A   1      50.340  29.599  37.441  1.00  0.00     0.135 A 
ATOM    106  C   UNL A   1      48.068  30.083  36.855  1.00  0.00     0.135 A 
ATOM    107  F   UNL A   1      51.518  28.978  37.277  1.00  0.00    -0.206 F 
ATOM    108  C   UNL A   1      50.285  30.542  38.456  1.00  0.00     0.059 A 
ATOM    109  C   UNL A   1      48.004  31.053  37.844  1.00  0.00     0.059 A 
ATOM    110  F   UNL A   1      46.956  29.926  36.123  1.00  0.00    -0.206 F 
ATOM    111  C   UNL A   1      49.110  31.256  38.657  1.00  0.00     0.060 A 
BRANCH 111 112
ATOM    112  S   UNL A   1      49.038  32.446  39.997  1.00  0.00     0.124 S 
ATOM    113  O   UNL A   1      47.602  32.497  40.253  1.00  0.00    -0.237 OA
ATOM    114  O   UNL A   1      49.843  31.806  41.033  1.00  0.00    -0.237 OA
ATOM    115  O   UNL A   1      49.620  33.650  39.413  1.00  0.00    -0.744 OA
ENDBRANCH 111 112
ENDBRANCH  79 104
ENDBRANCH  53  54
ENDBRANCH  46  48
ENDBRANCH  45  46
ENDBRANCH  44  45
ENDBRANCH  43  44
ENDBRANCH  42  43
ENDBRANCH  41  42
ENDBRANCH  40  41
ENDBRANCH  39  40
ENDBRANCH   1  39
TORSDOF 29
ENDMDL
