MODEL 1
REMARK VINA RESULT:     -10.3      0.000      0.000
REMARK SMILES O=C(OCCOCCOCCOCCOC(=O)c1c(F)cccc1NS(=O)(=O)C(F)(F)F)c1ccc(-c2c3nc(c(-c4c(F)cc(S(=O)(=O)[O-])cc4F)c4ccc([nH]4)c(-c4c(F)cc(S(=O)(=O)[O-])cc4F)c4nc(c(-c5c(F)cc(S(=O)(=O)[O-])cc5F)c5ccc2[nH]5)C=C4)C=C3)cc1
REMARK SMILES IDX 9 1 8 2 7 3 6 4 5 5 4 6 3 7 2 8 1 9 33 10 34 11 98 12 35 13
REMARK SMILES IDX 97 14 36 15 37 16 38 17 91 18 39 19 96 20 90 21 92 22 40 23
REMARK SMILES IDX 95 24 89 25 88 26 41 28 75 29 54 30 74 31 55 32 58 33 73 34
REMARK SMILES IDX 93 35 56 36 57 37 72 39 94 40 59 41 42 42 43 43 52 44 44 45
REMARK SMILES IDX 45 46 51 47 53 48 46 49 47 50 48 51 49 52 50 53 76 54 77 55
REMARK SMILES IDX 86 56 78 57 79 58 85 59 87 60 80 61 81 62 82 63 83 64 84 65
REMARK SMILES IDX 60 66 61 67 70 68 62 69 63 70 69 71 71 72 64 73 65 74 66 75
REMARK SMILES IDX 67 76 68 77 10 78 11 79 12 80 13 81 14 82 15 83 16 84 17 85
REMARK SMILES IDX 18 86 19 87 24 88 20 89 21 90 23 91 22 92 25 93 26 95 27 96
REMARK SMILES IDX 28 97 29 98 30 99 31 100 32 101
REMARK H PARENT 92 27 58 38 25 94
REMARK Flexibility Score: inf
ROOT
ATOM      1  O   UNL A   1      43.617  18.814  24.705  1.00  0.00    -0.377 OA
ENDROOT
BRANCH   1   2
ATOM      2  C   UNL A   1      44.690  19.738  24.554  1.00  0.00     0.188 C 
BRANCH   2   3
ATOM      3  C   UNL A   1      44.467  21.131  25.145  1.00  0.00     0.188 C 
BRANCH   3   4
ATOM      4  O   UNL A   1      44.343  22.104  24.108  1.00  0.00    -0.376 OA
BRANCH   4   5
ATOM      5  C   UNL A   1      44.050  23.440  24.525  1.00  0.00     0.202 C 
BRANCH   5   6
ATOM      6  C   UNL A   1      43.358  23.538  25.884  1.00  0.00     0.261 C 
BRANCH   6   7
ATOM      7  O   UNL A   1      43.344  24.877  26.395  1.00  0.00    -0.460 OA
BRANCH   7   8
ATOM      8  C   UNL A   1      42.369  25.808  26.238  1.00  0.00     0.338 C 
ATOM      9  O   UNL A   1      41.781  25.850  25.157  1.00  0.00    -0.246 OA
BRANCH   8  10
ATOM     10  C   UNL A   1      41.949  26.782  27.297  1.00  0.00     0.060 A 
ATOM     11  C   UNL A   1      42.307  28.130  27.355  1.00  0.00     0.016 A 
ATOM     12  C   UNL A   1      41.082  26.297  28.291  1.00  0.00     0.016 A 
ATOM     13  C   UNL A   1      41.902  28.953  28.385  1.00  0.00     0.010 A 
ATOM     14  C   UNL A   1      40.651  27.122  29.335  1.00  0.00     0.010 A 
ATOM     15  C   UNL A   1      41.103  28.444  29.398  1.00  0.00    -0.014 A 
BRANCH  15  16
ATOM     16  C   UNL A   1      40.996  29.261  30.613  1.00  0.00     0.031 A 
ATOM     17  C   UNL A   1      39.867  30.245  30.670  1.00  0.00     0.074 A 
ATOM     18  C   UNL A   1      41.737  28.953  31.691  1.00  0.00     0.049 A 
ATOM     19  N   UNL A   1      39.559  31.102  31.600  1.00  0.00    -0.248 NA
ATOM     20  C   UNL A   1      38.938  30.246  29.521  1.00  0.00     0.031 C 
ATOM     21  C   UNL A   1      42.710  27.857  31.758  1.00  0.00     0.029 A 
ATOM     22  N   UNL A   1      41.750  29.489  32.948  1.00  0.00    -0.354 N 
ATOM     23  C   UNL A   1      38.428  31.763  31.137  1.00  0.00     0.074 A 
ATOM     24  C   UNL A   1      38.105  31.222  29.840  1.00  0.00     0.031 C 
ATOM     25  C   UNL A   1      43.204  27.787  33.004  1.00  0.00     0.029 A 
ATOM     26  C   UNL A   1      42.646  28.878  33.793  1.00  0.00     0.049 A 
ATOM     27  H   UNL A   1      41.175  30.239  33.222  1.00  0.00     0.167 HD
ATOM     28  C   UNL A   1      37.730  32.740  31.755  1.00  0.00     0.037 A 
ATOM     29  C   UNL A   1      42.993  29.204  35.052  1.00  0.00     0.037 A 
ATOM     30  C   UNL A   1      38.096  33.238  33.052  1.00  0.00     0.049 A 
ATOM     31  C   UNL A   1      42.304  30.392  35.668  1.00  0.00     0.074 A 
ATOM     32  C   UNL A   1      37.564  34.298  33.757  1.00  0.00     0.029 A 
ATOM     33  N   UNL A   1      39.101  32.688  33.841  1.00  0.00    -0.354 N 
ATOM     34  N   UNL A   1      41.328  31.120  35.173  1.00  0.00    -0.248 NA
ATOM     35  C   UNL A   1      42.769  30.822  36.988  1.00  0.00     0.031 C 
ATOM     36  C   UNL A   1      38.280  34.416  34.954  1.00  0.00     0.029 A 
ATOM     37  C   UNL A   1      39.218  33.393  35.022  1.00  0.00     0.049 A 
ATOM     38  H   UNL A   1      39.649  31.909  33.594  1.00  0.00     0.167 HD
ATOM     39  C   UNL A   1      41.051  32.090  36.127  1.00  0.00     0.074 A 
ATOM     40  C   UNL A   1      41.957  31.842  37.235  1.00  0.00     0.031 C 
ATOM     41  C   UNL A   1      40.140  33.096  36.095  1.00  0.00     0.037 A 
BRANCH  28  42
ATOM     42  C   UNL A   1      36.590  33.358  30.996  1.00  0.00     0.058 A 
ATOM     43  C   UNL A   1      35.278  33.243  31.481  1.00  0.00     0.135 A 
ATOM     44  C   UNL A   1      36.789  34.113  29.827  1.00  0.00     0.135 A 
ATOM     45  F   UNL A   1      35.031  32.557  32.608  1.00  0.00    -0.206 F 
ATOM     46  C   UNL A   1      34.205  33.851  30.837  1.00  0.00     0.059 A 
ATOM     47  C   UNL A   1      35.733  34.752  29.180  1.00  0.00     0.059 A 
ATOM     48  F   UNL A   1      38.029  34.296  29.344  1.00  0.00    -0.206 F 
ATOM     49  C   UNL A   1      34.443  34.608  29.690  1.00  0.00     0.060 A 
BRANCH  49  50
ATOM     50  S   UNL A   1      33.047  35.449  28.910  1.00  0.00     0.124 S 
ATOM     51  O   UNL A   1      32.538  34.417  28.014  1.00  0.00    -0.237 OA
ATOM     52  O   UNL A   1      32.202  35.770  30.057  1.00  0.00    -0.237 OA
ATOM     53  O   UNL A   1      33.666  36.600  28.259  1.00  0.00    -0.744 OA
ENDBRANCH  49  50
ENDBRANCH  28  42
BRANCH  29  54
ATOM     54  C   UNL A   1      44.054  28.434  35.757  1.00  0.00     0.058 A 
ATOM     55  C   UNL A   1      43.740  27.288  36.509  1.00  0.00     0.135 A 
ATOM     56  C   UNL A   1      45.392  28.853  35.749  1.00  0.00     0.135 A 
ATOM     57  F   UNL A   1      42.476  26.839  36.556  1.00  0.00    -0.206 F 
ATOM     58  C   UNL A   1      44.701  26.612  37.255  1.00  0.00     0.059 A 
ATOM     59  C   UNL A   1      46.379  28.176  36.465  1.00  0.00     0.059 A 
ATOM     60  F   UNL A   1      45.752  29.932  35.036  1.00  0.00    -0.206 F 
ATOM     61  C   UNL A   1      46.018  27.068  37.232  1.00  0.00     0.060 A 
BRANCH  61  62
ATOM     62  S   UNL A   1      47.242  26.186  38.225  1.00  0.00     0.124 S 
ATOM     63  O   UNL A   1      46.825  26.531  39.580  1.00  0.00    -0.237 OA
ATOM     64  O   UNL A   1      47.019  24.801  37.826  1.00  0.00    -0.237 OA
ATOM     65  O   UNL A   1      48.510  26.766  37.794  1.00  0.00    -0.744 OA
ENDBRANCH  61  62
ENDBRANCH  29  54
BRANCH  41  66
ATOM     66  C   UNL A   1      40.063  33.982  37.301  1.00  0.00     0.058 A 
ATOM     67  C   UNL A   1      39.123  33.717  38.308  1.00  0.00     0.135 A 
ATOM     68  C   UNL A   1      40.846  35.140  37.410  1.00  0.00     0.135 A 
ATOM     69  F   UNL A   1      38.346  32.625  38.240  1.00  0.00    -0.206 F 
ATOM     70  C   UNL A   1      38.942  34.587  39.374  1.00  0.00     0.059 A 
ATOM     71  C   UNL A   1      40.704  36.010  38.485  1.00  0.00     0.059 A 
ATOM     72  F   UNL A   1      41.765  35.427  36.474  1.00  0.00    -0.206 F 
ATOM     73  C   UNL A   1      39.735  35.734  39.450  1.00  0.00     0.060 A 
BRANCH  73  74
ATOM     74  S   UNL A   1      39.487  36.851  40.844  1.00  0.00     0.124 S 
ATOM     75  O   UNL A   1      40.836  36.948  41.391  1.00  0.00    -0.237 OA
ATOM     76  O   UNL A   1      38.979  38.052  40.187  1.00  0.00    -0.237 OA
ATOM     77  O   UNL A   1      38.520  36.144  41.676  1.00  0.00    -0.744 OA
ENDBRANCH  73  74
ENDBRANCH  41  66
ENDBRANCH  15  16
ENDBRANCH   8  10
ENDBRANCH   7   8
ENDBRANCH   6   7
ENDBRANCH   5   6
ENDBRANCH   4   5
ENDBRANCH   3   4
ENDBRANCH   2   3
ENDBRANCH   1   2
BRANCH   1  78
ATOM     78  C   UNL A   1      42.884  18.911  25.916  1.00  0.00     0.188 C 
BRANCH  78  79
ATOM     79  C   UNL A   1      41.426  19.421  25.884  1.00  0.00     0.188 C 
BRANCH  79  80
ATOM     80  O   UNL A   1      41.100  20.563  26.636  1.00  0.00    -0.376 OA
BRANCH  80  81
ATOM     81  C   UNL A   1      40.282  21.587  26.105  1.00  0.00     0.202 C 
BRANCH  81  82
ATOM     82  C   UNL A   1      38.740  21.596  26.093  1.00  0.00     0.261 C 
BRANCH  82  83
ATOM     83  O   UNL A   1      38.053  21.503  24.842  1.00  0.00    -0.460 OA
BRANCH  83  84
ATOM     84  C   UNL A   1      37.022  20.631  24.712  1.00  0.00     0.343 C 
ATOM     85  O   UNL A   1      37.038  19.422  24.864  1.00  0.00    -0.246 OA
BRANCH  84  86
ATOM     86  C   UNL A   1      35.787  21.422  24.541  1.00  0.00     0.119 A 
ATOM     87  C   UNL A   1      35.927  22.686  23.955  1.00  0.00     0.139 A 
ATOM     88  C   UNL A   1      34.529  21.008  25.039  1.00  0.00     0.066 A 
ATOM     89  F   UNL A   1      37.105  23.085  23.453  1.00  0.00    -0.206 F 
ATOM     90  C   UNL A   1      34.854  23.562  23.869  1.00  0.00     0.040 A 
ATOM     91  C   UNL A   1      33.457  21.905  24.925  1.00  0.00     0.028 A 
ATOM     92  C   UNL A   1      33.618  23.174  24.363  1.00  0.00     0.005 A 
BRANCH  88  93
ATOM     93  N   UNL A   1      34.279  19.677  25.538  1.00  0.00    -0.275 N 
ATOM     94  H   UNL A   1      34.707  19.401  26.380  1.00  0.00     0.180 HD
BRANCH  93  95
ATOM     95  S   UNL A   1      33.276  18.565  24.726  1.00  0.00     0.333 S 
ATOM     96  O   UNL A   1      32.075  18.522  25.542  1.00  0.00    -0.197 OA
ATOM     97  O   UNL A   1      33.174  19.011  23.348  1.00  0.00    -0.197 OA
BRANCH  95  98
ATOM     98  C   UNL A   1      34.112  16.889  24.787  1.00  0.00     0.516 C 
ATOM     99  F   UNL A   1      33.748  16.111  23.722  1.00  0.00    -0.155 F 
ATOM    100  F   UNL A   1      35.472  16.980  24.746  1.00  0.00    -0.155 F 
ATOM    101  F   UNL A   1      33.792  16.175  25.902  1.00  0.00    -0.155 F 
ENDBRANCH  95  98
ENDBRANCH  93  95
ENDBRANCH  88  93
ENDBRANCH  84  86
ENDBRANCH  83  84
ENDBRANCH  82  83
ENDBRANCH  81  82
ENDBRANCH  80  81
ENDBRANCH  79  80
ENDBRANCH  78  79
ENDBRANCH   1  78
TORSDOF 26
ENDMDL
MODEL 2
REMARK VINA RESULT:      -9.9      6.653      9.940
REMARK SMILES O=C(OCCOCCOCCOCCOC(=O)c1c(F)cccc1NS(=O)(=O)C(F)(F)F)c1ccc(-c2c3nc(c(-c4c(F)cc(S(=O)(=O)[O-])cc4F)c4ccc([nH]4)c(-c4c(F)cc(S(=O)(=O)[O-])cc4F)c4nc(c(-c5c(F)cc(S(=O)(=O)[O-])cc5F)c5ccc2[nH]5)C=C4)C=C3)cc1
REMARK SMILES IDX 9 1 8 2 7 3 6 4 5 5 4 6 3 7 2 8 1 9 33 10 34 11 98 12 35 13
REMARK SMILES IDX 97 14 36 15 37 16 38 17 91 18 39 19 96 20 90 21 92 22 40 23
REMARK SMILES IDX 95 24 89 25 88 26 41 28 75 29 54 30 74 31 55 32 58 33 73 34
REMARK SMILES IDX 93 35 56 36 57 37 72 39 94 40 59 41 42 42 43 43 52 44 44 45
REMARK SMILES IDX 45 46 51 47 53 48 46 49 47 50 48 51 49 52 50 53 76 54 77 55
REMARK SMILES IDX 86 56 78 57 79 58 85 59 87 60 80 61 81 62 82 63 83 64 84 65
REMARK SMILES IDX 60 66 61 67 70 68 62 69 63 70 69 71 71 72 64 73 65 74 66 75
REMARK SMILES IDX 67 76 68 77 10 78 11 79 12 80 13 81 14 82 15 83 16 84 17 85
REMARK SMILES IDX 18 86 19 87 24 88 20 89 21 90 23 91 22 92 25 93 26 95 27 96
REMARK SMILES IDX 28 97 29 98 30 99 31 100 32 101
REMARK H PARENT 92 27 58 38 25 94
REMARK Flexibility Score: inf
ROOT
ATOM      1  O   UNL A   1      34.039  21.316  25.103  1.00  0.00    -0.377 OA
ENDROOT
BRANCH   1   2
ATOM      2  C   UNL A   1      35.104  22.030  25.723  1.00  0.00     0.188 C 
BRANCH   2   3
ATOM      3  C   UNL A   1      36.518  21.609  25.322  1.00  0.00     0.188 C 
BRANCH   3   4
ATOM      4  O   UNL A   1      36.588  20.197  25.128  1.00  0.00    -0.376 OA
BRANCH   4   5
ATOM      5  C   UNL A   1      37.825  19.687  24.625  1.00  0.00     0.202 C 
BRANCH   5   6
ATOM      6  C   UNL A   1      38.835  19.305  25.707  1.00  0.00     0.261 C 
BRANCH   6   7
ATOM      7  O   UNL A   1      39.936  20.219  25.774  1.00  0.00    -0.460 OA
BRANCH   7   8
ATOM      8  C   UNL A   1      40.778  20.419  26.821  1.00  0.00     0.338 C 
ATOM      9  O   UNL A   1      40.785  19.581  27.723  1.00  0.00    -0.246 OA
BRANCH   8  10
ATOM     10  C   UNL A   1      41.710  21.586  26.947  1.00  0.00     0.060 A 
ATOM     11  C   UNL A   1      42.349  21.997  28.117  1.00  0.00     0.016 A 
ATOM     12  C   UNL A   1      41.994  22.296  25.768  1.00  0.00     0.016 A 
ATOM     13  C   UNL A   1      43.171  23.105  28.155  1.00  0.00     0.010 A 
ATOM     14  C   UNL A   1      42.835  23.413  25.786  1.00  0.00     0.010 A 
ATOM     15  C   UNL A   1      43.388  23.838  26.998  1.00  0.00    -0.014 A 
BRANCH  15  16
ATOM     16  C   UNL A   1      43.978  25.171  27.175  1.00  0.00     0.031 A 
ATOM     17  C   UNL A   1      43.105  26.222  27.790  1.00  0.00     0.074 A 
ATOM     18  C   UNL A   1      45.301  25.342  27.007  1.00  0.00     0.049 A 
ATOM     19  N   UNL A   1      43.359  27.475  28.030  1.00  0.00    -0.248 NA
ATOM     20  C   UNL A   1      41.758  25.790  28.214  1.00  0.00     0.031 C 
ATOM     21  C   UNL A   1      46.241  24.289  26.610  1.00  0.00     0.029 A 
ATOM     22  N   UNL A   1      46.091  26.439  27.201  1.00  0.00    -0.354 N 
ATOM     23  C   UNL A   1      42.201  27.988  28.601  1.00  0.00     0.074 A 
ATOM     24  C   UNL A   1      41.235  26.919  28.663  1.00  0.00     0.031 C 
ATOM     25  C   UNL A   1      47.487  24.789  26.619  1.00  0.00     0.029 A 
ATOM     26  C   UNL A   1      47.420  26.209  26.940  1.00  0.00     0.049 A 
ATOM     27  H   UNL A   1      45.742  27.310  27.500  1.00  0.00     0.167 HD
ATOM     28  C   UNL A   1      41.978  29.248  29.031  1.00  0.00     0.037 A 
ATOM     29  C   UNL A   1      48.452  27.074  26.928  1.00  0.00     0.037 A 
ATOM     30  C   UNL A   1      42.981  30.273  28.949  1.00  0.00     0.049 A 
ATOM     31  C   UNL A   1      48.149  28.508  27.268  1.00  0.00     0.074 A 
ATOM     32  C   UNL A   1      42.873  31.619  29.232  1.00  0.00     0.029 A 
ATOM     33  N   UNL A   1      44.295  30.045  28.551  1.00  0.00    -0.354 N 
ATOM     34  N   UNL A   1      47.012  29.032  27.669  1.00  0.00    -0.248 NA
ATOM     35  C   UNL A   1      49.245  29.471  27.134  1.00  0.00     0.031 C 
ATOM     36  C   UNL A   1      44.111  32.212  28.962  1.00  0.00     0.029 A 
ATOM     37  C   UNL A   1      45.008  31.227  28.567  1.00  0.00     0.049 A 
ATOM     38  H   UNL A   1      44.663  29.168  28.297  1.00  0.00     0.167 HD
ATOM     39  C   UNL A   1      47.256  30.388  27.848  1.00  0.00     0.074 A 
ATOM     40  C   UNL A   1      48.657  30.595  27.524  1.00  0.00     0.031 C 
ATOM     41  C   UNL A   1      46.407  31.373  28.237  1.00  0.00     0.037 A 
BRANCH  28  42
ATOM     42  C   UNL A   1      40.597  29.572  29.529  1.00  0.00     0.058 A 
ATOM     43  C   UNL A   1      40.371  29.759  30.901  1.00  0.00     0.135 A 
ATOM     44  C   UNL A   1      39.511  29.759  28.657  1.00  0.00     0.135 A 
ATOM     45  F   UNL A   1      41.377  29.620  31.778  1.00  0.00    -0.206 F 
ATOM     46  C   UNL A   1      39.119  30.117  31.393  1.00  0.00     0.059 A 
ATOM     47  C   UNL A   1      38.255  30.142  29.125  1.00  0.00     0.059 A 
ATOM     48  F   UNL A   1      39.681  29.639  27.331  1.00  0.00    -0.206 F 
ATOM     49  C   UNL A   1      38.069  30.312  30.497  1.00  0.00     0.060 A 
BRANCH  49  50
ATOM     50  S   UNL A   1      36.471  30.847  31.148  1.00  0.00     0.124 S 
ATOM     51  O   UNL A   1      36.678  30.726  32.587  1.00  0.00    -0.237 OA
ATOM     52  O   UNL A   1      36.370  32.209  30.632  1.00  0.00    -0.237 OA
ATOM     53  O   UNL A   1      35.530  29.895  30.565  1.00  0.00    -0.744 OA
ENDBRANCH  49  50
ENDBRANCH  28  42
BRANCH  29  54
ATOM     54  C   UNL A   1      49.812  26.609  26.539  1.00  0.00     0.058 A 
ATOM     55  C   UNL A   1      50.225  26.620  25.196  1.00  0.00     0.135 A 
ATOM     56  C   UNL A   1      50.707  26.091  27.485  1.00  0.00     0.135 A 
ATOM     57  F   UNL A   1      49.412  27.103  24.243  1.00  0.00    -0.206 F 
ATOM     58  C   UNL A   1      51.454  26.100  24.800  1.00  0.00     0.059 A 
ATOM     59  C   UNL A   1      51.956  25.589  27.118  1.00  0.00     0.059 A 
ATOM     60  F   UNL A   1      50.371  26.069  28.784  1.00  0.00    -0.206 F 
ATOM     61  C   UNL A   1      52.311  25.580  25.769  1.00  0.00     0.060 A 
BRANCH  61  62
ATOM     62  S   UNL A   1      53.890  24.890  25.228  1.00  0.00     0.124 S 
ATOM     63  O   UNL A   1      54.742  25.164  26.382  1.00  0.00    -0.237 OA
ATOM     64  O   UNL A   1      53.552  23.488  25.008  1.00  0.00    -0.237 OA
ATOM     65  O   UNL A   1      54.201  25.656  24.025  1.00  0.00    -0.744 OA
ENDBRANCH  61  62
ENDBRANCH  29  54
BRANCH  41  66
ATOM     66  C   UNL A   1      46.979  32.753  28.358  1.00  0.00     0.058 A 
ATOM     67  C   UNL A   1      46.962  33.620  27.255  1.00  0.00     0.135 A 
ATOM     68  C   UNL A   1      47.627  33.177  29.527  1.00  0.00     0.135 A 
ATOM     69  F   UNL A   1      46.361  33.252  26.112  1.00  0.00    -0.206 F 
ATOM     70  C   UNL A   1      47.593  34.854  27.298  1.00  0.00     0.059 A 
ATOM     71  C   UNL A   1      48.238  34.422  29.603  1.00  0.00     0.059 A 
ATOM     72  F   UNL A   1      47.658  32.383  30.609  1.00  0.00    -0.206 F 
ATOM     73  C   UNL A   1      48.233  35.244  28.476  1.00  0.00     0.060 A 
BRANCH  73  74
ATOM     74  S   UNL A   1      49.045  36.854  28.513  1.00  0.00     0.124 S 
ATOM     75  O   UNL A   1      48.490  37.439  29.729  1.00  0.00    -0.237 OA
ATOM     76  O   UNL A   1      50.456  36.484  28.572  1.00  0.00    -0.237 OA
ATOM     77  O   UNL A   1      48.619  37.476  27.264  1.00  0.00    -0.744 OA
ENDBRANCH  73  74
ENDBRANCH  41  66
ENDBRANCH  15  16
ENDBRANCH   8  10
ENDBRANCH   7   8
ENDBRANCH   6   7
ENDBRANCH   5   6
ENDBRANCH   4   5
ENDBRANCH   3   4
ENDBRANCH   2   3
ENDBRANCH   1   2
BRANCH   1  78
ATOM     78  C   UNL A   1      32.729  21.702  25.490  1.00  0.00     0.188 C 
BRANCH  78  79
ATOM     79  C   UNL A   1      32.284  23.171  25.305  1.00  0.00     0.188 C 
BRANCH  79  80
ATOM     80  O   UNL A   1      31.094  23.425  24.601  1.00  0.00    -0.376 OA
BRANCH  80  81
ATOM     81  C   UNL A   1      31.110  23.812  23.242  1.00  0.00     0.202 C 
BRANCH  81  82
ATOM     82  C   UNL A   1      31.682  25.131  22.685  1.00  0.00     0.261 C 
BRANCH  82  83
ATOM     83  O   UNL A   1      31.696  26.292  23.520  1.00  0.00    -0.460 OA
BRANCH  83  84
ATOM     84  C   UNL A   1      32.794  27.091  23.532  1.00  0.00     0.343 C 
ATOM     85  O   UNL A   1      33.641  27.213  22.665  1.00  0.00    -0.246 OA
BRANCH  84  86
ATOM     86  C   UNL A   1      32.697  27.965  24.718  1.00  0.00     0.119 A 
ATOM     87  C   UNL A   1      33.355  27.530  25.874  1.00  0.00     0.139 A 
ATOM     88  C   UNL A   1      31.892  29.128  24.757  1.00  0.00     0.066 A 
ATOM     89  F   UNL A   1      34.145  26.446  25.850  1.00  0.00    -0.206 F 
ATOM     90  C   UNL A   1      33.219  28.208  27.078  1.00  0.00     0.040 A 
ATOM     91  C   UNL A   1      31.784  29.803  25.980  1.00  0.00     0.028 A 
ATOM     92  C   UNL A   1      32.424  29.343  27.133  1.00  0.00     0.005 A 
BRANCH  88  93
ATOM     93  N   UNL A   1      31.288  29.706  23.581  1.00  0.00    -0.275 N 
ATOM     94  H   UNL A   1      31.799  30.370  23.065  1.00  0.00     0.180 HD
BRANCH  93  95
ATOM     95  S   UNL A   1      29.723  29.287  23.051  1.00  0.00     0.333 S 
ATOM     96  O   UNL A   1      29.884  29.083  21.623  1.00  0.00    -0.197 OA
ATOM     97  O   UNL A   1      29.279  28.177  23.875  1.00  0.00    -0.197 OA
BRANCH  95  98
ATOM     98  C   UNL A   1      28.608  30.768  23.332  1.00  0.00     0.516 C 
ATOM     99  F   UNL A   1      28.415  31.472  22.175  1.00  0.00    -0.155 F 
ATOM    100  F   UNL A   1      27.368  30.413  23.774  1.00  0.00    -0.155 F 
ATOM    101  F   UNL A   1      29.117  31.653  24.232  1.00  0.00    -0.155 F 
ENDBRANCH  95  98
ENDBRANCH  93  95
ENDBRANCH  88  93
ENDBRANCH  84  86
ENDBRANCH  83  84
ENDBRANCH  82  83
ENDBRANCH  81  82
ENDBRANCH  80  81
ENDBRANCH  79  80
ENDBRANCH  78  79
ENDBRANCH   1  78
TORSDOF 26
ENDMDL
MODEL 3
REMARK VINA RESULT:      -9.8      2.282      3.305
REMARK SMILES O=C(OCCOCCOCCOCCOC(=O)c1c(F)cccc1NS(=O)(=O)C(F)(F)F)c1ccc(-c2c3nc(c(-c4c(F)cc(S(=O)(=O)[O-])cc4F)c4ccc([nH]4)c(-c4c(F)cc(S(=O)(=O)[O-])cc4F)c4nc(c(-c5c(F)cc(S(=O)(=O)[O-])cc5F)c5ccc2[nH]5)C=C4)C=C3)cc1
REMARK SMILES IDX 9 1 8 2 7 3 6 4 5 5 4 6 3 7 2 8 1 9 33 10 34 11 98 12 35 13
REMARK SMILES IDX 97 14 36 15 37 16 38 17 91 18 39 19 96 20 90 21 92 22 40 23
REMARK SMILES IDX 95 24 89 25 88 26 41 28 75 29 54 30 74 31 55 32 58 33 73 34
REMARK SMILES IDX 93 35 56 36 57 37 72 39 94 40 59 41 42 42 43 43 52 44 44 45
REMARK SMILES IDX 45 46 51 47 53 48 46 49 47 50 48 51 49 52 50 53 76 54 77 55
REMARK SMILES IDX 86 56 78 57 79 58 85 59 87 60 80 61 81 62 82 63 83 64 84 65
REMARK SMILES IDX 60 66 61 67 70 68 62 69 63 70 69 71 71 72 64 73 65 74 66 75
REMARK SMILES IDX 67 76 68 77 10 78 11 79 12 80 13 81 14 82 15 83 16 84 17 85
REMARK SMILES IDX 18 86 19 87 24 88 20 89 21 90 23 91 22 92 25 93 26 95 27 96
REMARK SMILES IDX 28 97 29 98 30 99 31 100 32 101
REMARK H PARENT 92 27 58 38 25 94
REMARK Flexibility Score: inf
ROOT
ATOM      1  O   UNL A   1      41.992  22.071  25.634  1.00  0.00    -0.377 OA
ENDROOT
BRANCH   1   2
ATOM      2  C   UNL A   1      43.285  21.473  25.645  1.00  0.00     0.188 C 
BRANCH   2   3
ATOM      3  C   UNL A   1      44.444  22.386  26.048  1.00  0.00     0.188 C 
BRANCH   3   4
ATOM      4  O   UNL A   1      43.978  23.460  26.864  1.00  0.00    -0.376 OA
BRANCH   4   5
ATOM      5  C   UNL A   1      44.663  24.708  26.721  1.00  0.00     0.202 C 
BRANCH   5   6
ATOM      6  C   UNL A   1      44.462  25.383  25.364  1.00  0.00     0.261 C 
BRANCH   6   7
ATOM      7  O   UNL A   1      43.133  25.893  25.199  1.00  0.00    -0.460 OA
BRANCH   7   8
ATOM      8  C   UNL A   1      42.676  27.126  25.535  1.00  0.00     0.338 C 
ATOM      9  O   UNL A   1      42.316  27.875  24.625  1.00  0.00    -0.246 OA
BRANCH   8  10
ATOM     10  C   UNL A   1      42.568  27.636  26.940  1.00  0.00     0.060 A 
ATOM     11  C   UNL A   1      41.765  27.096  27.945  1.00  0.00     0.016 A 
ATOM     12  C   UNL A   1      43.385  28.729  27.278  1.00  0.00     0.016 A 
ATOM     13  C   UNL A   1      41.699  27.647  29.208  1.00  0.00     0.010 A 
ATOM     14  C   UNL A   1      43.341  29.291  28.558  1.00  0.00     0.010 A 
ATOM     15  C   UNL A   1      42.459  28.767  29.508  1.00  0.00    -0.014 A 
BRANCH  15  16
ATOM     16  C   UNL A   1      42.091  29.492  30.732  1.00  0.00     0.031 A 
ATOM     17  C   UNL A   1      40.812  30.273  30.696  1.00  0.00     0.074 A 
ATOM     18  C   UNL A   1      42.759  29.256  31.874  1.00  0.00     0.049 A 
ATOM     19  N   UNL A   1      40.271  31.020  31.615  1.00  0.00    -0.248 NA
ATOM     20  C   UNL A   1      40.020  30.180  29.453  1.00  0.00     0.031 C 
ATOM     21  C   UNL A   1      43.890  28.333  32.010  1.00  0.00     0.029 A 
ATOM     22  N   UNL A   1      42.552  29.721  33.141  1.00  0.00    -0.354 N 
ATOM     23  C   UNL A   1      39.097  31.509  31.053  1.00  0.00     0.074 A 
ATOM     24  C   UNL A   1      39.005  30.989  29.711  1.00  0.00     0.031 C 
ATOM     25  C   UNL A   1      44.259  28.281  33.300  1.00  0.00     0.029 A 
ATOM     26  C   UNL A   1      43.447  29.224  34.058  1.00  0.00     0.049 A 
ATOM     27  H   UNL A   1      41.833  30.351  33.375  1.00  0.00     0.167 HD
ATOM     28  C   UNL A   1      38.185  32.325  31.624  1.00  0.00     0.037 A 
ATOM     29  C   UNL A   1      43.602  29.537  35.358  1.00  0.00     0.037 A 
ATOM     30  C   UNL A   1      38.326  32.809  32.968  1.00  0.00     0.049 A 
ATOM     31  C   UNL A   1      42.663  30.562  35.934  1.00  0.00     0.074 A 
ATOM     32  C   UNL A   1      37.553  33.729  33.646  1.00  0.00     0.029 A 
ATOM     33  N   UNL A   1      39.323  32.391  33.844  1.00  0.00    -0.354 N 
ATOM     34  N   UNL A   1      41.634  31.145  35.359  1.00  0.00    -0.248 NA
ATOM     35  C   UNL A   1      42.911  30.995  37.311  1.00  0.00     0.031 C 
ATOM     36  C   UNL A   1      38.112  33.901  34.917  1.00  0.00     0.029 A 
ATOM     37  C   UNL A   1      39.197  33.045  35.054  1.00  0.00     0.049 A 
ATOM     38  H   UNL A   1      40.018  31.726  33.633  1.00  0.00     0.167 HD
ATOM     39  C   UNL A   1      41.100  32.006  36.309  1.00  0.00     0.074 A 
ATOM     40  C   UNL A   1      41.917  31.854  37.501  1.00  0.00     0.031 C 
ATOM     41  C   UNL A   1      40.041  32.849  36.211  1.00  0.00     0.037 A 
BRANCH  28  42
ATOM     42  C   UNL A   1      37.041  32.784  30.765  1.00  0.00     0.058 A 
ATOM     43  C   UNL A   1      35.751  32.273  30.978  1.00  0.00     0.135 A 
ATOM     44  C   UNL A   1      37.195  33.770  29.775  1.00  0.00     0.135 A 
ATOM     45  F   UNL A   1      35.539  31.349  31.928  1.00  0.00    -0.206 F 
ATOM     46  C   UNL A   1      34.658  32.718  30.242  1.00  0.00     0.059 A 
ATOM     47  C   UNL A   1      36.110  34.249  29.044  1.00  0.00     0.059 A 
ATOM     48  F   UNL A   1      38.398  34.329  29.560  1.00  0.00    -0.206 F 
ATOM     49  C   UNL A   1      34.845  33.710  29.281  1.00  0.00     0.060 A 
BRANCH  49  50
ATOM     50  S   UNL A   1      33.402  34.327  28.387  1.00  0.00     0.124 S 
ATOM     51  O   UNL A   1      32.565  34.821  29.474  1.00  0.00    -0.237 OA
ATOM     52  O   UNL A   1      33.989  35.346  27.521  1.00  0.00    -0.237 OA
ATOM     53  O   UNL A   1      32.901  33.143  27.693  1.00  0.00    -0.744 OA
ENDBRANCH  49  50
ENDBRANCH  28  42
BRANCH  29  54
ATOM     54  C   UNL A   1      44.700  28.917  36.150  1.00  0.00     0.058 A 
ATOM     55  C   UNL A   1      44.472  27.770  36.931  1.00  0.00     0.135 A 
ATOM     56  C   UNL A   1      45.982  29.483  36.194  1.00  0.00     0.135 A 
ATOM     57  F   UNL A   1      43.265  27.183  36.930  1.00  0.00    -0.206 F 
ATOM     58  C   UNL A   1      45.457  27.233  37.753  1.00  0.00     0.059 A 
ATOM     59  C   UNL A   1      46.995  28.947  36.989  1.00  0.00     0.059 A 
ATOM     60  F   UNL A   1      46.260  30.570  35.457  1.00  0.00    -0.206 F 
ATOM     61  C   UNL A   1      46.716  27.833  37.781  1.00  0.00     0.060 A 
BRANCH  61  62
ATOM     62  S   UNL A   1      47.971  27.130  38.873  1.00  0.00     0.124 S 
ATOM     63  O   UNL A   1      47.676  25.704  38.782  1.00  0.00    -0.237 OA
ATOM     64  O   UNL A   1      49.209  27.564  38.234  1.00  0.00    -0.237 OA
ATOM     65  O   UNL A   1      47.682  27.749  40.163  1.00  0.00    -0.744 OA
ENDBRANCH  61  62
ENDBRANCH  29  54
BRANCH  41  66
ATOM     66  C   UNL A   1      39.693  33.647  37.430  1.00  0.00     0.058 A 
ATOM     67  C   UNL A   1      40.368  34.847  37.702  1.00  0.00     0.135 A 
ATOM     68  C   UNL A   1      38.768  33.176  38.374  1.00  0.00     0.135 A 
ATOM     69  F   UNL A   1      41.268  35.330  36.831  1.00  0.00    -0.206 F 
ATOM     70  C   UNL A   1      40.156  35.542  38.883  1.00  0.00     0.059 A 
ATOM     71  C   UNL A   1      38.518  33.872  39.550  1.00  0.00     0.059 A 
ATOM     72  F   UNL A   1      38.093  32.037  38.150  1.00  0.00    -0.206 F 
ATOM     73  C   UNL A   1      39.233  35.043  39.804  1.00  0.00     0.060 A 
BRANCH  73  74
ATOM     74  S   UNL A   1      38.970  35.963  41.333  1.00  0.00     0.124 S 
ATOM     75  O   UNL A   1      40.158  35.606  42.102  1.00  0.00    -0.237 OA
ATOM     76  O   UNL A   1      38.911  37.341  40.856  1.00  0.00    -0.237 OA
ATOM     77  O   UNL A   1      37.710  35.427  41.837  1.00  0.00    -0.744 OA
ENDBRANCH  73  74
ENDBRANCH  41  66
ENDBRANCH  15  16
ENDBRANCH   8  10
ENDBRANCH   7   8
ENDBRANCH   6   7
ENDBRANCH   5   6
ENDBRANCH   4   5
ENDBRANCH   3   4
ENDBRANCH   2   3
ENDBRANCH   1   2
BRANCH   1  78
ATOM     78  C   UNL A   1      40.981  21.370  26.341  1.00  0.00     0.188 C 
BRANCH  78  79
ATOM     79  C   UNL A   1      39.555  21.963  26.416  1.00  0.00     0.188 C 
BRANCH  79  80
ATOM     80  O   UNL A   1      39.413  23.362  26.422  1.00  0.00    -0.376 OA
BRANCH  80  81
ATOM     81  C   UNL A   1      38.178  23.978  26.116  1.00  0.00     0.202 C 
BRANCH  81  82
ATOM     82  C   UNL A   1      37.021  23.337  25.322  1.00  0.00     0.261 C 
BRANCH  82  83
ATOM     83  O   UNL A   1      35.790  24.051  25.188  1.00  0.00    -0.460 OA
BRANCH  83  84
ATOM     84  C   UNL A   1      34.959  23.758  24.155  1.00  0.00     0.343 C 
ATOM     85  O   UNL A   1      35.227  23.716  22.967  1.00  0.00    -0.246 OA
BRANCH  84  86
ATOM     86  C   UNL A   1      33.681  23.291  24.728  1.00  0.00     0.119 A 
ATOM     87  C   UNL A   1      33.492  21.906  24.793  1.00  0.00     0.139 A 
ATOM     88  C   UNL A   1      32.632  24.168  25.091  1.00  0.00     0.066 A 
ATOM     89  F   UNL A   1      34.484  21.060  24.479  1.00  0.00    -0.206 F 
ATOM     90  C   UNL A   1      32.277  21.364  25.191  1.00  0.00     0.040 A 
ATOM     91  C   UNL A   1      31.421  23.595  25.505  1.00  0.00     0.028 A 
ATOM     92  C   UNL A   1      31.236  22.211  25.539  1.00  0.00     0.005 A 
BRANCH  88  93
ATOM     93  N   UNL A   1      32.794  25.599  25.171  1.00  0.00    -0.275 N 
ATOM     94  H   UNL A   1      33.368  25.971  25.879  1.00  0.00     0.180 HD
BRANCH  93  95
ATOM     95  S   UNL A   1      32.030  26.672  24.090  1.00  0.00     0.333 S 
ATOM     96  O   UNL A   1      30.632  26.621  24.480  1.00  0.00    -0.197 OA
ATOM     97  O   UNL A   1      32.738  27.937  24.176  1.00  0.00    -0.197 OA
BRANCH  95  98
ATOM     98  C   UNL A   1      32.205  25.966  22.363  1.00  0.00     0.516 C 
ATOM     99  F   UNL A   1      31.804  24.659  22.315  1.00  0.00    -0.155 F 
ATOM    100  F   UNL A   1      31.447  26.632  21.446  1.00  0.00    -0.155 F 
ATOM    101  F   UNL A   1      33.489  25.983  21.909  1.00  0.00    -0.155 F 
ENDBRANCH  95  98
ENDBRANCH  93  95
ENDBRANCH  88  93
ENDBRANCH  84  86
ENDBRANCH  83  84
ENDBRANCH  82  83
ENDBRANCH  81  82
ENDBRANCH  80  81
ENDBRANCH  79  80
ENDBRANCH  78  79
ENDBRANCH   1  78
TORSDOF 26
ENDMDL
