MODEL 1
REMARK VINA RESULT:     -10.9      0.000      0.000
REMARK SMILES O=C(OCCOCCOCCOCCOC(=O)c1ccc(-c2c3nc(c(-c4c(F)cc(S(=O)(=O)[O-])cc4F)c4ccc([nH]4)c(-c4c(F)cc(S(=O)(=O)[O-])cc4F)c4nc(c(-c5c(F)cc(S(=O)(=O)[O-])cc5F)c5ccc2[nH]5)C=C4)C=C3)cc1)C1=Cc2c(ccc(Cl)c2-c2ccccc2)O[C@H]1C(F)(F)F
REMARK SMILES IDX 10 1 9 2 8 3 7 4 6 5 5 6 4 7 3 8 2 9 1 10 84 11 85 12 100 13
REMARK SMILES IDX 86 14 99 15 87 16 92 17 88 18 90 19 89 20 91 21 101 22
REMARK SMILES IDX 102 23 103 24 104 25 93 26 94 27 98 28 95 29 97 30 96 31
REMARK SMILES IDX 11 32 12 33 13 34 14 35 15 36 16 37 17 38 18 39 19 40 83 41
REMARK SMILES IDX 20 42 82 43 21 44 22 45 23 46 76 47 24 48 81 49 75 50 77 51
REMARK SMILES IDX 25 52 80 53 74 54 73 55 26 57 60 58 39 59 59 60 40 61 43 62
REMARK SMILES IDX 58 63 78 64 41 65 42 66 57 68 79 69 44 70 27 71 28 72 37 73
REMARK SMILES IDX 29 74 30 75 36 76 38 77 31 78 32 79 33 80 34 81 35 82 61 83
REMARK SMILES IDX 62 84 71 85 63 86 64 87 70 88 72 89 65 90 66 91 67 92 68 93
REMARK SMILES IDX 69 94 45 95 46 96 55 97 47 98 48 99 54 100 56 101 49 102
REMARK SMILES IDX 50 103 51 104 52 105 53 106
REMARK H PARENT 77 56 43 67
REMARK Flexibility Score: inf
ROOT
ATOM      1  C   UNL A   1      35.067  31.034  27.916  1.00  0.00     0.188 C 
ENDROOT
BRANCH   1   2
ATOM      2  O   UNL A   1      34.527  29.656  27.656  1.00  0.00    -0.377 OA
BRANCH   2   3
ATOM      3  C   UNL A   1      33.461  28.312  26.669  1.00  0.00     0.188 C 
BRANCH   3   4
ATOM      4  C   UNL A   1      31.833  28.070  26.410  1.00  0.00     0.188 C 
BRANCH   4   5
ATOM      5  O   UNL A   1      31.154  26.873  26.783  1.00  0.00    -0.376 OA
BRANCH   5   6
ATOM      6  C   UNL A   1      30.211  26.284  25.913  1.00  0.00     0.202 C 
BRANCH   6   7
ATOM      7  C   UNL A   1      29.696  24.861  26.175  1.00  0.00     0.261 C 
BRANCH   7   8
ATOM      8  O   UNL A   1      30.779  23.993  26.607  1.00  0.00    -0.460 OA
BRANCH   8   9
ATOM      9  C   UNL A   1      31.234  22.876  25.987  1.00  0.00     0.338 C 
ATOM     10  O   UNL A   1      30.529  21.873  25.931  1.00  0.00    -0.246 OA
BRANCH   9  11
ATOM     11  C   UNL A   1      32.527  22.872  25.275  1.00  0.00     0.087 C 
ATOM     12  C   UNL A   1      33.103  21.764  24.804  1.00  0.00     0.028 C 
ATOM     13  C   UNL A   1      32.850  24.117  24.474  1.00  0.00     0.316 C 
ATOM     14  C   UNL A   1      34.538  21.832  24.616  1.00  0.00     0.027 A 
ATOM     15  O   UNL A   1      34.277  24.216  24.143  1.00  0.00    -0.475 OA
ATOM     16  C   UNL A   1      35.063  23.101  24.323  1.00  0.00     0.128 A 
ATOM     17  C   UNL A   1      35.322  20.665  24.773  1.00  0.00     0.011 A 
ATOM     18  C   UNL A   1      36.433  23.251  24.215  1.00  0.00     0.049 A 
ATOM     19  C   UNL A   1      36.714  20.866  24.683  1.00  0.00     0.049 A 
ATOM     20  C   UNL A   1      37.255  22.141  24.418  1.00  0.00     0.025 A 
ATOM     21  Cl  UNL A   1      37.865  19.580  24.812  1.00  0.00    -0.084 Cl
BRANCH  13  22
ATOM     22  C   UNL A   1      31.946  24.186  23.206  1.00  0.00     0.430 C 
ATOM     23  F   UNL A   1      32.597  23.781  22.080  1.00  0.00    -0.167 F 
ATOM     24  F   UNL A   1      30.850  23.402  23.321  1.00  0.00    -0.167 F 
ATOM     25  F   UNL A   1      31.514  25.444  22.949  1.00  0.00    -0.167 F 
ENDBRANCH  13  22
BRANCH  17  26
ATOM     26  C   UNL A   1      34.687  19.315  24.947  1.00  0.00    -0.016 A 
ATOM     27  C   UNL A   1      35.139  17.935  23.860  1.00  0.00     0.009 A 
ATOM     28  C   UNL A   1      33.239  19.120  26.041  1.00  0.00     0.009 A 
ATOM     29  C   UNL A   1      34.111  16.454  23.752  1.00  0.00     0.001 A 
ATOM     30  C   UNL A   1      32.203  17.618  25.950  1.00  0.00     0.001 A 
ATOM     31  C   UNL A   1      32.658  16.282  24.808  1.00  0.00     0.000 A 
ENDBRANCH  17  26
ENDBRANCH   9  11
ENDBRANCH   8   9
ENDBRANCH   7   8
ENDBRANCH   6   7
ENDBRANCH   5   6
ENDBRANCH   4   5
ENDBRANCH   3   4
ENDBRANCH   2   3
ENDBRANCH   1   2
BRANCH   1  32
ATOM     32  C   UNL A   1      34.368  32.083  28.836  1.00  0.00     0.188 C 
BRANCH  32  33
ATOM     33  O   UNL A   1      34.777  32.392  30.163  1.00  0.00    -0.376 OA
BRANCH  33  34
ATOM     34  C   UNL A   1      35.972  33.050  30.529  1.00  0.00     0.202 C 
BRANCH  34  35
ATOM     35  C   UNL A   1      37.044  32.491  31.481  1.00  0.00     0.261 C 
BRANCH  35  36
ATOM     36  O   UNL A   1      36.741  31.259  32.125  1.00  0.00    -0.460 OA
BRANCH  36  37
ATOM     37  C   UNL A   1      36.866  30.160  31.352  1.00  0.00     0.338 C 
ATOM     38  O   UNL A   1      35.961  29.443  30.953  1.00  0.00    -0.246 OA
BRANCH  37  39
ATOM     39  C   UNL A   1      38.257  30.099  30.849  1.00  0.00     0.060 A 
ATOM     40  C   UNL A   1      38.422  30.169  29.462  1.00  0.00     0.016 A 
ATOM     41  C   UNL A   1      39.375  30.051  31.693  1.00  0.00     0.016 A 
ATOM     42  C   UNL A   1      39.692  30.150  28.906  1.00  0.00     0.010 A 
ATOM     43  C   UNL A   1      40.657  29.992  31.132  1.00  0.00     0.010 A 
ATOM     44  C   UNL A   1      40.810  29.989  29.735  1.00  0.00    -0.014 A 
BRANCH  44  45
ATOM     45  C   UNL A   1      42.040  29.469  29.093  1.00  0.00     0.031 A 
ATOM     46  C   UNL A   1      43.205  30.420  28.997  1.00  0.00     0.074 A 
ATOM     47  C   UNL A   1      42.178  28.176  28.750  1.00  0.00     0.049 A 
ATOM     48  N   UNL A   1      44.432  30.197  28.612  1.00  0.00    -0.248 NA
ATOM     49  C   UNL A   1      42.948  31.813  29.409  1.00  0.00     0.031 C 
ATOM     50  C   UNL A   1      41.135  27.157  28.841  1.00  0.00     0.029 A 
ATOM     51  N   UNL A   1      43.271  27.499  28.271  1.00  0.00    -0.354 N 
ATOM     52  C   UNL A   1      45.096  31.409  28.763  1.00  0.00     0.074 A 
ATOM     53  C   UNL A   1      44.128  32.378  29.221  1.00  0.00     0.031 C 
ATOM     54  C   UNL A   1      41.640  25.980  28.427  1.00  0.00     0.029 A 
ATOM     55  C   UNL A   1      43.035  26.167  28.031  1.00  0.00     0.049 A 
ATOM     56  H   UNL A   1      44.144  27.928  28.114  1.00  0.00     0.167 HD
ATOM     57  C   UNL A   1      46.404  31.690  28.562  1.00  0.00     0.037 A 
ATOM     58  C   UNL A   1      43.856  25.216  27.540  1.00  0.00     0.037 A 
ATOM     59  C   UNL A   1      47.359  30.731  28.080  1.00  0.00     0.049 A 
ATOM     60  C   UNL A   1      45.293  25.572  27.242  1.00  0.00     0.074 A 
ATOM     61  C   UNL A   1      48.701  30.917  27.804  1.00  0.00     0.029 A 
ATOM     62  N   UNL A   1      47.070  29.405  27.797  1.00  0.00    -0.354 N 
ATOM     63  N   UNL A   1      45.913  26.720  27.399  1.00  0.00    -0.248 NA
ATOM     64  C   UNL A   1      46.148  24.499  26.714  1.00  0.00     0.031 C 
ATOM     65  C   UNL A   1      49.213  29.714  27.308  1.00  0.00     0.029 A 
ATOM     66  C   UNL A   1      48.204  28.764  27.331  1.00  0.00     0.049 A 
ATOM     67  H   UNL A   1      46.187  28.982  27.910  1.00  0.00     0.167 HD
ATOM     68  C   UNL A   1      47.231  26.501  27.009  1.00  0.00     0.074 A 
ATOM     69  C   UNL A   1      47.326  25.104  26.635  1.00  0.00     0.031 C 
ATOM     70  C   UNL A   1      48.272  27.371  26.960  1.00  0.00     0.037 A 
BRANCH  57  71
ATOM     71  C   UNL A   1      46.857  33.095  28.840  1.00  0.00     0.058 A 
ATOM     72  C   UNL A   1      46.802  34.094  27.855  1.00  0.00     0.135 A 
ATOM     73  C   UNL A   1      47.347  33.448  30.106  1.00  0.00     0.135 A 
ATOM     74  F   UNL A   1      46.373  33.801  26.616  1.00  0.00    -0.206 F 
ATOM     75  C   UNL A   1      47.234  35.391  28.111  1.00  0.00     0.059 A 
ATOM     76  C   UNL A   1      47.758  34.746  30.392  1.00  0.00     0.059 A 
ATOM     77  F   UNL A   1      47.436  32.527  31.078  1.00  0.00    -0.206 F 
ATOM     78  C   UNL A   1      47.707  35.708  29.385  1.00  0.00     0.060 A 
BRANCH  78  79
ATOM     79  S   UNL A   1      48.245  37.400  29.706  1.00  0.00     0.124 S 
ATOM     80  O   UNL A   1      47.509  38.141  28.687  1.00  0.00    -0.237 OA
ATOM     81  O   UNL A   1      47.806  37.610  31.083  1.00  0.00    -0.237 OA
ATOM     82  O   UNL A   1      49.691  37.339  29.515  1.00  0.00    -0.744 OA
ENDBRANCH  78  79
ENDBRANCH  57  71
BRANCH  58  83
ATOM     83  C   UNL A   1      43.341  23.843  27.273  1.00  0.00     0.058 A 
ATOM     84  C   UNL A   1      43.190  22.897  28.299  1.00  0.00     0.135 A 
ATOM     85  C   UNL A   1      43.018  23.441  25.967  1.00  0.00     0.135 A 
ATOM     86  F   UNL A   1      43.498  23.224  29.563  1.00  0.00    -0.206 F 
ATOM     87  C   UNL A   1      42.762  21.599  28.038  1.00  0.00     0.059 A 
ATOM     88  C   UNL A   1      42.560  22.158  25.685  1.00  0.00     0.059 A 
ATOM     89  F   UNL A   1      43.139  24.306  24.948  1.00  0.00    -0.206 F 
ATOM     90  C   UNL A   1      42.448  21.239  26.726  1.00  0.00     0.060 A 
BRANCH  90  91
ATOM     91  S   UNL A   1      41.856  19.563  26.399  1.00  0.00     0.124 S 
ATOM     92  O   UNL A   1      40.412  19.735  26.503  1.00  0.00    -0.237 OA
ATOM     93  O   UNL A   1      42.375  19.311  25.059  1.00  0.00    -0.237 OA
ATOM     94  O   UNL A   1      42.477  18.776  27.461  1.00  0.00    -0.744 OA
ENDBRANCH  90  91
ENDBRANCH  58  83
BRANCH  70  95
ATOM     95  C   UNL A   1      49.604  26.832  26.511  1.00  0.00     0.058 A 
ATOM     96  C   UNL A   1      49.990  26.843  25.162  1.00  0.00     0.135 A 
ATOM     97  C   UNL A   1      50.518  26.323  27.449  1.00  0.00     0.135 A 
ATOM     98  F   UNL A   1      49.156  27.321  24.225  1.00  0.00    -0.206 F 
ATOM     99  C   UNL A   1      51.213  26.324  24.751  1.00  0.00     0.059 A 
ATOM    100  C   UNL A   1      51.761  25.830  27.065  1.00  0.00     0.059 A 
ATOM    101  F   UNL A   1      50.210  26.307  28.756  1.00  0.00    -0.206 F 
ATOM    102  C   UNL A   1      52.091  25.814  25.711  1.00  0.00     0.060 A 
BRANCH 102 103
ATOM    103  S   UNL A   1      53.670  25.135  25.165  1.00  0.00     0.124 S 
ATOM    104  O   UNL A   1      53.759  25.656  23.804  1.00  0.00    -0.237 OA
ATOM    105  O   UNL A   1      54.608  25.709  26.126  1.00  0.00    -0.237 OA
ATOM    106  O   UNL A   1      53.476  23.692  25.273  1.00  0.00    -0.744 OA
ENDBRANCH 102 103
ENDBRANCH  70  95
ENDBRANCH  44  45
ENDBRANCH  37  39
ENDBRANCH  36  37
ENDBRANCH  35  36
ENDBRANCH  34  35
ENDBRANCH  33  34
ENDBRANCH  32  33
ENDBRANCH   1  32
TORSDOF 25
ENDMDL
MODEL 2
REMARK VINA RESULT:      -9.7      3.949      5.506
REMARK SMILES O=C(OCCOCCOCCOCCOC(=O)c1ccc(-c2c3nc(c(-c4c(F)cc(S(=O)(=O)[O-])cc4F)c4ccc([nH]4)c(-c4c(F)cc(S(=O)(=O)[O-])cc4F)c4nc(c(-c5c(F)cc(S(=O)(=O)[O-])cc5F)c5ccc2[nH]5)C=C4)C=C3)cc1)C1=Cc2c(ccc(Cl)c2-c2ccccc2)O[C@H]1C(F)(F)F
REMARK SMILES IDX 10 1 9 2 8 3 7 4 6 5 5 6 4 7 3 8 2 9 1 10 84 11 85 12 100 13
REMARK SMILES IDX 86 14 99 15 87 16 92 17 88 18 90 19 89 20 91 21 101 22
REMARK SMILES IDX 102 23 103 24 104 25 93 26 94 27 98 28 95 29 97 30 96 31
REMARK SMILES IDX 11 32 12 33 13 34 14 35 15 36 16 37 17 38 18 39 19 40 83 41
REMARK SMILES IDX 20 42 82 43 21 44 22 45 23 46 76 47 24 48 81 49 75 50 77 51
REMARK SMILES IDX 25 52 80 53 74 54 73 55 26 57 60 58 39 59 59 60 40 61 43 62
REMARK SMILES IDX 58 63 78 64 41 65 42 66 57 68 79 69 44 70 27 71 28 72 37 73
REMARK SMILES IDX 29 74 30 75 36 76 38 77 31 78 32 79 33 80 34 81 35 82 61 83
REMARK SMILES IDX 62 84 71 85 63 86 64 87 70 88 72 89 65 90 66 91 67 92 68 93
REMARK SMILES IDX 69 94 45 95 46 96 55 97 47 98 48 99 54 100 56 101 49 102
REMARK SMILES IDX 50 103 51 104 52 105 53 106
REMARK H PARENT 77 56 43 67
REMARK Flexibility Score: inf
ROOT
ATOM      1  C   UNL A   1      35.483  30.778  28.301  1.00  0.00     0.188 C 
ENDROOT
BRANCH   1   2
ATOM      2  O   UNL A   1      34.342  30.417  27.391  1.00  0.00    -0.377 OA
BRANCH   2   3
ATOM      3  C   UNL A   1      32.483  29.873  26.987  1.00  0.00     0.188 C 
BRANCH   3   4
ATOM      4  C   UNL A   1      31.756  29.019  25.755  1.00  0.00     0.188 C 
BRANCH   4   5
ATOM      5  O   UNL A   1      31.789  29.436  24.392  1.00  0.00    -0.376 OA
BRANCH   5   6
ATOM      6  C   UNL A   1      32.282  28.572  23.391  1.00  0.00     0.202 C 
BRANCH   6   7
ATOM      7  C   UNL A   1      33.774  28.207  23.346  1.00  0.00     0.261 C 
BRANCH   7   8
ATOM      8  O   UNL A   1      33.968  26.796  23.637  1.00  0.00    -0.460 OA
BRANCH   8   9
ATOM      9  C   UNL A   1      33.606  25.741  22.866  1.00  0.00     0.338 C 
ATOM     10  O   UNL A   1      33.643  25.831  21.642  1.00  0.00    -0.246 OA
BRANCH   9  11
ATOM     11  C   UNL A   1      33.270  24.436  23.468  1.00  0.00     0.087 C 
ATOM     12  C   UNL A   1      34.078  23.786  24.310  1.00  0.00     0.028 C 
ATOM     13  C   UNL A   1      31.798  24.171  23.706  1.00  0.00     0.316 C 
ATOM     14  C   UNL A   1      33.875  22.353  24.395  1.00  0.00     0.027 A 
ATOM     15  O   UNL A   1      31.511  22.746  23.912  1.00  0.00    -0.475 OA
ATOM     16  C   UNL A   1      32.570  21.899  24.148  1.00  0.00     0.128 A 
ATOM     17  C   UNL A   1      34.973  21.505  24.673  1.00  0.00     0.011 A 
ATOM     18  C   UNL A   1      32.326  20.538  24.131  1.00  0.00     0.049 A 
ATOM     19  C   UNL A   1      34.688  20.126  24.619  1.00  0.00     0.049 A 
ATOM     20  C   UNL A   1      33.388  19.656  24.342  1.00  0.00     0.025 A 
ATOM     21  Cl  UNL A   1      35.867  18.904  24.952  1.00  0.00    -0.084 Cl
BRANCH  13  22
ATOM     22  C   UNL A   1      31.281  25.051  24.883  1.00  0.00     0.430 C 
ATOM     23  F   UNL A   1      32.289  25.492  25.686  1.00  0.00    -0.167 F 
ATOM     24  F   UNL A   1      30.625  26.150  24.447  1.00  0.00    -0.167 F 
ATOM     25  F   UNL A   1      30.432  24.376  25.697  1.00  0.00    -0.167 F 
ENDBRANCH  13  22
BRANCH  17  26
ATOM     26  C   UNL A   1      36.311  22.063  25.065  1.00  0.00    -0.016 A 
ATOM     27  C   UNL A   1      37.799  21.029  24.988  1.00  0.00     0.009 A 
ATOM     28  C   UNL A   1      36.417  23.677  25.910  1.00  0.00     0.009 A 
ATOM     29  C   UNL A   1      39.317  21.510  25.842  1.00  0.00     0.001 A 
ATOM     30  C   UNL A   1      37.953  24.179  26.762  1.00  0.00     0.001 A 
ATOM     31  C   UNL A   1      39.406  23.090  26.709  1.00  0.00     0.000 A 
ENDBRANCH  17  26
ENDBRANCH   9  11
ENDBRANCH   8   9
ENDBRANCH   7   8
ENDBRANCH   6   7
ENDBRANCH   5   6
ENDBRANCH   4   5
ENDBRANCH   3   4
ENDBRANCH   2   3
ENDBRANCH   1   2
BRANCH   1  32
ATOM     32  C   UNL A   1      36.400  32.024  28.093  1.00  0.00     0.188 C 
BRANCH  32  33
ATOM     33  O   UNL A   1      35.939  33.370  28.072  1.00  0.00    -0.376 OA
BRANCH  33  34
ATOM     34  C   UNL A   1      34.706  33.831  28.584  1.00  0.00     0.202 C 
BRANCH  34  35
ATOM     35  C   UNL A   1      34.349  33.954  30.076  1.00  0.00     0.261 C 
BRANCH  35  36
ATOM     36  O   UNL A   1      34.301  32.741  30.819  1.00  0.00    -0.460 OA
BRANCH  36  37
ATOM     37  C   UNL A   1      34.804  32.813  32.069  1.00  0.00     0.338 C 
ATOM     38  O   UNL A   1      34.176  33.032  33.094  1.00  0.00    -0.246 OA
BRANCH  37  39
ATOM     39  C   UNL A   1      36.205  32.336  32.038  1.00  0.00     0.060 A 
ATOM     40  C   UNL A   1      37.188  33.268  32.390  1.00  0.00     0.016 A 
ATOM     41  C   UNL A   1      36.556  31.010  31.753  1.00  0.00     0.016 A 
ATOM     42  C   UNL A   1      38.524  32.897  32.418  1.00  0.00     0.010 A 
ATOM     43  C   UNL A   1      37.907  30.644  31.742  1.00  0.00     0.010 A 
ATOM     44  C   UNL A   1      38.894  31.605  32.024  1.00  0.00    -0.014 A 
BRANCH  44  45
ATOM     45  C   UNL A   1      40.298  31.424  31.584  1.00  0.00     0.031 A 
ATOM     46  C   UNL A   1      40.902  32.545  30.777  1.00  0.00     0.074 A 
ATOM     47  C   UNL A   1      41.053  30.395  32.004  1.00  0.00     0.049 A 
ATOM     48  N   UNL A   1      42.134  32.714  30.380  1.00  0.00    -0.248 NA
ATOM     49  C   UNL A   1      39.986  33.630  30.378  1.00  0.00     0.031 C 
ATOM     50  C   UNL A   1      40.588  29.279  32.825  1.00  0.00     0.029 A 
ATOM     51  N   UNL A   1      42.386  30.136  31.807  1.00  0.00    -0.354 N 
ATOM     52  C   UNL A   1      42.145  33.934  29.713  1.00  0.00     0.074 A 
ATOM     53  C   UNL A   1      40.792  34.437  29.709  1.00  0.00     0.031 C 
ATOM     54  C   UNL A   1      41.623  28.451  33.060  1.00  0.00     0.029 A 
ATOM     55  C   UNL A   1      42.818  28.973  32.396  1.00  0.00     0.049 A 
ATOM     56  H   UNL A   1      42.979  30.731  31.292  1.00  0.00     0.167 HD
ATOM     57  C   UNL A   1      43.195  34.593  29.171  1.00  0.00     0.037 A 
ATOM     58  C   UNL A   1      44.038  28.398  32.390  1.00  0.00     0.037 A 
ATOM     59  C   UNL A   1      44.536  34.077  29.153  1.00  0.00     0.049 A 
ATOM     60  C   UNL A   1      45.180  29.111  31.704  1.00  0.00     0.074 A 
ATOM     61  C   UNL A   1      45.668  34.643  28.596  1.00  0.00     0.029 A 
ATOM     62  N   UNL A   1      44.923  32.869  29.712  1.00  0.00    -0.354 N 
ATOM     63  N   UNL A   1      45.180  30.270  31.085  1.00  0.00    -0.248 NA
ATOM     64  C   UNL A   1      46.490  28.446  31.729  1.00  0.00     0.031 C 
ATOM     65  C   UNL A   1      46.732  33.754  28.778  1.00  0.00     0.029 A 
ATOM     66  C   UNL A   1      46.274  32.661  29.499  1.00  0.00     0.049 A 
ATOM     67  H   UNL A   1      44.324  32.250  30.191  1.00  0.00     0.167 HD
ATOM     68  C   UNL A   1      46.492  30.480  30.667  1.00  0.00     0.074 A 
ATOM     69  C   UNL A   1      47.261  29.342  31.127  1.00  0.00     0.031 C 
ATOM     70  C   UNL A   1      47.017  31.516  29.964  1.00  0.00     0.037 A 
BRANCH  57  71
ATOM     71  C   UNL A   1      42.917  35.925  28.536  1.00  0.00     0.058 A 
ATOM     72  C   UNL A   1      42.570  36.035  27.179  1.00  0.00     0.135 A 
ATOM     73  C   UNL A   1      42.994  37.105  29.291  1.00  0.00     0.135 A 
ATOM     74  F   UNL A   1      42.516  34.940  26.403  1.00  0.00    -0.206 F 
ATOM     75  C   UNL A   1      42.325  37.271  26.589  1.00  0.00     0.059 A 
ATOM     76  C   UNL A   1      42.725  38.349  28.728  1.00  0.00     0.059 A 
ATOM     77  F   UNL A   1      43.337  37.058  30.587  1.00  0.00    -0.206 F 
ATOM     78  C   UNL A   1      42.401  38.422  27.374  1.00  0.00     0.060 A 
BRANCH  78  79
ATOM     79  S   UNL A   1      42.062  40.016  26.598  1.00  0.00     0.124 S 
ATOM     80  O   UNL A   1      43.233  40.180  25.743  1.00  0.00    -0.237 OA
ATOM     81  O   UNL A   1      40.801  39.763  25.907  1.00  0.00    -0.237 OA
ATOM     82  O   UNL A   1      41.979  40.934  27.730  1.00  0.00    -0.744 OA
ENDBRANCH  78  79
ENDBRANCH  57  71
BRANCH  58  83
ATOM     83  C   UNL A   1      44.246  27.067  33.027  1.00  0.00     0.058 A 
ATOM     84  C   UNL A   1      44.550  26.939  34.391  1.00  0.00     0.135 A 
ATOM     85  C   UNL A   1      44.173  25.889  32.266  1.00  0.00     0.135 A 
ATOM     86  F   UNL A   1      44.647  28.033  35.161  1.00  0.00    -0.206 F 
ATOM     87  C   UNL A   1      44.799  25.698  34.971  1.00  0.00     0.059 A 
ATOM     88  C   UNL A   1      44.387  24.635  32.828  1.00  0.00     0.059 A 
ATOM     89  F   UNL A   1      43.879  25.952  30.957  1.00  0.00    -0.206 F 
ATOM     90  C   UNL A   1      44.713  24.551  34.180  1.00  0.00     0.060 A 
BRANCH  90  91
ATOM     91  S   UNL A   1      44.999  22.940  34.948  1.00  0.00     0.124 S 
ATOM     92  O   UNL A   1      43.917  22.146  34.379  1.00  0.00    -0.237 OA
ATOM     93  O   UNL A   1      46.343  22.614  34.482  1.00  0.00    -0.237 OA
ATOM     94  O   UNL A   1      44.890  23.226  36.375  1.00  0.00    -0.744 OA
ENDBRANCH  90  91
ENDBRANCH  58  83
BRANCH  70  95
ATOM     95  C   UNL A   1      48.494  31.477  29.674  1.00  0.00     0.058 A 
ATOM     96  C   UNL A   1      49.001  30.909  28.495  1.00  0.00     0.135 A 
ATOM     97  C   UNL A   1      49.411  32.040  30.577  1.00  0.00     0.135 A 
ATOM     98  F   UNL A   1      48.169  30.360  27.597  1.00  0.00    -0.206 F 
ATOM     99  C   UNL A   1      50.368  30.857  28.243  1.00  0.00     0.059 A 
ATOM    100  C   UNL A   1      50.781  32.030  30.330  1.00  0.00     0.059 A 
ATOM    101  F   UNL A   1      48.980  32.615  31.711  1.00  0.00    -0.206 F 
ATOM    102  C   UNL A   1      51.251  31.416  29.170  1.00  0.00     0.060 A 
BRANCH 102 103
ATOM    103  S   UNL A   1      53.022  31.334  28.837  1.00  0.00     0.124 S 
ATOM    104  O   UNL A   1      53.419  30.183  29.643  1.00  0.00    -0.237 OA
ATOM    105  O   UNL A   1      53.061  31.138  27.391  1.00  0.00    -0.237 OA
ATOM    106  O   UNL A   1      53.517  32.626  29.302  1.00  0.00    -0.744 OA
ENDBRANCH 102 103
ENDBRANCH  70  95
ENDBRANCH  44  45
ENDBRANCH  37  39
ENDBRANCH  36  37
ENDBRANCH  35  36
ENDBRANCH  34  35
ENDBRANCH  33  34
ENDBRANCH  32  33
ENDBRANCH   1  32
TORSDOF 25
ENDMDL
MODEL 3
REMARK VINA RESULT:      -9.7      1.604      3.088
REMARK SMILES O=C(OCCOCCOCCOCCOC(=O)c1ccc(-c2c3nc(c(-c4c(F)cc(S(=O)(=O)[O-])cc4F)c4ccc([nH]4)c(-c4c(F)cc(S(=O)(=O)[O-])cc4F)c4nc(c(-c5c(F)cc(S(=O)(=O)[O-])cc5F)c5ccc2[nH]5)C=C4)C=C3)cc1)C1=Cc2c(ccc(Cl)c2-c2ccccc2)O[C@H]1C(F)(F)F
REMARK SMILES IDX 10 1 9 2 8 3 7 4 6 5 5 6 4 7 3 8 2 9 1 10 84 11 85 12 100 13
REMARK SMILES IDX 86 14 99 15 87 16 92 17 88 18 90 19 89 20 91 21 101 22
REMARK SMILES IDX 102 23 103 24 104 25 93 26 94 27 98 28 95 29 97 30 96 31
REMARK SMILES IDX 11 32 12 33 13 34 14 35 15 36 16 37 17 38 18 39 19 40 83 41
REMARK SMILES IDX 20 42 82 43 21 44 22 45 23 46 76 47 24 48 81 49 75 50 77 51
REMARK SMILES IDX 25 52 80 53 74 54 73 55 26 57 60 58 39 59 59 60 40 61 43 62
REMARK SMILES IDX 58 63 78 64 41 65 42 66 57 68 79 69 44 70 27 71 28 72 37 73
REMARK SMILES IDX 29 74 30 75 36 76 38 77 31 78 32 79 33 80 34 81 35 82 61 83
REMARK SMILES IDX 62 84 71 85 63 86 64 87 70 88 72 89 65 90 66 91 67 92 68 93
REMARK SMILES IDX 69 94 45 95 46 96 55 97 47 98 48 99 54 100 56 101 49 102
REMARK SMILES IDX 50 103 51 104 52 105 53 106
REMARK H PARENT 77 56 43 67
REMARK Flexibility Score: inf
ROOT
ATOM      1  C   UNL A   1      34.514  32.311  29.152  1.00  0.00     0.188 C 
ENDROOT
BRANCH   1   2
ATOM      2  O   UNL A   1      33.741  31.401  28.240  1.00  0.00    -0.377 OA
BRANCH   2   3
ATOM      3  C   UNL A   1      32.540  30.994  26.721  1.00  0.00     0.188 C 
BRANCH   3   4
ATOM      4  C   UNL A   1      31.705  29.643  26.219  1.00  0.00     0.188 C 
BRANCH   4   5
ATOM      5  O   UNL A   1      31.346  29.407  24.860  1.00  0.00    -0.376 OA
BRANCH   5   6
ATOM      6  C   UNL A   1      31.921  28.336  24.143  1.00  0.00     0.202 C 
BRANCH   6   7
ATOM      7  C   UNL A   1      33.447  28.177  24.075  1.00  0.00     0.261 C 
BRANCH   7   8
ATOM      8  O   UNL A   1      33.815  26.773  23.988  1.00  0.00    -0.460 OA
BRANCH   8   9
ATOM      9  C   UNL A   1      33.213  25.810  23.247  1.00  0.00     0.338 C 
ATOM     10  O   UNL A   1      32.919  26.028  22.076  1.00  0.00    -0.246 OA
BRANCH   9  11
ATOM     11  C   UNL A   1      33.001  24.453  23.788  1.00  0.00     0.087 C 
ATOM     12  C   UNL A   1      33.892  23.820  24.555  1.00  0.00     0.028 C 
ATOM     13  C   UNL A   1      31.564  24.067  24.074  1.00  0.00     0.316 C 
ATOM     14  C   UNL A   1      33.796  22.374  24.567  1.00  0.00     0.027 A 
ATOM     15  O   UNL A   1      31.390  22.616  24.210  1.00  0.00    -0.475 OA
ATOM     16  C   UNL A   1      32.517  21.838  24.351  1.00  0.00     0.128 A 
ATOM     17  C   UNL A   1      34.964  21.595  24.748  1.00  0.00     0.011 A 
ATOM     18  C   UNL A   1      32.370  20.466  24.267  1.00  0.00     0.049 A 
ATOM     19  C   UNL A   1      34.776  20.204  24.628  1.00  0.00     0.049 A 
ATOM     20  C   UNL A   1      33.502  19.655  24.381  1.00  0.00     0.025 A 
ATOM     21  Cl  UNL A   1      36.054  19.057  24.840  1.00  0.00    -0.084 Cl
BRANCH  13  22
ATOM     22  C   UNL A   1      31.041  24.841  25.321  1.00  0.00     0.430 C 
ATOM     23  F   UNL A   1      30.237  24.076  26.110  1.00  0.00    -0.167 F 
ATOM     24  F   UNL A   1      32.051  25.278  26.107  1.00  0.00    -0.167 F 
ATOM     25  F   UNL A   1      30.300  25.924  24.983  1.00  0.00    -0.167 F 
ENDBRANCH  13  22
BRANCH  17  26
ATOM     26  C   UNL A   1      36.275  22.229  25.113  1.00  0.00    -0.016 A 
ATOM     27  C   UNL A   1      37.808  21.259  25.084  1.00  0.00     0.009 A 
ATOM     28  C   UNL A   1      36.310  23.883  25.883  1.00  0.00     0.009 A 
ATOM     29  C   UNL A   1      39.302  21.845  25.913  1.00  0.00     0.001 A 
ATOM     30  C   UNL A   1      37.821  24.491  26.710  1.00  0.00     0.001 A 
ATOM     31  C   UNL A   1      39.320  23.465  26.706  1.00  0.00     0.000 A 
ENDBRANCH  17  26
ENDBRANCH   9  11
ENDBRANCH   8   9
ENDBRANCH   7   8
ENDBRANCH   6   7
ENDBRANCH   5   6
ENDBRANCH   4   5
ENDBRANCH   3   4
ENDBRANCH   2   3
ENDBRANCH   1   2
BRANCH   1  32
ATOM     32  C   UNL A   1      35.795  33.091  28.722  1.00  0.00     0.188 C 
BRANCH  32  33
ATOM     33  O   UNL A   1      36.429  34.096  29.505  1.00  0.00    -0.376 OA
BRANCH  33  34
ATOM     34  C   UNL A   1      37.212  33.874  30.659  1.00  0.00     0.202 C 
BRANCH  34  35
ATOM     35  C   UNL A   1      37.771  32.514  31.111  1.00  0.00     0.261 C 
BRANCH  35  36
ATOM     36  O   UNL A   1      36.889  31.680  31.854  1.00  0.00    -0.460 OA
BRANCH  36  37
ATOM     37  C   UNL A   1      37.488  30.715  32.582  1.00  0.00     0.338 C 
ATOM     38  O   UNL A   1      37.165  30.340  33.699  1.00  0.00    -0.246 OA
BRANCH  37  39
ATOM     39  C   UNL A   1      38.449  30.001  31.712  1.00  0.00     0.060 A 
ATOM     40  C   UNL A   1      39.705  29.728  32.264  1.00  0.00     0.016 A 
ATOM     41  C   UNL A   1      38.125  29.541  30.428  1.00  0.00     0.016 A 
ATOM     42  C   UNL A   1      40.657  29.036  31.530  1.00  0.00     0.010 A 
ATOM     43  C   UNL A   1      39.097  28.876  29.671  1.00  0.00     0.010 A 
ATOM     44  C   UNL A   1      40.381  28.671  30.206  1.00  0.00    -0.014 A 
BRANCH  44  45
ATOM     45  C   UNL A   1      41.551  28.417  29.333  1.00  0.00     0.031 A 
ATOM     46  C   UNL A   1      42.492  29.574  29.111  1.00  0.00     0.074 A 
ATOM     47  C   UNL A   1      41.855  27.188  28.881  1.00  0.00     0.049 A 
ATOM     48  N   UNL A   1      43.651  29.602  28.512  1.00  0.00    -0.248 NA
ATOM     49  C   UNL A   1      42.066  30.876  29.658  1.00  0.00     0.031 C 
ATOM     50  C   UNL A   1      41.045  25.988  29.073  1.00  0.00     0.029 A 
ATOM     51  N   UNL A   1      42.949  26.748  28.179  1.00  0.00    -0.354 N 
ATOM     52  C   UNL A   1      44.103  30.910  28.635  1.00  0.00     0.074 A 
ATOM     53  C   UNL A   1      43.074  31.661  29.316  1.00  0.00     0.031 C 
ATOM     54  C   UNL A   1      41.670  24.944  28.498  1.00  0.00     0.029 A 
ATOM     55  C   UNL A   1      42.917  25.406  27.889  1.00  0.00     0.049 A 
ATOM     56  H   UNL A   1      43.690  27.340  27.910  1.00  0.00     0.167 HD
ATOM     57  C   UNL A   1      45.283  31.439  28.239  1.00  0.00     0.037 A 
ATOM     58  C   UNL A   1      43.795  24.646  27.202  1.00  0.00     0.037 A 
ATOM     59  C   UNL A   1      46.294  30.698  27.538  1.00  0.00     0.049 A 
ATOM     60  C   UNL A   1      45.069  25.277  26.694  1.00  0.00     0.074 A 
ATOM     61  C   UNL A   1      47.510  31.144  27.056  1.00  0.00     0.029 A 
ATOM     62  N   UNL A   1      46.201  29.353  27.214  1.00  0.00    -0.354 N 
ATOM     63  N   UNL A   1      45.491  26.515  26.826  1.00  0.00    -0.248 NA
ATOM     64  C   UNL A   1      45.995  24.406  25.957  1.00  0.00     0.031 C 
ATOM     65  C   UNL A   1      48.133  30.079  26.397  1.00  0.00     0.029 A 
ATOM     66  C   UNL A   1      47.331  28.955  26.521  1.00  0.00     0.049 A 
ATOM     67  H   UNL A   1      45.443  28.767  27.443  1.00  0.00     0.167 HD
ATOM     68  C   UNL A   1      46.737  26.563  26.208  1.00  0.00     0.074 A 
ATOM     69  C   UNL A   1      47.012  25.225  25.725  1.00  0.00     0.031 C 
ATOM     70  C   UNL A   1      47.580  27.615  26.047  1.00  0.00     0.037 A 
BRANCH  57  71
ATOM     71  C   UNL A   1      45.520  32.893  28.537  1.00  0.00     0.058 A 
ATOM     72  C   UNL A   1      46.162  33.308  29.714  1.00  0.00     0.135 A 
ATOM     73  C   UNL A   1      45.103  33.882  27.633  1.00  0.00     0.135 A 
ATOM     74  F   UNL A   1      46.550  32.404  30.629  1.00  0.00    -0.206 F 
ATOM     75  C   UNL A   1      46.369  34.655  29.994  1.00  0.00     0.059 A 
ATOM     76  C   UNL A   1      45.325  35.233  27.879  1.00  0.00     0.059 A 
ATOM     77  F   UNL A   1      44.470  33.541  26.501  1.00  0.00    -0.206 F 
ATOM     78  C   UNL A   1      45.950  35.610  29.067  1.00  0.00     0.060 A 
BRANCH  78  79
ATOM     79  S   UNL A   1      46.243  37.352  29.436  1.00  0.00     0.124 S 
ATOM     80  O   UNL A   1      47.524  37.580  28.775  1.00  0.00    -0.237 OA
ATOM     81  O   UNL A   1      45.088  37.998  28.819  1.00  0.00    -0.237 OA
ATOM     82  O   UNL A   1      46.274  37.391  30.895  1.00  0.00    -0.744 OA
ENDBRANCH  78  79
ENDBRANCH  57  71
BRANCH  58  83
ATOM     83  C   UNL A   1      43.495  23.212  26.929  1.00  0.00     0.058 A 
ATOM     84  C   UNL A   1      43.130  22.764  25.650  1.00  0.00     0.135 A 
ATOM     85  C   UNL A   1      43.538  22.262  27.961  1.00  0.00     0.135 A 
ATOM     86  F   UNL A   1      43.059  23.632  24.630  1.00  0.00    -0.206 F 
ATOM     87  C   UNL A   1      42.796  21.434  25.410  1.00  0.00     0.059 A 
ATOM     88  C   UNL A   1      43.238  20.921  27.740  1.00  0.00     0.059 A 
ATOM     89  F   UNL A   1      43.886  22.634  29.203  1.00  0.00    -0.206 F 
ATOM     90  C   UNL A   1      42.855  20.519  26.463  1.00  0.00     0.060 A 
BRANCH  90  91
ATOM     91  S   UNL A   1      42.456  18.787  26.136  1.00  0.00     0.124 S 
ATOM     92  O   UNL A   1      41.083  18.885  25.658  1.00  0.00    -0.237 OA
ATOM     93  O   UNL A   1      43.456  18.427  25.136  1.00  0.00    -0.237 OA
ATOM     94  O   UNL A   1      42.628  18.152  27.439  1.00  0.00    -0.744 OA
ENDBRANCH  90  91
ENDBRANCH  58  83
BRANCH  70  95
ATOM     95  C   UNL A   1      48.887  27.355  25.345  1.00  0.00     0.058 A 
ATOM     96  C   UNL A   1      50.075  27.131  26.057  1.00  0.00     0.135 A 
ATOM     97  C   UNL A   1      48.943  27.302  23.943  1.00  0.00     0.135 A 
ATOM     98  F   UNL A   1      50.077  27.168  27.399  1.00  0.00    -0.206 F 
ATOM     99  C   UNL A   1      51.283  26.912  25.403  1.00  0.00     0.059 A 
ATOM    100  C   UNL A   1      50.134  27.051  23.268  1.00  0.00     0.059 A 
ATOM    101  F   UNL A   1      47.832  27.488  23.212  1.00  0.00    -0.206 F 
ATOM    102  C   UNL A   1      51.304  26.879  24.007  1.00  0.00     0.060 A 
BRANCH 102 103
ATOM    103  S   UNL A   1      52.878  26.604  23.170  1.00  0.00     0.124 S 
ATOM    104  O   UNL A   1      53.523  27.904  23.325  1.00  0.00    -0.237 OA
ATOM    105  O   UNL A   1      53.459  25.512  23.945  1.00  0.00    -0.237 OA
ATOM    106  O   UNL A   1      52.484  26.257  21.808  1.00  0.00    -0.744 OA
ENDBRANCH 102 103
ENDBRANCH  70  95
ENDBRANCH  44  45
ENDBRANCH  37  39
ENDBRANCH  36  37
ENDBRANCH  35  36
ENDBRANCH  34  35
ENDBRANCH  33  34
ENDBRANCH  32  33
ENDBRANCH   1  32
TORSDOF 25
ENDMDL
