MODEL 1
REMARK VINA RESULT:      -9.4      0.000      0.000
REMARK SMILES C[N@@H+]1[C@@H]2CC[C@H]1c1sc(=O)n(CCCC(=O)OCCOCCOCCOCCOC(=O)c3ccc(-c4c5nc(c(-c6c(F)cc(S(=O)(=O)[O-])cc6F)c6ccc([nH]6)c(-c6c(F)cc(S(=O)(=O)[O-])cc6F)c6nc(c(-c7c(F)cc(S(=O)(=O)[O-])cc7F)c7ccc4[nH]7)C=C6)C=C5)cc3)c1C2
REMARK SMILES IDX 23 1 22 2 21 3 20 4 19 5 18 6 17 7 15 8 16 9 14 10 13 11
REMARK SMILES IDX 12 12 11 13 1 14 2 15 3 16 6 17 4 19 99 20 5 21 7 22 98 23
REMARK SMILES IDX 8 24 9 25 10 26 24 27 25 28 26 29 27 30 28 31 29 32 30 33
REMARK SMILES IDX 31 34 32 35 33 36 97 37 34 38 96 39 35 40 36 41 37 42 90 43
REMARK SMILES IDX 38 44 95 45 89 46 91 47 39 48 94 49 88 50 87 51 40 53 74 54
REMARK SMILES IDX 53 55 73 56 54 57 57 58 72 59 92 60 55 61 56 62 71 64 93 65
REMARK SMILES IDX 58 66 41 67 42 68 51 69 43 70 44 71 50 72 52 73 45 74 46 75
REMARK SMILES IDX 47 76 48 77 49 78 75 79 76 80 85 81 77 82 78 83 84 84 86 85
REMARK SMILES IDX 79 86 80 87 81 88 82 89 83 90 59 91 60 92 69 93 61 94 62 95
REMARK SMILES IDX 68 96 70 97 63 98 64 99 65 100 66 101 67 102
REMARK H PARENT 2 18 91 52 57 63
REMARK Flexibility Score: inf
ROOT
ATOM      1  O   UNL A   1      34.839  31.612  27.254  1.00  0.00    -0.377 OA
ENDROOT
BRANCH   1   2
ATOM      2  C   UNL A   1      35.106  30.312  27.734  1.00  0.00     0.188 C 
BRANCH   2   3
ATOM      3  C   UNL A   1      34.320  29.161  27.078  1.00  0.00     0.188 C 
BRANCH   3   4
ATOM      4  O   UNL A   1      33.603  29.361  25.869  1.00  0.00    -0.376 OA
BRANCH   4   5
ATOM      5  C   UNL A   1      33.566  28.359  24.865  1.00  0.00     0.202 C 
BRANCH   5   6
ATOM      6  C   UNL A   1      32.256  27.935  24.186  1.00  0.00     0.261 C 
BRANCH   6   7
ATOM      7  O   UNL A   1      31.111  27.907  25.042  1.00  0.00    -0.463 OA
BRANCH   7   8
ATOM      8  C   UNL A   1      31.111  27.033  26.070  1.00  0.00     0.305 C 
ATOM      9  O   UNL A   1      31.030  27.352  27.251  1.00  0.00    -0.252 OA
BRANCH   8  10
ATOM     10  C   UNL A   1      31.060  25.581  25.618  1.00  0.00     0.124 C 
BRANCH  10  11
ATOM     11  C   UNL A   1      31.475  24.400  26.519  1.00  0.00     0.034 C 
BRANCH  11  12
ATOM     12  C   UNL A   1      31.340  22.945  26.010  1.00  0.00     0.127 C 
BRANCH  12  13
ATOM     13  N   UNL A   1      32.266  22.706  24.922  1.00  0.00    -0.302 N 
ATOM     14  C   UNL A   1      37.232  23.686  26.120  1.00  0.00     0.333 C 
ATOM     15  N   UNL A   1      36.100  23.083  25.437  1.00  0.00    -0.328 N 
ATOM     16  C   UNL A   1      35.961  21.650  25.704  1.00  0.00     0.190 C 
ATOM     17  C   UNL A   1      35.777  23.331  23.992  1.00  0.00     0.227 C 
ATOM     18  H   UNL A   1      35.405  23.672  25.896  1.00  0.00     0.348 HD
ATOM     19  C   UNL A   1      36.950  21.364  24.432  1.00  0.00     0.072 C 
ATOM     20  C   UNL A   1      34.410  22.022  26.141  1.00  0.00     0.120 C 
ATOM     21  C   UNL A   1      37.024  22.612  23.520  1.00  0.00     0.077 C 
ATOM     22  C   UNL A   1      34.264  23.382  24.064  1.00  0.00     0.087 A 
ATOM     23  C   UNL A   1      33.622  22.811  25.100  1.00  0.00     0.047 A 
ATOM     24  S   UNL A   1      33.184  23.625  22.715  1.00  0.00    -0.073 S 
ATOM     25  C   UNL A   1      31.848  22.844  23.599  1.00  0.00     0.307 A 
ATOM     26  O   UNL A   1      30.778  22.584  23.119  1.00  0.00    -0.257 OA
ENDBRANCH  12  13
ENDBRANCH  11  12
ENDBRANCH  10  11
ENDBRANCH   8  10
ENDBRANCH   7   8
ENDBRANCH   6   7
ENDBRANCH   5   6
ENDBRANCH   4   5
ENDBRANCH   3   4
ENDBRANCH   2   3
ENDBRANCH   1   2
BRANCH   1  27
ATOM     27  C   UNL A   1      35.262  32.701  28.069  1.00  0.00     0.188 C 
BRANCH  27  28
ATOM     28  C   UNL A   1      34.229  33.466  28.935  1.00  0.00     0.188 C 
BRANCH  28  29
ATOM     29  O   UNL A   1      34.753  34.500  29.761  1.00  0.00    -0.376 OA
BRANCH  29  30
ATOM     30  C   UNL A   1      34.071  34.954  30.920  1.00  0.00     0.202 C 
BRANCH  30  31
ATOM     31  C   UNL A   1      34.083  34.057  32.158  1.00  0.00     0.261 C 
BRANCH  31  32
ATOM     32  O   UNL A   1      34.387  32.705  31.877  1.00  0.00    -0.460 OA
BRANCH  32  33
ATOM     33  C   UNL A   1      35.513  32.264  32.471  1.00  0.00     0.338 C 
ATOM     34  O   UNL A   1      35.811  32.357  33.649  1.00  0.00    -0.246 OA
BRANCH  33  35
ATOM     35  C   UNL A   1      36.410  31.754  31.438  1.00  0.00     0.060 A 
ATOM     36  C   UNL A   1      36.363  30.376  31.245  1.00  0.00     0.016 A 
ATOM     37  C   UNL A   1      37.511  32.543  31.074  1.00  0.00     0.016 A 
ATOM     38  C   UNL A   1      37.553  29.743  31.004  1.00  0.00     0.010 A 
ATOM     39  C   UNL A   1      38.699  31.907  30.850  1.00  0.00     0.010 A 
ATOM     40  C   UNL A   1      38.716  30.520  30.937  1.00  0.00    -0.014 A 
BRANCH  40  41
ATOM     41  C   UNL A   1      39.977  29.832  30.838  1.00  0.00     0.031 A 
ATOM     42  C   UNL A   1      40.570  29.657  32.175  1.00  0.00     0.074 A 
ATOM     43  C   UNL A   1      40.465  29.373  29.671  1.00  0.00     0.049 A 
ATOM     44  N   UNL A   1      41.506  30.368  32.705  1.00  0.00    -0.248 NA
ATOM     45  C   UNL A   1      39.853  28.798  33.133  1.00  0.00     0.031 C 
ATOM     46  C   UNL A   1      39.797  29.317  28.365  1.00  0.00     0.029 A 
ATOM     47  N   UNL A   1      41.664  28.781  29.423  1.00  0.00    -0.354 N 
ATOM     48  C   UNL A   1      41.692  29.820  33.966  1.00  0.00     0.074 A 
ATOM     49  C   UNL A   1      40.493  29.087  34.266  1.00  0.00     0.031 C 
ATOM     50  C   UNL A   1      40.513  28.531  27.526  1.00  0.00     0.029 A 
ATOM     51  C   UNL A   1      41.755  28.157  28.182  1.00  0.00     0.049 A 
ATOM     52  H   UNL A   1      42.406  28.793  30.070  1.00  0.00     0.167 HD
ATOM     53  C   UNL A   1      42.948  29.698  34.471  1.00  0.00     0.037 A 
ATOM     54  C   UNL A   1      42.781  27.374  27.761  1.00  0.00     0.037 A 
ATOM     55  C   UNL A   1      43.872  30.523  33.732  1.00  0.00     0.049 A 
ATOM     56  C   UNL A   1      43.960  27.743  28.584  1.00  0.00     0.074 A 
ATOM     57  C   UNL A   1      44.127  31.873  33.620  1.00  0.00     0.029 A 
ATOM     58  N   UNL A   1      44.405  29.911  32.625  1.00  0.00    -0.354 N 
ATOM     59  N   UNL A   1      44.535  28.912  28.518  1.00  0.00    -0.248 NA
ATOM     60  C   UNL A   1      44.272  26.963  29.778  1.00  0.00     0.031 C 
ATOM     61  C   UNL A   1      44.659  32.069  32.311  1.00  0.00     0.029 A 
ATOM     62  C   UNL A   1      44.758  30.832  31.674  1.00  0.00     0.049 A 
ATOM     63  H   UNL A   1      44.518  28.938  32.527  1.00  0.00     0.167 HD
ATOM     64  C   UNL A   1      44.928  29.182  29.816  1.00  0.00     0.074 A 
ATOM     65  C   UNL A   1      44.895  27.897  30.503  1.00  0.00     0.031 C 
ATOM     66  C   UNL A   1      44.935  30.463  30.286  1.00  0.00     0.037 A 
BRANCH  53  67
ATOM     67  C   UNL A   1      43.424  28.488  35.249  1.00  0.00     0.058 A 
ATOM     68  C   UNL A   1      44.042  28.685  36.500  1.00  0.00     0.135 A 
ATOM     69  C   UNL A   1      43.561  27.189  34.707  1.00  0.00     0.135 A 
ATOM     70  F   UNL A   1      43.992  29.883  37.105  1.00  0.00    -0.206 F 
ATOM     71  C   UNL A   1      44.785  27.686  37.133  1.00  0.00     0.059 A 
ATOM     72  C   UNL A   1      44.247  26.166  35.344  1.00  0.00     0.059 A 
ATOM     73  F   UNL A   1      43.124  26.859  33.487  1.00  0.00    -0.206 F 
ATOM     74  C   UNL A   1      44.889  26.431  36.539  1.00  0.00     0.060 A 
BRANCH  74  75
ATOM     75  S   UNL A   1      45.899  25.157  37.307  1.00  0.00     0.124 S 
ATOM     76  O   UNL A   1      45.880  25.572  38.704  1.00  0.00    -0.237 OA
ATOM     77  O   UNL A   1      45.152  23.946  36.984  1.00  0.00    -0.237 OA
ATOM     78  O   UNL A   1      47.184  25.293  36.625  1.00  0.00    -0.744 OA
ENDBRANCH  74  75
ENDBRANCH  53  67
BRANCH  54  79
ATOM     79  C   UNL A   1      42.769  26.162  26.902  1.00  0.00     0.058 A 
ATOM     80  C   UNL A   1      43.602  26.058  25.773  1.00  0.00     0.135 A 
ATOM     81  C   UNL A   1      42.179  24.967  27.352  1.00  0.00     0.135 A 
ATOM     82  F   UNL A   1      44.219  27.145  25.285  1.00  0.00    -0.206 F 
ATOM     83  C   UNL A   1      43.882  24.829  25.161  1.00  0.00     0.059 A 
ATOM     84  C   UNL A   1      42.441  23.731  26.758  1.00  0.00     0.059 A 
ATOM     85  F   UNL A   1      41.404  24.955  28.448  1.00  0.00    -0.206 F 
ATOM     86  C   UNL A   1      43.316  23.666  25.678  1.00  0.00     0.060 A 
BRANCH  86  87
ATOM     87  S   UNL A   1      43.822  22.059  25.011  1.00  0.00     0.124 S 
ATOM     88  O   UNL A   1      44.179  22.401  23.639  1.00  0.00    -0.237 OA
ATOM     89  O   UNL A   1      44.931  21.696  25.887  1.00  0.00    -0.237 OA
ATOM     90  O   UNL A   1      42.622  21.239  25.157  1.00  0.00    -0.744 OA
ENDBRANCH  86  87
ENDBRANCH  54  79
BRANCH  66  91
ATOM     91  C   UNL A   1      44.991  31.567  29.269  1.00  0.00     0.058 A 
ATOM     92  C   UNL A   1      46.154  31.989  28.603  1.00  0.00     0.135 A 
ATOM     93  C   UNL A   1      43.779  32.158  28.889  1.00  0.00     0.135 A 
ATOM     94  F   UNL A   1      47.339  31.418  28.858  1.00  0.00    -0.206 F 
ATOM     95  C   UNL A   1      46.113  32.977  27.616  1.00  0.00     0.059 A 
ATOM     96  C   UNL A   1      43.710  33.123  27.892  1.00  0.00     0.059 A 
ATOM     97  F   UNL A   1      42.630  31.759  29.460  1.00  0.00    -0.206 F 
ATOM     98  C   UNL A   1      44.883  33.537  27.266  1.00  0.00     0.060 A 
BRANCH  98  99
ATOM     99  S   UNL A   1      44.812  34.757  25.936  1.00  0.00     0.124 S 
ATOM    100  O   UNL A   1      44.991  36.012  26.658  1.00  0.00    -0.237 OA
ATOM    101  O   UNL A   1      45.922  34.354  25.077  1.00  0.00    -0.237 OA
ATOM    102  O   UNL A   1      43.486  34.553  25.358  1.00  0.00    -0.744 OA
ENDBRANCH  98  99
ENDBRANCH  66  91
ENDBRANCH  40  41
ENDBRANCH  33  35
ENDBRANCH  32  33
ENDBRANCH  31  32
ENDBRANCH  30  31
ENDBRANCH  29  30
ENDBRANCH  28  29
ENDBRANCH  27  28
ENDBRANCH   1  27
TORSDOF 26
ENDMDL
MODEL 2
REMARK VINA RESULT:      -9.2      1.717      2.298
REMARK SMILES C[N@@H+]1[C@@H]2CC[C@H]1c1sc(=O)n(CCCC(=O)OCCOCCOCCOCCOC(=O)c3ccc(-c4c5nc(c(-c6c(F)cc(S(=O)(=O)[O-])cc6F)c6ccc([nH]6)c(-c6c(F)cc(S(=O)(=O)[O-])cc6F)c6nc(c(-c7c(F)cc(S(=O)(=O)[O-])cc7F)c7ccc4[nH]7)C=C6)C=C5)cc3)c1C2
REMARK SMILES IDX 23 1 22 2 21 3 20 4 19 5 18 6 17 7 15 8 16 9 14 10 13 11
REMARK SMILES IDX 12 12 11 13 1 14 2 15 3 16 6 17 4 19 99 20 5 21 7 22 98 23
REMARK SMILES IDX 8 24 9 25 10 26 24 27 25 28 26 29 27 30 28 31 29 32 30 33
REMARK SMILES IDX 31 34 32 35 33 36 97 37 34 38 96 39 35 40 36 41 37 42 90 43
REMARK SMILES IDX 38 44 95 45 89 46 91 47 39 48 94 49 88 50 87 51 40 53 74 54
REMARK SMILES IDX 53 55 73 56 54 57 57 58 72 59 92 60 55 61 56 62 71 64 93 65
REMARK SMILES IDX 58 66 41 67 42 68 51 69 43 70 44 71 50 72 52 73 45 74 46 75
REMARK SMILES IDX 47 76 48 77 49 78 75 79 76 80 85 81 77 82 78 83 84 84 86 85
REMARK SMILES IDX 79 86 80 87 81 88 82 89 83 90 59 91 60 92 69 93 61 94 62 95
REMARK SMILES IDX 68 96 70 97 63 98 64 99 65 100 66 101 67 102
REMARK H PARENT 2 18 91 52 57 63
REMARK Flexibility Score: inf
ROOT
ATOM      1  O   UNL A   1      33.752  30.501  27.139  1.00  0.00    -0.377 OA
ENDROOT
BRANCH   1   2
ATOM      2  C   UNL A   1      34.372  29.233  27.116  1.00  0.00     0.188 C 
BRANCH   2   3
ATOM      3  C   UNL A   1      33.717  28.162  26.223  1.00  0.00     0.188 C 
BRANCH   3   4
ATOM      4  O   UNL A   1      32.486  28.415  25.561  1.00  0.00    -0.376 OA
BRANCH   4   5
ATOM      5  C   UNL A   1      32.214  27.859  24.285  1.00  0.00     0.202 C 
BRANCH   5   6
ATOM      6  C   UNL A   1      30.868  27.196  23.956  1.00  0.00     0.261 C 
BRANCH   6   7
ATOM      7  O   UNL A   1      30.148  26.696  25.084  1.00  0.00    -0.463 OA
BRANCH   7   8
ATOM      8  C   UNL A   1      30.587  25.558  25.661  1.00  0.00     0.305 C 
ATOM      9  O   UNL A   1      30.868  25.448  26.850  1.00  0.00    -0.252 OA
BRANCH   8  10
ATOM     10  C   UNL A   1      30.551  24.361  24.724  1.00  0.00     0.124 C 
BRANCH  10  11
ATOM     11  C   UNL A   1      31.688  23.322  24.635  1.00  0.00     0.034 C 
BRANCH  11  12
ATOM     12  C   UNL A   1      31.901  22.507  23.338  1.00  0.00     0.127 C 
BRANCH  12  13
ATOM     13  N   UNL A   1      33.089  21.685  23.450  1.00  0.00    -0.302 N 
ATOM     14  C   UNL A   1      32.173  16.876  25.210  1.00  0.00     0.333 C 
ATOM     15  N   UNL A   1      32.847  17.951  24.501  1.00  0.00    -0.328 N 
ATOM     16  C   UNL A   1      32.813  17.794  23.045  1.00  0.00     0.190 C 
ATOM     17  C   UNL A   1      34.198  18.479  24.890  1.00  0.00     0.227 C 
ATOM     18  H   UNL A   1      32.239  18.683  24.867  1.00  0.00     0.348 HD
ATOM     19  C   UNL A   1      34.194  16.923  23.153  1.00  0.00     0.072 C 
ATOM     20  C   UNL A   1      32.189  19.325  23.033  1.00  0.00     0.120 C 
ATOM     21  C   UNL A   1      34.889  17.185  24.511  1.00  0.00     0.077 C 
ATOM     22  C   UNL A   1      33.989  19.957  24.628  1.00  0.00     0.087 A 
ATOM     23  C   UNL A   1      33.012  20.360  23.795  1.00  0.00     0.047 A 
ATOM     24  S   UNL A   1      35.182  21.212  24.848  1.00  0.00    -0.073 S 
ATOM     25  C   UNL A   1      34.329  22.272  23.695  1.00  0.00     0.307 A 
ATOM     26  O   UNL A   1      34.753  23.324  23.302  1.00  0.00    -0.257 OA
ENDBRANCH  12  13
ENDBRANCH  11  12
ENDBRANCH  10  11
ENDBRANCH   8  10
ENDBRANCH   7   8
ENDBRANCH   6   7
ENDBRANCH   5   6
ENDBRANCH   4   5
ENDBRANCH   3   4
ENDBRANCH   2   3
ENDBRANCH   1   2
BRANCH   1  27
ATOM     27  C   UNL A   1      34.511  31.581  27.674  1.00  0.00     0.188 C 
BRANCH  27  28
ATOM     28  C   UNL A   1      34.270  32.047  29.133  1.00  0.00     0.188 C 
BRANCH  28  29
ATOM     29  O   UNL A   1      34.910  33.262  29.511  1.00  0.00    -0.376 OA
BRANCH  29  30
ATOM     30  C   UNL A   1      34.483  34.016  30.635  1.00  0.00     0.202 C 
BRANCH  30  31
ATOM     31  C   UNL A   1      34.761  33.450  32.028  1.00  0.00     0.261 C 
BRANCH  31  32
ATOM     32  O   UNL A   1      34.970  32.051  32.041  1.00  0.00    -0.460 OA
BRANCH  32  33
ATOM     33  C   UNL A   1      36.157  31.682  32.560  1.00  0.00     0.338 C 
ATOM     34  O   UNL A   1      36.552  31.859  33.698  1.00  0.00    -0.246 OA
BRANCH  33  35
ATOM     35  C   UNL A   1      36.979  31.132  31.485  1.00  0.00     0.060 A 
ATOM     36  C   UNL A   1      37.017  29.742  31.426  1.00  0.00     0.016 A 
ATOM     37  C   UNL A   1      37.973  31.952  30.931  1.00  0.00     0.016 A 
ATOM     38  C   UNL A   1      38.220  29.168  31.114  1.00  0.00     0.010 A 
ATOM     39  C   UNL A   1      39.177  31.376  30.637  1.00  0.00     0.010 A 
ATOM     40  C   UNL A   1      39.308  30.009  30.848  1.00  0.00    -0.014 A 
BRANCH  40  41
ATOM     41  C   UNL A   1      40.601  29.399  30.675  1.00  0.00     0.031 A 
ATOM     42  C   UNL A   1      41.330  29.372  31.953  1.00  0.00     0.074 A 
ATOM     43  C   UNL A   1      41.007  28.879  29.501  1.00  0.00     0.049 A 
ATOM     44  N   UNL A   1      42.258  30.185  32.332  1.00  0.00    -0.248 NA
ATOM     45  C   UNL A   1      40.772  28.550  33.040  1.00  0.00     0.031 C 
ATOM     46  C   UNL A   1      40.223  28.673  28.277  1.00  0.00     0.029 A 
ATOM     47  N   UNL A   1      42.217  28.349  29.179  1.00  0.00    -0.354 N 
ATOM     48  C   UNL A   1      42.602  29.754  33.605  1.00  0.00     0.074 A 
ATOM     49  C   UNL A   1      41.495  28.972  34.079  1.00  0.00     0.031 C 
ATOM     50  C   UNL A   1      40.911  27.870  27.431  1.00  0.00     0.029 A 
ATOM     51  C   UNL A   1      42.234  27.632  27.985  1.00  0.00     0.049 A 
ATOM     52  H   UNL A   1      43.015  28.462  29.745  1.00  0.00     0.167 HD
ATOM     53  C   UNL A   1      43.906  29.756  33.989  1.00  0.00     0.037 A 
ATOM     54  C   UNL A   1      43.271  26.886  27.522  1.00  0.00     0.037 A 
ATOM     55  C   UNL A   1      44.693  30.577  33.100  1.00  0.00     0.049 A 
ATOM     56  C   UNL A   1      44.492  27.397  28.192  1.00  0.00     0.074 A 
ATOM     57  C   UNL A   1      44.837  31.927  32.862  1.00  0.00     0.029 A 
ATOM     58  N   UNL A   1      45.161  29.913  31.994  1.00  0.00    -0.354 N 
ATOM     59  N   UNL A   1      44.972  28.592  27.981  1.00  0.00    -0.248 NA
ATOM     60  C   UNL A   1      44.973  26.740  29.403  1.00  0.00     0.031 C 
ATOM     61  C   UNL A   1      45.226  32.050  31.495  1.00  0.00     0.029 A 
ATOM     62  C   UNL A   1      45.354  30.774  30.947  1.00  0.00     0.049 A 
ATOM     63  H   UNL A   1      45.335  28.944  31.958  1.00  0.00     0.167 HD
ATOM     64  C   UNL A   1      45.466  28.992  29.209  1.00  0.00     0.074 A 
ATOM     65  C   UNL A   1      45.592  27.768  29.990  1.00  0.00     0.031 C 
ATOM     66  C   UNL A   1      45.424  30.305  29.579  1.00  0.00     0.037 A 
BRANCH  53  67
ATOM     67  C   UNL A   1      44.542  28.648  34.803  1.00  0.00     0.058 A 
ATOM     68  C   UNL A   1      44.619  27.356  34.248  1.00  0.00     0.135 A 
ATOM     69  C   UNL A   1      44.812  28.726  36.190  1.00  0.00     0.135 A 
ATOM     70  F   UNL A   1      44.366  27.157  32.944  1.00  0.00    -0.206 F 
ATOM     71  C   UNL A   1      44.888  26.224  35.021  1.00  0.00     0.059 A 
ATOM     72  C   UNL A   1      45.135  27.622  36.965  1.00  0.00     0.059 A 
ATOM     73  F   UNL A   1      44.685  29.854  36.894  1.00  0.00    -0.206 F 
ATOM     74  C   UNL A   1      45.135  26.369  36.383  1.00  0.00     0.060 A 
BRANCH  74  75
ATOM     75  S   UNL A   1      45.413  24.915  37.403  1.00  0.00     0.124 S 
ATOM     76  O   UNL A   1      44.128  24.236  37.301  1.00  0.00    -0.237 OA
ATOM     77  O   UNL A   1      46.535  24.279  36.720  1.00  0.00    -0.237 OA
ATOM     78  O   UNL A   1      45.726  25.480  38.713  1.00  0.00    -0.744 OA
ENDBRANCH  74  75
ENDBRANCH  53  67
BRANCH  54  79
ATOM     79  C   UNL A   1      43.265  25.611  26.762  1.00  0.00     0.058 A 
ATOM     80  C   UNL A   1      43.896  25.503  25.509  1.00  0.00     0.135 A 
ATOM     81  C   UNL A   1      42.920  24.399  27.391  1.00  0.00     0.135 A 
ATOM     82  F   UNL A   1      44.273  26.607  24.846  1.00  0.00    -0.206 F 
ATOM     83  C   UNL A   1      44.220  24.265  24.939  1.00  0.00     0.059 A 
ATOM     84  C   UNL A   1      43.232  23.154  26.842  1.00  0.00     0.059 A 
ATOM     85  F   UNL A   1      42.356  24.396  28.608  1.00  0.00    -0.206 F 
ATOM     86  C   UNL A   1      43.906  23.095  25.627  1.00  0.00     0.060 A 
BRANCH  86  87
ATOM     87  S   UNL A   1      44.490  21.504  24.985  1.00  0.00     0.124 S 
ATOM     88  O   UNL A   1      43.398  20.611  25.351  1.00  0.00    -0.237 OA
ATOM     89  O   UNL A   1      44.637  21.781  23.560  1.00  0.00    -0.237 OA
ATOM     90  O   UNL A   1      45.742  21.288  25.706  1.00  0.00    -0.744 OA
ENDBRANCH  86  87
ENDBRANCH  54  79
BRANCH  66  91
ATOM     91  C   UNL A   1      45.301  31.324  28.481  1.00  0.00     0.058 A 
ATOM     92  C   UNL A   1      46.334  31.683  27.598  1.00  0.00     0.135 A 
ATOM     93  C   UNL A   1      44.039  31.891  28.264  1.00  0.00     0.135 A 
ATOM     94  F   UNL A   1      47.549  31.125  27.697  1.00  0.00    -0.206 F 
ATOM     95  C   UNL A   1      46.122  32.589  26.557  1.00  0.00     0.059 A 
ATOM     96  C   UNL A   1      43.798  32.774  27.218  1.00  0.00     0.059 A 
ATOM     97  F   UNL A   1      43.005  31.548  29.049  1.00  0.00    -0.206 F 
ATOM     98  C   UNL A   1      44.847  33.128  26.373  1.00  0.00     0.060 A 
BRANCH  98  99
ATOM     99  S   UNL A   1      44.546  34.238  24.981  1.00  0.00     0.124 S 
ATOM    100  O   UNL A   1      45.662  35.172  25.085  1.00  0.00    -0.237 OA
ATOM    101  O   UNL A   1      44.583  33.329  23.838  1.00  0.00    -0.237 OA
ATOM    102  O   UNL A   1      43.230  34.801  25.273  1.00  0.00    -0.744 OA
ENDBRANCH  98  99
ENDBRANCH  66  91
ENDBRANCH  40  41
ENDBRANCH  33  35
ENDBRANCH  32  33
ENDBRANCH  31  32
ENDBRANCH  30  31
ENDBRANCH  29  30
ENDBRANCH  28  29
ENDBRANCH  27  28
ENDBRANCH   1  27
TORSDOF 26
ENDMDL
MODEL 3
REMARK VINA RESULT:      -9.1      1.870      3.433
REMARK SMILES C[N@@H+]1[C@@H]2CC[C@H]1c1sc(=O)n(CCCC(=O)OCCOCCOCCOCCOC(=O)c3ccc(-c4c5nc(c(-c6c(F)cc(S(=O)(=O)[O-])cc6F)c6ccc([nH]6)c(-c6c(F)cc(S(=O)(=O)[O-])cc6F)c6nc(c(-c7c(F)cc(S(=O)(=O)[O-])cc7F)c7ccc4[nH]7)C=C6)C=C5)cc3)c1C2
REMARK SMILES IDX 23 1 22 2 21 3 20 4 19 5 18 6 17 7 15 8 16 9 14 10 13 11
REMARK SMILES IDX 12 12 11 13 1 14 2 15 3 16 6 17 4 19 99 20 5 21 7 22 98 23
REMARK SMILES IDX 8 24 9 25 10 26 24 27 25 28 26 29 27 30 28 31 29 32 30 33
REMARK SMILES IDX 31 34 32 35 33 36 97 37 34 38 96 39 35 40 36 41 37 42 90 43
REMARK SMILES IDX 38 44 95 45 89 46 91 47 39 48 94 49 88 50 87 51 40 53 74 54
REMARK SMILES IDX 53 55 73 56 54 57 57 58 72 59 92 60 55 61 56 62 71 64 93 65
REMARK SMILES IDX 58 66 41 67 42 68 51 69 43 70 44 71 50 72 52 73 45 74 46 75
REMARK SMILES IDX 47 76 48 77 49 78 75 79 76 80 85 81 77 82 78 83 84 84 86 85
REMARK SMILES IDX 79 86 80 87 81 88 82 89 83 90 59 91 60 92 69 93 61 94 62 95
REMARK SMILES IDX 68 96 70 97 63 98 64 99 65 100 66 101 67 102
REMARK H PARENT 2 18 91 52 57 63
REMARK Flexibility Score: inf
ROOT
ATOM      1  O   UNL A   1      32.569  36.117  31.495  1.00  0.00    -0.377 OA
ENDROOT
BRANCH   1   2
ATOM      2  C   UNL A   1      33.018  36.686  30.284  1.00  0.00     0.188 C 
BRANCH   2   3
ATOM      3  C   UNL A   1      33.168  35.728  29.086  1.00  0.00     0.188 C 
BRANCH   3   4
ATOM      4  O   UNL A   1      34.198  34.750  29.058  1.00  0.00    -0.376 OA
BRANCH   4   5
ATOM      5  C   UNL A   1      34.232  33.752  28.049  1.00  0.00     0.202 C 
BRANCH   5   6
ATOM      6  C   UNL A   1      34.058  32.262  28.373  1.00  0.00     0.261 C 
BRANCH   6   7
ATOM      7  O   UNL A   1      34.204  31.379  27.258  1.00  0.00    -0.463 OA
BRANCH   7   8
ATOM      8  C   UNL A   1      33.170  30.566  26.956  1.00  0.00     0.305 C 
ATOM      9  O   UNL A   1      32.006  30.938  26.845  1.00  0.00    -0.252 OA
BRANCH   8  10
ATOM     10  C   UNL A   1      33.606  29.153  26.601  1.00  0.00     0.124 C 
BRANCH  10  11
ATOM     11  C   UNL A   1      32.822  27.894  27.026  1.00  0.00     0.034 C 
BRANCH  11  12
ATOM     12  C   UNL A   1      31.419  27.613  26.438  1.00  0.00     0.127 C 
BRANCH  12  13
ATOM     13  N   UNL A   1      31.536  27.046  25.109  1.00  0.00    -0.302 N 
ATOM     14  C   UNL A   1      34.657  22.893  24.851  1.00  0.00     0.333 C 
ATOM     15  N   UNL A   1      33.578  23.797  24.492  1.00  0.00    -0.328 N 
ATOM     16  C   UNL A   1      32.248  23.213  24.682  1.00  0.00     0.190 C 
ATOM     17  C   UNL A   1      33.565  24.611  23.230  1.00  0.00     0.227 C 
ATOM     18  H   UNL A   1      33.835  24.507  25.178  1.00  0.00     0.348 HD
ATOM     19  C   UNL A   1      32.340  22.628  23.157  1.00  0.00     0.072 C 
ATOM     20  C   UNL A   1      31.936  24.563  25.584  1.00  0.00     0.120 C 
ATOM     21  C   UNL A   1      33.432  23.379  22.358  1.00  0.00     0.077 C 
ATOM     22  C   UNL A   1      32.957  25.897  23.751  1.00  0.00     0.087 A 
ATOM     23  C   UNL A   1      32.233  25.886  24.885  1.00  0.00     0.047 A 
ATOM     24  S   UNL A   1      32.616  27.323  22.804  1.00  0.00    -0.073 S 
ATOM     25  C   UNL A   1      31.391  27.856  23.984  1.00  0.00     0.307 A 
ATOM     26  O   UNL A   1      30.660  28.796  23.824  1.00  0.00    -0.257 OA
ENDBRANCH  12  13
ENDBRANCH  11  12
ENDBRANCH  10  11
ENDBRANCH   8  10
ENDBRANCH   7   8
ENDBRANCH   6   7
ENDBRANCH   5   6
ENDBRANCH   4   5
ENDBRANCH   3   4
ENDBRANCH   2   3
ENDBRANCH   1   2
BRANCH   1  27
ATOM     27  C   UNL A   1      33.557  35.846  32.485  1.00  0.00     0.188 C 
BRANCH  27  28
ATOM     28  C   UNL A   1      33.900  34.379  32.853  1.00  0.00     0.188 C 
BRANCH  28  29
ATOM     29  O   UNL A   1      34.873  33.743  32.030  1.00  0.00    -0.376 OA
BRANCH  29  30
ATOM     30  C   UNL A   1      36.170  33.426  32.510  1.00  0.00     0.202 C 
BRANCH  30  31
ATOM     31  C   UNL A   1      36.372  32.076  33.199  1.00  0.00     0.261 C 
BRANCH  31  32
ATOM     32  O   UNL A   1      35.810  30.987  32.492  1.00  0.00    -0.460 OA
BRANCH  32  33
ATOM     33  C   UNL A   1      36.589  30.523  31.496  1.00  0.00     0.338 C 
ATOM     34  O   UNL A   1      36.339  30.518  30.305  1.00  0.00    -0.246 OA
BRANCH  33  35
ATOM     35  C   UNL A   1      37.763  29.887  32.088  1.00  0.00     0.060 A 
ATOM     36  C   UNL A   1      38.888  30.702  32.184  1.00  0.00     0.016 A 
ATOM     37  C   UNL A   1      37.828  28.486  32.080  1.00  0.00     0.016 A 
ATOM     38  C   UNL A   1      40.099  30.119  31.924  1.00  0.00     0.010 A 
ATOM     39  C   UNL A   1      39.037  27.910  31.805  1.00  0.00     0.010 A 
ATOM     40  C   UNL A   1      40.126  28.753  31.616  1.00  0.00    -0.014 A 
BRANCH  40  41
ATOM     41  C   UNL A   1      41.380  28.185  31.195  1.00  0.00     0.031 A 
ATOM     42  C   UNL A   1      42.329  28.149  32.320  1.00  0.00     0.074 A 
ATOM     43  C   UNL A   1      41.580  27.704  29.953  1.00  0.00     0.049 A 
ATOM     44  N   UNL A   1      43.291  28.979  32.548  1.00  0.00    -0.248 NA
ATOM     45  C   UNL A   1      41.998  27.285  33.466  1.00  0.00     0.031 C 
ATOM     46  C   UNL A   1      40.592  27.505  28.885  1.00  0.00     0.029 A 
ATOM     47  N   UNL A   1      42.724  27.218  29.403  1.00  0.00    -0.354 N 
ATOM     48  C   UNL A   1      43.870  28.528  33.726  1.00  0.00     0.074 A 
ATOM     49  C   UNL A   1      42.886  27.703  34.369  1.00  0.00     0.031 C 
ATOM     50  C   UNL A   1      41.136  26.742  27.907  1.00  0.00     0.029 A 
ATOM     51  C   UNL A   1      42.542  26.530  28.206  1.00  0.00     0.049 A 
ATOM     52  H   UNL A   1      43.608  27.340  29.819  1.00  0.00     0.167 HD
ATOM     53  C   UNL A   1      45.221  28.559  33.868  1.00  0.00     0.037 A 
ATOM     54  C   UNL A   1      43.495  25.826  27.543  1.00  0.00     0.037 A 
ATOM     55  C   UNL A   1      45.814  29.423  32.876  1.00  0.00     0.049 A 
ATOM     56  C   UNL A   1      44.805  26.356  27.996  1.00  0.00     0.074 A 
ATOM     57  C   UNL A   1      45.880  30.782  32.654  1.00  0.00     0.029 A 
ATOM     58  N   UNL A   1      46.090  28.799  31.684  1.00  0.00    -0.354 N 
ATOM     59  N   UNL A   1      45.209  27.569  27.736  1.00  0.00    -0.248 NA
ATOM     60  C   UNL A   1      45.513  25.685  29.081  1.00  0.00     0.031 C 
ATOM     61  C   UNL A   1      46.012  30.948  31.244  1.00  0.00     0.029 A 
ATOM     62  C   UNL A   1      46.069  29.690  30.645  1.00  0.00     0.049 A 
ATOM     63  H   UNL A   1      46.278  27.837  31.590  1.00  0.00     0.167 HD
ATOM     64  C   UNL A   1      45.908  27.954  28.865  1.00  0.00     0.074 A 
ATOM     65  C   UNL A   1      46.203  26.716  29.576  1.00  0.00     0.031 C 
ATOM     66  C   UNL A   1      45.902  29.256  29.274  1.00  0.00     0.037 A 
BRANCH  53  67
ATOM     67  C   UNL A   1      46.020  27.451  34.522  1.00  0.00     0.058 A 
ATOM     68  C   UNL A   1      45.972  26.158  33.964  1.00  0.00     0.135 A 
ATOM     69  C   UNL A   1      46.590  27.528  35.815  1.00  0.00     0.135 A 
ATOM     70  F   UNL A   1      45.439  25.960  32.748  1.00  0.00    -0.206 F 
ATOM     71  C   UNL A   1      46.405  25.026  34.659  1.00  0.00     0.059 A 
ATOM     72  C   UNL A   1      47.076  26.425  36.501  1.00  0.00     0.059 A 
ATOM     73  F   UNL A   1      46.622  28.657  36.530  1.00  0.00    -0.206 F 
ATOM     74  C   UNL A   1      46.946  25.172  35.933  1.00  0.00     0.060 A 
BRANCH  74  75
ATOM     75  S   UNL A   1      47.442  23.718  36.867  1.00  0.00     0.124 S 
ATOM     76  O   UNL A   1      48.647  24.196  37.534  1.00  0.00    -0.237 OA
ATOM     77  O   UNL A   1      46.279  23.497  37.719  1.00  0.00    -0.237 OA
ATOM     78  O   UNL A   1      47.652  22.709  35.831  1.00  0.00    -0.744 OA
ENDBRANCH  74  75
ENDBRANCH  53  67
BRANCH  54  79
ATOM     79  C   UNL A   1      43.383  24.569  26.760  1.00  0.00     0.058 A 
ATOM     80  C   UNL A   1      43.898  24.472  25.454  1.00  0.00     0.135 A 
ATOM     81  C   UNL A   1      43.057  23.354  27.392  1.00  0.00     0.135 A 
ATOM     82  F   UNL A   1      44.251  25.579  24.783  1.00  0.00    -0.206 F 
ATOM     83  C   UNL A   1      44.132  23.239  24.832  1.00  0.00     0.059 A 
ATOM     84  C   UNL A   1      43.280  22.114  26.791  1.00  0.00     0.059 A 
ATOM     85  F   UNL A   1      42.601  23.339  28.653  1.00  0.00    -0.206 F 
ATOM     86  C   UNL A   1      43.843  22.062  25.521  1.00  0.00     0.060 A 
BRANCH  86  87
ATOM     87  S   UNL A   1      44.319  20.471  24.798  1.00  0.00     0.124 S 
ATOM     88  O   UNL A   1      45.525  20.145  25.550  1.00  0.00    -0.237 OA
ATOM     89  O   UNL A   1      43.150  19.643  25.077  1.00  0.00    -0.237 OA
ATOM     90  O   UNL A   1      44.530  20.790  23.388  1.00  0.00    -0.744 OA
ENDBRANCH  86  87
ENDBRANCH  54  79
BRANCH  66  91
ATOM     91  C   UNL A   1      45.558  30.296  28.246  1.00  0.00     0.058 A 
ATOM     92  C   UNL A   1      44.259  30.755  27.969  1.00  0.00     0.135 A 
ATOM     93  C   UNL A   1      46.620  30.922  27.579  1.00  0.00     0.135 A 
ATOM     94  F   UNL A   1      43.199  30.258  28.622  1.00  0.00    -0.206 F 
ATOM     95  C   UNL A   1      44.027  31.778  27.046  1.00  0.00     0.059 A 
ATOM     96  C   UNL A   1      46.415  31.959  26.677  1.00  0.00     0.059 A 
ATOM     97  F   UNL A   1      47.885  30.554  27.840  1.00  0.00    -0.206 F 
ATOM     98  C   UNL A   1      45.115  32.376  26.407  1.00  0.00     0.060 A 
BRANCH  98  99
ATOM     99  S   UNL A   1      44.828  33.753  25.273  1.00  0.00     0.124 S 
ATOM    100  O   UNL A   1      46.183  34.220  25.006  1.00  0.00    -0.237 OA
ATOM    101  O   UNL A   1      44.147  33.105  24.155  1.00  0.00    -0.237 OA
ATOM    102  O   UNL A   1      43.994  34.665  26.052  1.00  0.00    -0.744 OA
ENDBRANCH  98  99
ENDBRANCH  66  91
ENDBRANCH  40  41
ENDBRANCH  33  35
ENDBRANCH  32  33
ENDBRANCH  31  32
ENDBRANCH  30  31
ENDBRANCH  29  30
ENDBRANCH  28  29
ENDBRANCH  27  28
ENDBRANCH   1  27
TORSDOF 26
ENDMDL
