MODEL 1
REMARK VINA RESULT:     -10.5      0.000      0.000
REMARK SMILES Cc1ccccc1O[C@@H](C)C(=O)Oc1ccccc1C(=O)OCCOCCOCCOCCOC(=O)c1ccc(-c2c3nc(c(-c4c(F)cc(S(=O)(=O)[O-])cc4F)c4ccc([nH]4)c(-c4c(F)cc(S(=O)(=O)[O-])cc4F)c4nc(c(-c5c(F)cc(S(=O)(=O)[O-])cc5F)c5ccc2[nH]5)C=C4)C=C3)cc1
REMARK SMILES IDX 27 1 26 2 25 3 24 4 23 5 22 6 20 7 21 8 19 9 14 10 15 11
REMARK SMILES IDX 16 12 18 13 17 14 13 15 11 16 12 17 9 18 10 19 8 20 7 21
REMARK SMILES IDX 1 22 2 23 3 24 4 25 6 26 5 27 28 28 29 29 30 30 31 31 32 32
REMARK SMILES IDX 33 33 34 34 35 35 36 36 37 37 38 38 102 39 39 40 101 41
REMARK SMILES IDX 40 42 41 43 42 44 95 45 43 46 100 47 94 48 96 49 44 50 99 51
REMARK SMILES IDX 93 52 92 53 45 55 79 56 58 57 78 58 59 59 62 60 77 61 97 62
REMARK SMILES IDX 60 63 61 64 76 66 98 67 63 68 46 69 47 70 56 71 48 72 49 73
REMARK SMILES IDX 55 74 57 75 50 76 51 77 52 78 53 79 54 80 80 81 81 82 90 83
REMARK SMILES IDX 82 84 83 85 89 86 91 87 84 88 85 89 86 90 87 91 88 92 64 93
REMARK SMILES IDX 65 94 74 95 66 96 67 97 73 98 75 99 68 100 69 101 70 102
REMARK SMILES IDX 71 103 72 104
REMARK H PARENT 96 54 62 65
REMARK Flexibility Score: inf
ROOT
ATOM      1  C   UNL A   1      33.450  26.358  23.101  1.00  0.00     0.188 C 
ENDROOT
BRANCH   1   2
ATOM      2  C   UNL A   1      34.004  26.992  24.384  1.00  0.00     0.188 C 
BRANCH   2   3
ATOM      3  O   UNL A   1      34.082  26.337  25.641  1.00  0.00    -0.376 OA
BRANCH   3   4
ATOM      4  C   UNL A   1      33.079  25.394  25.979  1.00  0.00     0.202 C 
BRANCH   4   5
ATOM      5  C   UNL A   1      33.399  23.914  26.095  1.00  0.00     0.261 C 
BRANCH   5   6
ATOM      6  O   UNL A   1      33.087  23.158  24.967  1.00  0.00    -0.460 OA
BRANCH   6   7
ATOM      7  C   UNL A   1      34.097  22.792  24.176  1.00  0.00     0.342 C 
ATOM      8  O   UNL A   1      35.033  23.390  23.691  1.00  0.00    -0.246 OA
BRANCH   7   9
ATOM      9  C   UNL A   1      33.809  21.387  24.060  1.00  0.00     0.102 A 
ATOM     10  C   UNL A   1      34.586  20.512  24.831  1.00  0.00     0.145 A 
ATOM     11  C   UNL A   1      34.207  19.185  24.906  1.00  0.00     0.048 A 
ATOM     12  C   UNL A   1      33.022  18.780  24.254  1.00  0.00     0.004 A 
ATOM     13  C   UNL A   1      32.610  21.014  23.453  1.00  0.00     0.019 A 
ATOM     14  C   UNL A   1      32.214  19.691  23.554  1.00  0.00     0.001 A 
BRANCH  10  15
ATOM     15  O   UNL A   1      35.673  21.117  25.552  1.00  0.00    -0.423 OA
BRANCH  15  16
ATOM     16  C   UNL A   1      37.049  20.949  25.329  1.00  0.00     0.352 C 
ATOM     17  O   UNL A   1      37.517  20.001  24.696  1.00  0.00    -0.247 OA
BRANCH  16  18
ATOM     18  C   UNL A   1      37.939  22.125  25.914  1.00  0.00     0.280 C 
ATOM     19  C   UNL A   1      37.386  23.540  26.088  1.00  0.00     0.066 C 
BRANCH  18  20
ATOM     20  O   UNL A   1      39.254  22.326  25.392  1.00  0.00    -0.479 OA
BRANCH  20  21
ATOM     21  C   UNL A   1      40.217  22.222  26.349  1.00  0.00     0.123 A 
ATOM     22  C   UNL A   1      40.554  19.660  26.166  1.00  0.00     0.048 C 
ATOM     23  C   UNL A   1      40.784  21.014  26.788  1.00  0.00    -0.009 A 
ATOM     24  C   UNL A   1      41.664  21.075  27.876  1.00  0.00     0.007 A 
ATOM     25  C   UNL A   1      41.990  22.293  28.474  1.00  0.00     0.001 A 
ATOM     26  C   UNL A   1      40.575  23.446  26.917  1.00  0.00     0.047 A 
ATOM     27  C   UNL A   1      41.461  23.483  27.984  1.00  0.00     0.004 A 
ENDBRANCH  20  21
ENDBRANCH  18  20
ENDBRANCH  16  18
ENDBRANCH  15  16
ENDBRANCH  10  15
ENDBRANCH   7   9
ENDBRANCH   6   7
ENDBRANCH   5   6
ENDBRANCH   4   5
ENDBRANCH   3   4
ENDBRANCH   2   3
ENDBRANCH   1   2
BRANCH   1  28
ATOM     28  O   UNL A   1      32.440  27.107  22.464  1.00  0.00    -0.377 OA
BRANCH  28  29
ATOM     29  C   UNL A   1      32.401  28.508  22.734  1.00  0.00     0.188 C 
BRANCH  29  30
ATOM     30  C   UNL A   1      31.055  29.245  22.648  1.00  0.00     0.188 C 
BRANCH  30  31
ATOM     31  O   UNL A   1      30.337  29.224  23.876  1.00  0.00    -0.376 OA
BRANCH  31  32
ATOM     32  C   UNL A   1      31.096  28.968  25.054  1.00  0.00     0.202 C 
BRANCH  32  33
ATOM     33  C   UNL A   1      31.670  30.235  25.683  1.00  0.00     0.261 C 
BRANCH  33  34
ATOM     34  O   UNL A   1      32.642  29.871  26.680  1.00  0.00    -0.460 OA
BRANCH  34  35
ATOM     35  C   UNL A   1      33.292  30.934  27.236  1.00  0.00     0.338 C 
ATOM     36  O   UNL A   1      32.753  31.997  27.485  1.00  0.00    -0.246 OA
BRANCH  35  37
ATOM     37  C   UNL A   1      34.744  30.622  27.406  1.00  0.00     0.060 A 
ATOM     38  C   UNL A   1      35.213  29.305  27.315  1.00  0.00     0.016 A 
ATOM     39  C   UNL A   1      35.606  31.606  27.865  1.00  0.00     0.016 A 
ATOM     40  C   UNL A   1      36.469  28.942  27.855  1.00  0.00     0.010 A 
ATOM     41  C   UNL A   1      36.831  31.239  28.400  1.00  0.00     0.010 A 
ATOM     42  C   UNL A   1      37.265  29.898  28.481  1.00  0.00    -0.014 A 
BRANCH  42  43
ATOM     43  C   UNL A   1      38.456  29.654  29.351  1.00  0.00     0.031 A 
ATOM     44  C   UNL A   1      39.350  28.488  28.991  1.00  0.00     0.074 A 
ATOM     45  C   UNL A   1      38.964  30.591  30.208  1.00  0.00     0.049 A 
ATOM     46  N   UNL A   1      40.616  28.475  29.202  1.00  0.00    -0.248 NA
ATOM     47  C   UNL A   1      38.939  27.292  28.255  1.00  0.00     0.031 C 
ATOM     48  C   UNL A   1      40.371  30.674  30.632  1.00  0.00     0.029 A 
ATOM     49  N   UNL A   1      38.458  31.756  30.776  1.00  0.00    -0.354 N 
ATOM     50  C   UNL A   1      41.214  27.403  28.611  1.00  0.00     0.074 A 
ATOM     51  C   UNL A   1      40.123  26.718  27.966  1.00  0.00     0.031 C 
ATOM     52  C   UNL A   1      40.639  31.790  31.320  1.00  0.00     0.029 A 
ATOM     53  C   UNL A   1      39.363  32.277  31.733  1.00  0.00     0.049 A 
ATOM     54  H   UNL A   1      37.591  32.161  30.545  1.00  0.00     0.167 HD
ATOM     55  C   UNL A   1      42.570  27.305  28.743  1.00  0.00     0.037 A 
ATOM     56  C   UNL A   1      39.075  32.295  33.072  1.00  0.00     0.037 A 
ATOM     57  C   UNL A   1      43.029  28.118  29.890  1.00  0.00     0.049 A 
ATOM     58  C   UNL A   1      39.938  31.267  33.821  1.00  0.00     0.074 A 
ATOM     59  C   UNL A   1      43.872  29.199  30.057  1.00  0.00     0.029 A 
ATOM     60  N   UNL A   1      42.426  27.911  31.139  1.00  0.00    -0.354 N 
ATOM     61  N   UNL A   1      40.345  30.139  33.277  1.00  0.00    -0.248 NA
ATOM     62  C   UNL A   1      40.633  31.534  35.084  1.00  0.00     0.031 C 
ATOM     63  C   UNL A   1      43.702  29.693  31.389  1.00  0.00     0.029 A 
ATOM     64  C   UNL A   1      42.777  28.893  32.050  1.00  0.00     0.049 A 
ATOM     65  H   UNL A   1      41.824  27.160  31.344  1.00  0.00     0.167 HD
ATOM     66  C   UNL A   1      41.447  29.673  33.950  1.00  0.00     0.074 A 
ATOM     67  C   UNL A   1      41.526  30.524  35.129  1.00  0.00     0.031 C 
ATOM     68  C   UNL A   1      42.384  28.799  33.454  1.00  0.00     0.037 A 
BRANCH  55  69
ATOM     69  C   UNL A   1      43.525  26.532  27.843  1.00  0.00     0.058 A 
ATOM     70  C   UNL A   1      43.421  26.620  26.432  1.00  0.00     0.135 A 
ATOM     71  C   UNL A   1      44.477  25.590  28.290  1.00  0.00     0.135 A 
ATOM     72  F   UNL A   1      42.541  27.443  25.846  1.00  0.00    -0.206 F 
ATOM     73  C   UNL A   1      44.195  25.856  25.549  1.00  0.00     0.059 A 
ATOM     74  C   UNL A   1      45.290  24.840  27.425  1.00  0.00     0.059 A 
ATOM     75  F   UNL A   1      44.636  25.313  29.589  1.00  0.00    -0.206 F 
ATOM     76  C   UNL A   1      45.137  24.972  26.053  1.00  0.00     0.060 A 
BRANCH  76  77
ATOM     77  S   UNL A   1      46.147  24.019  24.899  1.00  0.00     0.124 S 
ATOM     78  O   UNL A   1      47.073  25.025  24.391  1.00  0.00    -0.237 OA
ATOM     79  O   UNL A   1      46.733  23.002  25.768  1.00  0.00    -0.237 OA
ATOM     80  O   UNL A   1      45.177  23.517  23.930  1.00  0.00    -0.744 OA
ENDBRANCH  76  77
ENDBRANCH  55  69
BRANCH  56  81
ATOM     81  C   UNL A   1      37.694  32.823  33.276  1.00  0.00     0.058 A 
ATOM     82  C   UNL A   1      37.570  34.210  33.013  1.00  0.00     0.135 A 
ATOM     83  C   UNL A   1      36.599  32.011  32.936  1.00  0.00     0.135 A 
ATOM     84  F   UNL A   1      38.574  35.044  33.340  1.00  0.00    -0.206 F 
ATOM     85  C   UNL A   1      36.552  34.715  32.207  1.00  0.00     0.059 A 
ATOM     86  C   UNL A   1      35.563  32.503  32.132  1.00  0.00     0.059 A 
ATOM     87  F   UNL A   1      36.653  30.688  33.158  1.00  0.00    -0.206 F 
ATOM     88  C   UNL A   1      35.593  33.837  31.711  1.00  0.00     0.060 A 
BRANCH  88  89
ATOM     89  S   UNL A   1      34.551  34.406  30.341  1.00  0.00     0.124 S 
ATOM     90  O   UNL A   1      33.985  35.635  30.878  1.00  0.00    -0.237 OA
ATOM     91  O   UNL A   1      35.529  34.572  29.268  1.00  0.00    -0.237 OA
ATOM     92  O   UNL A   1      33.615  33.303  30.158  1.00  0.00    -0.744 OA
ENDBRANCH  88  89
ENDBRANCH  56  81
BRANCH  68  93
ATOM     93  C   UNL A   1      43.080  27.755  34.308  1.00  0.00     0.058 A 
ATOM     94  C   UNL A   1      42.460  26.565  34.716  1.00  0.00     0.135 A 
ATOM     95  C   UNL A   1      44.481  27.823  34.545  1.00  0.00     0.135 A 
ATOM     96  F   UNL A   1      41.158  26.335  34.491  1.00  0.00    -0.206 F 
ATOM     97  C   UNL A   1      43.163  25.533  35.336  1.00  0.00     0.059 A 
ATOM     98  C   UNL A   1      45.209  26.784  35.110  1.00  0.00     0.059 A 
ATOM     99  F   UNL A   1      45.215  28.891  34.204  1.00  0.00    -0.206 F 
ATOM    100  C   UNL A   1      44.537  25.647  35.519  1.00  0.00     0.060 A 
BRANCH 100 101
ATOM    101  S   UNL A   1      45.433  24.280  36.263  1.00  0.00     0.124 S 
ATOM    102  O   UNL A   1      44.421  23.229  36.241  1.00  0.00    -0.237 OA
ATOM    103  O   UNL A   1      46.551  24.099  35.342  1.00  0.00    -0.237 OA
ATOM    104  O   UNL A   1      45.793  24.783  37.584  1.00  0.00    -0.744 OA
ENDBRANCH 100 101
ENDBRANCH  68  93
ENDBRANCH  42  43
ENDBRANCH  35  37
ENDBRANCH  34  35
ENDBRANCH  33  34
ENDBRANCH  32  33
ENDBRANCH  31  32
ENDBRANCH  30  31
ENDBRANCH  29  30
ENDBRANCH  28  29
ENDBRANCH   1  28
TORSDOF 28
ENDMDL
MODEL 2
REMARK VINA RESULT:      -9.1      4.932     11.593
REMARK SMILES Cc1ccccc1O[C@@H](C)C(=O)Oc1ccccc1C(=O)OCCOCCOCCOCCOC(=O)c1ccc(-c2c3nc(c(-c4c(F)cc(S(=O)(=O)[O-])cc4F)c4ccc([nH]4)c(-c4c(F)cc(S(=O)(=O)[O-])cc4F)c4nc(c(-c5c(F)cc(S(=O)(=O)[O-])cc5F)c5ccc2[nH]5)C=C4)C=C3)cc1
REMARK SMILES IDX 27 1 26 2 25 3 24 4 23 5 22 6 20 7 21 8 19 9 14 10 15 11
REMARK SMILES IDX 16 12 18 13 17 14 13 15 11 16 12 17 9 18 10 19 8 20 7 21
REMARK SMILES IDX 1 22 2 23 3 24 4 25 6 26 5 27 28 28 29 29 30 30 31 31 32 32
REMARK SMILES IDX 33 33 34 34 35 35 36 36 37 37 38 38 102 39 39 40 101 41
REMARK SMILES IDX 40 42 41 43 42 44 95 45 43 46 100 47 94 48 96 49 44 50 99 51
REMARK SMILES IDX 93 52 92 53 45 55 79 56 58 57 78 58 59 59 62 60 77 61 97 62
REMARK SMILES IDX 60 63 61 64 76 66 98 67 63 68 46 69 47 70 56 71 48 72 49 73
REMARK SMILES IDX 55 74 57 75 50 76 51 77 52 78 53 79 54 80 80 81 81 82 90 83
REMARK SMILES IDX 82 84 83 85 89 86 91 87 84 88 85 89 86 90 87 91 88 92 64 93
REMARK SMILES IDX 65 94 74 95 66 96 67 97 73 98 75 99 68 100 69 101 70 102
REMARK SMILES IDX 71 103 72 104
REMARK H PARENT 96 54 62 65
REMARK Flexibility Score: inf
ROOT
ATOM      1  C   UNL A   1      41.232  22.767  26.627  1.00  0.00     0.188 C 
ENDROOT
BRANCH   1   2
ATOM      2  C   UNL A   1      40.348  24.011  26.788  1.00  0.00     0.188 C 
BRANCH   2   3
ATOM      3  O   UNL A   1      39.029  24.003  27.311  1.00  0.00    -0.376 OA
BRANCH   3   4
ATOM      4  C   UNL A   1      37.940  24.096  26.408  1.00  0.00     0.202 C 
BRANCH   4   5
ATOM      5  C   UNL A   1      37.406  22.870  25.691  1.00  0.00     0.261 C 
BRANCH   5   6
ATOM      6  O   UNL A   1      36.030  22.872  25.474  1.00  0.00    -0.460 OA
BRANCH   6   7
ATOM      7  C   UNL A   1      35.606  22.677  24.224  1.00  0.00     0.342 C 
ATOM      8  O   UNL A   1      35.908  23.167  23.157  1.00  0.00    -0.246 OA
BRANCH   7   9
ATOM      9  C   UNL A   1      34.651  21.626  24.459  1.00  0.00     0.102 A 
ATOM     10  C   UNL A   1      33.326  21.873  24.076  1.00  0.00     0.145 A 
ATOM     11  C   UNL A   1      32.428  20.822  24.092  1.00  0.00     0.048 A 
ATOM     12  C   UNL A   1      32.897  19.535  24.436  1.00  0.00     0.004 A 
ATOM     13  C   UNL A   1      35.140  20.353  24.751  1.00  0.00     0.019 A 
ATOM     14  C   UNL A   1      34.247  19.295  24.738  1.00  0.00     0.001 A 
BRANCH  10  15
ATOM     15  O   UNL A   1      33.051  23.204  23.609  1.00  0.00    -0.423 OA
BRANCH  15  16
ATOM     16  C   UNL A   1      31.946  24.012  23.922  1.00  0.00     0.352 C 
ATOM     17  O   UNL A   1      30.850  23.895  23.368  1.00  0.00    -0.247 OA
BRANCH  16  18
ATOM     18  C   UNL A   1      32.220  25.045  25.094  1.00  0.00     0.280 C 
ATOM     19  C   UNL A   1      32.933  24.629  26.381  1.00  0.00     0.066 C 
BRANCH  18  20
ATOM     20  O   UNL A   1      31.156  25.886  25.541  1.00  0.00    -0.479 OA
BRANCH  20  21
ATOM     21  C   UNL A   1      31.494  27.205  25.536  1.00  0.00     0.123 A 
ATOM     22  C   UNL A   1      31.837  27.424  22.978  1.00  0.00     0.048 C 
ATOM     23  C   UNL A   1      31.887  27.928  24.397  1.00  0.00    -0.009 A 
ATOM     24  C   UNL A   1      32.333  29.242  24.593  1.00  0.00     0.007 A 
ATOM     25  C   UNL A   1      32.350  29.818  25.864  1.00  0.00     0.001 A 
ATOM     26  C   UNL A   1      31.469  27.793  26.803  1.00  0.00     0.047 A 
ATOM     27  C   UNL A   1      31.901  29.101  26.969  1.00  0.00     0.004 A 
ENDBRANCH  20  21
ENDBRANCH  18  20
ENDBRANCH  16  18
ENDBRANCH  15  16
ENDBRANCH  10  15
ENDBRANCH   7   9
ENDBRANCH   6   7
ENDBRANCH   5   6
ENDBRANCH   4   5
ENDBRANCH   3   4
ENDBRANCH   2   3
ENDBRANCH   1   2
BRANCH   1  28
ATOM     28  O   UNL A   1      40.632  21.710  25.912  1.00  0.00    -0.377 OA
BRANCH  28  29
ATOM     29  C   UNL A   1      40.749  20.401  26.469  1.00  0.00     0.188 C 
BRANCH  29  30
ATOM     30  C   UNL A   1      41.822  20.139  27.538  1.00  0.00     0.188 C 
BRANCH  30  31
ATOM     31  O   UNL A   1      42.512  18.912  27.334  1.00  0.00    -0.376 OA
BRANCH  31  32
ATOM     32  C   UNL A   1      42.631  18.462  25.988  1.00  0.00     0.202 C 
BRANCH  32  33
ATOM     33  C   UNL A   1      44.060  18.536  25.455  1.00  0.00     0.261 C 
BRANCH  33  34
ATOM     34  O   UNL A   1      44.180  19.671  24.579  1.00  0.00    -0.460 OA
BRANCH  34  35
ATOM     35  C   UNL A   1      45.439  20.193  24.516  1.00  0.00     0.338 C 
ATOM     36  O   UNL A   1      46.406  19.570  24.111  1.00  0.00    -0.246 OA
BRANCH  35  37
ATOM     37  C   UNL A   1      45.457  21.575  25.081  1.00  0.00     0.060 A 
ATOM     38  C   UNL A   1      46.114  22.618  24.414  1.00  0.00     0.016 A 
ATOM     39  C   UNL A   1      45.005  21.793  26.374  1.00  0.00     0.016 A 
ATOM     40  C   UNL A   1      46.483  23.800  25.097  1.00  0.00     0.010 A 
ATOM     41  C   UNL A   1      45.380  22.951  27.037  1.00  0.00     0.010 A 
ATOM     42  C   UNL A   1      46.188  23.948  26.450  1.00  0.00    -0.014 A 
BRANCH  42  43
ATOM     43  C   UNL A   1      46.743  24.968  27.391  1.00  0.00     0.031 A 
ATOM     44  C   UNL A   1      45.792  25.568  28.403  1.00  0.00     0.074 A 
ATOM     45  C   UNL A   1      48.083  25.131  27.617  1.00  0.00     0.049 A 
ATOM     46  N   UNL A   1      46.155  25.953  29.572  1.00  0.00    -0.248 NA
ATOM     47  C   UNL A   1      44.341  25.675  28.253  1.00  0.00     0.031 C 
ATOM     48  C   UNL A   1      48.673  25.644  28.863  1.00  0.00     0.029 A 
ATOM     49  N   UNL A   1      49.231  24.758  26.926  1.00  0.00    -0.354 N 
ATOM     50  C   UNL A   1      45.083  26.267  30.354  1.00  0.00     0.074 A 
ATOM     51  C   UNL A   1      43.952  26.012  29.498  1.00  0.00     0.031 C 
ATOM     52  C   UNL A   1      50.005  25.525  28.893  1.00  0.00     0.029 A 
ATOM     53  C   UNL A   1      50.381  25.323  27.531  1.00  0.00     0.049 A 
ATOM     54  H   UNL A   1      49.243  24.182  26.128  1.00  0.00     0.167 HD
ATOM     55  C   UNL A   1      45.350  26.660  31.635  1.00  0.00     0.037 A 
ATOM     56  C   UNL A   1      51.129  26.288  26.910  1.00  0.00     0.037 A 
ATOM     57  C   UNL A   1      46.752  27.112  31.745  1.00  0.00     0.049 A 
ATOM     58  C   UNL A   1      50.935  27.646  27.604  1.00  0.00     0.074 A 
ATOM     59  C   UNL A   1      47.863  26.714  32.464  1.00  0.00     0.029 A 
ATOM     60  N   UNL A   1      47.211  28.095  30.855  1.00  0.00    -0.354 N 
ATOM     61  N   UNL A   1      49.810  27.997  28.192  1.00  0.00    -0.248 NA
ATOM     62  C   UNL A   1      52.025  28.566  27.941  1.00  0.00     0.031 C 
ATOM     63  C   UNL A   1      49.003  27.399  31.936  1.00  0.00     0.029 A 
ATOM     64  C   UNL A   1      48.585  28.244  30.914  1.00  0.00     0.049 A 
ATOM     65  H   UNL A   1      46.625  28.615  30.259  1.00  0.00     0.167 HD
ATOM     66  C   UNL A   1      50.057  28.989  29.107  1.00  0.00     0.074 A 
ATOM     67  C   UNL A   1      51.436  29.379  28.841  1.00  0.00     0.031 C 
ATOM     68  C   UNL A   1      49.264  29.311  30.182  1.00  0.00     0.037 A 
BRANCH  55  69
ATOM     69  C   UNL A   1      44.399  26.612  32.824  1.00  0.00     0.058 A 
ATOM     70  C   UNL A   1      43.963  27.807  33.450  1.00  0.00     0.135 A 
ATOM     71  C   UNL A   1      43.980  25.435  33.481  1.00  0.00     0.135 A 
ATOM     72  F   UNL A   1      44.303  29.012  32.971  1.00  0.00    -0.206 F 
ATOM     73  C   UNL A   1      43.177  27.832  34.609  1.00  0.00     0.059 A 
ATOM     74  C   UNL A   1      43.162  25.434  34.621  1.00  0.00     0.059 A 
ATOM     75  F   UNL A   1      44.381  24.224  33.078  1.00  0.00    -0.206 F 
ATOM     76  C   UNL A   1      42.770  26.638  35.186  1.00  0.00     0.060 A 
BRANCH  76  77
ATOM     77  S   UNL A   1      41.731  26.690  36.662  1.00  0.00     0.124 S 
ATOM     78  O   UNL A   1      40.820  25.573  36.441  1.00  0.00    -0.237 OA
ATOM     79  O   UNL A   1      42.706  26.508  37.733  1.00  0.00    -0.237 OA
ATOM     80  O   UNL A   1      41.119  28.015  36.603  1.00  0.00    -0.744 OA
ENDBRANCH  76  77
ENDBRANCH  55  69
BRANCH  56  81
ATOM     81  C   UNL A   1      51.393  25.882  25.499  1.00  0.00     0.058 A 
ATOM     82  C   UNL A   1      50.865  26.783  24.540  1.00  0.00     0.135 A 
ATOM     83  C   UNL A   1      52.616  25.265  25.187  1.00  0.00     0.135 A 
ATOM     84  F   UNL A   1      49.685  27.385  24.769  1.00  0.00    -0.206 F 
ATOM     85  C   UNL A   1      51.634  27.257  23.479  1.00  0.00     0.059 A 
ATOM     86  C   UNL A   1      53.399  25.724  24.120  1.00  0.00     0.059 A 
ATOM     87  F   UNL A   1      53.171  24.403  26.052  1.00  0.00    -0.206 F 
ATOM     88  C   UNL A   1      52.929  26.773  23.322  1.00  0.00     0.060 A 
BRANCH  88  89
ATOM     89  S   UNL A   1      54.051  27.692  22.234  1.00  0.00     0.124 S 
ATOM     90  O   UNL A   1      53.122  28.395  21.361  1.00  0.00    -0.237 OA
ATOM     91  O   UNL A   1      54.781  28.525  23.189  1.00  0.00    -0.237 OA
ATOM     92  O   UNL A   1      54.839  26.639  21.606  1.00  0.00    -0.744 OA
ENDBRANCH  88  89
ENDBRANCH  56  81
BRANCH  68  93
ATOM     93  C   UNL A   1      49.086  30.730  30.688  1.00  0.00     0.058 A 
ATOM     94  C   UNL A   1      48.353  31.704  29.992  1.00  0.00     0.135 A 
ATOM     95  C   UNL A   1      49.461  31.085  32.014  1.00  0.00     0.135 A 
ATOM     96  F   UNL A   1      47.873  31.478  28.761  1.00  0.00    -0.206 F 
ATOM     97  C   UNL A   1      48.038  32.940  30.553  1.00  0.00     0.059 A 
ATOM     98  C   UNL A   1      49.109  32.289  32.609  1.00  0.00     0.059 A 
ATOM     99  F   UNL A   1      50.157  30.258  32.807  1.00  0.00    -0.206 F 
ATOM    100  C   UNL A   1      48.412  33.220  31.863  1.00  0.00     0.060 A 
BRANCH 100 101
ATOM    101  S   UNL A   1      47.941  34.796  32.585  1.00  0.00     0.124 S 
ATOM    102  O   UNL A   1      48.395  34.626  33.962  1.00  0.00    -0.237 OA
ATOM    103  O   UNL A   1      48.703  35.748  31.782  1.00  0.00    -0.237 OA
ATOM    104  O   UNL A   1      46.496  34.843  32.397  1.00  0.00    -0.744 OA
ENDBRANCH 100 101
ENDBRANCH  68  93
ENDBRANCH  42  43
ENDBRANCH  35  37
ENDBRANCH  34  35
ENDBRANCH  33  34
ENDBRANCH  32  33
ENDBRANCH  31  32
ENDBRANCH  30  31
ENDBRANCH  29  30
ENDBRANCH  28  29
ENDBRANCH   1  28
TORSDOF 28
ENDMDL
MODEL 3
REMARK VINA RESULT:      -9.1      1.712      3.134
REMARK SMILES Cc1ccccc1O[C@@H](C)C(=O)Oc1ccccc1C(=O)OCCOCCOCCOCCOC(=O)c1ccc(-c2c3nc(c(-c4c(F)cc(S(=O)(=O)[O-])cc4F)c4ccc([nH]4)c(-c4c(F)cc(S(=O)(=O)[O-])cc4F)c4nc(c(-c5c(F)cc(S(=O)(=O)[O-])cc5F)c5ccc2[nH]5)C=C4)C=C3)cc1
REMARK SMILES IDX 27 1 26 2 25 3 24 4 23 5 22 6 20 7 21 8 19 9 14 10 15 11
REMARK SMILES IDX 16 12 18 13 17 14 13 15 11 16 12 17 9 18 10 19 8 20 7 21
REMARK SMILES IDX 1 22 2 23 3 24 4 25 6 26 5 27 28 28 29 29 30 30 31 31 32 32
REMARK SMILES IDX 33 33 34 34 35 35 36 36 37 37 38 38 102 39 39 40 101 41
REMARK SMILES IDX 40 42 41 43 42 44 95 45 43 46 100 47 94 48 96 49 44 50 99 51
REMARK SMILES IDX 93 52 92 53 45 55 79 56 58 57 78 58 59 59 62 60 77 61 97 62
REMARK SMILES IDX 60 63 61 64 76 66 98 67 63 68 46 69 47 70 56 71 48 72 49 73
REMARK SMILES IDX 55 74 57 75 50 76 51 77 52 78 53 79 54 80 80 81 81 82 90 83
REMARK SMILES IDX 82 84 83 85 89 86 91 87 84 88 85 89 86 90 87 91 88 92 64 93
REMARK SMILES IDX 65 94 74 95 66 96 67 97 73 98 75 99 68 100 69 101 70 102
REMARK SMILES IDX 71 103 72 104
REMARK H PARENT 96 54 62 65
REMARK Flexibility Score: inf
ROOT
ATOM      1  C   UNL A   1      33.631  23.185  23.176  1.00  0.00     0.188 C 
ENDROOT
BRANCH   1   2
ATOM      2  C   UNL A   1      32.735  22.052  23.694  1.00  0.00     0.188 C 
BRANCH   2   3
ATOM      3  O   UNL A   1      33.129  21.083  24.652  1.00  0.00    -0.376 OA
BRANCH   3   4
ATOM      4  C   UNL A   1      34.499  20.727  24.735  1.00  0.00     0.202 C 
BRANCH   4   5
ATOM      5  C   UNL A   1      35.380  21.245  25.857  1.00  0.00     0.261 C 
BRANCH   5   6
ATOM      6  O   UNL A   1      36.748  21.088  25.646  1.00  0.00    -0.460 OA
BRANCH   6   7
ATOM      7  C   UNL A   1      37.364  22.009  24.903  1.00  0.00     0.342 C 
ATOM      8  O   UNL A   1      37.323  22.292  23.725  1.00  0.00    -0.246 OA
BRANCH   7   9
ATOM      9  C   UNL A   1      38.123  22.673  25.930  1.00  0.00     0.102 A 
ATOM     10  C   UNL A   1      39.441  22.241  26.127  1.00  0.00     0.145 A 
ATOM     11  C   UNL A   1      40.263  22.985  26.953  1.00  0.00     0.048 A 
ATOM     12  C   UNL A   1      39.759  24.178  27.514  1.00  0.00     0.004 A 
ATOM     13  C   UNL A   1      37.627  23.874  26.437  1.00  0.00     0.019 A 
ATOM     14  C   UNL A   1      38.460  24.635  27.239  1.00  0.00     0.001 A 
BRANCH  10  15
ATOM     15  O   UNL A   1      39.840  21.091  25.361  1.00  0.00    -0.423 OA
BRANCH  15  16
ATOM     16  C   UNL A   1      40.135  19.803  25.838  1.00  0.00     0.352 C 
ATOM     17  O   UNL A   1      39.348  18.859  25.751  1.00  0.00    -0.247 OA
BRANCH  16  18
ATOM     18  C   UNL A   1      41.595  19.664  26.441  1.00  0.00     0.280 C 
ATOM     19  C   UNL A   1      41.858  18.899  27.738  1.00  0.00     0.066 C 
BRANCH  18  20
ATOM     20  O   UNL A   1      42.415  20.829  26.551  1.00  0.00    -0.479 OA
BRANCH  20  21
ATOM     21  C   UNL A   1      43.561  20.732  25.822  1.00  0.00     0.123 A 
ATOM     22  C   UNL A   1      44.347  23.177  26.161  1.00  0.00     0.048 C 
ATOM     23  C   UNL A   1      44.434  21.800  25.555  1.00  0.00    -0.009 A 
ATOM     24  C   UNL A   1      45.497  21.556  24.676  1.00  0.00     0.007 A 
ATOM     25  C   UNL A   1      45.698  20.293  24.117  1.00  0.00     0.001 A 
ATOM     26  C   UNL A   1      43.785  19.457  25.300  1.00  0.00     0.047 A 
ATOM     27  C   UNL A   1      44.854  19.236  24.443  1.00  0.00     0.004 A 
ENDBRANCH  20  21
ENDBRANCH  18  20
ENDBRANCH  16  18
ENDBRANCH  15  16
ENDBRANCH  10  15
ENDBRANCH   7   9
ENDBRANCH   6   7
ENDBRANCH   5   6
ENDBRANCH   4   5
ENDBRANCH   3   4
ENDBRANCH   2   3
ENDBRANCH   1   2
BRANCH   1  28
ATOM     28  O   UNL A   1      33.068  24.473  23.277  1.00  0.00    -0.377 OA
BRANCH  28  29
ATOM     29  C   UNL A   1      31.648  24.572  23.168  1.00  0.00     0.188 C 
BRANCH  29  30
ATOM     30  C   UNL A   1      30.901  25.575  24.062  1.00  0.00     0.188 C 
BRANCH  30  31
ATOM     31  O   UNL A   1      31.753  26.206  25.011  1.00  0.00    -0.376 OA
BRANCH  31  32
ATOM     32  C   UNL A   1      32.061  27.577  24.779  1.00  0.00     0.202 C 
BRANCH  32  33
ATOM     33  C   UNL A   1      31.985  28.430  26.042  1.00  0.00     0.261 C 
BRANCH  33  34
ATOM     34  O   UNL A   1      32.692  29.665  25.824  1.00  0.00    -0.460 OA
BRANCH  34  35
ATOM     35  C   UNL A   1      32.809  30.442  26.939  1.00  0.00     0.338 C 
ATOM     36  O   UNL A   1      31.859  30.954  27.505  1.00  0.00    -0.246 OA
BRANCH  35  37
ATOM     37  C   UNL A   1      34.248  30.627  27.294  1.00  0.00     0.060 A 
ATOM     38  C   UNL A   1      35.234  29.776  26.775  1.00  0.00     0.016 A 
ATOM     39  C   UNL A   1      34.597  31.509  28.305  1.00  0.00     0.016 A 
ATOM     40  C   UNL A   1      36.504  29.674  27.389  1.00  0.00     0.010 A 
ATOM     41  C   UNL A   1      35.841  31.395  28.906  1.00  0.00     0.010 A 
ATOM     42  C   UNL A   1      36.798  30.431  28.520  1.00  0.00    -0.014 A 
BRANCH  42  43
ATOM     43  C   UNL A   1      37.946  30.246  29.458  1.00  0.00     0.031 A 
ATOM     44  C   UNL A   1      39.044  29.297  29.031  1.00  0.00     0.074 A 
ATOM     45  C   UNL A   1      38.229  31.113  30.479  1.00  0.00     0.049 A 
ATOM     46  N   UNL A   1      40.276  29.447  29.359  1.00  0.00    -0.248 NA
ATOM     47  C   UNL A   1      38.891  28.175  28.105  1.00  0.00     0.031 C 
ATOM     48  C   UNL A   1      39.568  31.346  31.042  1.00  0.00     0.029 A 
ATOM     49  N   UNL A   1      37.497  32.089  31.147  1.00  0.00    -0.354 N 
ATOM     50  C   UNL A   1      41.085  28.579  28.688  1.00  0.00     0.074 A 
ATOM     51  C   UNL A   1      40.171  27.838  27.856  1.00  0.00     0.031 C 
ATOM     52  C   UNL A   1      39.598  32.375  31.896  1.00  0.00     0.029 A 
ATOM     53  C   UNL A   1      38.233  32.594  32.248  1.00  0.00     0.049 A 
ATOM     54  H   UNL A   1      36.595  32.386  30.891  1.00  0.00     0.167 HD
ATOM     55  C   UNL A   1      42.425  28.672  28.935  1.00  0.00     0.037 A 
ATOM     56  C   UNL A   1      37.849  32.370  33.543  1.00  0.00     0.037 A 
ATOM     57  C   UNL A   1      42.659  29.365  30.218  1.00  0.00     0.049 A 
ATOM     58  C   UNL A   1      38.814  31.386  34.226  1.00  0.00     0.074 A 
ATOM     59  C   UNL A   1      43.297  30.527  30.609  1.00  0.00     0.029 A 
ATOM     60  N   UNL A   1      42.009  28.886  31.366  1.00  0.00    -0.354 N 
ATOM     61  N   UNL A   1      39.440  30.427  33.576  1.00  0.00    -0.248 NA
ATOM     62  C   UNL A   1      39.361  31.566  35.573  1.00  0.00     0.031 C 
ATOM     63  C   UNL A   1      42.952  30.785  31.973  1.00  0.00     0.029 A 
ATOM     64  C   UNL A   1      42.126  29.764  32.429  1.00  0.00     0.049 A 
ATOM     65  H   UNL A   1      41.526  28.030  31.409  1.00  0.00     0.167 HD
ATOM     66  C   UNL A   1      40.552  30.041  34.282  1.00  0.00     0.074 A 
ATOM     67  C   UNL A   1      40.403  30.710  35.567  1.00  0.00     0.031 C 
ATOM     68  C   UNL A   1      41.654  29.404  33.765  1.00  0.00     0.037 A 
BRANCH  55  69
ATOM     69  C   UNL A   1      43.557  28.195  28.033  1.00  0.00     0.058 A 
ATOM     70  C   UNL A   1      43.668  28.666  26.701  1.00  0.00     0.135 A 
ATOM     71  C   UNL A   1      44.488  27.187  28.365  1.00  0.00     0.135 A 
ATOM     72  F   UNL A   1      42.838  29.600  26.218  1.00  0.00    -0.206 F 
ATOM     73  C   UNL A   1      44.619  28.191  25.789  1.00  0.00     0.059 A 
ATOM     74  C   UNL A   1      45.473  26.721  27.480  1.00  0.00     0.059 A 
ATOM     75  F   UNL A   1      44.461  26.567  29.550  1.00  0.00    -0.206 F 
ATOM     76  C   UNL A   1      45.527  27.222  26.188  1.00  0.00     0.060 A 
BRANCH  76  77
ATOM     77  S   UNL A   1      46.765  26.644  25.007  1.00  0.00     0.124 S 
ATOM     78  O   UNL A   1      46.671  27.638  23.945  1.00  0.00    -0.237 OA
ATOM     79  O   UNL A   1      47.990  26.681  25.801  1.00  0.00    -0.237 OA
ATOM     80  O   UNL A   1      46.301  25.305  24.653  1.00  0.00    -0.744 OA
ENDBRANCH  76  77
ENDBRANCH  55  69
BRANCH  56  81
ATOM     81  C   UNL A   1      36.389  32.643  33.684  1.00  0.00     0.058 A 
ATOM     82  C   UNL A   1      36.098  33.942  34.172  1.00  0.00     0.135 A 
ATOM     83  C   UNL A   1      35.502  32.107  32.736  1.00  0.00     0.135 A 
ATOM     84  F   UNL A   1      36.894  34.500  35.101  1.00  0.00    -0.206 F 
ATOM     85  C   UNL A   1      35.159  34.765  33.552  1.00  0.00     0.059 A 
ATOM     86  C   UNL A   1      34.548  32.916  32.107  1.00  0.00     0.059 A 
ATOM     87  F   UNL A   1      35.722  30.882  32.233  1.00  0.00    -0.206 F 
ATOM     88  C   UNL A   1      34.441  34.263  32.470  1.00  0.00     0.060 A 
BRANCH  88  89
ATOM     89  S   UNL A   1      33.561  35.446  31.415  1.00  0.00     0.124 S 
ATOM     90  O   UNL A   1      33.880  34.961  30.080  1.00  0.00    -0.237 OA
ATOM     91  O   UNL A   1      32.176  35.260  31.845  1.00  0.00    -0.237 OA
ATOM     92  O   UNL A   1      34.156  36.724  31.785  1.00  0.00    -0.744 OA
ENDBRANCH  88  89
ENDBRANCH  56  81
BRANCH  68  93
ATOM     93  C   UNL A   1      42.449  28.364  34.532  1.00  0.00     0.058 A 
ATOM     94  C   UNL A   1      42.046  27.025  34.646  1.00  0.00     0.135 A 
ATOM     95  C   UNL A   1      43.769  28.642  34.983  1.00  0.00     0.135 A 
ATOM     96  F   UNL A   1      40.854  26.607  34.195  1.00  0.00    -0.206 F 
ATOM     97  C   UNL A   1      42.872  26.042  35.188  1.00  0.00     0.059 A 
ATOM     98  C   UNL A   1      44.627  27.666  35.474  1.00  0.00     0.059 A 
ATOM     99  F   UNL A   1      44.300  29.871  34.932  1.00  0.00    -0.206 F 
ATOM    100  C   UNL A   1      44.163  26.370  35.590  1.00  0.00     0.060 A 
BRANCH 100 101
ATOM    101  S   UNL A   1      45.231  25.075  36.228  1.00  0.00     0.124 S 
ATOM    102  O   UNL A   1      46.181  24.921  35.131  1.00  0.00    -0.237 OA
ATOM    103  O   UNL A   1      45.765  25.680  37.445  1.00  0.00    -0.237 OA
ATOM    104  O   UNL A   1      44.324  23.954  36.441  1.00  0.00    -0.744 OA
ENDBRANCH 100 101
ENDBRANCH  68  93
ENDBRANCH  42  43
ENDBRANCH  35  37
ENDBRANCH  34  35
ENDBRANCH  33  34
ENDBRANCH  32  33
ENDBRANCH  31  32
ENDBRANCH  30  31
ENDBRANCH  29  30
ENDBRANCH  28  29
ENDBRANCH   1  28
TORSDOF 28
ENDMDL
