MODEL 1
REMARK VINA RESULT:      -9.3      0.000      0.000
REMARK SMILES [NH3+][C@@H](CCC1=c2ccccc2=[NH+]C1)C(=O)OCCOCCOCCOCCOC(=O)c1ccc(-c2c3nc(c(-c4c(F)cc(S(=O)(=O)[O-])cc4F)c4ccc([nH]4)c(-c4c(F)cc(S(=O)(=O)[O-])cc4F)c4nc(c(-c5c(F)cc(S(=O)(=O)[O-])cc5F)c5ccc2[nH]5)C=C4)C=C3)cc1
REMARK SMILES IDX 22 1 21 2 20 3 19 4 18 5 17 6 16 7 14 8 15 9 2 10 1 11 3 15
REMARK SMILES IDX 4 16 5 17 6 18 13 19 7 20 11 21 12 22 8 23 10 24 9 26 23 27
REMARK SMILES IDX 24 28 25 29 26 30 27 31 28 32 29 33 30 34 31 35 32 36 96 37
REMARK SMILES IDX 33 38 95 39 34 40 35 41 36 42 89 43 37 44 94 45 88 46 90 47
REMARK SMILES IDX 38 48 93 49 87 50 86 51 39 53 73 54 52 55 72 56 53 57 56 58
REMARK SMILES IDX 71 59 91 60 54 61 55 62 70 64 92 65 57 66 40 67 41 68 50 69
REMARK SMILES IDX 42 70 43 71 49 72 51 73 44 74 45 75 46 76 47 77 48 78 74 79
REMARK SMILES IDX 75 80 84 81 76 82 77 83 83 84 85 85 78 86 79 87 80 88 81 89
REMARK SMILES IDX 82 90 58 91 59 92 68 93 60 94 61 95 67 96 69 97 62 98 63 99
REMARK SMILES IDX 64 100 65 101 66 102
REMARK H PARENT 1 12 1 13 1 14 12 25 90 52 56 63
REMARK Flexibility Score: inf
ROOT
ATOM      1  O   UNL A   1      34.387  32.506  27.429  1.00  0.00    -0.377 OA
ENDROOT
BRANCH   1   2
ATOM      2  C   UNL A   1      34.023  31.191  27.817  1.00  0.00     0.188 C 
BRANCH   2   3
ATOM      3  C   UNL A   1      33.248  30.404  26.747  1.00  0.00     0.188 C 
BRANCH   3   4
ATOM      4  O   UNL A   1      33.719  29.130  26.321  1.00  0.00    -0.376 OA
BRANCH   4   5
ATOM      5  C   UNL A   1      33.498  28.725  24.972  1.00  0.00     0.202 C 
BRANCH   5   6
ATOM      6  C   UNL A   1      32.805  27.391  24.685  1.00  0.00     0.261 C 
BRANCH   6   7
ATOM      7  O   UNL A   1      32.861  26.450  25.772  1.00  0.00    -0.459 OA
BRANCH   7   8
ATOM      8  C   UNL A   1      31.689  26.180  26.405  1.00  0.00     0.364 C 
ATOM      9  O   UNL A   1      31.111  26.956  27.161  1.00  0.00    -0.245 OA
BRANCH   8  10
ATOM     10  C   UNL A   1      31.145  24.769  26.122  1.00  0.00     0.292 C 
BRANCH  10  11
ATOM     11  N   UNL A   1      30.244  24.672  24.960  1.00  0.00    -0.346 N 
ATOM     12  H   UNL A   1      30.797  24.598  24.106  1.00  0.00     0.345 HD
ATOM     13  H   UNL A   1      29.658  25.505  24.915  1.00  0.00     0.345 HD
ATOM     14  H   UNL A   1      29.653  23.845  25.056  1.00  0.00     0.345 HD
ENDBRANCH  10  11
BRANCH  10  15
ATOM     15  C   UNL A   1      32.267  23.723  26.112  1.00  0.00     0.082 C 
BRANCH  15  16
ATOM     16  C   UNL A   1      32.458  22.908  24.823  1.00  0.00     0.045 C 
BRANCH  16  17
ATOM     17  C   UNL A   1      33.443  21.795  24.911  1.00  0.00     0.008 C 
ATOM     18  C   UNL A   1      34.744  21.837  24.635  1.00  0.00     0.051 A 
ATOM     19  C   UNL A   1      33.051  20.420  25.367  1.00  0.00     0.381 C 
ATOM     20  C   UNL A   1      35.650  22.848  24.204  1.00  0.00     0.015 A 
ATOM     21  C   UNL A   1      35.195  20.482  24.987  1.00  0.00     0.206 A 
ATOM     22  N   UNL A   1      34.308  19.638  25.415  1.00  0.00    -0.237 N 
ATOM     23  C   UNL A   1      36.961  22.563  24.192  1.00  0.00     0.001 A 
ATOM     24  C   UNL A   1      36.646  20.229  24.902  1.00  0.00     0.079 A 
ATOM     25  H   UNL A   1      34.437  18.705  25.703  1.00  0.00     0.446 HD
ATOM     26  C   UNL A   1      37.454  21.247  24.570  1.00  0.00     0.007 A 
ENDBRANCH  16  17
ENDBRANCH  15  16
ENDBRANCH  10  15
ENDBRANCH   8  10
ENDBRANCH   7   8
ENDBRANCH   6   7
ENDBRANCH   5   6
ENDBRANCH   4   5
ENDBRANCH   3   4
ENDBRANCH   2   3
ENDBRANCH   1   2
BRANCH   1  27
ATOM     27  C   UNL A   1      33.725  33.566  28.116  1.00  0.00     0.188 C 
BRANCH  27  28
ATOM     28  C   UNL A   1      34.423  34.157  29.359  1.00  0.00     0.188 C 
BRANCH  28  29
ATOM     29  O   UNL A   1      34.166  33.434  30.560  1.00  0.00    -0.376 OA
BRANCH  29  30
ATOM     30  C   UNL A   1      35.180  33.418  31.554  1.00  0.00     0.202 C 
BRANCH  30  31
ATOM     31  C   UNL A   1      35.442  32.075  32.255  1.00  0.00     0.261 C 
BRANCH  31  32
ATOM     32  O   UNL A   1      36.713  31.453  32.003  1.00  0.00    -0.460 OA
BRANCH  32  33
ATOM     33  C   UNL A   1      36.743  30.318  31.273  1.00  0.00     0.338 C 
ATOM     34  O   UNL A   1      35.794  29.619  30.964  1.00  0.00    -0.246 OA
BRANCH  33  35
ATOM     35  C   UNL A   1      38.115  30.160  30.742  1.00  0.00     0.060 A 
ATOM     36  C   UNL A   1      39.179  29.867  31.599  1.00  0.00     0.016 A 
ATOM     37  C   UNL A   1      38.337  30.305  29.367  1.00  0.00     0.016 A 
ATOM     38  C   UNL A   1      40.459  29.677  31.072  1.00  0.00     0.010 A 
ATOM     39  C   UNL A   1      39.621  30.121  28.843  1.00  0.00     0.010 A 
ATOM     40  C   UNL A   1      40.687  29.779  29.688  1.00  0.00    -0.014 A 
BRANCH  40  41
ATOM     41  C   UNL A   1      42.002  29.376  29.120  1.00  0.00     0.031 A 
ATOM     42  C   UNL A   1      43.158  30.324  29.009  1.00  0.00     0.074 A 
ATOM     43  C   UNL A   1      42.141  28.115  28.683  1.00  0.00     0.049 A 
ATOM     44  N   UNL A   1      44.384  30.129  28.602  1.00  0.00    -0.248 NA
ATOM     45  C   UNL A   1      42.882  31.697  29.416  1.00  0.00     0.031 C 
ATOM     46  C   UNL A   1      41.089  27.098  28.706  1.00  0.00     0.029 A 
ATOM     47  N   UNL A   1      43.224  27.475  28.145  1.00  0.00    -0.354 N 
ATOM     48  C   UNL A   1      45.030  31.359  28.726  1.00  0.00     0.074 A 
ATOM     49  C   UNL A   1      44.043  32.299  29.205  1.00  0.00     0.031 C 
ATOM     50  C   UNL A   1      41.589  25.949  28.226  1.00  0.00     0.029 A 
ATOM     51  C   UNL A   1      42.981  26.160  27.842  1.00  0.00     0.049 A 
ATOM     52  H   UNL A   1      44.091  27.915  27.991  1.00  0.00     0.167 HD
ATOM     53  C   UNL A   1      46.326  31.668  28.478  1.00  0.00     0.037 A 
ATOM     54  C   UNL A   1      43.797  25.228  27.317  1.00  0.00     0.037 A 
ATOM     55  C   UNL A   1      47.288  30.719  27.978  1.00  0.00     0.049 A 
ATOM     56  C   UNL A   1      45.224  25.587  27.015  1.00  0.00     0.074 A 
ATOM     57  C   UNL A   1      48.635  30.906  27.715  1.00  0.00     0.029 A 
ATOM     58  N   UNL A   1      46.998  29.402  27.649  1.00  0.00    -0.354 N 
ATOM     59  N   UNL A   1      45.844  26.730  27.196  1.00  0.00    -0.248 NA
ATOM     60  C   UNL A   1      46.063  24.527  26.445  1.00  0.00     0.031 C 
ATOM     61  C   UNL A   1      49.146  29.715  27.185  1.00  0.00     0.029 A 
ATOM     62  C   UNL A   1      48.130  28.772  27.163  1.00  0.00     0.049 A 
ATOM     63  H   UNL A   1      46.114  28.978  27.748  1.00  0.00     0.167 HD
ATOM     64  C   UNL A   1      47.152  26.523  26.771  1.00  0.00     0.074 A 
ATOM     65  C   UNL A   1      47.236  25.139  26.349  1.00  0.00     0.031 C 
ATOM     66  C   UNL A   1      48.188  27.398  26.729  1.00  0.00     0.037 A 
BRANCH  53  67
ATOM     67  C   UNL A   1      46.788  33.079  28.748  1.00  0.00     0.058 A 
ATOM     68  C   UNL A   1      46.803  34.052  27.735  1.00  0.00     0.135 A 
ATOM     69  C   UNL A   1      47.156  33.485  30.041  1.00  0.00     0.135 A 
ATOM     70  F   UNL A   1      46.473  33.721  26.476  1.00  0.00    -0.206 F 
ATOM     71  C   UNL A   1      47.180  35.368  27.989  1.00  0.00     0.059 A 
ATOM     72  C   UNL A   1      47.512  34.803  30.325  1.00  0.00     0.059 A 
ATOM     73  F   UNL A   1      47.163  32.601  31.051  1.00  0.00    -0.206 F 
ATOM     74  C   UNL A   1      47.527  35.736  29.290  1.00  0.00     0.060 A 
BRANCH  74  75
ATOM     75  S   UNL A   1      47.979  37.457  29.601  1.00  0.00     0.124 S 
ATOM     76  O   UNL A   1      47.641  38.086  28.328  1.00  0.00    -0.237 OA
ATOM     77  O   UNL A   1      47.118  37.805  30.726  1.00  0.00    -0.237 OA
ATOM     78  O   UNL A   1      49.406  37.386  29.904  1.00  0.00    -0.744 OA
ENDBRANCH  74  75
ENDBRANCH  53  67
BRANCH  54  79
ATOM     79  C   UNL A   1      43.272  23.859  27.097  1.00  0.00     0.058 A 
ATOM     80  C   UNL A   1      42.865  23.447  25.821  1.00  0.00     0.135 A 
ATOM     81  C   UNL A   1      43.246  22.916  28.136  1.00  0.00     0.135 A 
ATOM     82  F   UNL A   1      42.876  24.315  24.799  1.00  0.00    -0.206 F 
ATOM     83  C   UNL A   1      42.447  22.143  25.581  1.00  0.00     0.059 A 
ATOM     84  C   UNL A   1      42.857  21.600  27.914  1.00  0.00     0.059 A 
ATOM     85  F   UNL A   1      43.651  23.260  29.368  1.00  0.00    -0.206 F 
ATOM     86  C   UNL A   1      42.457  21.225  26.632  1.00  0.00     0.060 A 
BRANCH  86  87
ATOM     87  S   UNL A   1      41.987  19.517  26.286  1.00  0.00     0.124 S 
ATOM     88  O   UNL A   1      41.840  18.974  27.630  1.00  0.00    -0.237 OA
ATOM     89  O   UNL A   1      40.751  19.692  25.528  1.00  0.00    -0.237 OA
ATOM     90  O   UNL A   1      43.118  19.006  25.517  1.00  0.00    -0.744 OA
ENDBRANCH  86  87
ENDBRANCH  54  79
BRANCH  66  91
ATOM     91  C   UNL A   1      49.499  26.888  26.197  1.00  0.00     0.058 A 
ATOM     92  C   UNL A   1      49.888  27.121  24.869  1.00  0.00     0.135 A 
ATOM     93  C   UNL A   1      50.395  26.202  27.034  1.00  0.00     0.135 A 
ATOM     94  F   UNL A   1      49.065  27.767  24.028  1.00  0.00    -0.206 F 
ATOM     95  C   UNL A   1      51.108  26.669  24.380  1.00  0.00     0.059 A 
ATOM     96  C   UNL A   1      51.634  25.767  26.574  1.00  0.00     0.059 A 
ATOM     97  F   UNL A   1      50.076  25.963  28.316  1.00  0.00    -0.206 F 
ATOM     98  C   UNL A   1      51.976  25.994  25.242  1.00  0.00     0.060 A 
BRANCH  98  99
ATOM     99  S   UNL A   1      53.566  25.434  24.596  1.00  0.00     0.124 S 
ATOM    100  O   UNL A   1      53.618  24.063  25.091  1.00  0.00    -0.237 OA
ATOM    101  O   UNL A   1      53.384  25.583  23.154  1.00  0.00    -0.237 OA
ATOM    102  O   UNL A   1      54.523  26.356  25.199  1.00  0.00    -0.744 OA
ENDBRANCH  98  99
ENDBRANCH  66  91
ENDBRANCH  40  41
ENDBRANCH  33  35
ENDBRANCH  32  33
ENDBRANCH  31  32
ENDBRANCH  30  31
ENDBRANCH  29  30
ENDBRANCH  28  29
ENDBRANCH  27  28
ENDBRANCH   1  27
TORSDOF 27
ENDMDL
MODEL 2
REMARK VINA RESULT:      -9.0      4.122     10.436
REMARK SMILES [NH3+][C@@H](CCC1=c2ccccc2=[NH+]C1)C(=O)OCCOCCOCCOCCOC(=O)c1ccc(-c2c3nc(c(-c4c(F)cc(S(=O)(=O)[O-])cc4F)c4ccc([nH]4)c(-c4c(F)cc(S(=O)(=O)[O-])cc4F)c4nc(c(-c5c(F)cc(S(=O)(=O)[O-])cc5F)c5ccc2[nH]5)C=C4)C=C3)cc1
REMARK SMILES IDX 22 1 21 2 20 3 19 4 18 5 17 6 16 7 14 8 15 9 2 10 1 11 3 15
REMARK SMILES IDX 4 16 5 17 6 18 13 19 7 20 11 21 12 22 8 23 10 24 9 26 23 27
REMARK SMILES IDX 24 28 25 29 26 30 27 31 28 32 29 33 30 34 31 35 32 36 96 37
REMARK SMILES IDX 33 38 95 39 34 40 35 41 36 42 89 43 37 44 94 45 88 46 90 47
REMARK SMILES IDX 38 48 93 49 87 50 86 51 39 53 73 54 52 55 72 56 53 57 56 58
REMARK SMILES IDX 71 59 91 60 54 61 55 62 70 64 92 65 57 66 40 67 41 68 50 69
REMARK SMILES IDX 42 70 43 71 49 72 51 73 44 74 45 75 46 76 47 77 48 78 74 79
REMARK SMILES IDX 75 80 84 81 76 82 77 83 83 84 85 85 78 86 79 87 80 88 81 89
REMARK SMILES IDX 82 90 58 91 59 92 68 93 60 94 61 95 67 96 69 97 62 98 63 99
REMARK SMILES IDX 64 100 65 101 66 102
REMARK H PARENT 1 12 1 13 1 14 12 25 90 52 56 63
REMARK Flexibility Score: inf
ROOT
ATOM      1  O   UNL A   1      35.120  34.949  32.332  1.00  0.00    -0.377 OA
ENDROOT
BRANCH   1   2
ATOM      2  C   UNL A   1      34.680  34.715  33.660  1.00  0.00     0.188 C 
BRANCH   2   3
ATOM      3  C   UNL A   1      35.659  33.896  34.518  1.00  0.00     0.188 C 
BRANCH   3   4
ATOM      4  O   UNL A   1      36.166  32.657  34.031  1.00  0.00    -0.376 OA
BRANCH   4   5
ATOM      5  C   UNL A   1      37.318  32.663  33.191  1.00  0.00     0.202 C 
BRANCH   5   6
ATOM      6  C   UNL A   1      38.237  31.440  33.159  1.00  0.00     0.261 C 
BRANCH   6   7
ATOM      7  O   UNL A   1      37.990  30.486  34.207  1.00  0.00    -0.459 OA
BRANCH   7   8
ATOM      8  C   UNL A   1      38.863  30.487  35.249  1.00  0.00     0.364 C 
ATOM      9  O   UNL A   1      38.558  30.255  36.415  1.00  0.00    -0.245 OA
BRANCH   8  10
ATOM     10  C   UNL A   1      40.304  30.850  34.846  1.00  0.00     0.292 C 
BRANCH  10  11
ATOM     11  N   UNL A   1      41.051  31.631  35.848  1.00  0.00    -0.346 N 
ATOM     12  H   UNL A   1      40.834  31.283  36.782  1.00  0.00     0.345 HD
ATOM     13  H   UNL A   1      40.784  32.613  35.780  1.00  0.00     0.345 HD
ATOM     14  H   UNL A   1      42.052  31.538  35.674  1.00  0.00     0.345 HD
ENDBRANCH  10  11
BRANCH  10  15
ATOM     15  C   UNL A   1      41.072  29.625  34.333  1.00  0.00     0.082 C 
BRANCH  15  16
ATOM     16  C   UNL A   1      42.290  29.166  35.150  1.00  0.00     0.045 C 
BRANCH  16  17
ATOM     17  C   UNL A   1      42.942  27.914  34.674  1.00  0.00     0.008 C 
ATOM     18  C   UNL A   1      42.669  26.665  35.042  1.00  0.00     0.051 A 
ATOM     19  C   UNL A   1      44.038  27.928  33.649  1.00  0.00     0.381 C 
ATOM     20  C   UNL A   1      41.735  26.057  35.930  1.00  0.00     0.015 A 
ATOM     21  C   UNL A   1      43.562  25.870  34.185  1.00  0.00     0.206 A 
ATOM     22  N   UNL A   1      44.348  26.506  33.371  1.00  0.00    -0.237 N 
ATOM     23  C   UNL A   1      41.627  24.720  35.922  1.00  0.00     0.001 A 
ATOM     24  C   UNL A   1      43.419  24.404  34.267  1.00  0.00     0.079 A 
ATOM     25  H   UNL A   1      44.992  26.135  32.726  1.00  0.00     0.446 HD
ATOM     26  C   UNL A   1      42.464  23.898  35.061  1.00  0.00     0.007 A 
ENDBRANCH  16  17
ENDBRANCH  15  16
ENDBRANCH  10  15
ENDBRANCH   8  10
ENDBRANCH   7   8
ENDBRANCH   6   7
ENDBRANCH   5   6
ENDBRANCH   4   5
ENDBRANCH   3   4
ENDBRANCH   2   3
ENDBRANCH   1   2
BRANCH   1  27
ATOM     27  C   UNL A   1      34.268  34.461  31.298  1.00  0.00     0.188 C 
BRANCH  27  28
ATOM     28  C   UNL A   1      33.498  35.502  30.456  1.00  0.00     0.188 C 
BRANCH  28  29
ATOM     29  O   UNL A   1      33.614  35.303  29.050  1.00  0.00    -0.376 OA
BRANCH  29  30
ATOM     30  C   UNL A   1      33.173  34.062  28.517  1.00  0.00     0.202 C 
BRANCH  30  31
ATOM     31  C   UNL A   1      34.259  33.103  28.005  1.00  0.00     0.261 C 
BRANCH  31  32
ATOM     32  O   UNL A   1      34.514  31.932  28.800  1.00  0.00    -0.460 OA
BRANCH  32  33
ATOM     33  C   UNL A   1      34.582  30.734  28.181  1.00  0.00     0.338 C 
ATOM     34  O   UNL A   1      33.750  30.244  27.438  1.00  0.00    -0.246 OA
BRANCH  33  35
ATOM     35  C   UNL A   1      35.938  30.188  28.407  1.00  0.00     0.060 A 
ATOM     36  C   UNL A   1      36.817  30.003  27.338  1.00  0.00     0.016 A 
ATOM     37  C   UNL A   1      36.335  29.859  29.710  1.00  0.00     0.016 A 
ATOM     38  C   UNL A   1      38.110  29.529  27.578  1.00  0.00     0.010 A 
ATOM     39  C   UNL A   1      37.627  29.378  29.947  1.00  0.00     0.010 A 
ATOM     40  C   UNL A   1      38.534  29.235  28.887  1.00  0.00    -0.014 A 
BRANCH  40  41
ATOM     41  C   UNL A   1      39.965  28.928  29.152  1.00  0.00     0.031 A 
ATOM     42  C   UNL A   1      40.578  27.598  28.834  1.00  0.00     0.074 A 
ATOM     43  C   UNL A   1      40.722  29.886  29.710  1.00  0.00     0.049 A 
ATOM     44  N   UNL A   1      41.812  27.181  28.941  1.00  0.00    -0.248 NA
ATOM     45  C   UNL A   1      39.655  26.590  28.325  1.00  0.00     0.031 C 
ATOM     46  C   UNL A   1      40.246  31.214  30.096  1.00  0.00     0.029 A 
ATOM     47  N   UNL A   1      42.050  29.890  30.039  1.00  0.00    -0.354 N 
ATOM     48  C   UNL A   1      41.812  25.862  28.488  1.00  0.00     0.074 A 
ATOM     49  C   UNL A   1      40.444  25.540  28.149  1.00  0.00     0.031 C 
ATOM     50  C   UNL A   1      41.277  31.917  30.587  1.00  0.00     0.029 A 
ATOM     51  C   UNL A   1      42.473  31.080  30.573  1.00  0.00     0.049 A 
ATOM     52  H   UNL A   1      42.642  29.114  29.907  1.00  0.00     0.167 HD
ATOM     53  C   UNL A   1      42.856  25.008  28.354  1.00  0.00     0.037 A 
ATOM     54  C   UNL A   1      43.694  31.452  30.998  1.00  0.00     0.037 A 
ATOM     55  C   UNL A   1      44.209  25.343  28.721  1.00  0.00     0.049 A 
ATOM     56  C   UNL A   1      44.840  30.489  30.875  1.00  0.00     0.074 A 
ATOM     57  C   UNL A   1      45.354  24.573  28.605  1.00  0.00     0.029 A 
ATOM     58  N   UNL A   1      44.595  26.547  29.291  1.00  0.00    -0.354 N 
ATOM     59  N   UNL A   1      44.846  29.270  30.386  1.00  0.00    -0.248 NA
ATOM     60  C   UNL A   1      46.146  30.955  31.355  1.00  0.00     0.031 C 
ATOM     61  C   UNL A   1      46.422  25.296  29.148  1.00  0.00     0.029 A 
ATOM     62  C   UNL A   1      45.953  26.535  29.556  1.00  0.00     0.049 A 
ATOM     63  H   UNL A   1      43.990  27.302  29.479  1.00  0.00     0.167 HD
ATOM     64  C   UNL A   1      46.160  28.827  30.490  1.00  0.00     0.074 A 
ATOM     65  C   UNL A   1      46.921  29.919  31.065  1.00  0.00     0.031 C 
ATOM     66  C   UNL A   1      46.689  27.625  30.147  1.00  0.00     0.037 A 
BRANCH  53  67
ATOM     67  C   UNL A   1      42.588  23.637  27.784  1.00  0.00     0.058 A 
ATOM     68  C   UNL A   1      42.461  23.430  26.400  1.00  0.00     0.135 A 
ATOM     69  C   UNL A   1      42.523  22.507  28.616  1.00  0.00     0.135 A 
ATOM     70  F   UNL A   1      42.503  24.472  25.555  1.00  0.00    -0.206 F 
ATOM     71  C   UNL A   1      42.265  22.160  25.865  1.00  0.00     0.059 A 
ATOM     72  C   UNL A   1      42.353  21.223  28.101  1.00  0.00     0.059 A 
ATOM     73  F   UNL A   1      42.636  22.641  29.947  1.00  0.00    -0.206 F 
ATOM     74  C   UNL A   1      42.219  21.061  26.724  1.00  0.00     0.060 A 
BRANCH  74  75
ATOM     75  S   UNL A   1      41.997  19.419  26.003  1.00  0.00     0.124 S 
ATOM     76  O   UNL A   1      40.575  19.432  25.672  1.00  0.00    -0.237 OA
ATOM     77  O   UNL A   1      42.910  19.454  24.866  1.00  0.00    -0.237 OA
ATOM     78  O   UNL A   1      42.379  18.515  27.085  1.00  0.00    -0.744 OA
ENDBRANCH  74  75
ENDBRANCH  53  67
BRANCH  54  79
ATOM     79  C   UNL A   1      43.879  32.823  31.531  1.00  0.00     0.058 A 
ATOM     80  C   UNL A   1      43.743  33.081  32.901  1.00  0.00     0.135 A 
ATOM     81  C   UNL A   1      44.274  33.880  30.696  1.00  0.00     0.135 A 
ATOM     82  F   UNL A   1      43.370  32.099  33.735  1.00  0.00    -0.206 F 
ATOM     83  C   UNL A   1      43.992  34.342  33.428  1.00  0.00     0.059 A 
ATOM     84  C   UNL A   1      44.554  35.143  31.204  1.00  0.00     0.059 A 
ATOM     85  F   UNL A   1      44.441  33.672  29.380  1.00  0.00    -0.206 F 
ATOM     86  C   UNL A   1      44.407  35.364  32.573  1.00  0.00     0.060 A 
BRANCH  86  87
ATOM     87  S   UNL A   1      44.803  36.974  33.285  1.00  0.00     0.124 S 
ATOM     88  O   UNL A   1      45.793  36.615  34.293  1.00  0.00    -0.237 OA
ATOM     89  O   UNL A   1      45.309  37.701  32.124  1.00  0.00    -0.237 OA
ATOM     90  O   UNL A   1      43.519  37.441  33.797  1.00  0.00    -0.744 OA
ENDBRANCH  86  87
ENDBRANCH  54  79
BRANCH  66  91
ATOM     91  C   UNL A   1      48.159  27.424  30.395  1.00  0.00     0.058 A 
ATOM     92  C   UNL A   1      49.117  27.783  29.434  1.00  0.00     0.135 A 
ATOM     93  C   UNL A   1      48.616  26.913  31.620  1.00  0.00     0.135 A 
ATOM     94  F   UNL A   1      48.730  28.271  28.245  1.00  0.00    -0.206 F 
ATOM     95  C   UNL A   1      50.477  27.618  29.668  1.00  0.00     0.059 A 
ATOM     96  C   UNL A   1      49.974  26.768  31.887  1.00  0.00     0.059 A 
ATOM     97  F   UNL A   1      47.742  26.565  32.578  1.00  0.00    -0.206 F 
ATOM     98  C   UNL A   1      50.896  27.111  30.900  1.00  0.00     0.060 A 
BRANCH  98  99
ATOM     99  S   UNL A   1      52.667  26.924  31.195  1.00  0.00     0.124 S 
ATOM    100  O   UNL A   1      53.184  26.832  29.834  1.00  0.00    -0.237 OA
ATOM    101  O   UNL A   1      52.992  28.152  31.915  1.00  0.00    -0.237 OA
ATOM    102  O   UNL A   1      52.754  25.700  31.984  1.00  0.00    -0.744 OA
ENDBRANCH  98  99
ENDBRANCH  66  91
ENDBRANCH  40  41
ENDBRANCH  33  35
ENDBRANCH  32  33
ENDBRANCH  31  32
ENDBRANCH  30  31
ENDBRANCH  29  30
ENDBRANCH  28  29
ENDBRANCH  27  28
ENDBRANCH   1  27
TORSDOF 27
ENDMDL
MODEL 3
REMARK VINA RESULT:      -8.9      2.405      8.957
REMARK SMILES [NH3+][C@@H](CCC1=c2ccccc2=[NH+]C1)C(=O)OCCOCCOCCOCCOC(=O)c1ccc(-c2c3nc(c(-c4c(F)cc(S(=O)(=O)[O-])cc4F)c4ccc([nH]4)c(-c4c(F)cc(S(=O)(=O)[O-])cc4F)c4nc(c(-c5c(F)cc(S(=O)(=O)[O-])cc5F)c5ccc2[nH]5)C=C4)C=C3)cc1
REMARK SMILES IDX 22 1 21 2 20 3 19 4 18 5 17 6 16 7 14 8 15 9 2 10 1 11 3 15
REMARK SMILES IDX 4 16 5 17 6 18 13 19 7 20 11 21 12 22 8 23 10 24 9 26 23 27
REMARK SMILES IDX 24 28 25 29 26 30 27 31 28 32 29 33 30 34 31 35 32 36 96 37
REMARK SMILES IDX 33 38 95 39 34 40 35 41 36 42 89 43 37 44 94 45 88 46 90 47
REMARK SMILES IDX 38 48 93 49 87 50 86 51 39 53 73 54 52 55 72 56 53 57 56 58
REMARK SMILES IDX 71 59 91 60 54 61 55 62 70 64 92 65 57 66 40 67 41 68 50 69
REMARK SMILES IDX 42 70 43 71 49 72 51 73 44 74 45 75 46 76 47 77 48 78 74 79
REMARK SMILES IDX 75 80 84 81 76 82 77 83 83 84 85 85 78 86 79 87 80 88 81 89
REMARK SMILES IDX 82 90 58 91 59 92 68 93 60 94 61 95 67 96 69 97 62 98 63 99
REMARK SMILES IDX 64 100 65 101 66 102
REMARK H PARENT 1 12 1 13 1 14 12 25 90 52 56 63
REMARK Flexibility Score: inf
ROOT
ATOM      1  O   UNL A   1      35.760  33.341  34.513  1.00  0.00    -0.377 OA
ENDROOT
BRANCH   1   2
ATOM      2  C   UNL A   1      34.961  34.410  34.034  1.00  0.00     0.188 C 
BRANCH   2   3
ATOM      3  C   UNL A   1      33.790  33.976  33.136  1.00  0.00     0.188 C 
BRANCH   3   4
ATOM      4  O   UNL A   1      33.618  34.573  31.855  1.00  0.00    -0.376 OA
BRANCH   4   5
ATOM      5  C   UNL A   1      34.027  33.852  30.695  1.00  0.00     0.202 C 
BRANCH   5   6
ATOM      6  C   UNL A   1      34.216  34.593  29.370  1.00  0.00     0.261 C 
BRANCH   6   7
ATOM      7  O   UNL A   1      34.365  33.734  28.226  1.00  0.00    -0.459 OA
BRANCH   7   8
ATOM      8  C   UNL A   1      33.228  33.182  27.726  1.00  0.00     0.364 C 
ATOM      9  O   UNL A   1      32.157  33.772  27.618  1.00  0.00    -0.245 OA
BRANCH   8  10
ATOM     10  C   UNL A   1      33.382  31.703  27.329  1.00  0.00     0.292 C 
BRANCH  10  11
ATOM     11  N   UNL A   1      34.030  30.852  28.343  1.00  0.00    -0.346 N 
ATOM     12  H   UNL A   1      33.594  29.930  28.343  1.00  0.00     0.345 HD
ATOM     13  H   UNL A   1      33.923  31.279  29.262  1.00  0.00     0.345 HD
ATOM     14  H   UNL A   1      35.023  30.759  28.124  1.00  0.00     0.345 HD
ENDBRANCH  10  11
BRANCH  10  15
ATOM     15  C   UNL A   1      32.066  31.122  26.797  1.00  0.00     0.082 C 
BRANCH  15  16
ATOM     16  C   UNL A   1      31.850  29.608  26.956  1.00  0.00     0.045 C 
BRANCH  16  17
ATOM     17  C   UNL A   1      31.982  28.810  25.706  1.00  0.00     0.008 C 
ATOM     18  C   UNL A   1      31.493  27.597  25.461  1.00  0.00     0.051 A 
ATOM     19  C   UNL A   1      32.716  29.329  24.504  1.00  0.00     0.381 C 
ATOM     20  C   UNL A   1      30.712  26.658  26.194  1.00  0.00     0.015 A 
ATOM     21  C   UNL A   1      31.866  27.373  24.055  1.00  0.00     0.206 A 
ATOM     22  N   UNL A   1      32.540  28.302  23.450  1.00  0.00    -0.237 N 
ATOM     23  C   UNL A   1      30.248  25.577  25.551  1.00  0.00     0.001 A 
ATOM     24  C   UNL A   1      31.361  26.137  23.430  1.00  0.00     0.079 A 
ATOM     25  H   UNL A   1      32.857  28.322  22.519  1.00  0.00     0.446 HD
ATOM     26  C   UNL A   1      30.561  25.336  24.150  1.00  0.00     0.007 A 
ENDBRANCH  16  17
ENDBRANCH  15  16
ENDBRANCH  10  15
ENDBRANCH   8  10
ENDBRANCH   7   8
ENDBRANCH   6   7
ENDBRANCH   5   6
ENDBRANCH   4   5
ENDBRANCH   3   4
ENDBRANCH   2   3
ENDBRANCH   1   2
BRANCH   1  27
ATOM     27  C   UNL A   1      37.166  33.476  34.315  1.00  0.00     0.188 C 
BRANCH  27  28
ATOM     28  C   UNL A   1      37.651  34.601  33.377  1.00  0.00     0.188 C 
BRANCH  28  29
ATOM     29  O   UNL A   1      37.757  34.206  32.012  1.00  0.00    -0.376 OA
BRANCH  29  30
ATOM     30  C   UNL A   1      37.272  32.919  31.655  1.00  0.00     0.202 C 
BRANCH  30  31
ATOM     31  C   UNL A   1      37.192  32.602  30.153  1.00  0.00     0.261 C 
BRANCH  31  32
ATOM     32  O   UNL A   1      36.501  31.396  29.785  1.00  0.00    -0.460 OA
BRANCH  32  33
ATOM     33  C   UNL A   1      36.939  30.221  30.286  1.00  0.00     0.338 C 
ATOM     34  O   UNL A   1      36.273  29.371  30.850  1.00  0.00    -0.246 OA
BRANCH  33  35
ATOM     35  C   UNL A   1      38.347  30.049  29.865  1.00  0.00     0.060 A 
ATOM     36  C   UNL A   1      39.373  30.026  30.812  1.00  0.00     0.016 A 
ATOM     37  C   UNL A   1      38.642  29.907  28.504  1.00  0.00     0.016 A 
ATOM     38  C   UNL A   1      40.692  29.817  30.399  1.00  0.00     0.010 A 
ATOM     39  C   UNL A   1      39.963  29.705  28.091  1.00  0.00     0.010 A 
ATOM     40  C   UNL A   1      40.995  29.631  29.038  1.00  0.00    -0.014 A 
BRANCH  40  41
ATOM     41  C   UNL A   1      42.363  29.209  28.633  1.00  0.00     0.031 A 
ATOM     42  C   UNL A   1      42.691  27.799  28.244  1.00  0.00     0.074 A 
ATOM     43  C   UNL A   1      43.335  30.135  28.632  1.00  0.00     0.049 A 
ATOM     44  N   UNL A   1      43.804  27.272  27.808  1.00  0.00    -0.248 NA
ATOM     45  C   UNL A   1      41.596  26.845  28.372  1.00  0.00     0.031 C 
ATOM     46  C   UNL A   1      43.160  31.535  29.016  1.00  0.00     0.029 A 
ATOM     47  N   UNL A   1      44.656  30.037  28.290  1.00  0.00    -0.354 N 
ATOM     48  C   UNL A   1      43.530  25.922  27.590  1.00  0.00     0.074 A 
ATOM     49  C   UNL A   1      42.156  25.708  27.986  1.00  0.00     0.031 C 
ATOM     50  C   UNL A   1      44.329  32.175  28.861  1.00  0.00     0.029 A 
ATOM     51  C   UNL A   1      45.333  31.224  28.395  1.00  0.00     0.049 A 
ATOM     52  H   UNL A   1      45.078  29.196  27.998  1.00  0.00     0.167 HD
ATOM     53  C   UNL A   1      44.343  24.958  27.094  1.00  0.00     0.037 A 
ATOM     54  C   UNL A   1      46.622  31.510  28.138  1.00  0.00     0.037 A 
ATOM     55  C   UNL A   1      45.719  25.189  26.728  1.00  0.00     0.049 A 
ATOM     56  C   UNL A   1      47.525  30.430  27.617  1.00  0.00     0.074 A 
ATOM     57  C   UNL A   1      46.633  24.300  26.188  1.00  0.00     0.029 A 
ATOM     58  N   UNL A   1      46.382  26.398  26.880  1.00  0.00    -0.354 N 
ATOM     59  N   UNL A   1      47.244  29.175  27.351  1.00  0.00    -0.248 NA
ATOM     60  C   UNL A   1      48.919  30.805  27.354  1.00  0.00     0.031 C 
ATOM     61  C   UNL A   1      47.860  24.960  26.058  1.00  0.00     0.029 A 
ATOM     62  C   UNL A   1      47.698  26.274  26.471  1.00  0.00     0.049 A 
ATOM     63  H   UNL A   1      45.975  27.224  27.230  1.00  0.00     0.167 HD
ATOM     64  C   UNL A   1      48.425  28.613  26.879  1.00  0.00     0.074 A 
ATOM     65  C   UNL A   1      49.414  29.673  26.873  1.00  0.00     0.031 C 
ATOM     66  C   UNL A   1      48.672  27.337  26.491  1.00  0.00     0.037 A 
BRANCH  53  67
ATOM     67  C   UNL A   1      43.777  23.572  26.907  1.00  0.00     0.058 A 
ATOM     68  C   UNL A   1      43.611  22.695  27.992  1.00  0.00     0.135 A 
ATOM     69  C   UNL A   1      43.333  23.135  25.648  1.00  0.00     0.135 A 
ATOM     70  F   UNL A   1      44.027  23.051  29.218  1.00  0.00    -0.206 F 
ATOM     71  C   UNL A   1      43.043  21.435  27.834  1.00  0.00     0.059 A 
ATOM     72  C   UNL A   1      42.737  21.888  25.470  1.00  0.00     0.059 A 
ATOM     73  F   UNL A   1      43.466  23.928  24.572  1.00  0.00    -0.206 F 
ATOM     74  C   UNL A   1      42.602  21.042  26.569  1.00  0.00     0.060 A 
BRANCH  74  75
ATOM     75  S   UNL A   1      41.836  19.414  26.395  1.00  0.00     0.124 S 
ATOM     76  O   UNL A   1      40.455  19.771  26.085  1.00  0.00    -0.237 OA
ATOM     77  O   UNL A   1      42.599  18.829  25.298  1.00  0.00    -0.237 OA
ATOM     78  O   UNL A   1      42.045  18.797  27.702  1.00  0.00    -0.744 OA
ENDBRANCH  74  75
ENDBRANCH  53  67
BRANCH  54  79
ATOM     79  C   UNL A   1      47.098  32.901  28.331  1.00  0.00     0.058 A 
ATOM     80  C   UNL A   1      46.989  33.843  27.299  1.00  0.00     0.135 A 
ATOM     81  C   UNL A   1      47.592  33.335  29.572  1.00  0.00     0.135 A 
ATOM     82  F   UNL A   1      46.521  33.473  26.099  1.00  0.00    -0.206 F 
ATOM     83  C   UNL A   1      47.355  35.170  27.490  1.00  0.00     0.059 A 
ATOM     84  C   UNL A   1      47.939  34.662  29.793  1.00  0.00     0.059 A 
ATOM     85  F   UNL A   1      47.689  32.472  30.596  1.00  0.00    -0.206 F 
ATOM     86  C   UNL A   1      47.819  35.572  28.743  1.00  0.00     0.060 A 
BRANCH  86  87
ATOM     87  S   UNL A   1      48.214  37.315  28.996  1.00  0.00     0.124 S 
ATOM     88  O   UNL A   1      47.289  37.962  28.075  1.00  0.00    -0.237 OA
ATOM     89  O   UNL A   1      47.926  37.486  30.417  1.00  0.00    -0.237 OA
ATOM     90  O   UNL A   1      49.626  37.396  28.636  1.00  0.00    -0.744 OA
ENDBRANCH  86  87
ENDBRANCH  54  79
BRANCH  66  91
ATOM     91  C   UNL A   1      50.069  27.013  26.038  1.00  0.00     0.058 A 
ATOM     92  C   UNL A   1      51.000  26.422  26.906  1.00  0.00     0.135 A 
ATOM     93  C   UNL A   1      50.467  27.252  24.712  1.00  0.00     0.135 A 
ATOM     94  F   UNL A   1      50.670  26.179  28.185  1.00  0.00    -0.206 F 
ATOM     95  C   UNL A   1      52.285  26.102  26.485  1.00  0.00     0.059 A 
ATOM     96  C   UNL A   1      51.739  26.911  24.261  1.00  0.00     0.059 A 
ATOM     97  F   UNL A   1      49.612  27.804  23.838  1.00  0.00    -0.206 F 
ATOM     98  C   UNL A   1      52.644  26.349  25.158  1.00  0.00     0.060 A 
BRANCH  98  99
ATOM     99  S   UNL A   1      54.310  25.906  24.622  1.00  0.00     0.124 S 
ATOM    100  O   UNL A   1      54.292  26.328  23.226  1.00  0.00    -0.237 OA
ATOM    101  O   UNL A   1      55.146  26.705  25.515  1.00  0.00    -0.237 OA
ATOM    102  O   UNL A   1      54.367  24.465  24.842  1.00  0.00    -0.744 OA
ENDBRANCH  98  99
ENDBRANCH  66  91
ENDBRANCH  40  41
ENDBRANCH  33  35
ENDBRANCH  32  33
ENDBRANCH  31  32
ENDBRANCH  30  31
ENDBRANCH  29  30
ENDBRANCH  28  29
ENDBRANCH  27  28
ENDBRANCH   1  27
TORSDOF 27
ENDMDL
