MODEL 1
REMARK VINA RESULT:      -8.3      0.000      0.000
REMARK SMILES COc1ccc(C(=O)N(C)C)cc1NC(=O)[C@H]1[C@@H](C(=O)OCCOCCOCCOCCOC(=O)c2ccc(-c3c4nc(c(-c5c(F)cc(S(=O)(=O)[O-])cc5F)c5ccc([nH]5)c(-c5c(F)cc(S(=O)(=O)[O-])cc5F)c5nc(c(-c6c(F)cc(S(=O)(=O)[O-])cc6F)c6ccc3[nH]6)C=C5)C=C4)cc2)[C@H]2C=C[C@@H]1C2
REMARK SMILES IDX 27 1 26 2 25 3 24 4 23 5 22 6 21 7 19 8 20 9 18 10 17 11
REMARK SMILES IDX 105 12 102 13 104 14 106 15 103 16 15 17 14 18 16 20 13 21
REMARK SMILES IDX 3 22 4 23 5 24 12 25 6 26 2 27 1 28 7 29 8 30 9 31 10 32
REMARK SMILES IDX 11 33 28 34 29 35 30 36 31 37 32 38 33 39 34 40 35 41 36 42
REMARK SMILES IDX 37 43 101 44 38 45 100 46 39 47 40 48 41 49 94 50 42 51
REMARK SMILES IDX 99 52 93 53 95 54 43 55 98 56 92 57 91 58 44 60 78 61 57 62
REMARK SMILES IDX 77 63 58 64 61 65 76 66 96 67 59 68 60 69 75 71 97 72 62 73
REMARK SMILES IDX 45 74 46 75 55 76 47 77 48 78 54 79 56 80 49 81 50 82 51 83
REMARK SMILES IDX 52 84 53 85 79 86 80 87 89 88 81 89 82 90 88 91 90 92 83 93
REMARK SMILES IDX 84 94 85 95 86 96 87 97 63 98 64 99 73 100 65 101 66 102
REMARK SMILES IDX 72 103 74 104 67 105 68 106 69 107 70 108 71 109
REMARK H PARENT 14 19 95 59 61 70
REMARK Flexibility Score: inf
ROOT
ATOM      1  O   UNL A   1      36.353  23.341  26.189  1.00  0.00    -0.377 OA
ENDROOT
BRANCH   1   2
ATOM      2  C   UNL A   1      35.542  22.226  26.503  1.00  0.00     0.188 C 
BRANCH   2   3
ATOM      3  C   UNL A   1      34.444  22.365  27.583  1.00  0.00     0.188 C 
BRANCH   3   4
ATOM      4  O   UNL A   1      33.427  23.304  27.267  1.00  0.00    -0.376 OA
BRANCH   4   5
ATOM      5  C   UNL A   1      32.091  22.812  27.251  1.00  0.00     0.202 C 
BRANCH   5   6
ATOM      6  C   UNL A   1      30.975  23.719  26.694  1.00  0.00     0.261 C 
BRANCH   6   7
ATOM      7  O   UNL A   1      31.493  24.965  26.181  1.00  0.00    -0.463 OA
BRANCH   7   8
ATOM      8  C   UNL A   1      30.683  25.895  25.633  1.00  0.00     0.310 C 
ATOM      9  O   UNL A   1      29.490  25.702  25.510  1.00  0.00    -0.252 OA
BRANCH   8  10
ATOM     10  C   UNL A   1      31.496  27.125  25.164  1.00  0.00     0.119 C 
ATOM     11  C   UNL A   1      33.024  27.044  24.863  1.00  0.00     0.100 C 
ATOM     12  C   UNL A   1      33.571  28.438  25.239  1.00  0.00     0.025 C 
ATOM     13  C   UNL A   1      31.405  28.531  25.851  1.00  0.00     0.027 C 
ATOM     14  C   UNL A   1      33.566  28.582  26.721  1.00  0.00    -0.027 C 
ATOM     15  C   UNL A   1      32.350  29.321  24.920  1.00  0.00     0.017 C 
ATOM     16  C   UNL A   1      32.281  28.695  27.078  1.00  0.00    -0.027 C 
BRANCH  11  17
ATOM     17  C   UNL A   1      33.996  25.929  25.178  1.00  0.00     0.229 C 
ATOM     18  N   UNL A   1      34.195  24.731  24.607  1.00  0.00    -0.323 N 
ATOM     19  H   UNL A   1      35.024  24.338  24.966  1.00  0.00     0.170 HD
ATOM     20  O   UNL A   1      34.778  26.145  26.126  1.00  0.00    -0.274 OA
BRANCH  18  21
ATOM     21  C   UNL A   1      33.632  23.843  23.674  1.00  0.00     0.084 A 
ATOM     22  C   UNL A   1      33.452  24.274  22.343  1.00  0.00     0.142 A 
ATOM     23  C   UNL A   1      32.902  23.374  21.426  1.00  0.00     0.049 A 
ATOM     24  C   UNL A   1      32.553  22.069  21.791  1.00  0.00     0.018 A 
ATOM     25  C   UNL A   1      33.271  22.508  23.999  1.00  0.00     0.044 A 
ATOM     26  C   UNL A   1      32.729  21.583  23.094  1.00  0.00     0.042 A 
BRANCH  22  27
ATOM     27  O   UNL A   1      33.641  25.499  21.758  1.00  0.00    -0.495 OA
ATOM     28  C   UNL A   1      32.594  26.397  21.433  1.00  0.00     0.278 C 
ENDBRANCH  22  27
BRANCH  26  29
ATOM     29  C   UNL A   1      32.519  20.081  23.262  1.00  0.00     0.253 C 
ATOM     30  O   UNL A   1      31.993  19.550  22.268  1.00  0.00    -0.269 OA
ATOM     31  N   UNL A   1      32.927  19.214  24.302  1.00  0.00    -0.345 N 
ATOM     32  C   UNL A   1      32.903  19.404  25.746  1.00  0.00     0.146 C 
ATOM     33  C   UNL A   1      32.985  17.800  23.956  1.00  0.00     0.146 C 
ENDBRANCH  26  29
ENDBRANCH  18  21
ENDBRANCH  11  17
ENDBRANCH   8  10
ENDBRANCH   7   8
ENDBRANCH   6   7
ENDBRANCH   5   6
ENDBRANCH   4   5
ENDBRANCH   3   4
ENDBRANCH   2   3
ENDBRANCH   1   2
BRANCH   1  34
ATOM     34  C   UNL A   1      37.704  23.092  25.842  1.00  0.00     0.188 C 
BRANCH  34  35
ATOM     35  C   UNL A   1      38.116  21.674  25.378  1.00  0.00     0.188 C 
BRANCH  35  36
ATOM     36  O   UNL A   1      39.374  21.205  25.841  1.00  0.00    -0.376 OA
BRANCH  36  37
ATOM     37  C   UNL A   1      40.027  21.916  26.882  1.00  0.00     0.202 C 
BRANCH  37  38
ATOM     38  C   UNL A   1      41.518  21.640  27.150  1.00  0.00     0.261 C 
BRANCH  38  39
ATOM     39  O   UNL A   1      42.448  22.571  26.584  1.00  0.00    -0.460 OA
BRANCH  39  40
ATOM     40  C   UNL A   1      43.625  22.076  26.147  1.00  0.00     0.338 C 
ATOM     41  O   UNL A   1      43.828  20.963  25.686  1.00  0.00    -0.246 OA
BRANCH  40  42
ATOM     42  C   UNL A   1      44.589  23.193  26.108  1.00  0.00     0.060 A 
ATOM     43  C   UNL A   1      45.492  23.338  27.172  1.00  0.00     0.016 A 
ATOM     44  C   UNL A   1      44.648  24.046  25.003  1.00  0.00     0.016 A 
ATOM     45  C   UNL A   1      46.442  24.353  27.146  1.00  0.00     0.010 A 
ATOM     46  C   UNL A   1      45.567  25.096  25.002  1.00  0.00     0.010 A 
ATOM     47  C   UNL A   1      46.439  25.273  26.092  1.00  0.00    -0.014 A 
BRANCH  47  48
ATOM     48  C   UNL A   1      47.137  26.563  26.284  1.00  0.00     0.031 A 
ATOM     49  C   UNL A   1      46.441  27.601  27.123  1.00  0.00     0.074 A 
ATOM     50  C   UNL A   1      48.361  26.791  25.782  1.00  0.00     0.049 A 
ATOM     51  N   UNL A   1      46.819  28.812  27.430  1.00  0.00    -0.248 NA
ATOM     52  C   UNL A   1      45.136  27.216  27.692  1.00  0.00     0.031 C 
ATOM     53  C   UNL A   1      49.149  25.840  24.998  1.00  0.00     0.029 A 
ATOM     54  N   UNL A   1      49.155  27.908  25.856  1.00  0.00    -0.354 N 
ATOM     55  C   UNL A   1      45.799  29.335  28.214  1.00  0.00     0.074 A 
ATOM     56  C   UNL A   1      44.773  28.324  28.318  1.00  0.00     0.031 C 
ATOM     57  C   UNL A   1      50.307  26.425  24.644  1.00  0.00     0.029 A 
ATOM     58  C   UNL A   1      50.329  27.797  25.151  1.00  0.00     0.049 A 
ATOM     59  H   UNL A   1      48.907  28.713  26.365  1.00  0.00     0.167 HD
ATOM     60  C   UNL A   1      45.726  30.552  28.800  1.00  0.00     0.037 A 
ATOM     61  C   UNL A   1      51.294  28.711  24.924  1.00  0.00     0.037 A 
ATOM     62  C   UNL A   1      46.753  31.553  28.690  1.00  0.00     0.049 A 
ATOM     63  C   UNL A   1      51.164  30.083  25.540  1.00  0.00     0.074 A 
ATOM     64  C   UNL A   1      46.789  32.812  29.262  1.00  0.00     0.029 A 
ATOM     65  N   UNL A   1      47.919  31.412  27.952  1.00  0.00    -0.354 N 
ATOM     66  N   UNL A   1      50.208  30.561  26.303  1.00  0.00    -0.248 NA
ATOM     67  C   UNL A   1      52.248  31.039  25.272  1.00  0.00     0.031 C 
ATOM     68  C   UNL A   1      47.948  33.456  28.818  1.00  0.00     0.029 A 
ATOM     69  C   UNL A   1      48.668  32.574  28.030  1.00  0.00     0.049 A 
ATOM     70  H   UNL A   1      48.175  30.607  27.448  1.00  0.00     0.167 HD
ATOM     71  C   UNL A   1      50.592  31.857  26.632  1.00  0.00     0.074 A 
ATOM     72  C   UNL A   1      51.872  32.084  25.996  1.00  0.00     0.031 C 
ATOM     73  C   UNL A   1      49.948  32.777  27.394  1.00  0.00     0.037 A 
BRANCH  60  74
ATOM     74  C   UNL A   1      44.480  30.884  29.572  1.00  0.00     0.058 A 
ATOM     75  C   UNL A   1      43.390  31.543  28.983  1.00  0.00     0.135 A 
ATOM     76  C   UNL A   1      44.366  30.503  30.919  1.00  0.00     0.135 A 
ATOM     77  F   UNL A   1      43.457  31.955  27.706  1.00  0.00    -0.206 F 
ATOM     78  C   UNL A   1      42.235  31.824  29.704  1.00  0.00     0.059 A 
ATOM     79  C   UNL A   1      43.209  30.747  31.651  1.00  0.00     0.059 A 
ATOM     80  F   UNL A   1      45.384  29.883  31.536  1.00  0.00    -0.206 F 
ATOM     81  C   UNL A   1      42.151  31.415  31.038  1.00  0.00     0.060 A 
BRANCH  81  82
ATOM     82  S   UNL A   1      40.634  31.760  31.951  1.00  0.00     0.124 S 
ATOM     83  O   UNL A   1      40.567  30.614  32.852  1.00  0.00    -0.237 OA
ATOM     84  O   UNL A   1      40.934  33.043  32.579  1.00  0.00    -0.237 OA
ATOM     85  O   UNL A   1      39.612  31.799  30.910  1.00  0.00    -0.744 OA
ENDBRANCH  81  82
ENDBRANCH  60  74
BRANCH  61  86
ATOM     86  C   UNL A   1      52.454  28.375  24.054  1.00  0.00     0.058 A 
ATOM     87  C   UNL A   1      52.436  28.633  22.675  1.00  0.00     0.135 A 
ATOM     88  C   UNL A   1      53.603  27.768  24.587  1.00  0.00     0.135 A 
ATOM     89  F   UNL A   1      51.357  29.199  22.113  1.00  0.00    -0.206 F 
ATOM     90  C   UNL A   1      53.502  28.282  21.852  1.00  0.00     0.059 A 
ATOM     91  C   UNL A   1      54.695  27.435  23.790  1.00  0.00     0.059 A 
ATOM     92  F   UNL A   1      53.679  27.506  25.901  1.00  0.00    -0.206 F 
ATOM     93  C   UNL A   1      54.629  27.685  22.420  1.00  0.00     0.060 A 
BRANCH  93  94
ATOM     94  S   UNL A   1      56.023  27.270  21.350  1.00  0.00     0.124 S 
ATOM     95  O   UNL A   1      55.411  26.328  20.422  1.00  0.00    -0.237 OA
ATOM     96  O   UNL A   1      56.380  28.572  20.797  1.00  0.00    -0.237 OA
ATOM     97  O   UNL A   1      56.999  26.701  22.275  1.00  0.00    -0.744 OA
ENDBRANCH  93  94
ENDBRANCH  61  86
BRANCH  73  98
ATOM     98  C   UNL A   1      50.636  34.097  27.627  1.00  0.00     0.058 A 
ATOM     99  C   UNL A   1      51.509  34.302  28.706  1.00  0.00     0.135 A 
ATOM    100  C   UNL A   1      50.453  35.158  26.723  1.00  0.00     0.135 A 
ATOM    101  F   UNL A   1      51.720  33.322  29.600  1.00  0.00    -0.206 F 
ATOM    102  C   UNL A   1      52.146  35.523  28.904  1.00  0.00     0.059 A 
ATOM    103  C   UNL A   1      51.107  36.375  26.881  1.00  0.00     0.059 A 
ATOM    104  F   UNL A   1      49.643  35.011  25.663  1.00  0.00    -0.206 F 
ATOM    105  C   UNL A   1      51.938  36.554  27.986  1.00  0.00     0.060 A 
BRANCH 105 106
ATOM    106  S   UNL A   1      52.781  38.128  28.245  1.00  0.00     0.124 S 
ATOM    107  O   UNL A   1      52.132  38.976  27.252  1.00  0.00    -0.237 OA
ATOM    108  O   UNL A   1      52.463  38.426  29.639  1.00  0.00    -0.237 OA
ATOM    109  O   UNL A   1      54.182  37.813  27.982  1.00  0.00    -0.744 OA
ENDBRANCH 105 106
ENDBRANCH  73  98
ENDBRANCH  47  48
ENDBRANCH  40  42
ENDBRANCH  39  40
ENDBRANCH  38  39
ENDBRANCH  37  38
ENDBRANCH  36  37
ENDBRANCH  35  36
ENDBRANCH  34  35
ENDBRANCH   1  34
TORSDOF 27
ENDMDL
MODEL 2
REMARK VINA RESULT:      -8.2      5.613     12.056
REMARK SMILES COc1ccc(C(=O)N(C)C)cc1NC(=O)[C@H]1[C@@H](C(=O)OCCOCCOCCOCCOC(=O)c2ccc(-c3c4nc(c(-c5c(F)cc(S(=O)(=O)[O-])cc5F)c5ccc([nH]5)c(-c5c(F)cc(S(=O)(=O)[O-])cc5F)c5nc(c(-c6c(F)cc(S(=O)(=O)[O-])cc6F)c6ccc3[nH]6)C=C5)C=C4)cc2)[C@H]2C=C[C@@H]1C2
REMARK SMILES IDX 27 1 26 2 25 3 24 4 23 5 22 6 21 7 19 8 20 9 18 10 17 11
REMARK SMILES IDX 105 12 102 13 104 14 106 15 103 16 15 17 14 18 16 20 13 21
REMARK SMILES IDX 3 22 4 23 5 24 12 25 6 26 2 27 1 28 7 29 8 30 9 31 10 32
REMARK SMILES IDX 11 33 28 34 29 35 30 36 31 37 32 38 33 39 34 40 35 41 36 42
REMARK SMILES IDX 37 43 101 44 38 45 100 46 39 47 40 48 41 49 94 50 42 51
REMARK SMILES IDX 99 52 93 53 95 54 43 55 98 56 92 57 91 58 44 60 78 61 57 62
REMARK SMILES IDX 77 63 58 64 61 65 76 66 96 67 59 68 60 69 75 71 97 72 62 73
REMARK SMILES IDX 45 74 46 75 55 76 47 77 48 78 54 79 56 80 49 81 50 82 51 83
REMARK SMILES IDX 52 84 53 85 79 86 80 87 89 88 81 89 82 90 88 91 90 92 83 93
REMARK SMILES IDX 84 94 85 95 86 96 87 97 63 98 64 99 73 100 65 101 66 102
REMARK SMILES IDX 72 103 74 104 67 105 68 106 69 107 70 108 71 109
REMARK H PARENT 14 19 95 59 61 70
REMARK Flexibility Score: inf
ROOT
ATOM      1  O   UNL A   1      40.824  26.450  34.715  1.00  0.00    -0.377 OA
ENDROOT
BRANCH   1   2
ATOM      2  C   UNL A   1      41.533  25.925  35.819  1.00  0.00     0.188 C 
BRANCH   2   3
ATOM      3  C   UNL A   1      41.887  26.852  37.005  1.00  0.00     0.188 C 
BRANCH   3   4
ATOM      4  O   UNL A   1      43.241  26.775  37.425  1.00  0.00    -0.376 OA
BRANCH   4   5
ATOM      5  C   UNL A   1      44.193  27.477  36.632  1.00  0.00     0.202 C 
BRANCH   5   6
ATOM      6  C   UNL A   1      43.828  28.880  36.106  1.00  0.00     0.261 C 
BRANCH   6   7
ATOM      7  O   UNL A   1      44.350  29.929  36.952  1.00  0.00    -0.463 OA
BRANCH   7   8
ATOM      8  C   UNL A   1      44.756  31.110  36.443  1.00  0.00     0.310 C 
ATOM      9  O   UNL A   1      45.342  31.926  37.126  1.00  0.00    -0.252 OA
BRANCH   8  10
ATOM     10  C   UNL A   1      44.313  31.256  34.968  1.00  0.00     0.119 C 
ATOM     11  C   UNL A   1      45.177  30.721  33.785  1.00  0.00     0.100 C 
ATOM     12  C   UNL A   1      44.895  31.697  32.622  1.00  0.00     0.025 C 
ATOM     13  C   UNL A   1      43.775  32.595  34.358  1.00  0.00     0.027 C 
ATOM     14  C   UNL A   1      45.553  33.001  32.907  1.00  0.00    -0.027 C 
ATOM     15  C   UNL A   1      43.441  32.101  32.933  1.00  0.00     0.017 C 
ATOM     16  C   UNL A   1      44.852  33.561  33.900  1.00  0.00    -0.027 C 
BRANCH  11  17
ATOM     17  C   UNL A   1      46.607  30.228  33.801  1.00  0.00     0.229 C 
ATOM     18  N   UNL A   1      47.190  29.163  33.230  1.00  0.00    -0.323 N 
ATOM     19  H   UNL A   1      48.168  29.247  33.314  1.00  0.00     0.170 HD
ATOM     20  O   UNL A   1      47.415  30.932  34.440  1.00  0.00    -0.274 OA
BRANCH  18  21
ATOM     21  C   UNL A   1      46.890  27.967  32.553  1.00  0.00     0.084 A 
ATOM     22  C   UNL A   1      47.456  27.743  31.280  1.00  0.00     0.142 A 
ATOM     23  C   UNL A   1      47.156  26.544  30.627  1.00  0.00     0.049 A 
ATOM     24  C   UNL A   1      46.340  25.570  31.211  1.00  0.00     0.018 A 
ATOM     25  C   UNL A   1      46.073  26.947  33.111  1.00  0.00     0.044 A 
ATOM     26  C   UNL A   1      45.768  25.732  32.480  1.00  0.00     0.042 A 
BRANCH  22  27
ATOM     27  O   UNL A   1      48.213  28.552  30.475  1.00  0.00    -0.495 OA
ATOM     28  C   UNL A   1      49.543  28.946  30.765  1.00  0.00     0.278 C 
ENDBRANCH  22  27
BRANCH  26  29
ATOM     29  C   UNL A   1      45.105  24.486  33.060  1.00  0.00     0.253 C 
ATOM     30  O   UNL A   1      44.167  24.066  32.360  1.00  0.00    -0.269 OA
ATOM     31  N   UNL A   1      45.463  23.699  34.178  1.00  0.00    -0.345 N 
ATOM     32  C   UNL A   1      45.920  24.101  35.501  1.00  0.00     0.146 C 
ATOM     33  C   UNL A   1      44.923  22.346  34.194  1.00  0.00     0.146 C 
ENDBRANCH  26  29
ENDBRANCH  18  21
ENDBRANCH  11  17
ENDBRANCH   8  10
ENDBRANCH   7   8
ENDBRANCH   6   7
ENDBRANCH   5   6
ENDBRANCH   4   5
ENDBRANCH   3   4
ENDBRANCH   2   3
ENDBRANCH   1   2
BRANCH   1  34
ATOM     34  C   UNL A   1      41.331  27.627  34.108  1.00  0.00     0.188 C 
BRANCH  34  35
ATOM     35  C   UNL A   1      40.514  28.308  32.984  1.00  0.00     0.188 C 
BRANCH  35  36
ATOM     36  O   UNL A   1      39.211  28.750  33.337  1.00  0.00    -0.376 OA
BRANCH  36  37
ATOM     37  C   UNL A   1      38.106  28.303  32.567  1.00  0.00     0.202 C 
BRANCH  37  38
ATOM     38  C   UNL A   1      36.900  29.243  32.381  1.00  0.00     0.261 C 
BRANCH  38  39
ATOM     39  O   UNL A   1      37.194  30.642  32.289  1.00  0.00    -0.460 OA
BRANCH  39  40
ATOM     40  C   UNL A   1      37.210  31.186  31.054  1.00  0.00     0.338 C 
ATOM     41  O   UNL A   1      36.369  31.926  30.567  1.00  0.00    -0.246 OA
BRANCH  40  42
ATOM     42  C   UNL A   1      38.538  30.919  30.468  1.00  0.00     0.060 A 
ATOM     43  C   UNL A   1      38.605  30.286  29.218  1.00  0.00     0.016 A 
ATOM     44  C   UNL A   1      39.701  31.347  31.112  1.00  0.00     0.016 A 
ATOM     45  C   UNL A   1      39.839  30.058  28.617  1.00  0.00     0.010 A 
ATOM     46  C   UNL A   1      40.941  31.072  30.534  1.00  0.00     0.010 A 
ATOM     47  C   UNL A   1      41.011  30.393  29.303  1.00  0.00    -0.014 A 
BRANCH  47  48
ATOM     48  C   UNL A   1      42.281  29.768  28.871  1.00  0.00     0.031 A 
ATOM     49  C   UNL A   1      43.492  30.658  28.791  1.00  0.00     0.074 A 
ATOM     50  C   UNL A   1      42.373  28.454  28.609  1.00  0.00     0.049 A 
ATOM     51  N   UNL A   1      44.712  30.371  28.425  1.00  0.00    -0.248 NA
ATOM     52  C   UNL A   1      43.295  32.068  29.177  1.00  0.00     0.031 C 
ATOM     53  C   UNL A   1      41.277  27.490  28.703  1.00  0.00     0.029 A 
ATOM     54  N   UNL A   1      43.448  27.705  28.203  1.00  0.00    -0.354 N 
ATOM     55  C   UNL A   1      45.422  31.560  28.525  1.00  0.00     0.074 A 
ATOM     56  C   UNL A   1      44.496  32.580  28.962  1.00  0.00     0.031 C 
ATOM     57  C   UNL A   1      41.734  26.278  28.341  1.00  0.00     0.029 A 
ATOM     58  C   UNL A   1      43.143  26.387  27.964  1.00  0.00     0.049 A 
ATOM     59  H   UNL A   1      44.353  28.077  28.093  1.00  0.00     0.167 HD
ATOM     60  C   UNL A   1      46.733  31.782  28.278  1.00  0.00     0.037 A 
ATOM     61  C   UNL A   1      43.912  25.394  27.472  1.00  0.00     0.037 A 
ATOM     62  C   UNL A   1      47.647  30.760  27.844  1.00  0.00     0.049 A 
ATOM     63  C   UNL A   1      45.358  25.679  27.149  1.00  0.00     0.074 A 
ATOM     64  C   UNL A   1      49.000  30.873  27.585  1.00  0.00     0.029 A 
ATOM     65  N   UNL A   1      47.297  29.441  27.593  1.00  0.00    -0.354 N 
ATOM     66  N   UNL A   1      46.029  26.801  27.272  1.00  0.00    -0.248 NA
ATOM     67  C   UNL A   1      46.157  24.560  26.627  1.00  0.00     0.031 C 
ATOM     68  C   UNL A   1      49.457  29.637  27.118  1.00  0.00     0.029 A 
ATOM     69  C   UNL A   1      48.405  28.736  27.154  1.00  0.00     0.049 A 
ATOM     70  H   UNL A   1      46.397  29.063  27.710  1.00  0.00     0.167 HD
ATOM     71  C   UNL A   1      47.332  26.514  26.876  1.00  0.00     0.074 A 
ATOM     72  C   UNL A   1      47.358  25.111  26.522  1.00  0.00     0.031 C 
ATOM     73  C   UNL A   1      48.412  27.334  26.814  1.00  0.00     0.037 A 
BRANCH  60  74
ATOM     74  C   UNL A   1      47.246  33.187  28.429  1.00  0.00     0.058 A 
ATOM     75  C   UNL A   1      47.186  34.120  27.383  1.00  0.00     0.135 A 
ATOM     76  C   UNL A   1      47.776  33.613  29.658  1.00  0.00     0.135 A 
ATOM     77  F   UNL A   1      46.715  33.757  26.178  1.00  0.00    -0.206 F 
ATOM     78  C   UNL A   1      47.644  35.423  27.543  1.00  0.00     0.059 A 
ATOM     79  C   UNL A   1      48.213  34.919  29.851  1.00  0.00     0.059 A 
ATOM     80  F   UNL A   1      47.870  32.758  30.688  1.00  0.00    -0.206 F 
ATOM     81  C   UNL A   1      48.151  35.815  28.785  1.00  0.00     0.060 A 
BRANCH  81  82
ATOM     82  S   UNL A   1      48.713  37.517  28.987  1.00  0.00     0.124 S 
ATOM     83  O   UNL A   1      47.446  38.231  29.113  1.00  0.00    -0.237 OA
ATOM     84  O   UNL A   1      49.518  37.436  30.202  1.00  0.00    -0.237 OA
ATOM     85  O   UNL A   1      49.460  37.777  27.760  1.00  0.00    -0.744 OA
ENDBRANCH  81  82
ENDBRANCH  60  74
BRANCH  61  86
ATOM     86  C   UNL A   1      43.329  24.046  27.228  1.00  0.00     0.058 A 
ATOM     87  C   UNL A   1      43.369  23.042  28.206  1.00  0.00     0.135 A 
ATOM     88  C   UNL A   1      42.733  23.731  25.996  1.00  0.00     0.135 A 
ATOM     89  F   UNL A   1      43.938  23.287  29.396  1.00  0.00    -0.206 F 
ATOM     90  C   UNL A   1      42.861  21.769  27.967  1.00  0.00     0.059 A 
ATOM     91  C   UNL A   1      42.191  22.475  25.742  1.00  0.00     0.059 A 
ATOM     92  F   UNL A   1      42.659  24.656  25.026  1.00  0.00    -0.206 F 
ATOM     93  C   UNL A   1      42.272  21.495  26.731  1.00  0.00     0.060 A 
BRANCH  93  94
ATOM     94  S   UNL A   1      41.580  19.852  26.444  1.00  0.00     0.124 S 
ATOM     95  O   UNL A   1      41.871  19.185  27.707  1.00  0.00    -0.237 OA
ATOM     96  O   UNL A   1      40.176  20.153  26.189  1.00  0.00    -0.237 OA
ATOM     97  O   UNL A   1      42.330  19.369  25.288  1.00  0.00    -0.744 OA
ENDBRANCH  93  94
ENDBRANCH  61  86
BRANCH  73  98
ATOM     98  C   UNL A   1      49.726  26.728  26.394  1.00  0.00     0.058 A 
ATOM     99  C   UNL A   1      50.218  26.849  25.086  1.00  0.00     0.135 A 
ATOM    100  C   UNL A   1      50.525  26.055  27.335  1.00  0.00     0.135 A 
ATOM    101  F   UNL A   1      49.495  27.481  24.148  1.00  0.00    -0.206 F 
ATOM    102  C   UNL A   1      51.438  26.293  24.714  1.00  0.00     0.059 A 
ATOM    103  C   UNL A   1      51.763  25.522  26.994  1.00  0.00     0.059 A 
ATOM    104  F   UNL A   1      50.111  25.925  28.605  1.00  0.00    -0.206 F 
ATOM    105  C   UNL A   1      52.204  25.631  25.676  1.00  0.00     0.060 A 
BRANCH 105 106
ATOM    106  S   UNL A   1      53.790  24.925  25.184  1.00  0.00     0.124 S 
ATOM    107  O   UNL A   1      54.024  25.590  23.907  1.00  0.00    -0.237 OA
ATOM    108  O   UNL A   1      54.665  25.331  26.280  1.00  0.00    -0.237 OA
ATOM    109  O   UNL A   1      53.517  23.493  25.106  1.00  0.00    -0.744 OA
ENDBRANCH 105 106
ENDBRANCH  73  98
ENDBRANCH  47  48
ENDBRANCH  40  42
ENDBRANCH  39  40
ENDBRANCH  38  39
ENDBRANCH  37  38
ENDBRANCH  36  37
ENDBRANCH  35  36
ENDBRANCH  34  35
ENDBRANCH   1  34
TORSDOF 27
ENDMDL
MODEL 3
REMARK VINA RESULT:      -8.2      3.909      9.577
REMARK SMILES COc1ccc(C(=O)N(C)C)cc1NC(=O)[C@H]1[C@@H](C(=O)OCCOCCOCCOCCOC(=O)c2ccc(-c3c4nc(c(-c5c(F)cc(S(=O)(=O)[O-])cc5F)c5ccc([nH]5)c(-c5c(F)cc(S(=O)(=O)[O-])cc5F)c5nc(c(-c6c(F)cc(S(=O)(=O)[O-])cc6F)c6ccc3[nH]6)C=C5)C=C4)cc2)[C@H]2C=C[C@@H]1C2
REMARK SMILES IDX 27 1 26 2 25 3 24 4 23 5 22 6 21 7 19 8 20 9 18 10 17 11
REMARK SMILES IDX 105 12 102 13 104 14 106 15 103 16 15 17 14 18 16 20 13 21
REMARK SMILES IDX 3 22 4 23 5 24 12 25 6 26 2 27 1 28 7 29 8 30 9 31 10 32
REMARK SMILES IDX 11 33 28 34 29 35 30 36 31 37 32 38 33 39 34 40 35 41 36 42
REMARK SMILES IDX 37 43 101 44 38 45 100 46 39 47 40 48 41 49 94 50 42 51
REMARK SMILES IDX 99 52 93 53 95 54 43 55 98 56 92 57 91 58 44 60 78 61 57 62
REMARK SMILES IDX 77 63 58 64 61 65 76 66 96 67 59 68 60 69 75 71 97 72 62 73
REMARK SMILES IDX 45 74 46 75 55 76 47 77 48 78 54 79 56 80 49 81 50 82 51 83
REMARK SMILES IDX 52 84 53 85 79 86 80 87 89 88 81 89 82 90 88 91 90 92 83 93
REMARK SMILES IDX 84 94 85 95 86 96 87 97 63 98 64 99 73 100 65 101 66 102
REMARK SMILES IDX 72 103 74 104 67 105 68 106 69 107 70 108 71 109
REMARK H PARENT 14 19 95 59 61 70
REMARK Flexibility Score: inf
ROOT
ATOM      1  O   UNL A   1      42.215  30.179  29.722  1.00  0.00    -0.377 OA
ENDROOT
BRANCH   1   2
ATOM      2  C   UNL A   1      42.180  31.580  29.906  1.00  0.00     0.188 C 
BRANCH   2   3
ATOM      3  C   UNL A   1      40.921  32.236  30.519  1.00  0.00     0.188 C 
BRANCH   3   4
ATOM      4  O   UNL A   1      41.147  33.514  31.094  1.00  0.00    -0.376 OA
BRANCH   4   5
ATOM      5  C   UNL A   1      40.655  33.713  32.415  1.00  0.00     0.202 C 
BRANCH   5   6
ATOM      6  C   UNL A   1      39.155  34.017  32.608  1.00  0.00     0.261 C 
BRANCH   6   7
ATOM      7  O   UNL A   1      38.527  33.090  33.520  1.00  0.00    -0.463 OA
BRANCH   7   8
ATOM      8  C   UNL A   1      37.861  32.003  33.076  1.00  0.00     0.310 C 
ATOM      9  O   UNL A   1      38.446  30.979  32.784  1.00  0.00    -0.252 OA
BRANCH   8  10
ATOM     10  C   UNL A   1      36.348  32.298  32.949  1.00  0.00     0.119 C 
ATOM     11  C   UNL A   1      35.625  32.345  31.567  1.00  0.00     0.100 C 
ATOM     12  C   UNL A   1      34.504  33.390  31.748  1.00  0.00     0.025 C 
ATOM     13  C   UNL A   1      35.634  33.476  33.695  1.00  0.00     0.027 C 
ATOM     14  C   UNL A   1      35.108  34.749  31.815  1.00  0.00    -0.027 C 
ATOM     15  C   UNL A   1      34.181  33.209  33.243  1.00  0.00     0.017 C 
ATOM     16  C   UNL A   1      35.731  34.820  32.998  1.00  0.00    -0.027 C 
BRANCH  11  17
ATOM     17  C   UNL A   1      36.229  32.367  30.180  1.00  0.00     0.229 C 
ATOM     18  N   UNL A   1      35.666  32.382  28.962  1.00  0.00    -0.323 N 
ATOM     19  H   UNL A   1      36.361  32.566  28.289  1.00  0.00     0.170 HD
ATOM     20  O   UNL A   1      37.476  32.397  30.134  1.00  0.00    -0.274 OA
BRANCH  18  21
ATOM     21  C   UNL A   1      34.429  32.226  28.313  1.00  0.00     0.084 A 
ATOM     22  C   UNL A   1      33.665  33.374  28.014  1.00  0.00     0.142 A 
ATOM     23  C   UNL A   1      32.443  33.200  27.359  1.00  0.00     0.049 A 
ATOM     24  C   UNL A   1      31.982  31.935  26.978  1.00  0.00     0.018 A 
ATOM     25  C   UNL A   1      33.926  30.962  27.902  1.00  0.00     0.044 A 
ATOM     26  C   UNL A   1      32.710  30.765  27.232  1.00  0.00     0.042 A 
BRANCH  22  27
ATOM     27  O   UNL A   1      33.854  34.692  28.337  1.00  0.00    -0.495 OA
ATOM     28  C   UNL A   1      32.896  35.496  29.003  1.00  0.00     0.278 C 
ENDBRANCH  22  27
BRANCH  26  29
ATOM     29  C   UNL A   1      32.180  29.508  26.548  1.00  0.00     0.253 C 
ATOM     30  O   UNL A   1      31.537  28.772  27.317  1.00  0.00    -0.269 OA
ATOM     31  N   UNL A   1      32.213  29.128  25.186  1.00  0.00    -0.345 N 
ATOM     32  C   UNL A   1      33.286  29.238  24.207  1.00  0.00     0.146 C 
ATOM     33  C   UNL A   1      31.237  28.121  24.791  1.00  0.00     0.146 C 
ENDBRANCH  26  29
ENDBRANCH  18  21
ENDBRANCH  11  17
ENDBRANCH   8  10
ENDBRANCH   7   8
ENDBRANCH   6   7
ENDBRANCH   5   6
ENDBRANCH   4   5
ENDBRANCH   3   4
ENDBRANCH   2   3
ENDBRANCH   1   2
BRANCH   1  34
ATOM     34  C   UNL A   1      41.077  29.565  29.141  1.00  0.00     0.188 C 
BRANCH  34  35
ATOM     35  C   UNL A   1      40.690  28.131  29.575  1.00  0.00     0.188 C 
BRANCH  35  36
ATOM     36  O   UNL A   1      41.478  27.080  29.034  1.00  0.00    -0.376 OA
BRANCH  36  37
ATOM     37  C   UNL A   1      40.936  26.287  27.989  1.00  0.00     0.202 C 
BRANCH  37  38
ATOM     38  C   UNL A   1      40.980  24.753  28.119  1.00  0.00     0.261 C 
BRANCH  38  39
ATOM     39  O   UNL A   1      42.097  24.209  28.833  1.00  0.00    -0.460 OA
BRANCH  39  40
ATOM     40  C   UNL A   1      43.018  23.537  28.112  1.00  0.00     0.338 C 
ATOM     41  O   UNL A   1      42.892  22.433  27.605  1.00  0.00    -0.246 OA
BRANCH  40  42
ATOM     42  C   UNL A   1      44.134  24.464  27.843  1.00  0.00     0.060 A 
ATOM     43  C   UNL A   1      44.781  25.071  28.931  1.00  0.00     0.016 A 
ATOM     44  C   UNL A   1      44.582  24.682  26.538  1.00  0.00     0.016 A 
ATOM     45  C   UNL A   1      45.864  25.916  28.715  1.00  0.00     0.010 A 
ATOM     46  C   UNL A   1      45.636  25.571  26.318  1.00  0.00     0.010 A 
ATOM     47  C   UNL A   1      46.252  26.218  27.405  1.00  0.00    -0.014 A 
BRANCH  47  48
ATOM     48  C   UNL A   1      47.088  27.418  27.180  1.00  0.00     0.031 A 
ATOM     49  C   UNL A   1      48.560  27.198  26.961  1.00  0.00     0.074 A 
ATOM     50  C   UNL A   1      46.558  28.651  27.118  1.00  0.00     0.049 A 
ATOM     51  N   UNL A   1      49.511  28.070  26.762  1.00  0.00    -0.248 NA
ATOM     52  C   UNL A   1      49.022  25.797  26.970  1.00  0.00     0.031 C 
ATOM     53  C   UNL A   1      45.140  28.975  27.264  1.00  0.00     0.029 A 
ATOM     54  N   UNL A   1      47.164  29.866  26.919  1.00  0.00    -0.354 N 
ATOM     55  C   UNL A   1      50.679  27.329  26.635  1.00  0.00     0.074 A 
ATOM     56  C   UNL A   1      50.327  25.938  26.802  1.00  0.00     0.031 C 
ATOM     57  C   UNL A   1      44.989  30.308  27.172  1.00  0.00     0.029 A 
ATOM     58  C   UNL A   1      46.299  30.931  26.989  1.00  0.00     0.049 A 
ATOM     59  H   UNL A   1      48.128  29.965  26.742  1.00  0.00     0.167 HD
ATOM     60  C   UNL A   1      51.934  27.770  26.395  1.00  0.00     0.037 A 
ATOM     61  C   UNL A   1      46.549  32.255  26.937  1.00  0.00     0.037 A 
ATOM     62  C   UNL A   1      52.275  29.157  26.229  1.00  0.00     0.049 A 
ATOM     63  C   UNL A   1      47.967  32.726  26.726  1.00  0.00     0.074 A 
ATOM     64  C   UNL A   1      53.513  29.710  25.961  1.00  0.00     0.029 A 
ATOM     65  N   UNL A   1      51.376  30.209  26.327  1.00  0.00    -0.354 N 
ATOM     66  N   UNL A   1      49.063  32.016  26.579  1.00  0.00    -0.248 NA
ATOM     67  C   UNL A   1      48.184  34.179  26.664  1.00  0.00     0.031 C 
ATOM     68  C   UNL A   1      53.375  31.102  25.958  1.00  0.00     0.029 A 
ATOM     69  C   UNL A   1      52.039  31.412  26.153  1.00  0.00     0.049 A 
ATOM     70  H   UNL A   1      50.411  30.114  26.494  1.00  0.00     0.167 HD
ATOM     71  C   UNL A   1      50.089  32.934  26.375  1.00  0.00     0.074 A 
ATOM     72  C   UNL A   1      49.482  34.248  26.405  1.00  0.00     0.031 C 
ATOM     73  C   UNL A   1      51.413  32.712  26.177  1.00  0.00     0.037 A 
BRANCH  60  74
ATOM     74  C   UNL A   1      53.036  26.749  26.340  1.00  0.00     0.058 A 
ATOM     75  C   UNL A   1      53.454  26.167  25.133  1.00  0.00     0.135 A 
ATOM     76  C   UNL A   1      53.706  26.374  27.515  1.00  0.00     0.135 A 
ATOM     77  F   UNL A   1      52.829  26.468  23.983  1.00  0.00    -0.206 F 
ATOM     78  C   UNL A   1      54.490  25.240  25.094  1.00  0.00     0.059 A 
ATOM     79  C   UNL A   1      54.764  25.471  27.497  1.00  0.00     0.059 A 
ATOM     80  F   UNL A   1      53.337  26.889  28.699  1.00  0.00    -0.206 F 
ATOM     81  C   UNL A   1      55.144  24.903  26.282  1.00  0.00     0.060 A 
BRANCH  81  82
ATOM     82  S   UNL A   1      56.506  23.722  26.211  1.00  0.00     0.124 S 
ATOM     83  O   UNL A   1      57.437  24.290  27.181  1.00  0.00    -0.237 OA
ATOM     84  O   UNL A   1      55.858  22.477  26.609  1.00  0.00    -0.237 OA
ATOM     85  O   UNL A   1      56.938  23.784  24.818  1.00  0.00    -0.744 OA
ENDBRANCH  81  82
ENDBRANCH  60  74
BRANCH  61  86
ATOM     86  C   UNL A   1      45.440  33.233  27.114  1.00  0.00     0.058 A 
ATOM     87  C   UNL A   1      44.626  33.620  26.039  1.00  0.00     0.135 A 
ATOM     88  C   UNL A   1      45.186  33.816  28.366  1.00  0.00     0.135 A 
ATOM     89  F   UNL A   1      44.835  33.102  24.819  1.00  0.00    -0.206 F 
ATOM     90  C   UNL A   1      43.616  34.564  26.191  1.00  0.00     0.059 A 
ATOM     91  C   UNL A   1      44.162  34.740  28.551  1.00  0.00     0.059 A 
ATOM     92  F   UNL A   1      45.929  33.477  29.431  1.00  0.00    -0.206 F 
ATOM     93  C   UNL A   1      43.390  35.117  27.453  1.00  0.00     0.060 A 
BRANCH  93  94
ATOM     94  S   UNL A   1      42.050  36.313  27.650  1.00  0.00     0.124 S 
ATOM     95  O   UNL A   1      42.303  36.818  28.994  1.00  0.00    -0.237 OA
ATOM     96  O   UNL A   1      42.312  37.245  26.558  1.00  0.00    -0.237 OA
ATOM     97  O   UNL A   1      40.848  35.500  27.496  1.00  0.00    -0.744 OA
ENDBRANCH  93  94
ENDBRANCH  61  86
BRANCH  73  98
ATOM     98  C   UNL A   1      52.292  33.910  25.927  1.00  0.00     0.058 A 
ATOM     99  C   UNL A   1      52.988  34.553  26.961  1.00  0.00     0.135 A 
ATOM    100  C   UNL A   1      52.475  34.389  24.618  1.00  0.00     0.135 A 
ATOM    101  F   UNL A   1      52.849  34.137  28.230  1.00  0.00    -0.206 F 
ATOM    102  C   UNL A   1      53.804  35.653  26.715  1.00  0.00     0.059 A 
ATOM    103  C   UNL A   1      53.313  35.465  24.344  1.00  0.00     0.059 A 
ATOM    104  F   UNL A   1      51.847  33.801  23.588  1.00  0.00    -0.206 F 
ATOM    105  C   UNL A   1      53.960  36.101  25.402  1.00  0.00     0.060 A 
BRANCH 105 106
ATOM    106  S   UNL A   1      55.032  37.520  25.093  1.00  0.00     0.124 S 
ATOM    107  O   UNL A   1      54.816  37.746  23.668  1.00  0.00    -0.237 OA
ATOM    108  O   UNL A   1      54.477  38.531  25.988  1.00  0.00    -0.237 OA
ATOM    109  O   UNL A   1      56.359  37.030  25.456  1.00  0.00    -0.744 OA
ENDBRANCH 105 106
ENDBRANCH  73  98
ENDBRANCH  47  48
ENDBRANCH  40  42
ENDBRANCH  39  40
ENDBRANCH  38  39
ENDBRANCH  37  38
ENDBRANCH  36  37
ENDBRANCH  35  36
ENDBRANCH  34  35
ENDBRANCH   1  34
TORSDOF 27
ENDMDL
