MODEL 1
REMARK VINA RESULT:      -9.1      0.000      0.000
REMARK SMILES CC[C@@](C)([NH2+][C@H]1CC[C@H](C)[C@H](C)C1)C(=O)OCCOCCOCCOCCOC(=O)c1ccc(-c2c3nc(c(-c4c(F)cc(S(=O)(=O)[O-])cc4F)c4ccc([nH]4)c(-c4c(F)cc(S(=O)(=O)[O-])cc4F)c4nc(c(-c5c(F)cc(S(=O)(=O)[O-])cc5F)c5ccc2[nH]5)C=C4)C=C3)cc1
REMARK SMILES IDX 23 1 22 2 21 3 20 4 19 5 18 6 17 7 16 8 14 9 15 10 3 11 4 12
REMARK SMILES IDX 2 13 1 14 5 15 6 18 7 19 13 20 8 21 11 22 9 23 12 24 10 25
REMARK SMILES IDX 24 26 25 27 26 28 27 29 28 30 29 31 30 32 31 33 32 34 96 35
REMARK SMILES IDX 33 36 95 37 34 38 35 39 36 40 89 41 37 42 94 43 88 44 90 45
REMARK SMILES IDX 38 46 93 47 87 48 86 49 39 51 73 52 52 53 72 54 53 55 56 56
REMARK SMILES IDX 71 57 91 58 54 59 55 60 70 62 92 63 57 64 40 65 41 66 50 67
REMARK SMILES IDX 42 68 43 69 49 70 51 71 44 72 45 73 46 74 47 75 48 76 74 77
REMARK SMILES IDX 75 78 84 79 76 80 77 81 83 82 85 83 78 84 79 85 80 86 81 87
REMARK SMILES IDX 82 88 58 89 59 90 68 91 60 92 61 93 67 94 69 95 62 96 63 97
REMARK SMILES IDX 64 98 65 99 66 100
REMARK H PARENT 5 16 5 17 90 50 56 61
REMARK Flexibility Score: inf
ROOT
ATOM      1  C   UNL A   1      33.392  33.201  28.045  1.00  0.00     0.188 C 
ENDROOT
BRANCH   1   2
ATOM      2  O   UNL A   1      34.176  32.211  27.415  1.00  0.00    -0.377 OA
BRANCH   2   3
ATOM      3  C   UNL A   1      34.001  30.845  27.708  1.00  0.00     0.188 C 
BRANCH   3   4
ATOM      4  C   UNL A   1      33.436  29.819  26.724  1.00  0.00     0.188 C 
BRANCH   4   5
ATOM      5  O   UNL A   1      32.055  29.676  26.432  1.00  0.00    -0.376 OA
BRANCH   5   6
ATOM      6  C   UNL A   1      31.510  29.712  25.125  1.00  0.00     0.202 C 
BRANCH   6   7
ATOM      7  C   UNL A   1      30.877  28.477  24.486  1.00  0.00     0.261 C 
BRANCH   7   8
ATOM      8  O   UNL A   1      31.768  27.355  24.450  1.00  0.00    -0.459 OA
BRANCH   8   9
ATOM      9  C   UNL A   1      32.538  27.232  23.345  1.00  0.00     0.367 C 
ATOM     10  O   UNL A   1      33.281  28.132  22.952  1.00  0.00    -0.245 OA
BRANCH   9  11
ATOM     11  C   UNL A   1      32.480  25.849  22.635  1.00  0.00     0.191 C 
ATOM     12  C   UNL A   1      31.335  25.052  23.282  1.00  0.00     0.092 C 
BRANCH  11  13
ATOM     13  C   UNL A   1      32.137  26.090  21.122  1.00  0.00     0.077 C 
ATOM     14  C   UNL A   1      32.640  25.068  20.108  1.00  0.00     0.011 C 
ENDBRANCH  11  13
BRANCH  11  15
ATOM     15  N   UNL A   1      33.735  25.035  22.544  1.00  0.00    -0.330 N 
ATOM     16  H   UNL A   1      34.466  25.698  22.289  1.00  0.00     0.347 HD
ATOM     17  H   UNL A   1      33.417  24.296  21.916  1.00  0.00     0.347 HD
BRANCH  15  18
ATOM     18  C   UNL A   1      34.316  24.215  23.622  1.00  0.00     0.183 C 
ATOM     19  C   UNL A   1      35.402  23.292  23.017  1.00  0.00     0.065 C 
ATOM     20  C   UNL A   1      34.718  24.932  24.914  1.00  0.00     0.068 C 
ATOM     21  C   UNL A   1      36.313  22.565  23.994  1.00  0.00     0.010 C 
ATOM     22  C   UNL A   1      35.572  24.079  25.857  1.00  0.00    -0.006 C 
ATOM     23  C   UNL A   1      36.772  23.573  25.045  1.00  0.00    -0.011 C 
ATOM     24  C   UNL A   1      34.759  22.969  26.535  1.00  0.00     0.008 C 
ATOM     25  C   UNL A   1      37.874  23.033  25.920  1.00  0.00     0.008 C 
ENDBRANCH  15  18
ENDBRANCH  11  15
ENDBRANCH   9  11
ENDBRANCH   8   9
ENDBRANCH   7   8
ENDBRANCH   6   7
ENDBRANCH   5   6
ENDBRANCH   4   5
ENDBRANCH   3   4
ENDBRANCH   2   3
ENDBRANCH   1   2
BRANCH   1  26
ATOM     26  C   UNL A   1      34.255  34.129  28.901  1.00  0.00     0.188 C 
BRANCH  26  27
ATOM     27  O   UNL A   1      33.961  34.184  30.304  1.00  0.00    -0.376 OA
BRANCH  27  28
ATOM     28  C   UNL A   1      34.504  33.168  31.139  1.00  0.00     0.202 C 
BRANCH  28  29
ATOM     29  C   UNL A   1      35.925  32.704  30.741  1.00  0.00     0.261 C 
BRANCH  29  30
ATOM     30  O   UNL A   1      36.061  31.348  30.279  1.00  0.00    -0.460 OA
BRANCH  30  31
ATOM     31  C   UNL A   1      36.758  30.507  31.086  1.00  0.00     0.338 C 
ATOM     32  O   UNL A   1      36.328  29.850  32.013  1.00  0.00    -0.246 OA
BRANCH  31  33
ATOM     33  C   UNL A   1      38.168  30.438  30.625  1.00  0.00     0.060 A 
ATOM     34  C   UNL A   1      38.442  30.358  29.252  1.00  0.00     0.016 A 
ATOM     35  C   UNL A   1      39.210  30.359  31.551  1.00  0.00     0.016 A 
ATOM     36  C   UNL A   1      39.753  30.147  28.803  1.00  0.00     0.010 A 
ATOM     37  C   UNL A   1      40.515  30.132  31.101  1.00  0.00     0.010 A 
ATOM     38  C   UNL A   1      40.792  29.982  29.728  1.00  0.00    -0.014 A 
BRANCH  38  39
ATOM     39  C   UNL A   1      42.125  29.460  29.310  1.00  0.00     0.031 A 
ATOM     40  C   UNL A   1      43.250  30.432  29.144  1.00  0.00     0.074 A 
ATOM     41  C   UNL A   1      42.341  28.162  29.036  1.00  0.00     0.049 A 
ATOM     42  N   UNL A   1      44.436  30.240  28.633  1.00  0.00    -0.248 NA
ATOM     43  C   UNL A   1      43.003  31.799  29.623  1.00  0.00     0.031 C 
ATOM     44  C   UNL A   1      41.362  27.117  29.260  1.00  0.00     0.029 A 
ATOM     45  N   UNL A   1      43.411  27.499  28.486  1.00  0.00    -0.354 N 
ATOM     46  C   UNL A   1      45.076  31.466  28.716  1.00  0.00     0.074 A 
ATOM     47  C   UNL A   1      44.136  32.401  29.298  1.00  0.00     0.031 C 
ATOM     48  C   UNL A   1      41.829  25.954  28.778  1.00  0.00     0.029 A 
ATOM     49  C   UNL A   1      43.140  26.182  28.186  1.00  0.00     0.049 A 
ATOM     50  H   UNL A   1      44.285  27.924  28.323  1.00  0.00     0.167 HD
ATOM     51  C   UNL A   1      46.337  31.778  28.337  1.00  0.00     0.037 A 
ATOM     52  C   UNL A   1      43.840  25.272  27.477  1.00  0.00     0.037 A 
ATOM     53  C   UNL A   1      47.250  30.836  27.741  1.00  0.00     0.049 A 
ATOM     54  C   UNL A   1      45.199  25.657  26.966  1.00  0.00     0.074 A 
ATOM     55  C   UNL A   1      48.556  31.045  27.340  1.00  0.00     0.029 A 
ATOM     56  N   UNL A   1      46.943  29.516  27.437  1.00  0.00    -0.354 N 
ATOM     57  N   UNL A   1      45.809  26.815  27.067  1.00  0.00    -0.248 NA
ATOM     58  C   UNL A   1      45.977  24.625  26.270  1.00  0.00     0.031 C 
ATOM     59  C   UNL A   1      49.015  29.874  26.729  1.00  0.00     0.029 A 
ATOM     60  C   UNL A   1      48.023  28.908  26.818  1.00  0.00     0.049 A 
ATOM     61  H   UNL A   1      46.084  29.077  27.632  1.00  0.00     0.167 HD
ATOM     62  C   UNL A   1      47.057  26.641  26.486  1.00  0.00     0.074 A 
ATOM     63  C   UNL A   1      47.114  25.268  26.026  1.00  0.00     0.031 C 
ATOM     64  C   UNL A   1      48.069  27.537  26.366  1.00  0.00     0.037 A 
BRANCH  51  65
ATOM     65  C   UNL A   1      46.762  33.209  28.500  1.00  0.00     0.058 A 
ATOM     66  C   UNL A   1      46.595  34.161  27.481  1.00  0.00     0.135 A 
ATOM     67  C   UNL A   1      47.382  33.627  29.689  1.00  0.00     0.135 A 
ATOM     68  F   UNL A   1      46.027  33.811  26.314  1.00  0.00    -0.206 F 
ATOM     69  C   UNL A   1      47.074  35.460  27.613  1.00  0.00     0.059 A 
ATOM     70  C   UNL A   1      47.837  34.930  29.858  1.00  0.00     0.059 A 
ATOM     71  F   UNL A   1      47.571  32.758  30.695  1.00  0.00    -0.206 F 
ATOM     72  C   UNL A   1      47.701  35.832  28.804  1.00  0.00     0.060 A 
BRANCH  72  73
ATOM     73  S   UNL A   1      48.353  37.507  28.948  1.00  0.00     0.124 S 
ATOM     74  O   UNL A   1      47.160  38.253  29.335  1.00  0.00    -0.237 OA
ATOM     75  O   UNL A   1      49.370  37.358  29.984  1.00  0.00    -0.237 OA
ATOM     76  O   UNL A   1      48.863  37.790  27.610  1.00  0.00    -0.744 OA
ENDBRANCH  72  73
ENDBRANCH  51  65
BRANCH  52  77
ATOM     77  C   UNL A   1      43.250  23.931  27.201  1.00  0.00     0.058 A 
ATOM     78  C   UNL A   1      43.313  22.892  28.138  1.00  0.00     0.135 A 
ATOM     79  C   UNL A   1      42.562  23.681  26.000  1.00  0.00     0.135 A 
ATOM     80  F   UNL A   1      43.968  23.073  29.295  1.00  0.00    -0.206 F 
ATOM     81  C   UNL A   1      42.712  21.656  27.903  1.00  0.00     0.059 A 
ATOM     82  C   UNL A   1      41.934  22.463  25.751  1.00  0.00     0.059 A 
ATOM     83  F   UNL A   1      42.463  24.642  25.068  1.00  0.00    -0.206 F 
ATOM     84  C   UNL A   1      42.014  21.456  26.710  1.00  0.00     0.060 A 
BRANCH  84  85
ATOM     85  S   UNL A   1      41.162  19.881  26.459  1.00  0.00     0.124 S 
ATOM     86  O   UNL A   1      39.972  20.301  25.729  1.00  0.00    -0.237 OA
ATOM     87  O   UNL A   1      42.147  19.123  25.695  1.00  0.00    -0.237 OA
ATOM     88  O   UNL A   1      40.931  19.402  27.819  1.00  0.00    -0.744 OA
ENDBRANCH  84  85
ENDBRANCH  52  77
BRANCH  64  89
ATOM     89  C   UNL A   1      49.355  27.060  25.752  1.00  0.00     0.058 A 
ATOM     90  C   UNL A   1      49.646  27.250  24.392  1.00  0.00     0.135 A 
ATOM     91  C   UNL A   1      50.354  26.498  26.566  1.00  0.00     0.135 A 
ATOM     92  F   UNL A   1      48.722  27.770  23.569  1.00  0.00    -0.206 F 
ATOM     93  C   UNL A   1      50.883  26.899  23.861  1.00  0.00     0.059 A 
ATOM     94  C   UNL A   1      51.607  26.170  26.062  1.00  0.00     0.059 A 
ATOM     95  F   UNL A   1      50.127  26.300  27.873  1.00  0.00    -0.206 F 
ATOM     96  C   UNL A   1      51.861  26.373  24.707  1.00  0.00     0.060 A 
BRANCH  96  97
ATOM     97  S   UNL A   1      53.489  26.000  24.019  1.00  0.00     0.124 S 
ATOM     98  O   UNL A   1      54.247  27.189  24.394  1.00  0.00    -0.237 OA
ATOM     99  O   UNL A   1      53.847  24.772  24.720  1.00  0.00    -0.237 OA
ATOM    100  O   UNL A   1      53.227  25.848  22.591  1.00  0.00    -0.744 OA
ENDBRANCH  96  97
ENDBRANCH  64  89
ENDBRANCH  38  39
ENDBRANCH  31  33
ENDBRANCH  30  31
ENDBRANCH  29  30
ENDBRANCH  28  29
ENDBRANCH  27  28
ENDBRANCH  26  27
ENDBRANCH   1  26
TORSDOF 26
ENDMDL
MODEL 2
REMARK VINA RESULT:      -9.0      6.160     10.956
REMARK SMILES CC[C@@](C)([NH2+][C@H]1CC[C@H](C)[C@H](C)C1)C(=O)OCCOCCOCCOCCOC(=O)c1ccc(-c2c3nc(c(-c4c(F)cc(S(=O)(=O)[O-])cc4F)c4ccc([nH]4)c(-c4c(F)cc(S(=O)(=O)[O-])cc4F)c4nc(c(-c5c(F)cc(S(=O)(=O)[O-])cc5F)c5ccc2[nH]5)C=C4)C=C3)cc1
REMARK SMILES IDX 23 1 22 2 21 3 20 4 19 5 18 6 17 7 16 8 14 9 15 10 3 11 4 12
REMARK SMILES IDX 2 13 1 14 5 15 6 18 7 19 13 20 8 21 11 22 9 23 12 24 10 25
REMARK SMILES IDX 24 26 25 27 26 28 27 29 28 30 29 31 30 32 31 33 32 34 96 35
REMARK SMILES IDX 33 36 95 37 34 38 35 39 36 40 89 41 37 42 94 43 88 44 90 45
REMARK SMILES IDX 38 46 93 47 87 48 86 49 39 51 73 52 52 53 72 54 53 55 56 56
REMARK SMILES IDX 71 57 91 58 54 59 55 60 70 62 92 63 57 64 40 65 41 66 50 67
REMARK SMILES IDX 42 68 43 69 49 70 51 71 44 72 45 73 46 74 47 75 48 76 74 77
REMARK SMILES IDX 75 78 84 79 76 80 77 81 83 82 85 83 78 84 79 85 80 86 81 87
REMARK SMILES IDX 82 88 58 89 59 90 68 91 60 92 61 93 67 94 69 95 62 96 63 97
REMARK SMILES IDX 64 98 65 99 66 100
REMARK H PARENT 5 16 5 17 90 50 56 61
REMARK Flexibility Score: inf
ROOT
ATOM      1  C   UNL A   1      31.949  27.717  26.654  1.00  0.00     0.188 C 
ENDROOT
BRANCH   1   2
ATOM      2  O   UNL A   1      31.871  26.815  25.572  1.00  0.00    -0.377 OA
BRANCH   2   3
ATOM      3  C   UNL A   1      31.681  27.271  24.254  1.00  0.00     0.188 C 
BRANCH   3   4
ATOM      4  C   UNL A   1      30.440  26.975  23.410  1.00  0.00     0.188 C 
BRANCH   4   5
ATOM      5  O   UNL A   1      29.823  25.699  23.327  1.00  0.00    -0.376 OA
BRANCH   5   6
ATOM      6  C   UNL A   1      30.491  24.475  23.571  1.00  0.00     0.202 C 
BRANCH   6   7
ATOM      7  C   UNL A   1      31.788  24.111  22.851  1.00  0.00     0.261 C 
BRANCH   7   8
ATOM      8  O   UNL A   1      32.662  23.311  23.656  1.00  0.00    -0.459 OA
BRANCH   8   9
ATOM      9  C   UNL A   1      33.966  23.290  23.293  1.00  0.00     0.367 C 
ATOM     10  O   UNL A   1      34.369  23.786  22.242  1.00  0.00    -0.245 OA
BRANCH   9  11
ATOM     11  C   UNL A   1      34.940  22.657  24.327  1.00  0.00     0.191 C 
ATOM     12  C   UNL A   1      36.296  22.472  23.624  1.00  0.00     0.092 C 
BRANCH  11  13
ATOM     13  C   UNL A   1      35.119  23.669  25.514  1.00  0.00     0.077 C 
ATOM     14  C   UNL A   1      36.538  23.965  25.987  1.00  0.00     0.011 C 
ENDBRANCH  11  13
BRANCH  11  15
ATOM     15  N   UNL A   1      34.517  21.410  25.044  1.00  0.00    -0.330 N 
ATOM     16  H   UNL A   1      33.712  21.685  25.605  1.00  0.00     0.347 HD
ATOM     17  H   UNL A   1      35.409  21.136  25.456  1.00  0.00     0.347 HD
BRANCH  15  18
ATOM     18  C   UNL A   1      34.132  20.135  24.411  1.00  0.00     0.183 C 
ATOM     19  C   UNL A   1      35.207  19.070  24.741  1.00  0.00     0.065 C 
ATOM     20  C   UNL A   1      32.683  19.673  24.585  1.00  0.00     0.068 C 
ATOM     21  C   UNL A   1      34.865  17.623  24.418  1.00  0.00     0.010 C 
ATOM     22  C   UNL A   1      32.439  18.222  24.158  1.00  0.00    -0.006 C 
ATOM     23  C   UNL A   1      33.449  17.353  24.920  1.00  0.00    -0.011 C 
ATOM     24  C   UNL A   1      32.483  18.047  22.635  1.00  0.00     0.008 C 
ATOM     25  C   UNL A   1      33.093  15.889  24.883  1.00  0.00     0.008 C 
ENDBRANCH  15  18
ENDBRANCH  11  15
ENDBRANCH   9  11
ENDBRANCH   8   9
ENDBRANCH   7   8
ENDBRANCH   6   7
ENDBRANCH   5   6
ENDBRANCH   4   5
ENDBRANCH   3   4
ENDBRANCH   2   3
ENDBRANCH   1   2
BRANCH   1  26
ATOM     26  C   UNL A   1      31.933  29.168  26.169  1.00  0.00     0.188 C 
BRANCH  26  27
ATOM     27  O   UNL A   1      33.015  30.010  26.590  1.00  0.00    -0.376 OA
BRANCH  27  28
ATOM     28  C   UNL A   1      32.694  31.198  27.304  1.00  0.00     0.202 C 
BRANCH  28  29
ATOM     29  C   UNL A   1      33.922  32.011  27.778  1.00  0.00     0.261 C 
BRANCH  29  30
ATOM     30  O   UNL A   1      33.833  33.443  27.674  1.00  0.00    -0.460 OA
BRANCH  30  31
ATOM     31  C   UNL A   1      33.605  34.116  28.832  1.00  0.00     0.338 C 
ATOM     32  O   UNL A   1      32.589  34.696  29.159  1.00  0.00    -0.246 OA
BRANCH  31  33
ATOM     33  C   UNL A   1      34.788  33.984  29.719  1.00  0.00     0.060 A 
ATOM     34  C   UNL A   1      36.051  34.375  29.248  1.00  0.00     0.016 A 
ATOM     35  C   UNL A   1      34.666  33.391  30.976  1.00  0.00     0.016 A 
ATOM     36  C   UNL A   1      37.200  34.127  30.012  1.00  0.00     0.010 A 
ATOM     37  C   UNL A   1      35.815  33.129  31.730  1.00  0.00     0.010 A 
ATOM     38  C   UNL A   1      37.094  33.455  31.237  1.00  0.00    -0.014 A 
BRANCH  38  39
ATOM     39  C   UNL A   1      38.297  32.908  31.927  1.00  0.00     0.031 A 
ATOM     40  C   UNL A   1      38.968  31.706  31.342  1.00  0.00     0.074 A 
ATOM     41  C   UNL A   1      38.772  33.425  33.074  1.00  0.00     0.049 A 
ATOM     42  N   UNL A   1      39.913  30.962  31.848  1.00  0.00    -0.248 NA
ATOM     43  C   UNL A   1      38.515  31.295  30.006  1.00  0.00     0.031 C 
ATOM     44  C   UNL A   1      38.272  34.644  33.676  1.00  0.00     0.029 A 
ATOM     45  N   UNL A   1      39.736  32.993  33.952  1.00  0.00    -0.354 N 
ATOM     46  C   UNL A   1      40.161  29.982  30.899  1.00  0.00     0.074 A 
ATOM     47  C   UNL A   1      39.247  30.212  29.801  1.00  0.00     0.031 C 
ATOM     48  C   UNL A   1      38.864  34.831  34.867  1.00  0.00     0.029 A 
ATOM     49  C   UNL A   1      39.772  33.721  35.121  1.00  0.00     0.049 A 
ATOM     50  H   UNL A   1      40.341  32.239  33.764  1.00  0.00     0.167 HD
ATOM     51  C   UNL A   1      41.073  28.984  30.947  1.00  0.00     0.037 A 
ATOM     52  C   UNL A   1      40.422  33.501  36.283  1.00  0.00     0.037 A 
ATOM     53  C   UNL A   1      41.961  28.762  32.059  1.00  0.00     0.049 A 
ATOM     54  C   UNL A   1      41.356  32.327  36.367  1.00  0.00     0.074 A 
ATOM     55  C   UNL A   1      42.935  27.792  32.198  1.00  0.00     0.029 A 
ATOM     56  N   UNL A   1      41.963  29.506  33.233  1.00  0.00    -0.354 N 
ATOM     57  N   UNL A   1      41.602  31.416  35.456  1.00  0.00    -0.248 NA
ATOM     58  C   UNL A   1      42.115  32.155  37.612  1.00  0.00     0.031 C 
ATOM     59  C   UNL A   1      43.478  27.902  33.483  1.00  0.00     0.029 A 
ATOM     60  C   UNL A   1      42.897  28.991  34.118  1.00  0.00     0.049 A 
ATOM     61  H   UNL A   1      41.387  30.283  33.411  1.00  0.00     0.167 HD
ATOM     62  C   UNL A   1      42.574  30.586  35.998  1.00  0.00     0.074 A 
ATOM     63  C   UNL A   1      42.865  31.097  37.322  1.00  0.00     0.031 C 
ATOM     64  C   UNL A   1      43.181  29.512  35.435  1.00  0.00     0.037 A 
BRANCH  51  65
ATOM     65  C   UNL A   1      41.095  28.028  29.788  1.00  0.00     0.058 A 
ATOM     66  C   UNL A   1      40.137  27.013  29.636  1.00  0.00     0.135 A 
ATOM     67  C   UNL A   1      42.120  28.109  28.831  1.00  0.00     0.135 A 
ATOM     68  F   UNL A   1      39.146  26.877  30.533  1.00  0.00    -0.206 F 
ATOM     69  C   UNL A   1      40.222  26.080  28.608  1.00  0.00     0.059 A 
ATOM     70  C   UNL A   1      42.206  27.210  27.774  1.00  0.00     0.059 A 
ATOM     71  F   UNL A   1      43.065  29.057  28.930  1.00  0.00    -0.206 F 
ATOM     72  C   UNL A   1      41.266  26.184  27.686  1.00  0.00     0.060 A 
BRANCH  72  73
ATOM     73  S   UNL A   1      41.389  24.945  26.380  1.00  0.00     0.124 S 
ATOM     74  O   UNL A   1      40.082  24.301  26.465  1.00  0.00    -0.237 OA
ATOM     75  O   UNL A   1      41.616  25.765  25.193  1.00  0.00    -0.237 OA
ATOM     76  O   UNL A   1      42.521  24.124  26.796  1.00  0.00    -0.744 OA
ENDBRANCH  72  73
ENDBRANCH  51  65
BRANCH  52  77
ATOM     77  C   UNL A   1      40.187  34.400  37.448  1.00  0.00     0.058 A 
ATOM     78  C   UNL A   1      39.178  34.142  38.385  1.00  0.00     0.135 A 
ATOM     79  C   UNL A   1      41.011  35.517  37.674  1.00  0.00     0.135 A 
ATOM     80  F   UNL A   1      38.355  33.096  38.212  1.00  0.00    -0.206 F 
ATOM     81  C   UNL A   1      38.995  34.950  39.506  1.00  0.00     0.059 A 
ATOM     82  C   UNL A   1      40.863  36.327  38.798  1.00  0.00     0.059 A 
ATOM     83  F   UNL A   1      41.999  35.809  36.814  1.00  0.00    -0.206 F 
ATOM     84  C   UNL A   1      39.851  36.034  39.709  1.00  0.00     0.060 A 
BRANCH  84  85
ATOM     85  S   UNL A   1      39.661  37.018  41.214  1.00  0.00     0.124 S 
ATOM     86  O   UNL A   1      38.927  38.177  40.721  1.00  0.00    -0.237 OA
ATOM     87  O   UNL A   1      38.914  36.108  42.078  1.00  0.00    -0.237 OA
ATOM     88  O   UNL A   1      41.038  37.272  41.627  1.00  0.00    -0.744 OA
ENDBRANCH  84  85
ENDBRANCH  52  77
BRANCH  64  89
ATOM     89  C   UNL A   1      44.263  28.828  36.224  1.00  0.00     0.058 A 
ATOM     90  C   UNL A   1      44.016  27.672  36.980  1.00  0.00     0.135 A 
ATOM     91  C   UNL A   1      45.590  29.283  36.132  1.00  0.00     0.135 A 
ATOM     92  F   UNL A   1      42.766  27.203  37.111  1.00  0.00    -0.206 F 
ATOM     93  C   UNL A   1      45.048  26.991  37.617  1.00  0.00     0.059 A 
ATOM     94  C   UNL A   1      46.639  28.600  36.735  1.00  0.00     0.059 A 
ATOM     95  F   UNL A   1      45.879  30.382  35.418  1.00  0.00    -0.206 F 
ATOM     96  C   UNL A   1      46.358  27.455  37.478  1.00  0.00     0.060 A 
BRANCH  96  97
ATOM     97  S   UNL A   1      47.695  26.513  38.243  1.00  0.00     0.124 S 
ATOM     98  O   UNL A   1      47.550  25.215  37.594  1.00  0.00    -0.237 OA
ATOM     99  O   UNL A   1      48.873  27.285  37.864  1.00  0.00    -0.237 OA
ATOM    100  O   UNL A   1      47.362  26.544  39.664  1.00  0.00    -0.744 OA
ENDBRANCH  96  97
ENDBRANCH  64  89
ENDBRANCH  38  39
ENDBRANCH  31  33
ENDBRANCH  30  31
ENDBRANCH  29  30
ENDBRANCH  28  29
ENDBRANCH  27  28
ENDBRANCH  26  27
ENDBRANCH   1  26
TORSDOF 26
ENDMDL
MODEL 3
REMARK VINA RESULT:      -8.9      0.814      8.043
REMARK SMILES CC[C@@](C)([NH2+][C@H]1CC[C@H](C)[C@H](C)C1)C(=O)OCCOCCOCCOCCOC(=O)c1ccc(-c2c3nc(c(-c4c(F)cc(S(=O)(=O)[O-])cc4F)c4ccc([nH]4)c(-c4c(F)cc(S(=O)(=O)[O-])cc4F)c4nc(c(-c5c(F)cc(S(=O)(=O)[O-])cc5F)c5ccc2[nH]5)C=C4)C=C3)cc1
REMARK SMILES IDX 23 1 22 2 21 3 20 4 19 5 18 6 17 7 16 8 14 9 15 10 3 11 4 12
REMARK SMILES IDX 2 13 1 14 5 15 6 18 7 19 13 20 8 21 11 22 9 23 12 24 10 25
REMARK SMILES IDX 24 26 25 27 26 28 27 29 28 30 29 31 30 32 31 33 32 34 96 35
REMARK SMILES IDX 33 36 95 37 34 38 35 39 36 40 89 41 37 42 94 43 88 44 90 45
REMARK SMILES IDX 38 46 93 47 87 48 86 49 39 51 73 52 52 53 72 54 53 55 56 56
REMARK SMILES IDX 71 57 91 58 54 59 55 60 70 62 92 63 57 64 40 65 41 66 50 67
REMARK SMILES IDX 42 68 43 69 49 70 51 71 44 72 45 73 46 74 47 75 48 76 74 77
REMARK SMILES IDX 75 78 84 79 76 80 77 81 83 82 85 83 78 84 79 85 80 86 81 87
REMARK SMILES IDX 82 88 58 89 59 90 68 91 60 92 61 93 67 94 69 95 62 96 63 97
REMARK SMILES IDX 64 98 65 99 66 100
REMARK H PARENT 5 16 5 17 90 50 56 61
REMARK Flexibility Score: inf
ROOT
ATOM      1  C   UNL A   1      33.789  33.149  28.373  1.00  0.00     0.188 C 
ENDROOT
BRANCH   1   2
ATOM      2  O   UNL A   1      34.550  32.210  27.646  1.00  0.00    -0.377 OA
BRANCH   2   3
ATOM      3  C   UNL A   1      34.351  30.826  27.808  1.00  0.00     0.188 C 
BRANCH   3   4
ATOM      4  C   UNL A   1      33.792  29.904  26.723  1.00  0.00     0.188 C 
BRANCH   4   5
ATOM      5  O   UNL A   1      32.407  29.684  26.504  1.00  0.00    -0.376 OA
BRANCH   5   6
ATOM      6  C   UNL A   1      31.777  29.774  25.239  1.00  0.00     0.202 C 
BRANCH   6   7
ATOM      7  C   UNL A   1      31.131  28.558  24.576  1.00  0.00     0.261 C 
BRANCH   7   8
ATOM      8  O   UNL A   1      31.841  27.342  24.841  1.00  0.00    -0.459 OA
BRANCH   8   9
ATOM      9  C   UNL A   1      32.728  26.945  23.900  1.00  0.00     0.367 C 
ATOM     10  O   UNL A   1      33.778  27.550  23.681  1.00  0.00    -0.245 OA
BRANCH   9  11
ATOM     11  C   UNL A   1      32.371  25.627  23.154  1.00  0.00     0.191 C 
ATOM     12  C   UNL A   1      31.242  24.946  23.946  1.00  0.00     0.092 C 
BRANCH  11  13
ATOM     13  C   UNL A   1      31.832  26.004  21.728  1.00  0.00     0.077 C 
ATOM     14  C   UNL A   1      32.625  25.519  20.518  1.00  0.00     0.011 C 
ENDBRANCH  11  13
BRANCH  11  15
ATOM     15  N   UNL A   1      33.473  24.666  22.826  1.00  0.00    -0.330 N 
ATOM     16  H   UNL A   1      34.170  25.218  22.328  1.00  0.00     0.347 HD
ATOM     17  H   UNL A   1      32.931  23.928  22.377  1.00  0.00     0.347 HD
BRANCH  15  18
ATOM     18  C   UNL A   1      34.237  23.861  23.795  1.00  0.00     0.183 C 
ATOM     19  C   UNL A   1      35.447  23.222  23.070  1.00  0.00     0.065 C 
ATOM     20  C   UNL A   1      34.556  24.504  25.148  1.00  0.00     0.068 C 
ATOM     21  C   UNL A   1      36.515  22.580  23.942  1.00  0.00     0.010 C 
ATOM     22  C   UNL A   1      35.589  23.731  25.975  1.00  0.00    -0.006 C 
ATOM     23  C   UNL A   1      36.826  23.542  25.087  1.00  0.00    -0.011 C 
ATOM     24  C   UNL A   1      35.020  22.426  26.546  1.00  0.00     0.008 C 
ATOM     25  C   UNL A   1      38.043  23.128  25.873  1.00  0.00     0.008 C 
ENDBRANCH  15  18
ENDBRANCH  11  15
ENDBRANCH   9  11
ENDBRANCH   8   9
ENDBRANCH   7   8
ENDBRANCH   6   7
ENDBRANCH   5   6
ENDBRANCH   4   5
ENDBRANCH   3   4
ENDBRANCH   2   3
ENDBRANCH   1   2
BRANCH   1  26
ATOM     26  C   UNL A   1      34.634  33.833  29.449  1.00  0.00     0.188 C 
BRANCH  26  27
ATOM     27  O   UNL A   1      34.240  33.635  30.814  1.00  0.00    -0.376 OA
BRANCH  27  28
ATOM     28  C   UNL A   1      34.724  32.478  31.486  1.00  0.00     0.202 C 
BRANCH  28  29
ATOM     29  C   UNL A   1      36.129  32.016  31.033  1.00  0.00     0.261 C 
BRANCH  29  30
ATOM     30  O   UNL A   1      36.240  30.674  30.527  1.00  0.00    -0.460 OA
BRANCH  30  31
ATOM     31  C   UNL A   1      37.104  29.856  31.182  1.00  0.00     0.338 C 
ATOM     32  O   UNL A   1      36.850  29.091  32.091  1.00  0.00    -0.246 OA
BRANCH  31  33
ATOM     33  C   UNL A   1      38.452  29.970  30.568  1.00  0.00     0.060 A 
ATOM     34  C   UNL A   1      38.577  29.963  29.170  1.00  0.00     0.016 A 
ATOM     35  C   UNL A   1      39.593  29.991  31.370  1.00  0.00     0.016 A 
ATOM     36  C   UNL A   1      39.844  29.925  28.573  1.00  0.00     0.010 A 
ATOM     37  C   UNL A   1      40.858  29.936  30.772  1.00  0.00     0.010 A 
ATOM     38  C   UNL A   1      40.993  29.860  29.372  1.00  0.00    -0.014 A 
BRANCH  38  39
ATOM     39  C   UNL A   1      42.322  29.515  28.791  1.00  0.00     0.031 A 
ATOM     40  C   UNL A   1      42.568  28.103  28.362  1.00  0.00     0.074 A 
ATOM     41  C   UNL A   1      43.318  30.411  28.679  1.00  0.00     0.049 A 
ATOM     42  N   UNL A   1      43.684  27.536  27.992  1.00  0.00    -0.248 NA
ATOM     43  C   UNL A   1      41.395  27.216  28.346  1.00  0.00     0.031 C 
ATOM     44  C   UNL A   1      43.166  31.825  28.962  1.00  0.00     0.029 A 
ATOM     45  N   UNL A   1      44.643  30.282  28.343  1.00  0.00    -0.354 N 
ATOM     46  C   UNL A   1      43.354  26.220  27.710  1.00  0.00     0.074 A 
ATOM     47  C   UNL A   1      41.940  26.067  27.980  1.00  0.00     0.031 C 
ATOM     48  C   UNL A   1      44.362  32.430  28.873  1.00  0.00     0.029 A 
ATOM     49  C   UNL A   1      45.372  31.433  28.550  1.00  0.00     0.049 A 
ATOM     50  H   UNL A   1      45.034  29.450  27.988  1.00  0.00     0.167 HD
ATOM     51  C   UNL A   1      44.164  25.233  27.265  1.00  0.00     0.037 A 
ATOM     52  C   UNL A   1      46.703  31.656  28.529  1.00  0.00     0.037 A 
ATOM     53  C   UNL A   1      45.574  25.402  27.021  1.00  0.00     0.049 A 
ATOM     54  C   UNL A   1      47.610  30.525  28.136  1.00  0.00     0.074 A 
ATOM     55  C   UNL A   1      46.480  24.471  26.550  1.00  0.00     0.029 A 
ATOM     56  N   UNL A   1      46.285  26.573  27.253  1.00  0.00    -0.354 N 
ATOM     57  N   UNL A   1      47.288  29.285  27.848  1.00  0.00    -0.248 NA
ATOM     58  C   UNL A   1      49.046  30.812  28.039  1.00  0.00     0.031 C 
ATOM     59  C   UNL A   1      47.750  25.055  26.565  1.00  0.00     0.029 A 
ATOM     60  C   UNL A   1      47.627  26.376  26.971  1.00  0.00     0.049 A 
ATOM     61  H   UNL A   1      45.893  27.417  27.571  1.00  0.00     0.167 HD
ATOM     62  C   UNL A   1      48.473  28.655  27.496  1.00  0.00     0.074 A 
ATOM     63  C   UNL A   1      49.523  29.647  27.616  1.00  0.00     0.031 C 
ATOM     64  C   UNL A   1      48.664  27.374  27.091  1.00  0.00     0.037 A 
BRANCH  51  65
ATOM     65  C   UNL A   1      43.546  23.875  27.084  1.00  0.00     0.058 A 
ATOM     66  C   UNL A   1      43.066  23.430  25.842  1.00  0.00     0.135 A 
ATOM     67  C   UNL A   1      43.399  23.019  28.187  1.00  0.00     0.135 A 
ATOM     68  F   UNL A   1      43.162  24.217  24.757  1.00  0.00    -0.206 F 
ATOM     69  C   UNL A   1      42.415  22.208  25.709  1.00  0.00     0.059 A 
ATOM     70  C   UNL A   1      42.784  21.777  28.072  1.00  0.00     0.059 A 
ATOM     71  F   UNL A   1      43.836  23.395  29.399  1.00  0.00    -0.206 F 
ATOM     72  C   UNL A   1      42.274  21.392  26.833  1.00  0.00     0.060 A 
BRANCH  72  73
ATOM     73  S   UNL A   1      41.393  19.827  26.657  1.00  0.00     0.124 S 
ATOM     74  O   UNL A   1      41.899  19.077  27.803  1.00  0.00    -0.237 OA
ATOM     75  O   UNL A   1      39.996  20.245  26.740  1.00  0.00    -0.237 OA
ATOM     76  O   UNL A   1      41.821  19.341  25.350  1.00  0.00    -0.744 OA
ENDBRANCH  72  73
ENDBRANCH  51  65
BRANCH  52  77
ATOM     77  C   UNL A   1      47.239  32.992  28.913  1.00  0.00     0.058 A 
ATOM     78  C   UNL A   1      47.670  33.266  30.218  1.00  0.00     0.135 A 
ATOM     79  C   UNL A   1      47.378  34.014  27.956  1.00  0.00     0.135 A 
ATOM     80  F   UNL A   1      47.548  32.331  31.172  1.00  0.00    -0.206 F 
ATOM     81  C   UNL A   1      48.225  34.497  30.563  1.00  0.00     0.059 A 
ATOM     82  C   UNL A   1      47.950  35.245  28.271  1.00  0.00     0.059 A 
ATOM     83  F   UNL A   1      46.990  33.807  26.688  1.00  0.00    -0.206 F 
ATOM     84  C   UNL A   1      48.371  35.476  29.579  1.00  0.00     0.060 A 
BRANCH  84  85
ATOM     85  S   UNL A   1      49.177  37.034  30.019  1.00  0.00     0.124 S 
ATOM     86  O   UNL A   1      48.077  37.982  29.896  1.00  0.00    -0.237 OA
ATOM     87  O   UNL A   1      49.637  36.762  31.378  1.00  0.00    -0.237 OA
ATOM     88  O   UNL A   1      50.234  37.161  29.021  1.00  0.00    -0.744 OA
ENDBRANCH  84  85
ENDBRANCH  52  77
BRANCH  64  89
ATOM     89  C   UNL A   1      50.057  26.966  26.697  1.00  0.00     0.058 A 
ATOM     90  C   UNL A   1      50.550  27.161  25.398  1.00  0.00     0.135 A 
ATOM     91  C   UNL A   1      50.942  26.470  27.669  1.00  0.00     0.135 A 
ATOM     92  F   UNL A   1      49.743  27.620  24.430  1.00  0.00    -0.206 F 
ATOM     93  C   UNL A   1      51.873  26.877  25.077  1.00  0.00     0.059 A 
ATOM     94  C   UNL A   1      52.275  26.209  27.377  1.00  0.00     0.059 A 
ATOM     95  F   UNL A   1      50.520  26.270  28.927  1.00  0.00    -0.206 F 
ATOM     96  C   UNL A   1      52.732  26.415  26.076  1.00  0.00     0.060 A 
BRANCH  96  97
ATOM     97  S   UNL A   1      54.466  26.130  25.663  1.00  0.00     0.124 S 
ATOM     98  O   UNL A   1      54.355  25.188  24.555  1.00  0.00    -0.237 OA
ATOM     99  O   UNL A   1      54.925  27.470  25.314  1.00  0.00    -0.237 OA
ATOM    100  O   UNL A   1      55.024  25.583  26.897  1.00  0.00    -0.744 OA
ENDBRANCH  96  97
ENDBRANCH  64  89
ENDBRANCH  38  39
ENDBRANCH  31  33
ENDBRANCH  30  31
ENDBRANCH  29  30
ENDBRANCH  28  29
ENDBRANCH  27  28
ENDBRANCH  26  27
ENDBRANCH   1  26
TORSDOF 26
ENDMDL
