MODEL 1
REMARK VINA RESULT:      -9.6      0.000      0.000
REMARK SMILES O=C(OCCOCCOCCOCCOC(=O)c1ccc(-c2c3nc(c(-c4c(F)cc(S(=O)(=O)[O-])cc4F)c4ccc([nH]4)c(-c4c(F)cc(S(=O)(=O)[O-])cc4F)c4nc(c(-c5c(F)cc(S(=O)(=O)[O-])cc5F)c5ccc2[nH]5)C=C4)C=C3)cc1)C1=Cc2cc(Cl)c(Cl)c(Cl)c2O[C@@H]1C(F)(F)F
REMARK SMILES IDX 10 1 9 2 8 3 7 4 6 5 5 6 4 7 3 8 2 9 1 10 84 11 85 12 96 13
REMARK SMILES IDX 86 14 95 15 87 16 94 17 88 18 92 19 89 20 90 21 93 22 91 23
REMARK SMILES IDX 97 24 98 25 99 26 100 27 11 28 12 29 13 30 14 31 15 32 16 33
REMARK SMILES IDX 17 34 18 35 19 36 83 37 20 38 82 39 21 40 22 41 23 42 76 43
REMARK SMILES IDX 24 44 81 45 75 46 77 47 25 48 80 49 74 50 73 51 26 53 60 54
REMARK SMILES IDX 39 55 59 56 40 57 43 58 58 59 78 60 41 61 42 62 57 64 79 65
REMARK SMILES IDX 44 66 27 67 28 68 37 69 29 70 30 71 36 72 38 73 31 74 32 75
REMARK SMILES IDX 33 76 34 77 35 78 61 79 62 80 71 81 63 82 64 83 70 84 72 85
REMARK SMILES IDX 65 86 66 87 67 88 68 89 69 90 45 91 46 92 55 93 47 94 48 95
REMARK SMILES IDX 54 96 56 97 49 98 50 99 51 100 52 101 53 102
REMARK H PARENT 77 52 43 63
REMARK Flexibility Score: inf
ROOT
ATOM      1  C   UNL A   1      43.984  39.999  29.397  1.00  0.00     0.188 C 
ENDROOT
BRANCH   1   2
ATOM      2  O   UNL A   1      42.927  40.794  28.918  1.00  0.00    -0.377 OA
BRANCH   2   3
ATOM      3  C   UNL A   1      41.778  40.037  28.629  1.00  0.00     0.188 C 
BRANCH   3   4
ATOM      4  C   UNL A   1      41.842  39.243  27.320  1.00  0.00     0.188 C 
BRANCH   4   5
ATOM      5  O   UNL A   1      41.659  39.824  25.985  1.00  0.00    -0.376 OA
BRANCH   5   6
ATOM      6  C   UNL A   1      41.671  41.362  25.401  1.00  0.00     0.202 C 
BRANCH   6   7
ATOM      7  C   UNL A   1      41.770  41.998  23.314  1.00  0.00     0.261 C 
BRANCH   7   8
ATOM      8  O   UNL A   1      42.033  43.403  22.812  1.00  0.00    -0.460 OA
BRANCH   8   9
ATOM      9  C   UNL A   1      42.582  43.417  21.593  1.00  0.00     0.338 C 
ATOM     10  O   UNL A   1      42.300  42.740  20.636  1.00  0.00    -0.246 OA
BRANCH   9  11
ATOM     11  C   UNL A   1      43.827  44.064  21.971  1.00  0.00     0.087 C 
ATOM     12  C   UNL A   1      43.924  44.400  23.400  1.00  0.00     0.027 C 
ATOM     13  C   UNL A   1      44.909  42.750  21.080  1.00  0.00     0.316 C 
ATOM     14  C   UNL A   1      44.913  43.478  24.592  1.00  0.00     0.020 A 
ATOM     15  O   UNL A   1      45.873  41.642  22.363  1.00  0.00    -0.474 OA
ATOM     16  C   UNL A   1      44.931  43.884  25.897  1.00  0.00     0.034 A 
ATOM     17  C   UNL A   1      45.789  42.049  24.157  1.00  0.00     0.148 A 
ATOM     18  C   UNL A   1      45.703  43.090  26.774  1.00  0.00     0.062 A 
ATOM     19  C   UNL A   1      46.442  41.281  25.099  1.00  0.00     0.103 A 
ATOM     20  Cl  UNL A   1      45.750  43.707  28.410  1.00  0.00    -0.083 Cl
ATOM     21  C   UNL A   1      46.415  41.853  26.411  1.00  0.00     0.082 A 
ATOM     22  Cl  UNL A   1      47.103  39.740  24.757  1.00  0.00    -0.079 Cl
ATOM     23  Cl  UNL A   1      47.307  41.045  27.686  1.00  0.00    -0.081 Cl
BRANCH  13  24
ATOM     24  C   UNL A   1      45.419  43.835  19.920  1.00  0.00     0.430 C 
ATOM     25  F   UNL A   1      45.280  45.149  20.167  1.00  0.00    -0.167 F 
ATOM     26  F   UNL A   1      46.774  43.667  19.801  1.00  0.00    -0.167 F 
ATOM     27  F   UNL A   1      44.950  43.600  18.668  1.00  0.00    -0.167 F 
ENDBRANCH  13  24
ENDBRANCH   9  11
ENDBRANCH   8   9
ENDBRANCH   7   8
ENDBRANCH   6   7
ENDBRANCH   5   6
ENDBRANCH   4   5
ENDBRANCH   3   4
ENDBRANCH   2   3
ENDBRANCH   1   2
BRANCH   1  28
ATOM     28  C   UNL A   1      43.754  39.295  30.737  1.00  0.00     0.188 C 
BRANCH  28  29
ATOM     29  O   UNL A   1      44.705  38.419  31.315  1.00  0.00    -0.376 OA
BRANCH  29  30
ATOM     30  C   UNL A   1      46.097  38.662  31.212  1.00  0.00     0.202 C 
BRANCH  30  31
ATOM     31  C   UNL A   1      47.132  37.528  31.140  1.00  0.00     0.261 C 
BRANCH  31  32
ATOM     32  O   UNL A   1      47.644  37.205  29.842  1.00  0.00    -0.460 OA
BRANCH  32  33
ATOM     33  C   UNL A   1      46.720  36.760  28.965  1.00  0.00     0.338 C 
ATOM     34  O   UNL A   1      45.944  37.444  28.317  1.00  0.00    -0.246 OA
BRANCH  33  35
ATOM     35  C   UNL A   1      46.889  35.308  28.733  1.00  0.00     0.060 A 
ATOM     36  C   UNL A   1      46.795  34.850  27.409  1.00  0.00     0.016 A 
ATOM     37  C   UNL A   1      47.077  34.403  29.779  1.00  0.00     0.016 A 
ATOM     38  C   UNL A   1      46.787  33.492  27.133  1.00  0.00     0.010 A 
ATOM     39  C   UNL A   1      47.026  33.031  29.508  1.00  0.00     0.010 A 
ATOM     40  C   UNL A   1      46.802  32.581  28.193  1.00  0.00    -0.014 A 
BRANCH  40  41
ATOM     41  C   UNL A   1      46.265  31.224  27.938  1.00  0.00     0.031 A 
ATOM     42  C   UNL A   1      47.237  30.154  27.508  1.00  0.00     0.074 A 
ATOM     43  C   UNL A   1      44.979  30.924  28.183  1.00  0.00     0.049 A 
ATOM     44  N   UNL A   1      47.024  28.891  27.248  1.00  0.00    -0.248 NA
ATOM     45  C   UNL A   1      48.642  30.568  27.349  1.00  0.00     0.031 C 
ATOM     46  C   UNL A   1      43.971  31.861  28.677  1.00  0.00     0.029 A 
ATOM     47  N   UNL A   1      44.306  29.736  28.056  1.00  0.00    -0.354 N 
ATOM     48  C   UNL A   1      48.259  28.368  26.876  1.00  0.00     0.074 A 
ATOM     49  C   UNL A   1      49.210  29.455  26.911  1.00  0.00     0.031 C 
ATOM     50  C   UNL A   1      42.803  31.209  28.809  1.00  0.00     0.029 A 
ATOM     51  C   UNL A   1      42.973  29.823  28.376  1.00  0.00     0.049 A 
ATOM     52  H   UNL A   1      44.737  28.900  27.764  1.00  0.00     0.167 HD
ATOM     53  C   UNL A   1      48.572  27.094  26.541  1.00  0.00     0.037 A 
ATOM     54  C   UNL A   1      42.004  28.890  28.307  1.00  0.00     0.037 A 
ATOM     55  C   UNL A   1      47.613  26.021  26.517  1.00  0.00     0.049 A 
ATOM     56  C   UNL A   1      42.360  27.496  27.854  1.00  0.00     0.074 A 
ATOM     57  C   UNL A   1      47.824  24.689  26.213  1.00  0.00     0.029 A 
ATOM     58  N   UNL A   1      46.260  26.159  26.792  1.00  0.00    -0.354 N 
ATOM     59  N   UNL A   1      43.533  27.007  27.519  1.00  0.00    -0.248 NA
ATOM     60  C   UNL A   1      41.263  26.524  27.780  1.00  0.00     0.031 C 
ATOM     61  C   UNL A   1      46.586  24.039  26.223  1.00  0.00     0.029 A 
ATOM     62  C   UNL A   1      45.616  24.945  26.626  1.00  0.00     0.049 A 
ATOM     63  H   UNL A   1      45.822  26.998  27.066  1.00  0.00     0.167 HD
ATOM     64  C   UNL A   1      43.320  25.660  27.239  1.00  0.00     0.074 A 
ATOM     65  C   UNL A   1      41.908  25.413  27.454  1.00  0.00     0.031 C 
ATOM     66  C   UNL A   1      44.210  24.712  26.849  1.00  0.00     0.037 A 
BRANCH  53  67
ATOM     67  C   UNL A   1      49.989  26.806  26.121  1.00  0.00     0.058 A 
ATOM     68  C   UNL A   1      51.006  26.509  27.044  1.00  0.00     0.135 A 
ATOM     69  C   UNL A   1      50.330  26.805  24.758  1.00  0.00     0.135 A 
ATOM     70  F   UNL A   1      50.747  26.514  28.361  1.00  0.00    -0.206 F 
ATOM     71  C   UNL A   1      52.312  26.253  26.633  1.00  0.00     0.059 A 
ATOM     72  C   UNL A   1      51.619  26.513  24.322  1.00  0.00     0.059 A 
ATOM     73  F   UNL A   1      49.403  27.087  23.828  1.00  0.00    -0.206 F 
ATOM     74  C   UNL A   1      52.607  26.254  25.269  1.00  0.00     0.060 A 
BRANCH  74  75
ATOM     75  S   UNL A   1      54.302  25.909  24.752  1.00  0.00     0.124 S 
ATOM     76  O   UNL A   1      54.274  26.332  23.355  1.00  0.00    -0.237 OA
ATOM     77  O   UNL A   1      55.077  26.754  25.656  1.00  0.00    -0.237 OA
ATOM     78  O   UNL A   1      54.440  24.472  24.969  1.00  0.00    -0.744 OA
ENDBRANCH  74  75
ENDBRANCH  53  67
BRANCH  54  79
ATOM     79  C   UNL A   1      40.605  29.239  28.676  1.00  0.00     0.058 A 
ATOM     80  C   UNL A   1      40.218  29.373  30.018  1.00  0.00     0.135 A 
ATOM     81  C   UNL A   1      39.621  29.436  27.693  1.00  0.00     0.135 A 
ATOM     82  F   UNL A   1      41.117  29.181  30.996  1.00  0.00    -0.206 F 
ATOM     83  C   UNL A   1      38.909  29.672  30.375  1.00  0.00     0.059 A 
ATOM     84  C   UNL A   1      38.311  29.770  28.024  1.00  0.00     0.059 A 
ATOM     85  F   UNL A   1      39.935  29.326  26.392  1.00  0.00    -0.206 F 
ATOM     86  C   UNL A   1      37.962  29.875  29.369  1.00  0.00     0.060 A 
BRANCH  86  87
ATOM     87  S   UNL A   1      36.277  30.315  29.844  1.00  0.00     0.124 S 
ATOM     88  O   UNL A   1      36.205  29.785  31.201  1.00  0.00    -0.237 OA
ATOM     89  O   UNL A   1      36.299  31.770  29.726  1.00  0.00    -0.237 OA
ATOM     90  O   UNL A   1      35.456  29.626  28.853  1.00  0.00    -0.744 OA
ENDBRANCH  86  87
ENDBRANCH  54  79
BRANCH  66  91
ATOM     91  C   UNL A   1      43.700  23.303  26.690  1.00  0.00     0.058 A 
ATOM     92  C   UNL A   1      43.485  22.718  25.432  1.00  0.00     0.135 A 
ATOM     93  C   UNL A   1      43.452  22.511  27.825  1.00  0.00     0.135 A 
ATOM     94  F   UNL A   1      43.705  23.424  24.310  1.00  0.00    -0.206 F 
ATOM     95  C   UNL A   1      42.998  21.420  25.305  1.00  0.00     0.059 A 
ATOM     96  C   UNL A   1      43.006  21.198  27.722  1.00  0.00     0.059 A 
ATOM     97  F   UNL A   1      43.655  23.010  29.056  1.00  0.00    -0.206 F 
ATOM     98  C   UNL A   1      42.762  20.668  26.458  1.00  0.00     0.060 A 
BRANCH  98  99
ATOM     99  S   UNL A   1      42.137  18.984  26.279  1.00  0.00     0.124 S 
ATOM    100  O   UNL A   1      42.184  18.506  27.656  1.00  0.00    -0.237 OA
ATOM    101  O   UNL A   1      40.804  19.205  25.729  1.00  0.00    -0.237 OA
ATOM    102  O   UNL A   1      43.091  18.361  25.366  1.00  0.00    -0.744 OA
ENDBRANCH  98  99
ENDBRANCH  66  91
ENDBRANCH  40  41
ENDBRANCH  33  35
ENDBRANCH  32  33
ENDBRANCH  31  32
ENDBRANCH  30  31
ENDBRANCH  29  30
ENDBRANCH  28  29
ENDBRANCH   1  28
TORSDOF 24
ENDMDL
MODEL 2
REMARK VINA RESULT:      -9.4      7.813     15.526
REMARK SMILES O=C(OCCOCCOCCOCCOC(=O)c1ccc(-c2c3nc(c(-c4c(F)cc(S(=O)(=O)[O-])cc4F)c4ccc([nH]4)c(-c4c(F)cc(S(=O)(=O)[O-])cc4F)c4nc(c(-c5c(F)cc(S(=O)(=O)[O-])cc5F)c5ccc2[nH]5)C=C4)C=C3)cc1)C1=Cc2cc(Cl)c(Cl)c(Cl)c2O[C@@H]1C(F)(F)F
REMARK SMILES IDX 10 1 9 2 8 3 7 4 6 5 5 6 4 7 3 8 2 9 1 10 84 11 85 12 96 13
REMARK SMILES IDX 86 14 95 15 87 16 94 17 88 18 92 19 89 20 90 21 93 22 91 23
REMARK SMILES IDX 97 24 98 25 99 26 100 27 11 28 12 29 13 30 14 31 15 32 16 33
REMARK SMILES IDX 17 34 18 35 19 36 83 37 20 38 82 39 21 40 22 41 23 42 76 43
REMARK SMILES IDX 24 44 81 45 75 46 77 47 25 48 80 49 74 50 73 51 26 53 60 54
REMARK SMILES IDX 39 55 59 56 40 57 43 58 58 59 78 60 41 61 42 62 57 64 79 65
REMARK SMILES IDX 44 66 27 67 28 68 37 69 29 70 30 71 36 72 38 73 31 74 32 75
REMARK SMILES IDX 33 76 34 77 35 78 61 79 62 80 71 81 63 82 64 83 70 84 72 85
REMARK SMILES IDX 65 86 66 87 67 88 68 89 69 90 45 91 46 92 55 93 47 94 48 95
REMARK SMILES IDX 54 96 56 97 49 98 50 99 51 100 52 101 53 102
REMARK H PARENT 77 52 43 63
REMARK Flexibility Score: inf
ROOT
ATOM      1  C   UNL A   1      37.510  32.661  28.898  1.00  0.00     0.188 C 
ENDROOT
BRANCH   1   2
ATOM      2  O   UNL A   1      37.959  31.496  29.547  1.00  0.00    -0.377 OA
BRANCH   2   3
ATOM      3  C   UNL A   1      37.265  31.253  30.746  1.00  0.00     0.188 C 
BRANCH   3   4
ATOM      4  C   UNL A   1      36.763  29.815  30.919  1.00  0.00     0.188 C 
BRANCH   4   5
ATOM      5  O   UNL A   1      37.473  28.623  30.440  1.00  0.00    -0.376 OA
BRANCH   5   6
ATOM      6  C   UNL A   1      38.877  27.883  30.875  1.00  0.00     0.202 C 
BRANCH   6   7
ATOM      7  C   UNL A   1      39.748  27.741  32.873  1.00  0.00     0.261 C 
BRANCH   7   8
ATOM      8  O   UNL A   1      40.133  28.898  33.773  1.00  0.00    -0.460 OA
BRANCH   8   9
ATOM      9  C   UNL A   1      40.891  29.804  33.146  1.00  0.00     0.338 C 
ATOM     10  O   UNL A   1      40.561  30.871  32.691  1.00  0.00    -0.246 OA
BRANCH   9  11
ATOM     11  C   UNL A   1      41.972  28.903  32.782  1.00  0.00     0.087 C 
ATOM     12  C   UNL A   1      42.283  28.881  31.345  1.00  0.00     0.027 C 
ATOM     13  C   UNL A   1      43.144  29.583  34.145  1.00  0.00     0.316 C 
ATOM     14  C   UNL A   1      43.714  29.691  30.606  1.00  0.00     0.020 A 
ATOM     15  O   UNL A   1      44.619  30.593  33.368  1.00  0.00    -0.474 OA
ATOM     16  C   UNL A   1      43.906  29.601  29.256  1.00  0.00     0.034 A 
ATOM     17  C   UNL A   1      44.821  30.642  31.537  1.00  0.00     0.148 A 
ATOM     18  C   UNL A   1      45.031  30.290  28.750  1.00  0.00     0.062 A 
ATOM     19  C   UNL A   1      45.841  31.359  30.947  1.00  0.00     0.103 A 
ATOM     20  Cl  UNL A   1      45.265  30.070  27.031  1.00  0.00    -0.083 Cl
ATOM     21  C   UNL A   1      45.948  31.132  29.538  1.00  0.00     0.082 A 
ATOM     22  Cl  UNL A   1      46.795  32.502  31.791  1.00  0.00    -0.079 Cl
ATOM     23  Cl  UNL A   1      47.275  31.884  28.675  1.00  0.00    -0.081 Cl
BRANCH  13  24
ATOM     24  C   UNL A   1      43.086  28.163  35.020  1.00  0.00     0.430 C 
ATOM     25  F   UNL A   1      44.179  27.791  35.709  1.00  0.00    -0.167 F 
ATOM     26  F   UNL A   1      42.134  28.344  35.989  1.00  0.00    -0.167 F 
ATOM     27  F   UNL A   1      42.647  27.081  34.328  1.00  0.00    -0.167 F 
ENDBRANCH  13  24
ENDBRANCH   9  11
ENDBRANCH   8   9
ENDBRANCH   7   8
ENDBRANCH   6   7
ENDBRANCH   5   6
ENDBRANCH   4   5
ENDBRANCH   3   4
ENDBRANCH   2   3
ENDBRANCH   1   2
BRANCH   1  28
ATOM     28  C   UNL A   1      36.129  32.587  28.241  1.00  0.00     0.188 C 
BRANCH  28  29
ATOM     29  O   UNL A   1      35.370  33.740  27.921  1.00  0.00    -0.376 OA
BRANCH  29  30
ATOM     30  C   UNL A   1      33.954  33.712  27.898  1.00  0.00     0.202 C 
BRANCH  30  31
ATOM     31  C   UNL A   1      33.096  34.866  28.440  1.00  0.00     0.261 C 
BRANCH  31  32
ATOM     32  O   UNL A   1      32.598  34.724  29.776  1.00  0.00    -0.460 OA
BRANCH  32  33
ATOM     33  C   UNL A   1      32.979  35.700  30.627  1.00  0.00     0.338 C 
ATOM     34  O   UNL A   1      32.531  36.833  30.680  1.00  0.00    -0.246 OA
BRANCH  33  35
ATOM     35  C   UNL A   1      33.904  35.158  31.648  1.00  0.00     0.060 A 
ATOM     36  C   UNL A   1      34.316  36.028  32.672  1.00  0.00     0.016 A 
ATOM     37  C   UNL A   1      34.406  33.857  31.585  1.00  0.00     0.016 A 
ATOM     38  C   UNL A   1      35.298  35.640  33.570  1.00  0.00     0.010 A 
ATOM     39  C   UNL A   1      35.427  33.480  32.464  1.00  0.00     0.010 A 
ATOM     40  C   UNL A   1      35.924  34.402  33.404  1.00  0.00    -0.014 A 
BRANCH  40  41
ATOM     41  C   UNL A   1      37.274  34.233  33.990  1.00  0.00     0.031 A 
ATOM     42  C   UNL A   1      37.365  33.899  35.458  1.00  0.00     0.074 A 
ATOM     43  C   UNL A   1      38.378  34.267  33.225  1.00  0.00     0.049 A 
ATOM     44  N   UNL A   1      38.419  33.680  36.199  1.00  0.00    -0.248 NA
ATOM     45  C   UNL A   1      36.090  33.802  36.190  1.00  0.00     0.031 C 
ATOM     46  C   UNL A   1      38.400  34.502  31.783  1.00  0.00     0.029 A 
ATOM     47  N   UNL A   1      39.696  34.094  33.562  1.00  0.00    -0.354 N 
ATOM     48  C   UNL A   1      37.936  33.440  37.482  1.00  0.00     0.074 A 
ATOM     49  C   UNL A   1      36.499  33.574  37.428  1.00  0.00     0.031 C 
ATOM     50  C   UNL A   1      39.674  34.460  31.357  1.00  0.00     0.029 A 
ATOM     51  C   UNL A   1      40.556  34.231  32.500  1.00  0.00     0.049 A 
ATOM     52  H   UNL A   1      39.997  33.889  34.477  1.00  0.00     0.167 HD
ATOM     53  C   UNL A   1      38.630  33.130  38.602  1.00  0.00     0.037 A 
ATOM     54  C   UNL A   1      41.902  34.194  32.467  1.00  0.00     0.037 A 
ATOM     55  C   UNL A   1      40.062  32.995  38.638  1.00  0.00     0.049 A 
ATOM     56  C   UNL A   1      42.659  33.927  33.744  1.00  0.00     0.074 A 
ATOM     57  C   UNL A   1      40.867  32.664  39.712  1.00  0.00     0.029 A 
ATOM     58  N   UNL A   1      40.906  33.198  37.554  1.00  0.00    -0.354 N 
ATOM     59  N   UNL A   1      42.194  33.687  34.949  1.00  0.00    -0.248 NA
ATOM     60  C   UNL A   1      44.125  33.916  33.655  1.00  0.00     0.031 C 
ATOM     61  C   UNL A   1      42.200  32.749  39.300  1.00  0.00     0.029 A 
ATOM     62  C   UNL A   1      42.225  33.040  37.945  1.00  0.00     0.049 A 
ATOM     63  H   UNL A   1      40.609  33.423  36.642  1.00  0.00     0.167 HD
ATOM     64  C   UNL A   1      43.309  33.451  35.750  1.00  0.00     0.074 A 
ATOM     65  C   UNL A   1      44.468  33.569  34.888  1.00  0.00     0.031 C 
ATOM     66  C   UNL A   1      43.369  33.155  37.073  1.00  0.00     0.037 A 
BRANCH  53  67
ATOM     67  C   UNL A   1      37.858  32.974  39.886  1.00  0.00     0.058 A 
ATOM     68  C   UNL A   1      37.782  33.993  40.851  1.00  0.00     0.135 A 
ATOM     69  C   UNL A   1      37.158  31.784  40.144  1.00  0.00     0.135 A 
ATOM     70  F   UNL A   1      38.445  35.146  40.672  1.00  0.00    -0.206 F 
ATOM     71  C   UNL A   1      37.068  33.824  42.035  1.00  0.00     0.059 A 
ATOM     72  C   UNL A   1      36.407  31.608  41.301  1.00  0.00     0.059 A 
ATOM     73  F   UNL A   1      37.197  30.772  39.262  1.00  0.00    -0.206 F 
ATOM     74  C   UNL A   1      36.380  32.628  42.249  1.00  0.00     0.060 A 
BRANCH  74  75
ATOM     75  S   UNL A   1      35.451  32.429  43.784  1.00  0.00     0.124 S 
ATOM     76  O   UNL A   1      34.207  33.122  43.465  1.00  0.00    -0.237 OA
ATOM     77  O   UNL A   1      35.357  30.977  43.901  1.00  0.00    -0.237 OA
ATOM     78  O   UNL A   1      36.294  33.083  44.780  1.00  0.00    -0.744 OA
ENDBRANCH  74  75
ENDBRANCH  53  67
BRANCH  54  79
ATOM     79  C   UNL A   1      42.624  34.414  31.184  1.00  0.00     0.058 A 
ATOM     80  C   UNL A   1      43.272  35.628  30.913  1.00  0.00     0.135 A 
ATOM     81  C   UNL A   1      42.672  33.416  30.197  1.00  0.00     0.135 A 
ATOM     82  F   UNL A   1      43.244  36.619  31.818  1.00  0.00    -0.206 F 
ATOM     83  C   UNL A   1      43.926  35.854  29.707  1.00  0.00     0.059 A 
ATOM     84  C   UNL A   1      43.349  33.606  28.996  1.00  0.00     0.059 A 
ATOM     85  F   UNL A   1      42.074  32.232  30.404  1.00  0.00    -0.206 F 
ATOM     86  C   UNL A   1      43.965  34.833  28.756  1.00  0.00     0.060 A 
BRANCH  86  87
ATOM     87  S   UNL A   1      44.862  35.120  27.217  1.00  0.00     0.124 S 
ATOM     88  O   UNL A   1      44.092  36.207  26.624  1.00  0.00    -0.237 OA
ATOM     89  O   UNL A   1      46.193  35.469  27.702  1.00  0.00    -0.237 OA
ATOM     90  O   UNL A   1      44.772  33.835  26.528  1.00  0.00    -0.744 OA
ENDBRANCH  86  87
ENDBRANCH  54  79
BRANCH  66  91
ATOM     91  C   UNL A   1      44.728  32.874  37.662  1.00  0.00     0.058 A 
ATOM     92  C   UNL A   1      45.296  31.590  37.665  1.00  0.00     0.135 A 
ATOM     93  C   UNL A   1      45.489  33.922  38.207  1.00  0.00     0.135 A 
ATOM     94  F   UNL A   1      44.617  30.547  37.158  1.00  0.00    -0.206 F 
ATOM     95  C   UNL A   1      46.545  31.348  38.229  1.00  0.00     0.059 A 
ATOM     96  C   UNL A   1      46.757  33.712  38.737  1.00  0.00     0.059 A 
ATOM     97  F   UNL A   1      45.005  35.176  38.218  1.00  0.00    -0.206 F 
ATOM     98  C   UNL A   1      47.269  32.417  38.763  1.00  0.00     0.060 A 
BRANCH  98  99
ATOM     99  S   UNL A   1      48.890  32.089  39.485  1.00  0.00     0.124 S 
ATOM    100  O   UNL A   1      48.904  33.020  40.608  1.00  0.00    -0.237 OA
ATOM    101  O   UNL A   1      48.795  30.676  39.833  1.00  0.00    -0.237 OA
ATOM    102  O   UNL A   1      49.816  32.402  38.400  1.00  0.00    -0.744 OA
ENDBRANCH  98  99
ENDBRANCH  66  91
ENDBRANCH  40  41
ENDBRANCH  33  35
ENDBRANCH  32  33
ENDBRANCH  31  32
ENDBRANCH  30  31
ENDBRANCH  29  30
ENDBRANCH  28  29
ENDBRANCH   1  28
TORSDOF 24
ENDMDL
MODEL 3
REMARK VINA RESULT:      -9.2      6.282     13.801
REMARK SMILES O=C(OCCOCCOCCOCCOC(=O)c1ccc(-c2c3nc(c(-c4c(F)cc(S(=O)(=O)[O-])cc4F)c4ccc([nH]4)c(-c4c(F)cc(S(=O)(=O)[O-])cc4F)c4nc(c(-c5c(F)cc(S(=O)(=O)[O-])cc5F)c5ccc2[nH]5)C=C4)C=C3)cc1)C1=Cc2cc(Cl)c(Cl)c(Cl)c2O[C@@H]1C(F)(F)F
REMARK SMILES IDX 10 1 9 2 8 3 7 4 6 5 5 6 4 7 3 8 2 9 1 10 84 11 85 12 96 13
REMARK SMILES IDX 86 14 95 15 87 16 94 17 88 18 92 19 89 20 90 21 93 22 91 23
REMARK SMILES IDX 97 24 98 25 99 26 100 27 11 28 12 29 13 30 14 31 15 32 16 33
REMARK SMILES IDX 17 34 18 35 19 36 83 37 20 38 82 39 21 40 22 41 23 42 76 43
REMARK SMILES IDX 24 44 81 45 75 46 77 47 25 48 80 49 74 50 73 51 26 53 60 54
REMARK SMILES IDX 39 55 59 56 40 57 43 58 58 59 78 60 41 61 42 62 57 64 79 65
REMARK SMILES IDX 44 66 27 67 28 68 37 69 29 70 30 71 36 72 38 73 31 74 32 75
REMARK SMILES IDX 33 76 34 77 35 78 61 79 62 80 71 81 63 82 64 83 70 84 72 85
REMARK SMILES IDX 65 86 66 87 67 88 68 89 69 90 45 91 46 92 55 93 47 94 48 95
REMARK SMILES IDX 54 96 56 97 49 98 50 99 51 100 52 101 53 102
REMARK H PARENT 77 52 43 63
REMARK Flexibility Score: inf
ROOT
ATOM      1  C   UNL A   1      39.776  31.095  35.383  1.00  0.00     0.188 C 
ENDROOT
BRANCH   1   2
ATOM      2  O   UNL A   1      40.342  30.052  34.626  1.00  0.00    -0.377 OA
BRANCH   2   3
ATOM      3  C   UNL A   1      41.741  30.154  34.538  1.00  0.00     0.188 C 
BRANCH   3   4
ATOM      4  C   UNL A   1      42.294  30.217  33.111  1.00  0.00     0.188 C 
BRANCH   4   5
ATOM      5  O   UNL A   1      43.636  29.772  32.718  1.00  0.00    -0.376 OA
BRANCH   5   6
ATOM      6  C   UNL A   1      44.457  28.355  32.879  1.00  0.00     0.202 C 
BRANCH   6   7
ATOM      7  C   UNL A   1      43.737  26.485  33.748  1.00  0.00     0.261 C 
BRANCH   7   8
ATOM      8  O   UNL A   1      44.434  25.657  34.808  1.00  0.00    -0.460 OA
BRANCH   8   9
ATOM      9  C   UNL A   1      45.286  24.768  34.285  1.00  0.00     0.338 C 
ATOM     10  O   UNL A   1      45.047  23.849  33.542  1.00  0.00    -0.246 OA
BRANCH   9  11
ATOM     11  C   UNL A   1      46.354  24.963  35.251  1.00  0.00     0.087 C 
ATOM     12  C   UNL A   1      46.512  23.859  36.210  1.00  0.00     0.027 C 
ATOM     13  C   UNL A   1      47.638  25.432  33.899  1.00  0.00     0.316 C 
ATOM     14  C   UNL A   1      47.828  22.628  36.129  1.00  0.00     0.020 A 
ATOM     15  O   UNL A   1      48.986  24.039  33.694  1.00  0.00    -0.474 OA
ATOM     16  C   UNL A   1      47.879  21.646  37.077  1.00  0.00     0.034 A 
ATOM     17  C   UNL A   1      48.991  22.603  34.847  1.00  0.00     0.148 A 
ATOM     18  C   UNL A   1      48.919  20.702  36.926  1.00  0.00     0.062 A 
ATOM     19  C   UNL A   1      49.917  21.587  34.724  1.00  0.00     0.103 A 
ATOM     20  Cl  UNL A   1      48.978  19.521  38.214  1.00  0.00    -0.083 Cl
ATOM     21  C   UNL A   1      49.883  20.658  35.813  1.00  0.00     0.082 A 
ATOM     22  Cl  UNL A   1      50.913  21.387  33.347  1.00  0.00    -0.079 Cl
ATOM     23  Cl  UNL A   1      51.083  19.382  35.851  1.00  0.00    -0.081 Cl
BRANCH  13  24
ATOM     24  C   UNL A   1      47.724  27.017  34.414  1.00  0.00     0.430 C 
ATOM     25  F   UNL A   1      46.704  27.512  35.137  1.00  0.00    -0.167 F 
ATOM     26  F   UNL A   1      48.795  27.090  35.266  1.00  0.00    -0.167 F 
ATOM     27  F   UNL A   1      48.017  27.920  33.443  1.00  0.00    -0.167 F 
ENDBRANCH  13  24
ENDBRANCH   9  11
ENDBRANCH   8   9
ENDBRANCH   7   8
ENDBRANCH   6   7
ENDBRANCH   5   6
ENDBRANCH   4   5
ENDBRANCH   3   4
ENDBRANCH   2   3
ENDBRANCH   1   2
BRANCH   1  28
ATOM     28  C   UNL A   1      38.496  31.725  34.826  1.00  0.00     0.188 C 
BRANCH  28  29
ATOM     29  O   UNL A   1      38.487  32.556  33.679  1.00  0.00    -0.376 OA
BRANCH  29  30
ATOM     30  C   UNL A   1      37.451  33.494  33.450  1.00  0.00     0.202 C 
BRANCH  30  31
ATOM     31  C   UNL A   1      36.489  33.389  32.256  1.00  0.00     0.261 C 
BRANCH  31  32
ATOM     32  O   UNL A   1      35.649  32.230  32.207  1.00  0.00    -0.460 OA
BRANCH  32  33
ATOM     33  C   UNL A   1      35.322  31.823  30.963  1.00  0.00     0.338 C 
ATOM     34  O   UNL A   1      34.372  32.205  30.299  1.00  0.00    -0.246 OA
BRANCH  33  35
ATOM     35  C   UNL A   1      36.393  30.968  30.403  1.00  0.00     0.060 A 
ATOM     36  C   UNL A   1      37.076  30.123  31.293  1.00  0.00     0.016 A 
ATOM     37  C   UNL A   1      36.767  31.025  29.059  1.00  0.00     0.016 A 
ATOM     38  C   UNL A   1      38.190  29.413  30.872  1.00  0.00     0.010 A 
ATOM     39  C   UNL A   1      37.916  30.343  28.644  1.00  0.00     0.010 A 
ATOM     40  C   UNL A   1      38.668  29.600  29.573  1.00  0.00    -0.014 A 
BRANCH  40  41
ATOM     41  C   UNL A   1      40.093  29.287  29.316  1.00  0.00     0.031 A 
ATOM     42  C   UNL A   1      41.108  30.374  29.573  1.00  0.00     0.074 A 
ATOM     43  C   UNL A   1      40.486  28.051  28.969  1.00  0.00     0.049 A 
ATOM     44  N   UNL A   1      42.409  30.346  29.449  1.00  0.00    -0.248 NA
ATOM     45  C   UNL A   1      40.580  31.671  30.032  1.00  0.00     0.031 C 
ATOM     46  C   UNL A   1      39.599  26.906  28.771  1.00  0.00     0.029 A 
ATOM     47  N   UNL A   1      41.742  27.553  28.731  1.00  0.00    -0.354 N 
ATOM     48  C   UNL A   1      42.849  31.620  29.793  1.00  0.00     0.074 A 
ATOM     49  C   UNL A   1      41.677  32.408  30.099  1.00  0.00     0.031 C 
ATOM     50  C   UNL A   1      40.342  25.836  28.439  1.00  0.00     0.029 A 
ATOM     51  C   UNL A   1      41.747  26.229  28.366  1.00  0.00     0.049 A 
ATOM     52  H   UNL A   1      42.561  28.093  28.815  1.00  0.00     0.167 HD
ATOM     53  C   UNL A   1      44.118  32.088  29.854  1.00  0.00     0.037 A 
ATOM     54  C   UNL A   1      42.774  25.438  27.997  1.00  0.00     0.037 A 
ATOM     55  C   UNL A   1      45.275  31.288  29.552  1.00  0.00     0.049 A 
ATOM     56  C   UNL A   1      44.171  26.005  27.996  1.00  0.00     0.074 A 
ATOM     57  C   UNL A   1      46.608  31.653  29.601  1.00  0.00     0.029 A 
ATOM     58  N   UNL A   1      45.238  29.966  29.130  1.00  0.00    -0.354 N 
ATOM     59  N   UNL A   1      44.580  27.206  28.337  1.00  0.00    -0.248 NA
ATOM     60  C   UNL A   1      45.250  25.104  27.568  1.00  0.00     0.031 C 
ATOM     61  C   UNL A   1      47.371  30.581  29.130  1.00  0.00     0.029 A 
ATOM     62  C   UNL A   1      46.522  29.514  28.876  1.00  0.00     0.049 A 
ATOM     63  H   UNL A   1      44.419  29.429  29.026  1.00  0.00     0.167 HD
ATOM     64  C   UNL A   1      45.967  27.189  28.209  1.00  0.00     0.074 A 
ATOM     65  C   UNL A   1      46.324  25.855  27.768  1.00  0.00     0.031 C 
ATOM     66  C   UNL A   1      46.863  28.181  28.443  1.00  0.00     0.037 A 
BRANCH  53  67
ATOM     67  C   UNL A   1      44.315  33.540  30.205  1.00  0.00     0.058 A 
ATOM     68  C   UNL A   1      44.231  34.567  29.250  1.00  0.00     0.135 A 
ATOM     69  C   UNL A   1      44.571  33.911  31.536  1.00  0.00     0.135 A 
ATOM     70  F   UNL A   1      44.008  34.274  27.959  1.00  0.00    -0.206 F 
ATOM     71  C   UNL A   1      44.424  35.902  29.596  1.00  0.00     0.059 A 
ATOM     72  C   UNL A   1      44.728  35.241  31.911  1.00  0.00     0.059 A 
ATOM     73  F   UNL A   1      44.669  32.975  32.493  1.00  0.00    -0.206 F 
ATOM     74  C   UNL A   1      44.668  36.229  30.931  1.00  0.00     0.060 A 
BRANCH  74  75
ATOM     75  S   UNL A   1      44.906  37.965  31.364  1.00  0.00     0.124 S 
ATOM     76  O   UNL A   1      44.050  38.094  32.539  1.00  0.00    -0.237 OA
ATOM     77  O   UNL A   1      46.343  38.026  31.616  1.00  0.00    -0.237 OA
ATOM     78  O   UNL A   1      44.450  38.679  30.175  1.00  0.00    -0.744 OA
ENDBRANCH  74  75
ENDBRANCH  53  67
BRANCH  54  79
ATOM     79  C   UNL A   1      42.522  24.026  27.601  1.00  0.00     0.058 A 
ATOM     80  C   UNL A   1      42.262  23.681  26.266  1.00  0.00     0.135 A 
ATOM     81  C   UNL A   1      42.526  22.991  28.551  1.00  0.00     0.135 A 
ATOM     82  F   UNL A   1      42.234  24.633  25.321  1.00  0.00    -0.206 F 
ATOM     83  C   UNL A   1      41.999  22.369  25.888  1.00  0.00     0.059 A 
ATOM     84  C   UNL A   1      42.298  21.666  28.193  1.00  0.00     0.059 A 
ATOM     85  F   UNL A   1      42.774  23.263  29.842  1.00  0.00    -0.206 F 
ATOM     86  C   UNL A   1      42.026  21.366  26.859  1.00  0.00     0.060 A 
BRANCH  86  87
ATOM     87  S   UNL A   1      41.735  19.660  26.347  1.00  0.00     0.124 S 
ATOM     88  O   UNL A   1      42.612  19.546  25.187  1.00  0.00    -0.237 OA
ATOM     89  O   UNL A   1      42.143  18.914  27.534  1.00  0.00    -0.237 OA
ATOM     90  O   UNL A   1      40.303  19.633  26.061  1.00  0.00    -0.744 OA
ENDBRANCH  86  87
ENDBRANCH  54  79
BRANCH  66  91
ATOM     91  C   UNL A   1      48.325  27.848  28.289  1.00  0.00     0.058 A 
ATOM     92  C   UNL A   1      49.002  27.975  27.066  1.00  0.00     0.135 A 
ATOM     93  C   UNL A   1      49.071  27.422  29.402  1.00  0.00     0.135 A 
ATOM     94  F   UNL A   1      48.343  28.377  25.966  1.00  0.00    -0.206 F 
ATOM     95  C   UNL A   1      50.348  27.646  26.940  1.00  0.00     0.059 A 
ATOM     96  C   UNL A   1      50.427  27.130  29.310  1.00  0.00     0.059 A 
ATOM     97  F   UNL A   1      48.483  27.297  30.604  1.00  0.00    -0.206 F 
ATOM     98  C   UNL A   1      51.053  27.224  28.070  1.00  0.00     0.060 A 
BRANCH  98  99
ATOM     99  S   UNL A   1      52.800  26.808  27.894  1.00  0.00     0.124 S 
ATOM    100  O   UNL A   1      53.081  26.174  29.178  1.00  0.00    -0.237 OA
ATOM    101  O   UNL A   1      52.793  25.922  26.735  1.00  0.00    -0.237 OA
ATOM    102  O   UNL A   1      53.440  28.104  27.682  1.00  0.00    -0.744 OA
ENDBRANCH  98  99
ENDBRANCH  66  91
ENDBRANCH  40  41
ENDBRANCH  33  35
ENDBRANCH  32  33
ENDBRANCH  31  32
ENDBRANCH  30  31
ENDBRANCH  29  30
ENDBRANCH  28  29
ENDBRANCH   1  28
TORSDOF 24
ENDMDL
