MODEL 1
REMARK VINA RESULT:      -9.6      0.000      0.000
REMARK SMILES O=C(OCCOCCOCCOCCOC(=O)c1coc(-c2csc(-c3ccc(Cl)cn3)n2)c1)c1ccc(-c2c3nc(c(-c4c(F)cc(S(=O)(=O)[O-])cc4F)c4ccc([nH]4)c(-c4c(F)cc(S(=O)(=O)[O-])cc4F)c4nc(c(-c5c(F)cc(S(=O)(=O)[O-])cc5F)c5ccc2[nH]5)C=C4)C=C3)cc1
REMARK SMILES IDX 8 1 7 2 6 3 5 4 4 5 3 6 2 7 1 8 35 9 36 10 100 11 37 12
REMARK SMILES IDX 99 13 38 14 39 15 40 16 93 17 41 18 98 19 92 20 94 21 42 22
REMARK SMILES IDX 97 23 91 24 90 25 43 27 77 28 56 29 76 30 57 31 60 32 75 33
REMARK SMILES IDX 95 34 58 35 59 36 74 38 96 39 61 40 44 41 45 42 54 43 46 44
REMARK SMILES IDX 47 45 53 46 55 47 48 48 49 49 50 50 51 51 52 52 78 53 79 54
REMARK SMILES IDX 88 55 80 56 81 57 87 58 89 59 82 60 83 61 84 62 85 63 86 64
REMARK SMILES IDX 62 65 63 66 72 67 64 68 65 69 71 70 73 71 66 72 67 73 68 74
REMARK SMILES IDX 69 75 70 76 9 77 10 78 11 79 12 80 13 81 14 82 15 83 16 84
REMARK SMILES IDX 17 85 18 86 19 87 34 88 20 89 21 90 22 91 23 92 33 93 24 94
REMARK SMILES IDX 25 95 26 96 27 97 32 98 28 99 31 100 29 101 30 102
REMARK H PARENT 94 26 60 37
REMARK Flexibility Score: inf
ROOT
ATOM      1  C   UNL A   1      36.310  23.361  23.349  1.00  0.00     0.188 C 
ENDROOT
BRANCH   1   2
ATOM      2  C   UNL A   1      36.765  22.320  24.372  1.00  0.00     0.188 C 
BRANCH   2   3
ATOM      3  O   UNL A   1      37.841  22.840  25.161  1.00  0.00    -0.376 OA
BRANCH   3   4
ATOM      4  C   UNL A   1      38.683  21.851  25.753  1.00  0.00     0.202 C 
BRANCH   4   5
ATOM      5  C   UNL A   1      39.746  22.422  26.695  1.00  0.00     0.261 C 
BRANCH   5   6
ATOM      6  O   UNL A   1      39.872  23.847  26.556  1.00  0.00    -0.460 OA
BRANCH   6   7
ATOM      7  C   UNL A   1      40.931  24.623  26.906  1.00  0.00     0.338 C 
ATOM      8  O   UNL A   1      42.025  24.381  26.397  1.00  0.00    -0.246 OA
BRANCH   7   9
ATOM      9  C   UNL A   1      40.835  25.789  27.838  1.00  0.00     0.060 A 
ATOM     10  C   UNL A   1      41.742  26.848  27.897  1.00  0.00     0.016 A 
ATOM     11  C   UNL A   1      39.718  25.838  28.692  1.00  0.00     0.016 A 
ATOM     12  C   UNL A   1      41.631  27.846  28.854  1.00  0.00     0.010 A 
ATOM     13  C   UNL A   1      39.565  26.871  29.624  1.00  0.00     0.010 A 
ATOM     14  C   UNL A   1      40.555  27.852  29.738  1.00  0.00    -0.014 A 
BRANCH  14  15
ATOM     15  C   UNL A   1      40.605  28.809  30.862  1.00  0.00     0.031 A 
ATOM     16  C   UNL A   1      39.608  29.931  30.877  1.00  0.00     0.074 A 
ATOM     17  C   UNL A   1      41.395  28.554  31.921  1.00  0.00     0.049 A 
ATOM     18  N   UNL A   1      39.435  30.872  31.764  1.00  0.00    -0.248 NA
ATOM     19  C   UNL A   1      38.660  29.988  29.749  1.00  0.00     0.031 C 
ATOM     20  C   UNL A   1      42.306  27.411  32.036  1.00  0.00     0.029 A 
ATOM     21  N   UNL A   1      41.527  29.204  33.118  1.00  0.00    -0.354 N 
ATOM     22  C   UNL A   1      38.371  31.636  31.299  1.00  0.00     0.074 A 
ATOM     23  C   UNL A   1      37.947  31.063  30.042  1.00  0.00     0.031 C 
ATOM     24  C   UNL A   1      42.882  27.427  33.249  1.00  0.00     0.029 A 
ATOM     25  C   UNL A   1      42.427  28.610  33.973  1.00  0.00     0.049 A 
ATOM     26  H   UNL A   1      41.026  30.020  33.347  1.00  0.00     0.167 HD
ATOM     27  C   UNL A   1      37.800  32.718  31.875  1.00  0.00     0.037 A 
ATOM     28  C   UNL A   1      42.851  29.000  35.189  1.00  0.00     0.037 A 
ATOM     29  C   UNL A   1      38.250  33.272  33.122  1.00  0.00     0.049 A 
ATOM     30  C   UNL A   1      42.262  30.260  35.769  1.00  0.00     0.074 A 
ATOM     31  C   UNL A   1      37.840  34.428  33.757  1.00  0.00     0.029 A 
ATOM     32  N   UNL A   1      39.217  32.687  33.931  1.00  0.00    -0.354 N 
ATOM     33  N   UNL A   1      41.325  31.035  35.270  1.00  0.00    -0.248 NA
ATOM     34  C   UNL A   1      42.789  30.708  37.062  1.00  0.00     0.031 C 
ATOM     35  C   UNL A   1      38.579  34.556  34.940  1.00  0.00     0.029 A 
ATOM     36  C   UNL A   1      39.419  33.458  35.060  1.00  0.00     0.049 A 
ATOM     37  H   UNL A   1      39.689  31.847  33.729  1.00  0.00     0.167 HD
ATOM     38  C   UNL A   1      41.151  32.062  36.189  1.00  0.00     0.074 A 
ATOM     39  C   UNL A   1      42.057  31.790  37.288  1.00  0.00     0.031 C 
ATOM     40  C   UNL A   1      40.332  33.141  36.130  1.00  0.00     0.037 A 
BRANCH  27  41
ATOM     41  C   UNL A   1      36.681  33.382  31.125  1.00  0.00     0.058 A 
ATOM     42  C   UNL A   1      35.338  33.207  31.495  1.00  0.00     0.135 A 
ATOM     43  C   UNL A   1      36.952  34.168  29.994  1.00  0.00     0.135 A 
ATOM     44  F   UNL A   1      35.022  32.437  32.548  1.00  0.00    -0.206 F 
ATOM     45  C   UNL A   1      34.301  33.766  30.753  1.00  0.00     0.059 A 
ATOM     46  C   UNL A   1      35.932  34.753  29.249  1.00  0.00     0.059 A 
ATOM     47  F   UNL A   1      38.217  34.353  29.588  1.00  0.00    -0.206 F 
ATOM     48  C   UNL A   1      34.608  34.532  29.627  1.00  0.00     0.060 A 
BRANCH  48  49
ATOM     49  S   UNL A   1      33.253  35.226  28.656  1.00  0.00     0.124 S 
ATOM     50  O   UNL A   1      32.483  35.919  29.685  1.00  0.00    -0.237 OA
ATOM     51  O   UNL A   1      33.955  36.082  27.706  1.00  0.00    -0.237 OA
ATOM     52  O   UNL A   1      32.612  34.048  28.079  1.00  0.00    -0.744 OA
ENDBRANCH  48  49
ENDBRANCH  27  41
BRANCH  28  53
ATOM     53  C   UNL A   1      43.919  28.243  35.899  1.00  0.00     0.058 A 
ATOM     54  C   UNL A   1      45.278  28.540  35.725  1.00  0.00     0.135 A 
ATOM     55  C   UNL A   1      43.593  27.182  36.762  1.00  0.00     0.135 A 
ATOM     56  F   UNL A   1      45.648  29.538  34.909  1.00  0.00    -0.206 F 
ATOM     57  C   UNL A   1      46.275  27.800  36.360  1.00  0.00     0.059 A 
ATOM     58  C   UNL A   1      44.568  26.449  37.429  1.00  0.00     0.059 A 
ATOM     59  F   UNL A   1      42.308  26.858  36.975  1.00  0.00    -0.206 F 
ATOM     60  C   UNL A   1      45.909  26.753  37.208  1.00  0.00     0.060 A 
BRANCH  60  61
ATOM     61  S   UNL A   1      47.201  25.807  38.044  1.00  0.00     0.124 S 
ATOM     62  O   UNL A   1      47.718  24.991  36.951  1.00  0.00    -0.237 OA
ATOM     63  O   UNL A   1      48.088  26.856  38.534  1.00  0.00    -0.237 OA
ATOM     64  O   UNL A   1      46.468  25.084  39.079  1.00  0.00    -0.744 OA
ENDBRANCH  60  61
ENDBRANCH  28  53
BRANCH  40  65
ATOM     65  C   UNL A   1      40.376  34.085  37.295  1.00  0.00     0.058 A 
ATOM     66  C   UNL A   1      41.242  35.188  37.308  1.00  0.00     0.135 A 
ATOM     67  C   UNL A   1      39.509  33.909  38.383  1.00  0.00     0.135 A 
ATOM     68  F   UNL A   1      42.092  35.391  36.289  1.00  0.00    -0.206 F 
ATOM     69  C   UNL A   1      41.267  36.073  38.378  1.00  0.00     0.059 A 
ATOM     70  C   UNL A   1      39.499  34.797  39.453  1.00  0.00     0.059 A 
ATOM     71  F   UNL A   1      38.653  32.875  38.408  1.00  0.00    -0.206 F 
ATOM     72  C   UNL A   1      40.392  35.868  39.446  1.00  0.00     0.060 A 
BRANCH  72  73
ATOM     73  S   UNL A   1      40.410  37.040  40.819  1.00  0.00     0.124 S 
ATOM     74  O   UNL A   1      41.087  36.266  41.854  1.00  0.00    -0.237 OA
ATOM     75  O   UNL A   1      41.167  38.159  40.267  1.00  0.00    -0.237 OA
ATOM     76  O   UNL A   1      38.994  37.305  41.055  1.00  0.00    -0.744 OA
ENDBRANCH  72  73
ENDBRANCH  40  65
ENDBRANCH  14  15
ENDBRANCH   7   9
ENDBRANCH   6   7
ENDBRANCH   5   6
ENDBRANCH   4   5
ENDBRANCH   3   4
ENDBRANCH   2   3
ENDBRANCH   1   2
BRANCH   1  77
ATOM     77  O   UNL A   1      35.274  24.231  23.810  1.00  0.00    -0.377 OA
BRANCH  77  78
ATOM     78  C   UNL A   1      34.071  24.236  23.046  1.00  0.00     0.188 C 
BRANCH  78  79
ATOM     79  C   UNL A   1      33.706  25.516  22.268  1.00  0.00     0.188 C 
BRANCH  79  80
ATOM     80  O   UNL A   1      33.106  26.531  23.062  1.00  0.00    -0.376 OA
BRANCH  80  81
ATOM     81  C   UNL A   1      33.928  27.657  23.349  1.00  0.00     0.202 C 
BRANCH  81  82
ATOM     82  C   UNL A   1      33.223  29.009  23.158  1.00  0.00     0.261 C 
BRANCH  82  83
ATOM     83  O   UNL A   1      31.850  29.052  23.592  1.00  0.00    -0.460 OA
BRANCH  83  84
ATOM     84  C   UNL A   1      31.594  29.382  24.884  1.00  0.00     0.341 C 
ATOM     85  O   UNL A   1      31.326  30.509  25.281  1.00  0.00    -0.246 OA
BRANCH  84  86
ATOM     86  C   UNL A   1      31.474  28.195  25.713  1.00  0.00     0.098 A 
ATOM     87  C   UNL A   1      31.877  28.073  27.029  1.00  0.00     0.211 A 
ATOM     88  C   UNL A   1      31.088  26.878  25.319  1.00  0.00     0.068 A 
ATOM     89  O   UNL A   1      31.900  26.768  27.409  1.00  0.00    -0.462 OA
ATOM     90  C   UNL A   1      31.418  26.032  26.365  1.00  0.00     0.154 A 
BRANCH  90  91
ATOM     91  C   UNL A   1      31.293  24.544  26.340  1.00  0.00     0.117 A 
ATOM     92  C   UNL A   1      30.118  23.927  26.708  1.00  0.00     0.099 A 
ATOM     93  N   UNL A   1      32.319  23.692  25.943  1.00  0.00    -0.231 NA
ATOM     94  S   UNL A   1      30.254  22.241  26.490  1.00  0.00    -0.120 S 
ATOM     95  C   UNL A   1      31.858  22.451  25.869  1.00  0.00     0.142 A 
BRANCH  95  96
ATOM     96  C   UNL A   1      32.585  21.265  25.376  1.00  0.00     0.099 A 
ATOM     97  C   UNL A   1      33.975  21.185  25.417  1.00  0.00     0.033 A 
ATOM     98  N   UNL A   1      31.815  20.242  24.908  1.00  0.00    -0.252 NA
ATOM     99  C   UNL A   1      34.596  19.997  25.010  1.00  0.00     0.024 A 
ATOM    100  C   UNL A   1      32.445  19.115  24.499  1.00  0.00     0.132 A 
ATOM    101  C   UNL A   1      33.817  18.942  24.548  1.00  0.00     0.059 A 
ATOM    102  Cl  UNL A   1      34.537  17.459  24.070  1.00  0.00    -0.083 Cl
ENDBRANCH  95  96
ENDBRANCH  90  91
ENDBRANCH  84  86
ENDBRANCH  83  84
ENDBRANCH  82  83
ENDBRANCH  81  82
ENDBRANCH  80  81
ENDBRANCH  79  80
ENDBRANCH  78  79
ENDBRANCH  77  78
ENDBRANCH   1  77
TORSDOF 25
ENDMDL
MODEL 2
REMARK VINA RESULT:      -9.2      6.410      9.077
REMARK SMILES O=C(OCCOCCOCCOCCOC(=O)c1coc(-c2csc(-c3ccc(Cl)cn3)n2)c1)c1ccc(-c2c3nc(c(-c4c(F)cc(S(=O)(=O)[O-])cc4F)c4ccc([nH]4)c(-c4c(F)cc(S(=O)(=O)[O-])cc4F)c4nc(c(-c5c(F)cc(S(=O)(=O)[O-])cc5F)c5ccc2[nH]5)C=C4)C=C3)cc1
REMARK SMILES IDX 8 1 7 2 6 3 5 4 4 5 3 6 2 7 1 8 35 9 36 10 100 11 37 12
REMARK SMILES IDX 99 13 38 14 39 15 40 16 93 17 41 18 98 19 92 20 94 21 42 22
REMARK SMILES IDX 97 23 91 24 90 25 43 27 77 28 56 29 76 30 57 31 60 32 75 33
REMARK SMILES IDX 95 34 58 35 59 36 74 38 96 39 61 40 44 41 45 42 54 43 46 44
REMARK SMILES IDX 47 45 53 46 55 47 48 48 49 49 50 50 51 51 52 52 78 53 79 54
REMARK SMILES IDX 88 55 80 56 81 57 87 58 89 59 82 60 83 61 84 62 85 63 86 64
REMARK SMILES IDX 62 65 63 66 72 67 64 68 65 69 71 70 73 71 66 72 67 73 68 74
REMARK SMILES IDX 69 75 70 76 9 77 10 78 11 79 12 80 13 81 14 82 15 83 16 84
REMARK SMILES IDX 17 85 18 86 19 87 34 88 20 89 21 90 22 91 23 92 33 93 24 94
REMARK SMILES IDX 25 95 26 96 27 97 32 98 28 99 31 100 29 101 30 102
REMARK H PARENT 94 26 60 37
REMARK Flexibility Score: inf
ROOT
ATOM      1  C   UNL A   1      36.476  23.917  25.924  1.00  0.00     0.188 C 
ENDROOT
BRANCH   1   2
ATOM      2  C   UNL A   1      37.625  22.925  25.754  1.00  0.00     0.188 C 
BRANCH   2   3
ATOM      3  O   UNL A   1      37.124  21.656  25.319  1.00  0.00    -0.376 OA
BRANCH   3   4
ATOM      4  C   UNL A   1      38.024  20.562  25.493  1.00  0.00     0.202 C 
BRANCH   4   5
ATOM      5  C   UNL A   1      39.486  20.982  25.666  1.00  0.00     0.261 C 
BRANCH   5   6
ATOM      6  O   UNL A   1      39.981  20.668  26.979  1.00  0.00    -0.460 OA
BRANCH   6   7
ATOM      7  C   UNL A   1      41.107  21.138  27.574  1.00  0.00     0.338 C 
ATOM      8  O   UNL A   1      41.923  20.324  28.004  1.00  0.00    -0.246 OA
BRANCH   7   9
ATOM      9  C   UNL A   1      41.438  22.592  27.695  1.00  0.00     0.060 A 
ATOM     10  C   UNL A   1      40.970  23.597  26.848  1.00  0.00     0.016 A 
ATOM     11  C   UNL A   1      42.253  22.977  28.776  1.00  0.00     0.016 A 
ATOM     12  C   UNL A   1      41.398  24.910  26.974  1.00  0.00     0.010 A 
ATOM     13  C   UNL A   1      42.645  24.309  28.946  1.00  0.00     0.010 A 
ATOM     14  C   UNL A   1      42.256  25.272  28.009  1.00  0.00    -0.014 A 
BRANCH  14  15
ATOM     15  C   UNL A   1      42.841  26.627  27.965  1.00  0.00     0.031 A 
ATOM     16  C   UNL A   1      42.122  27.729  28.687  1.00  0.00     0.074 A 
ATOM     17  C   UNL A   1      44.074  26.804  27.456  1.00  0.00     0.049 A 
ATOM     18  N   UNL A   1      42.451  28.985  28.816  1.00  0.00    -0.248 NA
ATOM     19  C   UNL A   1      40.872  27.361  29.377  1.00  0.00     0.031 C 
ATOM     20  C   UNL A   1      44.893  25.752  26.845  1.00  0.00     0.029 A 
ATOM     21  N   UNL A   1      44.874  27.914  27.411  1.00  0.00    -0.354 N 
ATOM     22  C   UNL A   1      41.448  29.558  29.590  1.00  0.00     0.074 A 
ATOM     23  C   UNL A   1      40.487  28.519  29.887  1.00  0.00     0.031 C 
ATOM     24  C   UNL A   1      46.090  26.264  26.512  1.00  0.00     0.029 A 
ATOM     25  C   UNL A   1      46.100  27.688  26.831  1.00  0.00     0.049 A 
ATOM     26  H   UNL A   1      44.598  28.792  27.761  1.00  0.00     0.167 HD
ATOM     27  C   UNL A   1      41.343  30.837  30.014  1.00  0.00     0.037 A 
ATOM     28  C   UNL A   1      47.103  28.547  26.565  1.00  0.00     0.037 A 
ATOM     29  C   UNL A   1      42.309  31.851  29.694  1.00  0.00     0.049 A 
ATOM     30  C   UNL A   1      46.922  29.986  26.969  1.00  0.00     0.074 A 
ATOM     31  C   UNL A   1      42.267  33.206  29.959  1.00  0.00     0.029 A 
ATOM     32  N   UNL A   1      43.510  31.605  29.039  1.00  0.00    -0.354 N 
ATOM     33  N   UNL A   1      45.918  30.540  27.612  1.00  0.00    -0.248 NA
ATOM     34  C   UNL A   1      47.993  30.920  26.606  1.00  0.00     0.031 C 
ATOM     35  C   UNL A   1      43.433  33.784  29.441  1.00  0.00     0.029 A 
ATOM     36  C   UNL A   1      44.218  32.782  28.889  1.00  0.00     0.049 A 
ATOM     37  H   UNL A   1      43.812  30.721  28.727  1.00  0.00     0.167 HD
ATOM     38  C   UNL A   1      46.238  31.887  27.730  1.00  0.00     0.074 A 
ATOM     39  C   UNL A   1      47.543  32.056  27.121  1.00  0.00     0.031 C 
ATOM     40  C   UNL A   1      45.519  32.898  28.277  1.00  0.00     0.037 A 
BRANCH  27  41
ATOM     41  C   UNL A   1      40.121  31.197  30.809  1.00  0.00     0.058 A 
ATOM     42  C   UNL A   1      38.903  31.515  30.185  1.00  0.00     0.135 A 
ATOM     43  C   UNL A   1      40.179  31.270  32.209  1.00  0.00     0.135 A 
ATOM     44  F   UNL A   1      38.803  31.496  28.847  1.00  0.00    -0.206 F 
ATOM     45  C   UNL A   1      37.793  31.919  30.923  1.00  0.00     0.059 A 
ATOM     46  C   UNL A   1      39.075  31.652  32.968  1.00  0.00     0.059 A 
ATOM     47  F   UNL A   1      41.322  30.992  32.853  1.00  0.00    -0.206 F 
ATOM     48  C   UNL A   1      37.892  31.991  32.313  1.00  0.00     0.060 A 
BRANCH  48  49
ATOM     49  S   UNL A   1      36.454  32.545  33.255  1.00  0.00     0.124 S 
ATOM     50  O   UNL A   1      36.441  33.973  32.953  1.00  0.00    -0.237 OA
ATOM     51  O   UNL A   1      35.373  31.763  32.664  1.00  0.00    -0.237 OA
ATOM     52  O   UNL A   1      36.795  32.197  34.631  1.00  0.00    -0.744 OA
ENDBRANCH  48  49
ENDBRANCH  27  41
BRANCH  28  53
ATOM     53  C   UNL A   1      48.317  28.091  25.831  1.00  0.00     0.058 A 
ATOM     54  C   UNL A   1      49.522  27.817  26.491  1.00  0.00     0.135 A 
ATOM     55  C   UNL A   1      48.294  27.939  24.434  1.00  0.00     0.135 A 
ATOM     56  F   UNL A   1      49.603  27.951  27.824  1.00  0.00    -0.206 F 
ATOM     57  C   UNL A   1      50.667  27.431  25.794  1.00  0.00     0.059 A 
ATOM     58  C   UNL A   1      49.414  27.527  23.720  1.00  0.00     0.059 A 
ATOM     59  F   UNL A   1      47.165  28.178  23.749  1.00  0.00    -0.206 F 
ATOM     60  C   UNL A   1      50.603  27.293  24.406  1.00  0.00     0.060 A 
BRANCH  60  61
ATOM     61  S   UNL A   1      52.081  26.777  23.506  1.00  0.00     0.124 S 
ATOM     62  O   UNL A   1      52.612  25.743  24.387  1.00  0.00    -0.237 OA
ATOM     63  O   UNL A   1      51.528  26.314  22.238  1.00  0.00    -0.237 OA
ATOM     64  O   UNL A   1      52.868  28.004  23.427  1.00  0.00    -0.744 OA
ENDBRANCH  60  61
ENDBRANCH  28  53
BRANCH  40  65
ATOM     65  C   UNL A   1      46.143  34.261  28.249  1.00  0.00     0.058 A 
ATOM     66  C   UNL A   1      46.931  34.725  29.312  1.00  0.00     0.135 A 
ATOM     67  C   UNL A   1      45.988  35.089  27.126  1.00  0.00     0.135 A 
ATOM     68  F   UNL A   1      47.101  33.968  30.407  1.00  0.00    -0.206 F 
ATOM     69  C   UNL A   1      47.526  35.980  29.276  1.00  0.00     0.059 A 
ATOM     70  C   UNL A   1      46.595  36.338  27.059  1.00  0.00     0.059 A 
ATOM     71  F   UNL A   1      45.253  34.681  26.079  1.00  0.00    -0.206 F 
ATOM     72  C   UNL A   1      47.351  36.779  28.144  1.00  0.00     0.060 A 
BRANCH  72  73
ATOM     73  S   UNL A   1      48.151  38.396  28.093  1.00  0.00     0.124 S 
ATOM     74  O   UNL A   1      48.491  38.507  26.678  1.00  0.00    -0.237 OA
ATOM     75  O   UNL A   1      47.094  39.285  28.563  1.00  0.00    -0.237 OA
ATOM     76  O   UNL A   1      49.282  38.241  29.002  1.00  0.00    -0.744 OA
ENDBRANCH  72  73
ENDBRANCH  40  65
ENDBRANCH  14  15
ENDBRANCH   7   9
ENDBRANCH   6   7
ENDBRANCH   5   6
ENDBRANCH   4   5
ENDBRANCH   3   4
ENDBRANCH   2   3
ENDBRANCH   1   2
BRANCH   1  77
ATOM     77  O   UNL A   1      35.238  23.327  26.327  1.00  0.00    -0.377 OA
BRANCH  77  78
ATOM     78  C   UNL A   1      34.062  23.860  25.724  1.00  0.00     0.188 C 
BRANCH  78  79
ATOM     79  C   UNL A   1      34.004  23.942  24.186  1.00  0.00     0.188 C 
BRANCH  79  80
ATOM     80  O   UNL A   1      34.266  25.235  23.659  1.00  0.00    -0.376 OA
BRANCH  80  81
ATOM     81  C   UNL A   1      33.587  25.560  22.450  1.00  0.00     0.202 C 
BRANCH  81  82
ATOM     82  C   UNL A   1      32.194  24.922  22.327  1.00  0.00     0.261 C 
BRANCH  82  83
ATOM     83  O   UNL A   1      31.096  25.764  22.726  1.00  0.00    -0.460 OA
BRANCH  83  84
ATOM     84  C   UNL A   1      30.815  25.870  24.051  1.00  0.00     0.341 C 
ATOM     85  O   UNL A   1      30.521  24.934  24.783  1.00  0.00    -0.246 OA
BRANCH  84  86
ATOM     86  C   UNL A   1      31.106  27.206  24.542  1.00  0.00     0.098 A 
ATOM     87  C   UNL A   1      30.820  28.394  23.899  1.00  0.00     0.211 A 
ATOM     88  C   UNL A   1      31.884  27.578  25.680  1.00  0.00     0.068 A 
ATOM     89  O   UNL A   1      31.483  29.430  24.478  1.00  0.00    -0.462 OA
ATOM     90  C   UNL A   1      32.136  28.935  25.570  1.00  0.00     0.154 A 
BRANCH  90  91
ATOM     91  C   UNL A   1      33.013  29.725  26.486  1.00  0.00     0.117 A 
ATOM     92  C   UNL A   1      34.307  29.330  26.739  1.00  0.00     0.099 A 
ATOM     93  N   UNL A   1      32.605  30.890  27.125  1.00  0.00    -0.231 NA
ATOM     94  S   UNL A   1      35.077  30.473  27.743  1.00  0.00    -0.120 S 
ATOM     95  C   UNL A   1      33.645  31.447  27.732  1.00  0.00     0.142 A 
BRANCH  95  96
ATOM     96  C   UNL A   1      33.672  32.751  28.424  1.00  0.00     0.099 A 
ATOM     97  C   UNL A   1      32.888  33.822  28.005  1.00  0.00     0.033 A 
ATOM     98  N   UNL A   1      34.486  32.833  29.515  1.00  0.00    -0.252 NA
ATOM     99  C   UNL A   1      32.900  35.004  28.757  1.00  0.00     0.024 A 
ATOM    100  C   UNL A   1      34.494  33.996  30.209  1.00  0.00     0.132 A 
ATOM    101  C   UNL A   1      33.713  35.091  29.882  1.00  0.00     0.059 A 
ATOM    102  Cl  UNL A   1      33.733  36.508  30.848  1.00  0.00    -0.083 Cl
ENDBRANCH  95  96
ENDBRANCH  90  91
ENDBRANCH  84  86
ENDBRANCH  83  84
ENDBRANCH  82  83
ENDBRANCH  81  82
ENDBRANCH  80  81
ENDBRANCH  79  80
ENDBRANCH  78  79
ENDBRANCH  77  78
ENDBRANCH   1  77
TORSDOF 25
ENDMDL
MODEL 3
REMARK VINA RESULT:      -9.0      5.783      7.047
REMARK SMILES O=C(OCCOCCOCCOCCOC(=O)c1coc(-c2csc(-c3ccc(Cl)cn3)n2)c1)c1ccc(-c2c3nc(c(-c4c(F)cc(S(=O)(=O)[O-])cc4F)c4ccc([nH]4)c(-c4c(F)cc(S(=O)(=O)[O-])cc4F)c4nc(c(-c5c(F)cc(S(=O)(=O)[O-])cc5F)c5ccc2[nH]5)C=C4)C=C3)cc1
REMARK SMILES IDX 8 1 7 2 6 3 5 4 4 5 3 6 2 7 1 8 35 9 36 10 100 11 37 12
REMARK SMILES IDX 99 13 38 14 39 15 40 16 93 17 41 18 98 19 92 20 94 21 42 22
REMARK SMILES IDX 97 23 91 24 90 25 43 27 77 28 56 29 76 30 57 31 60 32 75 33
REMARK SMILES IDX 95 34 58 35 59 36 74 38 96 39 61 40 44 41 45 42 54 43 46 44
REMARK SMILES IDX 47 45 53 46 55 47 48 48 49 49 50 50 51 51 52 52 78 53 79 54
REMARK SMILES IDX 88 55 80 56 81 57 87 58 89 59 82 60 83 61 84 62 85 63 86 64
REMARK SMILES IDX 62 65 63 66 72 67 64 68 65 69 71 70 73 71 66 72 67 73 68 74
REMARK SMILES IDX 69 75 70 76 9 77 10 78 11 79 12 80 13 81 14 82 15 83 16 84
REMARK SMILES IDX 17 85 18 86 19 87 34 88 20 89 21 90 22 91 23 92 33 93 24 94
REMARK SMILES IDX 25 95 26 96 27 97 32 98 28 99 31 100 29 101 30 102
REMARK H PARENT 94 26 60 37
REMARK Flexibility Score: inf
ROOT
ATOM      1  C   UNL A   1      35.373  24.084  24.907  1.00  0.00     0.188 C 
ENDROOT
BRANCH   1   2
ATOM      2  C   UNL A   1      36.597  23.691  25.734  1.00  0.00     0.188 C 
BRANCH   2   3
ATOM      3  O   UNL A   1      36.643  22.270  25.906  1.00  0.00    -0.376 OA
BRANCH   3   4
ATOM      4  C   UNL A   1      37.838  21.647  25.435  1.00  0.00     0.202 C 
BRANCH   4   5
ATOM      5  C   UNL A   1      39.105  22.100  26.165  1.00  0.00     0.261 C 
BRANCH   5   6
ATOM      6  O   UNL A   1      40.057  21.031  26.297  1.00  0.00    -0.460 OA
BRANCH   6   7
ATOM      7  C   UNL A   1      41.409  21.131  26.369  1.00  0.00     0.338 C 
ATOM      8  O   UNL A   1      42.088  20.310  25.753  1.00  0.00    -0.246 OA
BRANCH   7   9
ATOM      9  C   UNL A   1      42.125  22.212  27.115  1.00  0.00     0.060 A 
ATOM     10  C   UNL A   1      43.325  22.804  26.718  1.00  0.00     0.016 A 
ATOM     11  C   UNL A   1      41.513  22.698  28.284  1.00  0.00     0.016 A 
ATOM     12  C   UNL A   1      43.971  23.738  27.515  1.00  0.00     0.010 A 
ATOM     13  C   UNL A   1      42.129  23.682  29.067  1.00  0.00     0.010 A 
ATOM     14  C   UNL A   1      43.389  24.167  28.705  1.00  0.00    -0.014 A 
BRANCH  14  15
ATOM     15  C   UNL A   1      44.217  24.993  29.606  1.00  0.00     0.031 A 
ATOM     16  C   UNL A   1      44.465  26.423  29.221  1.00  0.00     0.074 A 
ATOM     17  C   UNL A   1      44.561  24.520  30.817  1.00  0.00     0.049 A 
ATOM     18  N   UNL A   1      45.130  27.348  29.858  1.00  0.00    -0.248 NA
ATOM     19  C   UNL A   1      43.864  26.880  27.954  1.00  0.00     0.031 C 
ATOM     20  C   UNL A   1      44.247  23.178  31.317  1.00  0.00     0.029 A 
ATOM     21  N   UNL A   1      45.205  25.121  31.866  1.00  0.00    -0.354 N 
ATOM     22  C   UNL A   1      45.037  28.488  29.068  1.00  0.00     0.074 A 
ATOM     23  C   UNL A   1      44.267  28.139  27.896  1.00  0.00     0.031 C 
ATOM     24  C   UNL A   1      44.677  23.069  32.585  1.00  0.00     0.029 A 
ATOM     25  C   UNL A   1      45.345  24.309  32.966  1.00  0.00     0.049 A 
ATOM     26  H   UNL A   1      45.536  26.047  31.834  1.00  0.00     0.167 HD
ATOM     27  C   UNL A   1      45.547  29.717  29.307  1.00  0.00     0.037 A 
ATOM     28  C   UNL A   1      45.970  24.539  34.136  1.00  0.00     0.037 A 
ATOM     29  C   UNL A   1      46.317  30.033  30.478  1.00  0.00     0.049 A 
ATOM     30  C   UNL A   1      46.608  25.888  34.340  1.00  0.00     0.074 A 
ATOM     31  C   UNL A   1      46.989  31.200  30.788  1.00  0.00     0.029 A 
ATOM     32  N   UNL A   1      46.505  29.163  31.546  1.00  0.00    -0.354 N 
ATOM     33  N   UNL A   1      46.602  26.930  33.539  1.00  0.00    -0.248 NA
ATOM     34  C   UNL A   1      47.346  26.094  35.590  1.00  0.00     0.031 C 
ATOM     35  C   UNL A   1      47.605  31.026  32.033  1.00  0.00     0.029 A 
ATOM     36  C   UNL A   1      47.283  29.766  32.516  1.00  0.00     0.049 A 
ATOM     37  H   UNL A   1      46.138  28.252  31.602  1.00  0.00     0.167 HD
ATOM     38  C   UNL A   1      47.334  27.915  34.189  1.00  0.00     0.074 A 
ATOM     39  C   UNL A   1      47.740  27.354  35.463  1.00  0.00     0.031 C 
ATOM     40  C   UNL A   1      47.658  29.165  33.773  1.00  0.00     0.037 A 
BRANCH  27  41
ATOM     41  C   UNL A   1      45.329  30.765  28.254  1.00  0.00     0.058 A 
ATOM     42  C   UNL A   1      46.281  31.011  27.250  1.00  0.00     0.135 A 
ATOM     43  C   UNL A   1      44.176  31.565  28.275  1.00  0.00     0.135 A 
ATOM     44  F   UNL A   1      47.417  30.299  27.207  1.00  0.00    -0.206 F 
ATOM     45  C   UNL A   1      46.107  32.033  26.320  1.00  0.00     0.059 A 
ATOM     46  C   UNL A   1      43.973  32.579  27.342  1.00  0.00     0.059 A 
ATOM     47  F   UNL A   1      43.245  31.382  29.222  1.00  0.00    -0.206 F 
ATOM     48  C   UNL A   1      44.953  32.815  26.378  1.00  0.00     0.060 A 
BRANCH  48  49
ATOM     49  S   UNL A   1      44.755  34.156  25.185  1.00  0.00     0.124 S 
ATOM     50  O   UNL A   1      44.057  33.478  24.097  1.00  0.00    -0.237 OA
ATOM     51  O   UNL A   1      43.967  35.128  25.935  1.00  0.00    -0.237 OA
ATOM     52  O   UNL A   1      46.128  34.558  24.896  1.00  0.00    -0.744 OA
ENDBRANCH  48  49
ENDBRANCH  27  41
BRANCH  28  53
ATOM     53  C   UNL A   1      46.083  23.463  35.161  1.00  0.00     0.058 A 
ATOM     54  C   UNL A   1      45.159  23.338  36.208  1.00  0.00     0.135 A 
ATOM     55  C   UNL A   1      47.142  22.540  35.117  1.00  0.00     0.135 A 
ATOM     56  F   UNL A   1      44.131  24.195  36.302  1.00  0.00    -0.206 F 
ATOM     57  C   UNL A   1      45.293  22.354  37.187  1.00  0.00     0.059 A 
ATOM     58  C   UNL A   1      47.280  21.532  36.066  1.00  0.00     0.059 A 
ATOM     59  F   UNL A   1      48.051  22.605  34.132  1.00  0.00    -0.206 F 
ATOM     60  C   UNL A   1      46.361  21.458  37.109  1.00  0.00     0.060 A 
BRANCH  60  61
ATOM     61  S   UNL A   1      46.523  20.173  38.368  1.00  0.00     0.124 S 
ATOM     62  O   UNL A   1      47.954  19.896  38.319  1.00  0.00    -0.237 OA
ATOM     63  O   UNL A   1      46.044  20.850  39.568  1.00  0.00    -0.237 OA
ATOM     64  O   UNL A   1      45.656  19.109  37.871  1.00  0.00    -0.744 OA
ENDBRANCH  60  61
ENDBRANCH  28  53
BRANCH  40  65
ATOM     65  C   UNL A   1      48.473  29.999  34.714  1.00  0.00     0.058 A 
ATOM     66  C   UNL A   1      49.874  30.007  34.657  1.00  0.00     0.135 A 
ATOM     67  C   UNL A   1      47.843  30.834  35.650  1.00  0.00     0.135 A 
ATOM     68  F   UNL A   1      50.518  29.219  33.781  1.00  0.00    -0.206 F 
ATOM     69  C   UNL A   1      50.628  30.796  35.516  1.00  0.00     0.059 A 
ATOM     70  C   UNL A   1      48.576  31.650  36.502  1.00  0.00     0.059 A 
ATOM     71  F   UNL A   1      46.503  30.869  35.732  1.00  0.00    -0.206 F 
ATOM     72  C   UNL A   1      49.969  31.614  36.436  1.00  0.00     0.060 A 
BRANCH  72  73
ATOM     73  S   UNL A   1      50.954  32.659  37.529  1.00  0.00     0.124 S 
ATOM     74  O   UNL A   1      52.059  31.767  37.866  1.00  0.00    -0.237 OA
ATOM     75  O   UNL A   1      51.290  33.787  36.666  1.00  0.00    -0.237 OA
ATOM     76  O   UNL A   1      50.037  32.965  38.621  1.00  0.00    -0.744 OA
ENDBRANCH  72  73
ENDBRANCH  40  65
ENDBRANCH  14  15
ENDBRANCH   7   9
ENDBRANCH   6   7
ENDBRANCH   5   6
ENDBRANCH   4   5
ENDBRANCH   3   4
ENDBRANCH   2   3
ENDBRANCH   1   2
BRANCH   1  77
ATOM     77  O   UNL A   1      34.142  24.087  25.634  1.00  0.00    -0.377 OA
BRANCH  77  78
ATOM     78  C   UNL A   1      33.576  25.366  25.905  1.00  0.00     0.188 C 
BRANCH  78  79
ATOM     79  C   UNL A   1      33.892  26.524  24.938  1.00  0.00     0.188 C 
BRANCH  79  80
ATOM     80  O   UNL A   1      33.739  27.818  25.506  1.00  0.00    -0.376 OA
BRANCH  80  81
ATOM     81  C   UNL A   1      32.401  28.290  25.617  1.00  0.00     0.202 C 
BRANCH  81  82
ATOM     82  C   UNL A   1      32.083  29.485  24.705  1.00  0.00     0.261 C 
BRANCH  82  83
ATOM     83  O   UNL A   1      30.687  29.675  24.406  1.00  0.00    -0.460 OA
BRANCH  83  84
ATOM     84  C   UNL A   1      30.218  29.231  23.212  1.00  0.00     0.341 C 
ATOM     85  O   UNL A   1      30.036  29.932  22.225  1.00  0.00    -0.246 OA
BRANCH  84  86
ATOM     86  C   UNL A   1      30.152  27.780  23.183  1.00  0.00     0.098 A 
ATOM     87  C   UNL A   1      29.207  26.992  23.811  1.00  0.00     0.211 A 
ATOM     88  C   UNL A   1      31.114  26.863  22.662  1.00  0.00     0.068 A 
ATOM     89  O   UNL A   1      29.600  25.691  23.834  1.00  0.00    -0.462 OA
ATOM     90  C   UNL A   1      30.767  25.606  23.131  1.00  0.00     0.154 A 
BRANCH  90  91
ATOM     91  C   UNL A   1      31.565  24.361  22.925  1.00  0.00     0.117 A 
ATOM     92  C   UNL A   1      32.673  24.359  22.107  1.00  0.00     0.099 A 
ATOM     93  N   UNL A   1      31.268  23.146  23.534  1.00  0.00    -0.231 NA
ATOM     94  S   UNL A   1      33.420  22.826  22.145  1.00  0.00    -0.120 S 
ATOM     95  C   UNL A   1      32.242  22.280  23.292  1.00  0.00     0.142 A 
BRANCH  95  96
ATOM     96  C   UNL A   1      32.376  20.919  23.848  1.00  0.00     0.099 A 
ATOM     97  C   UNL A   1      32.275  19.785  23.048  1.00  0.00     0.033 A 
ATOM     98  N   UNL A   1      32.635  20.842  25.184  1.00  0.00    -0.252 NA
ATOM     99  C   UNL A   1      32.494  18.528  23.625  1.00  0.00     0.024 A 
ATOM    100  C   UNL A   1      32.820  19.611  25.720  1.00  0.00     0.132 A 
ATOM    101  C   UNL A   1      32.778  18.440  24.984  1.00  0.00     0.059 A 
ATOM    102  Cl  UNL A   1      33.085  16.923  25.724  1.00  0.00    -0.083 Cl
ENDBRANCH  95  96
ENDBRANCH  90  91
ENDBRANCH  84  86
ENDBRANCH  83  84
ENDBRANCH  82  83
ENDBRANCH  81  82
ENDBRANCH  80  81
ENDBRANCH  79  80
ENDBRANCH  78  79
ENDBRANCH  77  78
ENDBRANCH   1  77
TORSDOF 25
ENDMDL
