MODEL 1
REMARK VINA RESULT:      -7.8      0.000      0.000
REMARK SMILES CCc1cc(/C=C/C(=O)OCCOCCOCCOCCOC(=O)c2ccc(-c3c4nc(c(-c5c(F)cc(S(=O)(=O)[O-])cc5F)c5ccc([nH]5)c(-c5c(F)cc(S(=O)(=O)[O-])cc5F)c5nc(c(-c6c(F)cc(S(=O)(=O)[O-])cc6F)c6ccc3[nH]6)C=C5)C=C4)cc2)cc(C(=O)c2ccccc2)c1
REMARK SMILES IDX 16 1 15 2 14 3 13 4 12 5 11 6 10 7 8 8 9 9 7 10 6 11 5 12
REMARK SMILES IDX 3 13 4 14 101 15 92 16 91 17 2 18 1 19 93 20 94 21 95 22
REMARK SMILES IDX 96 23 100 24 97 25 99 26 98 27 17 28 18 29 19 30 20 31 21 32
REMARK SMILES IDX 22 33 23 34 24 35 25 36 26 37 90 38 27 39 89 40 28 41 29 42
REMARK SMILES IDX 30 43 83 44 31 45 88 46 82 47 84 48 32 49 87 50 81 51 80 52
REMARK SMILES IDX 33 54 67 55 46 56 66 57 47 58 50 59 65 60 85 61 48 62 49 63
REMARK SMILES IDX 64 65 86 66 51 67 34 68 35 69 44 70 36 71 37 72 43 73 45 74
REMARK SMILES IDX 38 75 39 76 40 77 41 78 42 79 68 80 69 81 78 82 70 83 71 84
REMARK SMILES IDX 77 85 79 86 72 87 73 88 74 89 75 90 76 91 52 92 53 93 62 94
REMARK SMILES IDX 54 95 55 96 61 97 63 98 56 99 57 100 58 101 59 102 60 103
REMARK H PARENT 84 53 50 64
REMARK Flexibility Score: inf
ROOT
ATOM      1  O   UNL A   1      36.709  32.555  32.827  1.00  0.00    -0.377 OA
ENDROOT
BRANCH   1   2
ATOM      2  C   UNL A   1      37.617  31.500  32.560  1.00  0.00     0.188 C 
BRANCH   2   3
ATOM      3  C   UNL A   1      39.027  31.605  33.170  1.00  0.00     0.188 C 
BRANCH   3   4
ATOM      4  O   UNL A   1      39.032  31.871  34.559  1.00  0.00    -0.376 OA
BRANCH   4   5
ATOM      5  C   UNL A   1      40.175  31.590  35.345  1.00  0.00     0.202 C 
BRANCH   5   6
ATOM      6  C   UNL A   1      40.614  30.154  35.678  1.00  0.00     0.261 C 
BRANCH   6   7
ATOM      7  O   UNL A   1      41.424  29.484  34.708  1.00  0.00    -0.460 OA
BRANCH   7   8
ATOM      8  C   UNL A   1      40.974  28.308  34.227  1.00  0.00     0.330 C 
ATOM      9  O   UNL A   1      40.102  28.154  33.386  1.00  0.00    -0.247 OA
BRANCH   8  10
ATOM     10  C   UNL A   1      41.819  27.191  34.714  1.00  0.00     0.094 C 
ATOM     11  C   UNL A   1      42.307  27.094  35.963  1.00  0.00     0.015 C 
BRANCH  11  12
ATOM     12  C   UNL A   1      43.210  26.021  36.412  1.00  0.00    -0.024 A 
ATOM     13  C   UNL A   1      44.580  24.945  38.139  1.00  0.00    -0.047 A 
ATOM     14  C   UNL A   1      43.685  25.948  37.732  1.00  0.00     0.011 A 
ATOM     15  C   UNL A   1      44.980  23.990  37.198  1.00  0.00     0.016 A 
ATOM     16  C   UNL A   1      44.452  23.988  35.900  1.00  0.00     0.023 A 
ATOM     17  C   UNL A   1      43.570  25.008  35.514  1.00  0.00     0.020 A 
BRANCH  13  18
ATOM     18  C   UNL A   1      45.038  24.923  39.582  1.00  0.00     0.032 C 
ATOM     19  C   UNL A   1      44.642  26.116  40.446  1.00  0.00     0.009 C 
ENDBRANCH  13  18
BRANCH  16  20
ATOM     20  C   UNL A   1      44.843  22.964  34.884  1.00  0.00     0.193 C 
ATOM     21  O   UNL A   1      43.999  22.503  34.121  1.00  0.00    -0.289 OA
BRANCH  20  22
ATOM     22  C   UNL A   1      46.248  22.522  34.713  1.00  0.00     0.022 A 
ATOM     23  C   UNL A   1      47.243  23.504  34.674  1.00  0.00     0.012 A 
ATOM     24  C   UNL A   1      46.593  21.171  34.582  1.00  0.00     0.012 A 
ATOM     25  C   UNL A   1      48.585  23.134  34.563  1.00  0.00     0.001 A 
ATOM     26  C   UNL A   1      47.937  20.805  34.482  1.00  0.00     0.001 A 
ATOM     27  C   UNL A   1      48.931  21.786  34.480  1.00  0.00     0.000 A 
ENDBRANCH  20  22
ENDBRANCH  16  20
ENDBRANCH  11  12
ENDBRANCH   8  10
ENDBRANCH   7   8
ENDBRANCH   6   7
ENDBRANCH   5   6
ENDBRANCH   4   5
ENDBRANCH   3   4
ENDBRANCH   2   3
ENDBRANCH   1   2
BRANCH   1  28
ATOM     28  C   UNL A   1      36.315  33.443  31.781  1.00  0.00     0.188 C 
BRANCH  28  29
ATOM     29  C   UNL A   1      36.467  33.099  30.278  1.00  0.00     0.188 C 
BRANCH  29  30
ATOM     30  O   UNL A   1      35.574  33.780  29.412  1.00  0.00    -0.376 OA
BRANCH  30  31
ATOM     31  C   UNL A   1      34.368  33.129  29.061  1.00  0.00     0.202 C 
BRANCH  31  32
ATOM     32  C   UNL A   1      34.436  32.153  27.877  1.00  0.00     0.261 C 
BRANCH  32  33
ATOM     33  O   UNL A   1      33.813  30.877  28.080  1.00  0.00    -0.460 OA
BRANCH  33  34
ATOM     34  C   UNL A   1      34.389  29.813  27.483  1.00  0.00     0.338 C 
ATOM     35  O   UNL A   1      33.897  29.103  26.617  1.00  0.00    -0.246 OA
BRANCH  34  36
ATOM     36  C   UNL A   1      35.797  29.754  27.920  1.00  0.00     0.060 A 
ATOM     37  C   UNL A   1      36.814  29.966  26.980  1.00  0.00     0.016 A 
ATOM     38  C   UNL A   1      36.109  29.482  29.254  1.00  0.00     0.016 A 
ATOM     39  C   UNL A   1      38.150  29.856  27.364  1.00  0.00     0.010 A 
ATOM     40  C   UNL A   1      37.447  29.357  29.633  1.00  0.00     0.010 A 
ATOM     41  C   UNL A   1      38.473  29.502  28.681  1.00  0.00    -0.014 A 
BRANCH  41  42
ATOM     42  C   UNL A   1      39.854  29.077  29.013  1.00  0.00     0.031 A 
ATOM     43  C   UNL A   1      40.767  30.079  29.668  1.00  0.00     0.074 A 
ATOM     44  C   UNL A   1      40.287  27.829  28.759  1.00  0.00     0.049 A 
ATOM     45  N   UNL A   1      42.025  29.964  30.006  1.00  0.00    -0.248 NA
ATOM     46  C   UNL A   1      40.180  31.393  29.982  1.00  0.00     0.031 C 
ATOM     47  C   UNL A   1      39.485  26.762  28.164  1.00  0.00     0.029 A 
ATOM     48  N   UNL A   1      41.516  27.253  28.962  1.00  0.00    -0.354 N 
ATOM     49  C   UNL A   1      42.382  31.188  30.560  1.00  0.00     0.074 A 
ATOM     50  C   UNL A   1      41.218  32.044  30.483  1.00  0.00     0.031 C 
ATOM     51  C   UNL A   1      40.248  25.661  28.039  1.00  0.00     0.029 A 
ATOM     52  C   UNL A   1      41.601  25.958  28.511  1.00  0.00     0.049 A 
ATOM     53  H   UNL A   1      42.266  27.725  29.391  1.00  0.00     0.167 HD
ATOM     54  C   UNL A   1      43.569  31.562  31.093  1.00  0.00     0.037 A 
ATOM     55  C   UNL A   1      42.655  25.119  28.464  1.00  0.00     0.037 A 
ATOM     56  C   UNL A   1      44.721  30.703  31.165  1.00  0.00     0.049 A 
ATOM     57  C   UNL A   1      43.989  25.580  29.000  1.00  0.00     0.074 A 
ATOM     58  C   UNL A   1      45.967  30.979  31.700  1.00  0.00     0.029 A 
ATOM     59  N   UNL A   1      44.775  29.405  30.676  1.00  0.00    -0.354 N 
ATOM     60  N   UNL A   1      44.307  26.732  29.544  1.00  0.00    -0.248 NA
ATOM     61  C   UNL A   1      45.105  24.627  28.920  1.00  0.00     0.031 C 
ATOM     62  C   UNL A   1      46.791  29.871  31.482  1.00  0.00     0.029 A 
ATOM     63  C   UNL A   1      46.040  28.877  30.873  1.00  0.00     0.049 A 
ATOM     64  H   UNL A   1      44.024  28.931  30.251  1.00  0.00     0.167 HD
ATOM     65  C   UNL A   1      45.648  26.627  29.903  1.00  0.00     0.074 A 
ATOM     66  C   UNL A   1      46.078  25.297  29.522  1.00  0.00     0.031 C 
ATOM     67  C   UNL A   1      46.451  27.545  30.499  1.00  0.00     0.037 A 
BRANCH  54  68
ATOM     68  C   UNL A   1      43.689  32.968  31.615  1.00  0.00     0.058 A 
ATOM     69  C   UNL A   1      44.091  34.035  30.794  1.00  0.00     0.135 A 
ATOM     70  C   UNL A   1      43.368  33.259  32.951  1.00  0.00     0.135 A 
ATOM     71  F   UNL A   1      44.430  33.813  29.514  1.00  0.00    -0.206 F 
ATOM     72  C   UNL A   1      44.194  35.333  31.286  1.00  0.00     0.059 A 
ATOM     73  C   UNL A   1      43.433  34.554  33.455  1.00  0.00     0.059 A 
ATOM     74  F   UNL A   1      42.983  32.277  33.782  1.00  0.00    -0.206 F 
ATOM     75  C   UNL A   1      43.861  35.582  32.617  1.00  0.00     0.060 A 
BRANCH  75  76
ATOM     76  S   UNL A   1      43.991  37.273  33.236  1.00  0.00     0.124 S 
ATOM     77  O   UNL A   1      45.253  37.220  33.967  1.00  0.00    -0.237 OA
ATOM     78  O   UNL A   1      44.006  38.054  32.004  1.00  0.00    -0.237 OA
ATOM     79  O   UNL A   1      42.796  37.429  34.059  1.00  0.00    -0.744 OA
ENDBRANCH  75  76
ENDBRANCH  54  68
BRANCH  55  80
ATOM     80  C   UNL A   1      42.500  23.758  27.879  1.00  0.00     0.058 A 
ATOM     81  C   UNL A   1      42.399  22.623  28.697  1.00  0.00     0.135 A 
ATOM     82  C   UNL A   1      42.456  23.565  26.489  1.00  0.00     0.135 A 
ATOM     83  F   UNL A   1      42.450  22.750  30.031  1.00  0.00    -0.206 F 
ATOM     84  C   UNL A   1      42.274  21.345  28.159  1.00  0.00     0.059 A 
ATOM     85  C   UNL A   1      42.301  22.301  25.929  1.00  0.00     0.059 A 
ATOM     86  F   UNL A   1      42.543  24.618  25.661  1.00  0.00    -0.206 F 
ATOM     87  C   UNL A   1      42.221  21.195  26.772  1.00  0.00     0.060 A 
BRANCH  87  88
ATOM     88  S   UNL A   1      42.008  19.536  26.091  1.00  0.00     0.124 S 
ATOM     89  O   UNL A   1      42.453  18.701  27.201  1.00  0.00    -0.237 OA
ATOM     90  O   UNL A   1      40.577  19.507  25.804  1.00  0.00    -0.237 OA
ATOM     91  O   UNL A   1      42.874  19.541  24.917  1.00  0.00    -0.744 OA
ENDBRANCH  87  88
ENDBRANCH  55  80
BRANCH  67  92
ATOM     92  C   UNL A   1      47.862  27.136  30.826  1.00  0.00     0.058 A 
ATOM     93  C   UNL A   1      48.913  27.281  29.906  1.00  0.00     0.135 A 
ATOM     94  C   UNL A   1      48.177  26.647  32.106  1.00  0.00     0.135 A 
ATOM     95  F   UNL A   1      48.670  27.738  28.669  1.00  0.00    -0.206 F 
ATOM     96  C   UNL A   1      50.220  26.932  30.236  1.00  0.00     0.059 A 
ATOM     97  C   UNL A   1      49.481  26.325  32.467  1.00  0.00     0.059 A 
ATOM     98  F   UNL A   1      47.214  26.501  33.029  1.00  0.00    -0.206 F 
ATOM     99  C   UNL A   1      50.495  26.459  31.521  1.00  0.00     0.060 A 
BRANCH  99 100
ATOM    100  S   UNL A   1      52.200  26.045  31.944  1.00  0.00     0.124 S 
ATOM    101  O   UNL A   1      52.233  26.352  33.370  1.00  0.00    -0.237 OA
ATOM    102  O   UNL A   1      52.273  24.629  31.597  1.00  0.00    -0.237 OA
ATOM    103  O   UNL A   1      52.987  26.933  31.093  1.00  0.00    -0.744 OA
ENDBRANCH  99 100
ENDBRANCH  67  92
ENDBRANCH  41  42
ENDBRANCH  34  36
ENDBRANCH  33  34
ENDBRANCH  32  33
ENDBRANCH  31  32
ENDBRANCH  30  31
ENDBRANCH  29  30
ENDBRANCH  28  29
ENDBRANCH   1  28
TORSDOF 27
ENDMDL
MODEL 2
REMARK VINA RESULT:      -7.4      5.126     11.966
REMARK SMILES CCc1cc(/C=C/C(=O)OCCOCCOCCOCCOC(=O)c2ccc(-c3c4nc(c(-c5c(F)cc(S(=O)(=O)[O-])cc5F)c5ccc([nH]5)c(-c5c(F)cc(S(=O)(=O)[O-])cc5F)c5nc(c(-c6c(F)cc(S(=O)(=O)[O-])cc6F)c6ccc3[nH]6)C=C5)C=C4)cc2)cc(C(=O)c2ccccc2)c1
REMARK SMILES IDX 16 1 15 2 14 3 13 4 12 5 11 6 10 7 8 8 9 9 7 10 6 11 5 12
REMARK SMILES IDX 3 13 4 14 101 15 92 16 91 17 2 18 1 19 93 20 94 21 95 22
REMARK SMILES IDX 96 23 100 24 97 25 99 26 98 27 17 28 18 29 19 30 20 31 21 32
REMARK SMILES IDX 22 33 23 34 24 35 25 36 26 37 90 38 27 39 89 40 28 41 29 42
REMARK SMILES IDX 30 43 83 44 31 45 88 46 82 47 84 48 32 49 87 50 81 51 80 52
REMARK SMILES IDX 33 54 67 55 46 56 66 57 47 58 50 59 65 60 85 61 48 62 49 63
REMARK SMILES IDX 64 65 86 66 51 67 34 68 35 69 44 70 36 71 37 72 43 73 45 74
REMARK SMILES IDX 38 75 39 76 40 77 41 78 42 79 68 80 69 81 78 82 70 83 71 84
REMARK SMILES IDX 77 85 79 86 72 87 73 88 74 89 75 90 76 91 52 92 53 93 62 94
REMARK SMILES IDX 54 95 55 96 61 97 63 98 56 99 57 100 58 101 59 102 60 103
REMARK H PARENT 84 53 50 64
REMARK Flexibility Score: inf
ROOT
ATOM      1  O   UNL A   1      40.109  25.247  27.552  1.00  0.00    -0.377 OA
ENDROOT
BRANCH   1   2
ATOM      2  C   UNL A   1      39.173  26.253  27.898  1.00  0.00     0.188 C 
BRANCH   2   3
ATOM      3  C   UNL A   1      39.354  26.957  29.256  1.00  0.00     0.188 C 
BRANCH   3   4
ATOM      4  O   UNL A   1      38.641  28.172  29.371  1.00  0.00    -0.376 OA
BRANCH   4   5
ATOM      5  C   UNL A   1      38.335  28.942  28.223  1.00  0.00     0.202 C 
BRANCH   5   6
ATOM      6  C   UNL A   1      37.369  30.138  28.265  1.00  0.00     0.261 C 
BRANCH   6   7
ATOM      7  O   UNL A   1      36.331  30.166  27.283  1.00  0.00    -0.460 OA
BRANCH   7   8
ATOM      8  C   UNL A   1      35.068  30.350  27.717  1.00  0.00     0.330 C 
ATOM      9  O   UNL A   1      34.613  31.371  28.210  1.00  0.00    -0.247 OA
BRANCH   8  10
ATOM     10  C   UNL A   1      34.215  29.197  27.340  1.00  0.00     0.094 C 
ATOM     11  C   UNL A   1      33.740  28.976  26.102  1.00  0.00     0.015 C 
BRANCH  11  12
ATOM     12  C   UNL A   1      32.829  27.872  25.756  1.00  0.00    -0.024 A 
ATOM     13  C   UNL A   1      30.789  27.018  24.694  1.00  0.00    -0.047 A 
ATOM     14  C   UNL A   1      31.674  28.071  24.983  1.00  0.00     0.011 A 
ATOM     15  C   UNL A   1      31.096  25.741  25.179  1.00  0.00     0.016 A 
ATOM     16  C   UNL A   1      32.287  25.499  25.876  1.00  0.00     0.023 A 
ATOM     17  C   UNL A   1      33.146  26.569  26.162  1.00  0.00     0.020 A 
BRANCH  13  18
ATOM     18  C   UNL A   1      29.570  27.307  23.844  1.00  0.00     0.032 C 
ATOM     19  C   UNL A   1      29.760  28.270  22.677  1.00  0.00     0.009 C 
ENDBRANCH  13  18
BRANCH  16  20
ATOM     20  C   UNL A   1      32.650  24.140  26.381  1.00  0.00     0.193 C 
ATOM     21  O   UNL A   1      31.971  23.609  27.255  1.00  0.00    -0.289 OA
BRANCH  20  22
ATOM     22  C   UNL A   1      33.777  23.364  25.810  1.00  0.00     0.022 A 
ATOM     23  C   UNL A   1      33.759  23.094  24.439  1.00  0.00     0.012 A 
ATOM     24  C   UNL A   1      34.835  22.898  26.601  1.00  0.00     0.012 A 
ATOM     25  C   UNL A   1      34.822  22.409  23.848  1.00  0.00     0.001 A 
ATOM     26  C   UNL A   1      35.902  22.223  26.004  1.00  0.00     0.001 A 
ATOM     27  C   UNL A   1      35.898  21.986  24.628  1.00  0.00     0.000 A 
ENDBRANCH  20  22
ENDBRANCH  16  20
ENDBRANCH  11  12
ENDBRANCH   8  10
ENDBRANCH   7   8
ENDBRANCH   6   7
ENDBRANCH   5   6
ENDBRANCH   4   5
ENDBRANCH   3   4
ENDBRANCH   2   3
ENDBRANCH   1   2
BRANCH   1  28
ATOM     28  C   UNL A   1      41.252  25.018  28.377  1.00  0.00     0.188 C 
BRANCH  28  29
ATOM     29  C   UNL A   1      42.540  25.875  28.294  1.00  0.00     0.188 C 
BRANCH  29  30
ATOM     30  O   UNL A   1      43.712  25.166  27.927  1.00  0.00    -0.376 OA
BRANCH  30  31
ATOM     31  C   UNL A   1      43.581  24.107  26.997  1.00  0.00     0.202 C 
BRANCH  31  32
ATOM     32  C   UNL A   1      44.714  23.953  25.972  1.00  0.00     0.261 C 
BRANCH  32  33
ATOM     33  O   UNL A   1      46.012  24.388  26.402  1.00  0.00    -0.460 OA
BRANCH  33  34
ATOM     34  C   UNL A   1      46.716  25.151  25.542  1.00  0.00     0.338 C 
ATOM     35  O   UNL A   1      47.187  24.803  24.468  1.00  0.00    -0.246 OA
BRANCH  34  36
ATOM     36  C   UNL A   1      46.673  26.544  26.028  1.00  0.00     0.060 A 
ATOM     37  C   UNL A   1      47.076  26.823  27.339  1.00  0.00     0.016 A 
ATOM     38  C   UNL A   1      46.227  27.568  25.188  1.00  0.00     0.016 A 
ATOM     39  C   UNL A   1      46.986  28.125  27.832  1.00  0.00     0.010 A 
ATOM     40  C   UNL A   1      46.123  28.867  25.689  1.00  0.00     0.010 A 
ATOM     41  C   UNL A   1      46.462  29.144  27.025  1.00  0.00    -0.014 A 
BRANCH  41  42
ATOM     42  C   UNL A   1      46.071  30.438  27.635  1.00  0.00     0.031 A 
ATOM     43  C   UNL A   1      46.995  31.615  27.456  1.00  0.00     0.074 A 
ATOM     44  C   UNL A   1      44.918  30.577  28.313  1.00  0.00     0.049 A 
ATOM     45  N   UNL A   1      46.898  32.828  27.932  1.00  0.00    -0.248 NA
ATOM     46  C   UNL A   1      48.192  31.388  26.629  1.00  0.00     0.031 C 
ATOM     47  C   UNL A   1      43.927  29.523  28.518  1.00  0.00     0.029 A 
ATOM     48  N   UNL A   1      44.392  31.665  28.963  1.00  0.00    -0.354 N 
ATOM     49  C   UNL A   1      48.023  33.505  27.474  1.00  0.00     0.074 A 
ATOM     50  C   UNL A   1      48.806  32.557  26.710  1.00  0.00     0.031 C 
ATOM     51  C   UNL A   1      42.916  30.014  29.258  1.00  0.00     0.029 A 
ATOM     52  C   UNL A   1      43.207  31.405  29.607  1.00  0.00     0.049 A 
ATOM     53  H   UNL A   1      44.825  32.549  28.968  1.00  0.00     0.167 HD
ATOM     54  C   UNL A   1      48.369  34.799  27.665  1.00  0.00     0.037 A 
ATOM     55  C   UNL A   1      42.457  32.192  30.404  1.00  0.00     0.037 A 
ATOM     56  C   UNL A   1      47.584  35.734  28.428  1.00  0.00     0.049 A 
ATOM     57  C   UNL A   1      42.895  33.613  30.661  1.00  0.00     0.074 A 
ATOM     58  C   UNL A   1      47.836  37.073  28.669  1.00  0.00     0.029 A 
ATOM     59  N   UNL A   1      46.400  35.426  29.085  1.00  0.00    -0.354 N 
ATOM     60  N   UNL A   1      43.949  34.248  30.202  1.00  0.00    -0.248 NA
ATOM     61  C   UNL A   1      42.043  34.425  31.541  1.00  0.00     0.031 C 
ATOM     62  C   UNL A   1      46.838  37.559  29.519  1.00  0.00     0.029 A 
ATOM     63  C   UNL A   1      45.925  36.543  29.752  1.00  0.00     0.049 A 
ATOM     64  H   UNL A   1      45.964  34.543  29.076  1.00  0.00     0.167 HD
ATOM     65  C   UNL A   1      43.865  35.543  30.708  1.00  0.00     0.074 A 
ATOM     66  C   UNL A   1      42.654  35.601  31.500  1.00  0.00     0.031 C 
ATOM     67  C   UNL A   1      44.710  36.590  30.529  1.00  0.00     0.037 A 
BRANCH  54  68
ATOM     68  C   UNL A   1      49.664  35.274  27.064  1.00  0.00     0.058 A 
ATOM     69  C   UNL A   1      50.866  35.273  27.789  1.00  0.00     0.135 A 
ATOM     70  C   UNL A   1      49.708  35.709  25.728  1.00  0.00     0.135 A 
ATOM     71  F   UNL A   1      50.881  34.888  29.075  1.00  0.00    -0.206 F 
ATOM     72  C   UNL A   1      52.060  35.710  27.221  1.00  0.00     0.059 A 
ATOM     73  C   UNL A   1      50.896  36.120  25.131  1.00  0.00     0.059 A 
ATOM     74  F   UNL A   1      48.588  35.737  24.989  1.00  0.00    -0.206 F 
ATOM     75  C   UNL A   1      52.064  36.129  25.891  1.00  0.00     0.060 A 
BRANCH  75  76
ATOM     76  S   UNL A   1      53.622  36.682  25.167  1.00  0.00     0.124 S 
ATOM     77  O   UNL A   1      54.232  37.387  26.291  1.00  0.00    -0.237 OA
ATOM     78  O   UNL A   1      54.255  35.423  24.791  1.00  0.00    -0.237 OA
ATOM     79  O   UNL A   1      53.202  37.526  24.053  1.00  0.00    -0.744 OA
ENDBRANCH  75  76
ENDBRANCH  54  68
BRANCH  55  80
ATOM     80  C   UNL A   1      41.215  31.655  31.028  1.00  0.00     0.058 A 
ATOM     81  C   UNL A   1      39.948  31.977  30.519  1.00  0.00     0.135 A 
ATOM     82  C   UNL A   1      41.271  30.813  32.150  1.00  0.00     0.135 A 
ATOM     83  F   UNL A   1      39.838  32.789  29.456  1.00  0.00    -0.206 F 
ATOM     84  C   UNL A   1      38.782  31.496  31.107  1.00  0.00     0.059 A 
ATOM     85  C   UNL A   1      40.121  30.297  32.737  1.00  0.00     0.059 A 
ATOM     86  F   UNL A   1      42.458  30.470  32.674  1.00  0.00    -0.206 F 
ATOM     87  C   UNL A   1      38.879  30.652  32.214  1.00  0.00     0.060 A 
BRANCH  87  88
ATOM     88  S   UNL A   1      37.359  29.995  32.936  1.00  0.00     0.124 S 
ATOM     89  O   UNL A   1      37.764  28.640  33.293  1.00  0.00    -0.237 OA
ATOM     90  O   UNL A   1      37.133  30.908  34.051  1.00  0.00    -0.237 OA
ATOM     91  O   UNL A   1      36.396  30.100  31.845  1.00  0.00    -0.744 OA
ENDBRANCH  87  88
ENDBRANCH  55  80
BRANCH  67  92
ATOM     92  C   UNL A   1      44.337  37.907  31.155  1.00  0.00     0.058 A 
ATOM     93  C   UNL A   1      43.605  38.883  30.461  1.00  0.00     0.135 A 
ATOM     94  C   UNL A   1      44.667  38.169  32.497  1.00  0.00     0.135 A 
ATOM     95  F   UNL A   1      43.267  38.688  29.177  1.00  0.00    -0.206 F 
ATOM     96  C   UNL A   1      43.236  40.081  31.065  1.00  0.00     0.059 A 
ATOM     97  C   UNL A   1      44.279  39.346  33.130  1.00  0.00     0.059 A 
ATOM     98  F   UNL A   1      45.354  37.266  33.213  1.00  0.00    -0.206 F 
ATOM     99  C   UNL A   1      43.574  40.302  32.402  1.00  0.00     0.060 A 
BRANCH  99 100
ATOM    100  S   UNL A   1      43.057  41.845  33.182  1.00  0.00     0.124 S 
ATOM    101  O   UNL A   1      42.921  42.728  32.028  1.00  0.00    -0.237 OA
ATOM    102  O   UNL A   1      41.810  41.462  33.837  1.00  0.00    -0.237 OA
ATOM    103  O   UNL A   1      44.161  42.158  34.084  1.00  0.00    -0.744 OA
ENDBRANCH  99 100
ENDBRANCH  67  92
ENDBRANCH  41  42
ENDBRANCH  34  36
ENDBRANCH  33  34
ENDBRANCH  32  33
ENDBRANCH  31  32
ENDBRANCH  30  31
ENDBRANCH  29  30
ENDBRANCH  28  29
ENDBRANCH   1  28
TORSDOF 27
ENDMDL
MODEL 3
REMARK VINA RESULT:      -7.3      3.854      6.414
REMARK SMILES CCc1cc(/C=C/C(=O)OCCOCCOCCOCCOC(=O)c2ccc(-c3c4nc(c(-c5c(F)cc(S(=O)(=O)[O-])cc5F)c5ccc([nH]5)c(-c5c(F)cc(S(=O)(=O)[O-])cc5F)c5nc(c(-c6c(F)cc(S(=O)(=O)[O-])cc6F)c6ccc3[nH]6)C=C5)C=C4)cc2)cc(C(=O)c2ccccc2)c1
REMARK SMILES IDX 16 1 15 2 14 3 13 4 12 5 11 6 10 7 8 8 9 9 7 10 6 11 5 12
REMARK SMILES IDX 3 13 4 14 101 15 92 16 91 17 2 18 1 19 93 20 94 21 95 22
REMARK SMILES IDX 96 23 100 24 97 25 99 26 98 27 17 28 18 29 19 30 20 31 21 32
REMARK SMILES IDX 22 33 23 34 24 35 25 36 26 37 90 38 27 39 89 40 28 41 29 42
REMARK SMILES IDX 30 43 83 44 31 45 88 46 82 47 84 48 32 49 87 50 81 51 80 52
REMARK SMILES IDX 33 54 67 55 46 56 66 57 47 58 50 59 65 60 85 61 48 62 49 63
REMARK SMILES IDX 64 65 86 66 51 67 34 68 35 69 44 70 36 71 37 72 43 73 45 74
REMARK SMILES IDX 38 75 39 76 40 77 41 78 42 79 68 80 69 81 78 82 70 83 71 84
REMARK SMILES IDX 77 85 79 86 72 87 73 88 74 89 75 90 76 91 52 92 53 93 62 94
REMARK SMILES IDX 54 95 55 96 61 97 63 98 56 99 57 100 58 101 59 102 60 103
REMARK H PARENT 84 53 50 64
REMARK Flexibility Score: inf
ROOT
ATOM      1  O   UNL A   1      36.938  32.222  32.742  1.00  0.00    -0.377 OA
ENDROOT
BRANCH   1   2
ATOM      2  C   UNL A   1      37.806  31.174  32.345  1.00  0.00     0.188 C 
BRANCH   2   3
ATOM      3  C   UNL A   1      38.539  30.399  33.456  1.00  0.00     0.188 C 
BRANCH   3   4
ATOM      4  O   UNL A   1      39.870  30.826  33.670  1.00  0.00    -0.376 OA
BRANCH   4   5
ATOM      5  C   UNL A   1      40.534  30.539  34.886  1.00  0.00     0.202 C 
BRANCH   5   6
ATOM      6  C   UNL A   1      40.207  31.273  36.198  1.00  0.00     0.261 C 
BRANCH   6   7
ATOM      7  O   UNL A   1      38.953  30.966  36.814  1.00  0.00    -0.460 OA
BRANCH   7   8
ATOM      8  C   UNL A   1      38.037  31.952  36.883  1.00  0.00     0.330 C 
ATOM      9  O   UNL A   1      37.297  32.319  35.983  1.00  0.00    -0.247 OA
BRANCH   8  10
ATOM     10  C   UNL A   1      37.890  32.428  38.280  1.00  0.00     0.094 C 
ATOM     11  C   UNL A   1      36.876  32.092  39.095  1.00  0.00     0.015 C 
BRANCH  11  12
ATOM     12  C   UNL A   1      36.698  32.633  40.453  1.00  0.00    -0.024 A 
ATOM     13  C   UNL A   1      37.333  34.170  42.257  1.00  0.00    -0.047 A 
ATOM     14  C   UNL A   1      37.483  33.689  40.945  1.00  0.00     0.011 A 
ATOM     15  C   UNL A   1      36.357  33.584  43.072  1.00  0.00     0.016 A 
ATOM     16  C   UNL A   1      35.502  32.591  42.577  1.00  0.00     0.023 A 
ATOM     17  C   UNL A   1      35.680  32.120  41.267  1.00  0.00     0.020 A 
BRANCH  13  18
ATOM     18  C   UNL A   1      38.207  35.319  42.712  1.00  0.00     0.032 C 
ATOM     19  C   UNL A   1      39.488  35.563  41.921  1.00  0.00     0.009 C 
ENDBRANCH  13  18
BRANCH  16  20
ATOM     20  C   UNL A   1      34.435  31.969  43.418  1.00  0.00     0.193 C 
ATOM     21  O   UNL A   1      33.262  32.295  43.260  1.00  0.00    -0.289 OA
BRANCH  20  22
ATOM     22  C   UNL A   1      34.733  30.906  44.407  1.00  0.00     0.022 A 
ATOM     23  C   UNL A   1      36.074  30.655  44.716  1.00  0.00     0.012 A 
ATOM     24  C   UNL A   1      33.723  30.156  45.021  1.00  0.00     0.012 A 
ATOM     25  C   UNL A   1      36.402  29.698  45.676  1.00  0.00     0.001 A 
ATOM     26  C   UNL A   1      34.055  29.207  45.990  1.00  0.00     0.001 A 
ATOM     27  C   UNL A   1      35.392  28.984  46.321  1.00  0.00     0.000 A 
ENDBRANCH  20  22
ENDBRANCH  16  20
ENDBRANCH  11  12
ENDBRANCH   8  10
ENDBRANCH   7   8
ENDBRANCH   6   7
ENDBRANCH   5   6
ENDBRANCH   4   5
ENDBRANCH   3   4
ENDBRANCH   2   3
ENDBRANCH   1   2
BRANCH   1  28
ATOM     28  C   UNL A   1      36.553  33.226  31.804  1.00  0.00     0.188 C 
BRANCH  28  29
ATOM     29  C   UNL A   1      36.556  32.998  30.272  1.00  0.00     0.188 C 
BRANCH  29  30
ATOM     30  O   UNL A   1      35.545  33.691  29.558  1.00  0.00    -0.376 OA
BRANCH  30  31
ATOM     31  C   UNL A   1      34.347  32.996  29.267  1.00  0.00     0.202 C 
BRANCH  31  32
ATOM     32  C   UNL A   1      34.370  32.079  28.036  1.00  0.00     0.261 C 
BRANCH  32  33
ATOM     33  O   UNL A   1      33.740  30.799  28.196  1.00  0.00    -0.460 OA
BRANCH  33  34
ATOM     34  C   UNL A   1      34.329  29.748  27.589  1.00  0.00     0.338 C 
ATOM     35  O   UNL A   1      33.840  29.029  26.730  1.00  0.00    -0.246 OA
BRANCH  34  36
ATOM     36  C   UNL A   1      35.745  29.717  28.006  1.00  0.00     0.060 A 
ATOM     37  C   UNL A   1      36.741  30.006  27.065  1.00  0.00     0.016 A 
ATOM     38  C   UNL A   1      36.084  29.396  29.323  1.00  0.00     0.016 A 
ATOM     39  C   UNL A   1      38.085  29.924  27.427  1.00  0.00     0.010 A 
ATOM     40  C   UNL A   1      37.430  29.299  29.680  1.00  0.00     0.010 A 
ATOM     41  C   UNL A   1      38.437  29.522  28.723  1.00  0.00    -0.014 A 
BRANCH  41  42
ATOM     42  C   UNL A   1      39.836  29.129  29.018  1.00  0.00     0.031 A 
ATOM     43  C   UNL A   1      40.744  30.155  29.643  1.00  0.00     0.074 A 
ATOM     44  C   UNL A   1      40.289  27.890  28.758  1.00  0.00     0.049 A 
ATOM     45  N   UNL A   1      42.013  30.069  29.946  1.00  0.00    -0.248 NA
ATOM     46  C   UNL A   1      40.137  31.457  29.967  1.00  0.00     0.031 C 
ATOM     47  C   UNL A   1      39.495  26.802  28.191  1.00  0.00     0.029 A 
ATOM     48  N   UNL A   1      41.536  27.343  28.930  1.00  0.00    -0.354 N 
ATOM     49  C   UNL A   1      42.358  31.304  30.484  1.00  0.00     0.074 A 
ATOM     50  C   UNL A   1      41.174  32.133  30.435  1.00  0.00     0.031 C 
ATOM     51  C   UNL A   1      40.279  25.718  28.050  1.00  0.00     0.029 A 
ATOM     52  C   UNL A   1      41.637  26.047  28.483  1.00  0.00     0.049 A 
ATOM     53  H   UNL A   1      42.287  27.833  29.336  1.00  0.00     0.167 HD
ATOM     54  C   UNL A   1      43.550  31.707  30.983  1.00  0.00     0.037 A 
ATOM     55  C   UNL A   1      42.709  25.232  28.411  1.00  0.00     0.037 A 
ATOM     56  C   UNL A   1      44.723  30.874  31.027  1.00  0.00     0.049 A 
ATOM     57  C   UNL A   1      44.046  25.724  28.908  1.00  0.00     0.074 A 
ATOM     58  C   UNL A   1      45.977  31.181  31.526  1.00  0.00     0.029 A 
ATOM     59  N   UNL A   1      44.793  29.575  30.543  1.00  0.00    -0.354 N 
ATOM     60  N   UNL A   1      44.353  26.886  29.437  1.00  0.00    -0.248 NA
ATOM     61  C   UNL A   1      45.180  24.796  28.802  1.00  0.00     0.031 C 
ATOM     62  C   UNL A   1      46.819  30.090  31.291  1.00  0.00     0.029 A 
ATOM     63  C   UNL A   1      46.074  29.076  30.707  1.00  0.00     0.049 A 
ATOM     64  H   UNL A   1      44.041  29.082  30.141  1.00  0.00     0.167 HD
ATOM     65  C   UNL A   1      45.706  26.813  29.759  1.00  0.00     0.074 A 
ATOM     66  C   UNL A   1      46.154  25.491  29.373  1.00  0.00     0.031 C 
ATOM     67  C   UNL A   1      46.504  27.752  30.328  1.00  0.00     0.037 A 
BRANCH  54  68
ATOM     68  C   UNL A   1      43.654  33.119  31.494  1.00  0.00     0.058 A 
ATOM     69  C   UNL A   1      44.058  34.181  30.669  1.00  0.00     0.135 A 
ATOM     70  C   UNL A   1      43.314  33.418  32.824  1.00  0.00     0.135 A 
ATOM     71  F   UNL A   1      44.414  33.952  29.395  1.00  0.00    -0.206 F 
ATOM     72  C   UNL A   1      44.145  35.484  31.151  1.00  0.00     0.059 A 
ATOM     73  C   UNL A   1      43.364  34.718  33.318  1.00  0.00     0.059 A 
ATOM     74  F   UNL A   1      42.927  32.441  33.658  1.00  0.00    -0.206 F 
ATOM     75  C   UNL A   1      43.794  35.742  32.477  1.00  0.00     0.060 A 
BRANCH  75  76
ATOM     76  S   UNL A   1      43.903  37.439  33.082  1.00  0.00     0.124 S 
ATOM     77  O   UNL A   1      43.760  38.200  31.845  1.00  0.00    -0.237 OA
ATOM     78  O   UNL A   1      42.776  37.513  34.005  1.00  0.00    -0.237 OA
ATOM     79  O   UNL A   1      45.222  37.496  33.703  1.00  0.00    -0.744 OA
ENDBRANCH  75  76
ENDBRANCH  54  68
BRANCH  55  80
ATOM     80  C   UNL A   1      42.568  23.864  27.838  1.00  0.00     0.058 A 
ATOM     81  C   UNL A   1      42.582  23.652  26.451  1.00  0.00     0.135 A 
ATOM     82  C   UNL A   1      42.411  22.741  28.666  1.00  0.00     0.135 A 
ATOM     83  F   UNL A   1      42.715  24.692  25.614  1.00  0.00    -0.206 F 
ATOM     84  C   UNL A   1      42.431  22.380  25.905  1.00  0.00     0.059 A 
ATOM     85  C   UNL A   1      42.289  21.457  28.145  1.00  0.00     0.059 A 
ATOM     86  F   UNL A   1      42.397  22.887  30.001  1.00  0.00    -0.206 F 
ATOM     87  C   UNL A   1      42.290  21.288  26.762  1.00  0.00     0.060 A 
BRANCH  87  88
ATOM     88  S   UNL A   1      42.146  19.638  26.042  1.00  0.00     0.124 S 
ATOM     89  O   UNL A   1      40.726  19.582  25.713  1.00  0.00    -0.237 OA
ATOM     90  O   UNL A   1      43.061  19.721  24.908  1.00  0.00    -0.237 OA
ATOM     91  O   UNL A   1      42.579  18.759  27.123  1.00  0.00    -0.744 OA
ENDBRANCH  87  88
ENDBRANCH  55  80
BRANCH  67  92
ATOM     92  C   UNL A   1      47.933  27.376  30.618  1.00  0.00     0.058 A 
ATOM     93  C   UNL A   1      48.298  26.669  31.775  1.00  0.00     0.135 A 
ATOM     94  C   UNL A   1      48.944  27.678  29.690  1.00  0.00     0.135 A 
ATOM     95  F   UNL A   1      47.374  26.358  32.697  1.00  0.00    -0.206 F 
ATOM     96  C   UNL A   1      49.618  26.296  32.011  1.00  0.00     0.059 A 
ATOM     97  C   UNL A   1      50.264  27.285  29.891  1.00  0.00     0.059 A 
ATOM     98  F   UNL A   1      48.650  28.340  28.560  1.00  0.00    -0.206 F 
ATOM     99  C   UNL A   1      50.594  26.605  31.061  1.00  0.00     0.060 A 
BRANCH  99 100
ATOM    100  S   UNL A   1      52.294  26.083  31.366  1.00  0.00     0.124 S 
ATOM    101  O   UNL A   1      52.093  24.820  32.068  1.00  0.00    -0.237 OA
ATOM    102  O   UNL A   1      52.837  25.980  30.015  1.00  0.00    -0.237 OA
ATOM    103  O   UNL A   1      52.844  27.168  32.174  1.00  0.00    -0.744 OA
ENDBRANCH  99 100
ENDBRANCH  67  92
ENDBRANCH  41  42
ENDBRANCH  34  36
ENDBRANCH  33  34
ENDBRANCH  32  33
ENDBRANCH  31  32
ENDBRANCH  30  31
ENDBRANCH  29  30
ENDBRANCH  28  29
ENDBRANCH   1  28
TORSDOF 27
ENDMDL
