MODEL 1
REMARK VINA RESULT:      -9.3      0.000      0.000
REMARK SMILES O=C(OCCOCCOCCOCCOC(=O)[C@@H]1C[C@@H]1C(=O)N1CCN(c2ncc(C(F)(F)F)cc2Cl)CC1)c1ccc(-c2c3nc(c(-c4c(F)cc(S(=O)(=O)[O-])cc4F)c4ccc([nH]4)c(-c4c(F)cc(S(=O)(=O)[O-])cc4F)c4nc(c(-c5c(F)cc(S(=O)(=O)[O-])cc5F)c5ccc2[nH]5)C=C4)C=C3)cc1
REMARK SMILES IDX 9 1 8 2 7 3 6 4 5 5 4 6 3 7 2 8 1 9 40 10 41 11 105 12 42 13
REMARK SMILES IDX 104 14 43 15 44 16 45 17 98 18 46 19 103 20 97 21 99 22
REMARK SMILES IDX 47 23 102 24 96 25 95 26 48 28 82 29 61 30 81 31 62 32 65 33
REMARK SMILES IDX 80 34 100 35 63 36 64 37 79 39 101 40 66 41 49 42 50 43
REMARK SMILES IDX 59 44 51 45 52 46 58 47 60 48 53 49 54 50 55 51 56 52 57 53
REMARK SMILES IDX 83 54 84 55 93 56 85 57 86 58 92 59 94 60 87 61 88 62 89 63
REMARK SMILES IDX 90 64 91 65 67 66 68 67 77 68 69 69 70 70 76 71 78 72 71 73
REMARK SMILES IDX 72 74 73 75 74 76 75 77 10 78 11 79 12 80 13 81 14 82 15 83
REMARK SMILES IDX 16 84 17 85 18 86 19 87 20 88 21 89 22 90 23 91 24 92 39 93
REMARK SMILES IDX 25 94 38 95 26 96 27 97 28 98 36 99 29 100 35 101 37 102
REMARK SMILES IDX 30 103 31 104 32 105 33 106 34 107
REMARK H PARENT 99 27 65 38
REMARK Flexibility Score: inf
ROOT
ATOM      1  O   UNL A   1      44.541  23.613  26.000  1.00  0.00    -0.377 OA
ENDROOT
BRANCH   1   2
ATOM      2  C   UNL A   1      44.901  23.673  27.376  1.00  0.00     0.188 C 
BRANCH   2   3
ATOM      3  C   UNL A   1      44.475  24.976  28.045  1.00  0.00     0.188 C 
BRANCH   3   4
ATOM      4  O   UNL A   1      43.725  24.633  29.210  1.00  0.00    -0.376 OA
BRANCH   4   5
ATOM      5  C   UNL A   1      44.481  24.367  30.386  1.00  0.00     0.202 C 
BRANCH   5   6
ATOM      6  C   UNL A   1      43.836  23.299  31.267  1.00  0.00     0.261 C 
BRANCH   6   7
ATOM      7  O   UNL A   1      44.444  23.234  32.565  1.00  0.00    -0.460 OA
BRANCH   7   8
ATOM      8  C   UNL A   1      43.902  23.606  33.754  1.00  0.00     0.338 C 
ATOM      9  O   UNL A   1      43.570  22.714  34.536  1.00  0.00    -0.246 OA
BRANCH   8  10
ATOM     10  C   UNL A   1      43.699  25.026  34.194  1.00  0.00     0.060 A 
ATOM     11  C   UNL A   1      44.330  26.151  33.657  1.00  0.00     0.016 A 
ATOM     12  C   UNL A   1      42.725  25.240  35.185  1.00  0.00     0.016 A 
ATOM     13  C   UNL A   1      44.029  27.438  34.084  1.00  0.00     0.010 A 
ATOM     14  C   UNL A   1      42.409  26.531  35.622  1.00  0.00     0.010 A 
ATOM     15  C   UNL A   1      43.074  27.632  35.073  1.00  0.00    -0.014 A 
BRANCH  15  16
ATOM     16  C   UNL A   1      42.902  28.990  35.612  1.00  0.00     0.031 A 
ATOM     17  C   UNL A   1      43.846  29.431  36.686  1.00  0.00     0.074 A 
ATOM     18  C   UNL A   1      41.995  29.821  35.069  1.00  0.00     0.049 A 
ATOM     19  N   UNL A   1      43.825  30.512  37.411  1.00  0.00    -0.248 NA
ATOM     20  C   UNL A   1      44.981  28.532  36.975  1.00  0.00     0.031 C 
ATOM     21  C   UNL A   1      41.143  29.506  33.918  1.00  0.00     0.029 A 
ATOM     22  N   UNL A   1      41.644  31.101  35.401  1.00  0.00    -0.354 N 
ATOM     23  C   UNL A   1      44.906  30.401  38.275  1.00  0.00     0.074 A 
ATOM     24  C   UNL A   1      45.583  29.163  37.972  1.00  0.00     0.031 C 
ATOM     25  C   UNL A   1      40.357  30.562  33.651  1.00  0.00     0.029 A 
ATOM     26  C   UNL A   1      40.598  31.593  34.654  1.00  0.00     0.049 A 
ATOM     27  H   UNL A   1      42.096  31.620  36.105  1.00  0.00     0.167 HD
ATOM     28  C   UNL A   1      45.274  31.260  39.252  1.00  0.00     0.037 A 
ATOM     29  C   UNL A   1      39.883  32.722  34.817  1.00  0.00     0.037 A 
ATOM     30  C   UNL A   1      44.577  32.491  39.503  1.00  0.00     0.049 A 
ATOM     31  C   UNL A   1      40.256  33.618  35.972  1.00  0.00     0.074 A 
ATOM     32  C   UNL A   1      44.822  33.440  40.476  1.00  0.00     0.029 A 
ATOM     33  N   UNL A   1      43.486  32.936  38.767  1.00  0.00    -0.354 N 
ATOM     34  N   UNL A   1      41.247  33.490  36.826  1.00  0.00    -0.248 NA
ATOM     35  C   UNL A   1      39.405  34.790  36.209  1.00  0.00     0.031 C 
ATOM     36  C   UNL A   1      43.847  34.436  40.358  1.00  0.00     0.029 A 
ATOM     37  C   UNL A   1      43.024  34.131  39.283  1.00  0.00     0.049 A 
ATOM     38  H   UNL A   1      43.100  32.469  37.990  1.00  0.00     0.167 HD
ATOM     39  C   UNL A   1      41.139  34.564  37.701  1.00  0.00     0.074 A 
ATOM     40  C   UNL A   1      40.005  35.348  37.253  1.00  0.00     0.031 C 
ATOM     41  C   UNL A   1      41.893  34.873  38.785  1.00  0.00     0.037 A 
BRANCH  28  42
ATOM     42  C   UNL A   1      46.405  30.859  40.149  1.00  0.00     0.058 A 
ATOM     43  C   UNL A   1      46.218  30.057  41.285  1.00  0.00     0.135 A 
ATOM     44  C   UNL A   1      47.713  31.280  39.852  1.00  0.00     0.135 A 
ATOM     45  F   UNL A   1      44.985  29.662  41.637  1.00  0.00    -0.206 F 
ATOM     46  C   UNL A   1      47.288  29.685  42.094  1.00  0.00     0.059 A 
ATOM     47  C   UNL A   1      48.799  30.903  40.635  1.00  0.00     0.059 A 
ATOM     48  F   UNL A   1      47.943  32.068  38.791  1.00  0.00    -0.206 F 
ATOM     49  C   UNL A   1      48.576  30.108  41.757  1.00  0.00     0.060 A 
BRANCH  49  50
ATOM     50  S   UNL A   1      49.957  29.585  42.796  1.00  0.00     0.124 S 
ATOM     51  O   UNL A   1      49.323  28.580  43.643  1.00  0.00    -0.237 OA
ATOM     52  O   UNL A   1      50.908  29.076  41.814  1.00  0.00    -0.237 OA
ATOM     53  O   UNL A   1      50.358  30.814  43.473  1.00  0.00    -0.744 OA
ENDBRANCH  49  50
ENDBRANCH  28  42
BRANCH  29  54
ATOM     54  C   UNL A   1      38.697  33.011  33.962  1.00  0.00     0.058 A 
ATOM     55  C   UNL A   1      38.761  33.915  32.892  1.00  0.00     0.135 A 
ATOM     56  C   UNL A   1      37.451  32.415  34.228  1.00  0.00     0.135 A 
ATOM     57  F   UNL A   1      39.921  34.522  32.597  1.00  0.00    -0.206 F 
ATOM     58  C   UNL A   1      37.634  34.244  32.140  1.00  0.00     0.059 A 
ATOM     59  C   UNL A   1      36.318  32.702  33.473  1.00  0.00     0.059 A 
ATOM     60  F   UNL A   1      37.325  31.537  35.236  1.00  0.00    -0.206 F 
ATOM     61  C   UNL A   1      36.415  33.636  32.444  1.00  0.00     0.060 A 
BRANCH  61  62
ATOM     62  S   UNL A   1      34.953  34.075  31.477  1.00  0.00     0.124 S 
ATOM     63  O   UNL A   1      34.072  32.945  31.750  1.00  0.00    -0.237 OA
ATOM     64  O   UNL A   1      34.559  35.350  32.070  1.00  0.00    -0.237 OA
ATOM     65  O   UNL A   1      35.466  34.161  30.113  1.00  0.00    -0.744 OA
ENDBRANCH  61  62
ENDBRANCH  29  54
BRANCH  41  66
ATOM     66  C   UNL A   1      41.514  36.111  39.542  1.00  0.00     0.058 A 
ATOM     67  C   UNL A   1      42.071  37.357  39.223  1.00  0.00     0.135 A 
ATOM     68  C   UNL A   1      40.523  36.058  40.533  1.00  0.00     0.135 A 
ATOM     69  F   UNL A   1      43.028  37.451  38.286  1.00  0.00    -0.206 F 
ATOM     70  C   UNL A   1      41.663  38.516  39.870  1.00  0.00     0.059 A 
ATOM     71  C   UNL A   1      40.079  37.208  41.174  1.00  0.00     0.059 A 
ATOM     72  F   UNL A   1      39.954  34.887  40.862  1.00  0.00    -0.206 F 
ATOM     73  C   UNL A   1      40.660  38.431  40.839  1.00  0.00     0.060 A 
BRANCH  73  74
ATOM     74  S   UNL A   1      40.092  39.952  41.626  1.00  0.00     0.124 S 
ATOM     75  O   UNL A   1      39.249  40.525  40.583  1.00  0.00    -0.237 OA
ATOM     76  O   UNL A   1      39.393  39.451  42.805  1.00  0.00    -0.237 OA
ATOM     77  O   UNL A   1      41.331  40.673  41.901  1.00  0.00    -0.744 OA
ENDBRANCH  73  74
ENDBRANCH  41  66
ENDBRANCH  15  16
ENDBRANCH   8  10
ENDBRANCH   7   8
ENDBRANCH   6   7
ENDBRANCH   5   6
ENDBRANCH   4   5
ENDBRANCH   3   4
ENDBRANCH   2   3
ENDBRANCH   1   2
BRANCH   1  78
ATOM     78  C   UNL A   1      43.858  22.438  25.582  1.00  0.00     0.188 C 
BRANCH  78  79
ATOM     79  C   UNL A   1      42.479  22.089  26.177  1.00  0.00     0.188 C 
BRANCH  79  80
ATOM     80  O   UNL A   1      41.762  20.944  25.740  1.00  0.00    -0.376 OA
BRANCH  80  81
ATOM     81  C   UNL A   1      40.559  20.586  26.391  1.00  0.00     0.202 C 
BRANCH  81  82
ATOM     82  C   UNL A   1      39.250  21.150  25.823  1.00  0.00     0.261 C 
BRANCH  82  83
ATOM     83  O   UNL A   1      38.781  22.389  26.396  1.00  0.00    -0.463 OA
BRANCH  83  84
ATOM     84  C   UNL A   1      37.757  23.011  25.755  1.00  0.00     0.309 C 
ATOM     85  O   UNL A   1      37.183  24.031  26.125  1.00  0.00    -0.252 OA
BRANCH  84  86
ATOM     86  C   UNL A   1      37.219  22.246  24.606  1.00  0.00     0.112 C 
ATOM     87  C   UNL A   1      36.159  22.674  23.635  1.00  0.00     0.030 C 
ATOM     88  C   UNL A   1      35.852  21.579  24.645  1.00  0.00     0.094 C 
BRANCH  88  89
ATOM     89  C   UNL A   1      34.726  21.839  25.595  1.00  0.00     0.226 C 
ATOM     90  O   UNL A   1      34.882  21.601  26.790  1.00  0.00    -0.275 OA
ATOM     91  N   UNL A   1      33.596  22.483  25.125  1.00  0.00    -0.339 N 
ATOM     92  C   UNL A   1      32.662  23.103  26.082  1.00  0.00     0.141 C 
ATOM     93  C   UNL A   1      33.270  22.746  23.717  1.00  0.00     0.141 C 
ATOM     94  C   UNL A   1      32.584  24.633  25.852  1.00  0.00     0.139 C 
ATOM     95  C   UNL A   1      33.154  24.264  23.457  1.00  0.00     0.139 C 
ATOM     96  N   UNL A   1      32.252  24.867  24.446  1.00  0.00    -0.352 N 
BRANCH  96  97
ATOM     97  C   UNL A   1      31.472  25.950  24.103  1.00  0.00     0.147 A 
ATOM     98  N   UNL A   1      30.149  25.738  23.884  1.00  0.00    -0.237 NA
ATOM     99  C   UNL A   1      32.029  27.230  23.931  1.00  0.00     0.084 A 
ATOM    100  C   UNL A   1      29.377  26.796  23.523  1.00  0.00     0.126 A 
ATOM    101  C   UNL A   1      31.216  28.294  23.545  1.00  0.00     0.039 A 
ATOM    102  Cl  UNL A   1      33.723  27.537  24.093  1.00  0.00    -0.080 Cl
ATOM    103  C   UNL A   1      29.853  28.085  23.341  1.00  0.00     0.075 A 
BRANCH 103 104
ATOM    104  C   UNL A   1      28.923  29.187  22.943  1.00  0.00     0.417 C 
ATOM    105  F   UNL A   1      29.161  29.652  21.687  1.00  0.00    -0.166 F 
ATOM    106  F   UNL A   1      27.620  28.791  22.953  1.00  0.00    -0.166 F 
ATOM    107  F   UNL A   1      28.984  30.273  23.762  1.00  0.00    -0.166 F 
ENDBRANCH 103 104
ENDBRANCH  96  97
ENDBRANCH  88  89
ENDBRANCH  84  86
ENDBRANCH  83  84
ENDBRANCH  82  83
ENDBRANCH  81  82
ENDBRANCH  80  81
ENDBRANCH  79  80
ENDBRANCH  78  79
ENDBRANCH   1  78
TORSDOF 26
ENDMDL
MODEL 2
REMARK VINA RESULT:      -9.2     12.670     19.217
REMARK SMILES O=C(OCCOCCOCCOCCOC(=O)[C@@H]1C[C@@H]1C(=O)N1CCN(c2ncc(C(F)(F)F)cc2Cl)CC1)c1ccc(-c2c3nc(c(-c4c(F)cc(S(=O)(=O)[O-])cc4F)c4ccc([nH]4)c(-c4c(F)cc(S(=O)(=O)[O-])cc4F)c4nc(c(-c5c(F)cc(S(=O)(=O)[O-])cc5F)c5ccc2[nH]5)C=C4)C=C3)cc1
REMARK SMILES IDX 9 1 8 2 7 3 6 4 5 5 4 6 3 7 2 8 1 9 40 10 41 11 105 12 42 13
REMARK SMILES IDX 104 14 43 15 44 16 45 17 98 18 46 19 103 20 97 21 99 22
REMARK SMILES IDX 47 23 102 24 96 25 95 26 48 28 82 29 61 30 81 31 62 32 65 33
REMARK SMILES IDX 80 34 100 35 63 36 64 37 79 39 101 40 66 41 49 42 50 43
REMARK SMILES IDX 59 44 51 45 52 46 58 47 60 48 53 49 54 50 55 51 56 52 57 53
REMARK SMILES IDX 83 54 84 55 93 56 85 57 86 58 92 59 94 60 87 61 88 62 89 63
REMARK SMILES IDX 90 64 91 65 67 66 68 67 77 68 69 69 70 70 76 71 78 72 71 73
REMARK SMILES IDX 72 74 73 75 74 76 75 77 10 78 11 79 12 80 13 81 14 82 15 83
REMARK SMILES IDX 16 84 17 85 18 86 19 87 20 88 21 89 22 90 23 91 24 92 39 93
REMARK SMILES IDX 25 94 38 95 26 96 27 97 28 98 36 99 29 100 35 101 37 102
REMARK SMILES IDX 30 103 31 104 32 105 33 106 34 107
REMARK H PARENT 99 27 65 38
REMARK Flexibility Score: inf
ROOT
ATOM      1  O   UNL A   1      42.628  43.414  23.951  1.00  0.00    -0.377 OA
ENDROOT
BRANCH   1   2
ATOM      2  C   UNL A   1      42.705  42.004  24.135  1.00  0.00     0.188 C 
BRANCH   2   3
ATOM      3  C   UNL A   1      41.616  41.466  25.058  1.00  0.00     0.188 C 
BRANCH   3   4
ATOM      4  O   UNL A   1      42.265  40.819  26.152  1.00  0.00    -0.376 OA
BRANCH   4   5
ATOM      5  C   UNL A   1      41.467  39.915  26.907  1.00  0.00     0.202 C 
BRANCH   5   6
ATOM      6  C   UNL A   1      42.298  38.822  27.578  1.00  0.00     0.261 C 
BRANCH   6   7
ATOM      7  O   UNL A   1      41.827  37.508  27.244  1.00  0.00    -0.460 OA
BRANCH   7   8
ATOM      8  C   UNL A   1      42.032  36.355  27.932  1.00  0.00     0.338 C 
ATOM      9  O   UNL A   1      41.209  36.048  28.795  1.00  0.00    -0.246 OA
BRANCH   8  10
ATOM     10  C   UNL A   1      43.178  35.414  27.702  1.00  0.00     0.060 A 
ATOM     11  C   UNL A   1      43.998  34.860  28.688  1.00  0.00     0.016 A 
ATOM     12  C   UNL A   1      43.387  34.996  26.375  1.00  0.00     0.016 A 
ATOM     13  C   UNL A   1      44.996  33.942  28.387  1.00  0.00     0.010 A 
ATOM     14  C   UNL A   1      44.385  34.069  26.058  1.00  0.00     0.010 A 
ATOM     15  C   UNL A   1      45.198  33.550  27.070  1.00  0.00    -0.014 A 
BRANCH  15  16
ATOM     16  C   UNL A   1      46.366  32.707  26.771  1.00  0.00     0.031 A 
ATOM     17  C   UNL A   1      46.163  31.224  26.758  1.00  0.00     0.074 A 
ATOM     18  C   UNL A   1      47.534  33.274  26.420  1.00  0.00     0.049 A 
ATOM     19  N   UNL A   1      47.044  30.271  26.657  1.00  0.00    -0.248 NA
ATOM     20  C   UNL A   1      44.769  30.750  26.861  1.00  0.00     0.031 C 
ATOM     21  C   UNL A   1      47.762  34.714  26.267  1.00  0.00     0.029 A 
ATOM     22  N   UNL A   1      48.745  32.712  26.119  1.00  0.00    -0.354 N 
ATOM     23  C   UNL A   1      46.322  29.088  26.737  1.00  0.00     0.074 A 
ATOM     24  C   UNL A   1      44.926  29.435  26.868  1.00  0.00     0.031 C 
ATOM     25  C   UNL A   1      49.041  34.921  25.914  1.00  0.00     0.029 A 
ATOM     26  C   UNL A   1      49.736  33.640  25.890  1.00  0.00     0.049 A 
ATOM     27  H   UNL A   1      48.894  31.740  26.070  1.00  0.00     0.167 HD
ATOM     28  C   UNL A   1      46.803  27.825  26.725  1.00  0.00     0.037 A 
ATOM     29  C   UNL A   1      51.063  33.460  25.745  1.00  0.00     0.037 A 
ATOM     30  C   UNL A   1      48.201  27.530  26.574  1.00  0.00     0.049 A 
ATOM     31  C   UNL A   1      51.584  32.047  25.830  1.00  0.00     0.074 A 
ATOM     32  C   UNL A   1      48.829  26.300  26.574  1.00  0.00     0.029 A 
ATOM     33  N   UNL A   1      49.188  28.492  26.401  1.00  0.00    -0.354 N 
ATOM     34  N   UNL A   1      50.908  30.927  25.958  1.00  0.00    -0.248 NA
ATOM     35  C   UNL A   1      53.041  31.869  25.780  1.00  0.00     0.031 C 
ATOM     36  C   UNL A   1      50.204  26.523  26.449  1.00  0.00     0.029 A 
ATOM     37  C   UNL A   1      50.427  27.887  26.325  1.00  0.00     0.049 A 
ATOM     38  H   UNL A   1      49.028  29.462  26.340  1.00  0.00     0.167 HD
ATOM     39  C   UNL A   1      51.856  29.912  26.004  1.00  0.00     0.074 A 
ATOM     40  C   UNL A   1      53.151  30.549  25.859  1.00  0.00     0.031 C 
ATOM     41  C   UNL A   1      51.684  28.576  26.167  1.00  0.00     0.037 A 
BRANCH  28  42
ATOM     42  C   UNL A   1      45.836  26.704  26.960  1.00  0.00     0.058 A 
ATOM     43  C   UNL A   1      45.495  26.261  28.247  1.00  0.00     0.135 A 
ATOM     44  C   UNL A   1      45.226  26.069  25.865  1.00  0.00     0.135 A 
ATOM     45  F   UNL A   1      46.078  26.805  29.327  1.00  0.00    -0.206 F 
ATOM     46  C   UNL A   1      44.581  25.228  28.440  1.00  0.00     0.059 A 
ATOM     47  C   UNL A   1      44.296  25.049  26.036  1.00  0.00     0.059 A 
ATOM     48  F   UNL A   1      45.536  26.438  24.613  1.00  0.00    -0.206 F 
ATOM     49  C   UNL A   1      43.982  24.632  27.327  1.00  0.00     0.060 A 
BRANCH  49  50
ATOM     50  S   UNL A   1      42.772  23.320  27.596  1.00  0.00     0.124 S 
ATOM     51  O   UNL A   1      41.575  24.088  27.926  1.00  0.00    -0.237 OA
ATOM     52  O   UNL A   1      42.754  22.645  26.303  1.00  0.00    -0.237 OA
ATOM     53  O   UNL A   1      43.344  22.548  28.695  1.00  0.00    -0.744 OA
ENDBRANCH  49  50
ENDBRANCH  28  42
BRANCH  29  54
ATOM     54  C   UNL A   1      51.988  34.623  25.628  1.00  0.00     0.058 A 
ATOM     55  C   UNL A   1      52.419  35.339  26.754  1.00  0.00     0.135 A 
ATOM     56  C   UNL A   1      52.428  35.073  24.371  1.00  0.00     0.135 A 
ATOM     57  F   UNL A   1      52.022  34.962  27.980  1.00  0.00    -0.206 F 
ATOM     58  C   UNL A   1      53.221  36.474  26.639  1.00  0.00     0.059 A 
ATOM     59  C   UNL A   1      53.255  36.183  24.231  1.00  0.00     0.059 A 
ATOM     60  F   UNL A   1      52.055  34.427  23.255  1.00  0.00    -0.206 F 
ATOM     61  C   UNL A   1      53.629  36.891  25.372  1.00  0.00     0.060 A 
BRANCH  61  62
ATOM     62  S   UNL A   1      54.656  38.370  25.226  1.00  0.00     0.124 S 
ATOM     63  O   UNL A   1      53.676  39.429  25.434  1.00  0.00    -0.237 OA
ATOM     64  O   UNL A   1      55.628  38.180  26.298  1.00  0.00    -0.237 OA
ATOM     65  O   UNL A   1      55.199  38.270  23.874  1.00  0.00    -0.744 OA
ENDBRANCH  61  62
ENDBRANCH  29  54
BRANCH  41  66
ATOM     66  C   UNL A   1      52.922  27.731  26.185  1.00  0.00     0.058 A 
ATOM     67  C   UNL A   1      53.557  27.396  27.389  1.00  0.00     0.135 A 
ATOM     68  C   UNL A   1      53.421  27.182  24.994  1.00  0.00     0.135 A 
ATOM     69  F   UNL A   1      53.116  27.906  28.550  1.00  0.00    -0.206 F 
ATOM     70  C   UNL A   1      54.657  26.550  27.413  1.00  0.00     0.059 A 
ATOM     71  C   UNL A   1      54.503  26.311  24.997  1.00  0.00     0.059 A 
ATOM     72  F   UNL A   1      52.836  27.467  23.819  1.00  0.00    -0.206 F 
ATOM     73  C   UNL A   1      55.117  26.005  26.211  1.00  0.00     0.060 A 
BRANCH  73  74
ATOM     74  S   UNL A   1      56.506  24.855  26.263  1.00  0.00     0.124 S 
ATOM     75  O   UNL A   1      55.895  23.685  26.883  1.00  0.00    -0.237 OA
ATOM     76  O   UNL A   1      56.851  24.719  24.851  1.00  0.00    -0.237 OA
ATOM     77  O   UNL A   1      57.494  25.554  27.077  1.00  0.00    -0.744 OA
ENDBRANCH  73  74
ENDBRANCH  41  66
ENDBRANCH  15  16
ENDBRANCH   8  10
ENDBRANCH   7   8
ENDBRANCH   6   7
ENDBRANCH   5   6
ENDBRANCH   4   5
ENDBRANCH   3   4
ENDBRANCH   2   3
ENDBRANCH   1   2
BRANCH   1  78
ATOM     78  C   UNL A   1      41.945  43.858  22.786  1.00  0.00     0.188 C 
BRANCH  78  79
ATOM     79  C   UNL A   1      41.558  42.853  21.683  1.00  0.00     0.188 C 
BRANCH  79  80
ATOM     80  O   UNL A   1      40.873  43.277  20.513  1.00  0.00    -0.376 OA
BRANCH  80  81
ATOM     81  C   UNL A   1      41.599  43.486  19.319  1.00  0.00     0.202 C 
BRANCH  81  82
ATOM     82  C   UNL A   1      41.255  44.728  18.486  1.00  0.00     0.261 C 
BRANCH  82  83
ATOM     83  O   UNL A   1      41.755  44.754  17.132  1.00  0.00    -0.463 OA
BRANCH  83  84
ATOM     84  C   UNL A   1      43.078  45.018  16.973  1.00  0.00     0.309 C 
ATOM     85  O   UNL A   1      43.905  44.286  16.439  1.00  0.00    -0.252 OA
BRANCH  84  86
ATOM     86  C   UNL A   1      43.534  46.235  17.684  1.00  0.00     0.112 C 
ATOM     87  C   UNL A   1      44.631  47.175  17.282  1.00  0.00     0.030 C 
ATOM     88  C   UNL A   1      44.824  46.270  18.489  1.00  0.00     0.094 C 
BRANCH  88  89
ATOM     89  C   UNL A   1      45.972  45.311  18.433  1.00  0.00     0.226 C 
ATOM     90  O   UNL A   1      46.948  45.584  17.739  1.00  0.00    -0.275 OA
ATOM     91  N   UNL A   1      45.968  44.222  19.285  1.00  0.00    -0.339 N 
ATOM     92  C   UNL A   1      47.226  43.498  19.545  1.00  0.00     0.141 C 
ATOM     93  C   UNL A   1      44.835  43.759  20.097  1.00  0.00     0.141 C 
ATOM     94  C   UNL A   1      47.603  43.584  21.045  1.00  0.00     0.139 C 
ATOM     95  C   UNL A   1      45.186  43.803  21.601  1.00  0.00     0.139 C 
ATOM     96  N   UNL A   1      46.462  43.112  21.830  1.00  0.00    -0.352 N 
BRANCH  96  97
ATOM     97  C   UNL A   1      46.682  42.437  23.011  1.00  0.00     0.147 A 
ATOM     98  N   UNL A   1      46.671  41.080  22.980  1.00  0.00    -0.237 NA
ATOM     99  C   UNL A   1      46.860  43.123  24.225  1.00  0.00     0.084 A 
ATOM    100  C   UNL A   1      46.864  40.406  24.143  1.00  0.00     0.126 A 
ATOM    101  C   UNL A   1      47.041  42.406  25.407  1.00  0.00     0.039 A 
ATOM    102  Cl  UNL A   1      46.777  44.847  24.342  1.00  0.00    -0.080 Cl
ATOM    103  C   UNL A   1      47.053  41.013  25.376  1.00  0.00     0.075 A 
BRANCH 103 104
ATOM    104  C   UNL A   1      47.259  40.184  26.604  1.00  0.00     0.417 C 
ATOM    105  F   UNL A   1      48.342  40.573  27.329  1.00  0.00    -0.166 F 
ATOM    106  F   UNL A   1      46.198  40.250  27.455  1.00  0.00    -0.166 F 
ATOM    107  F   UNL A   1      47.439  38.860  26.343  1.00  0.00    -0.166 F 
ENDBRANCH 103 104
ENDBRANCH  96  97
ENDBRANCH  88  89
ENDBRANCH  84  86
ENDBRANCH  83  84
ENDBRANCH  82  83
ENDBRANCH  81  82
ENDBRANCH  80  81
ENDBRANCH  79  80
ENDBRANCH  78  79
ENDBRANCH   1  78
TORSDOF 26
ENDMDL
MODEL 3
REMARK VINA RESULT:      -9.0      5.069      8.026
REMARK SMILES O=C(OCCOCCOCCOCCOC(=O)[C@@H]1C[C@@H]1C(=O)N1CCN(c2ncc(C(F)(F)F)cc2Cl)CC1)c1ccc(-c2c3nc(c(-c4c(F)cc(S(=O)(=O)[O-])cc4F)c4ccc([nH]4)c(-c4c(F)cc(S(=O)(=O)[O-])cc4F)c4nc(c(-c5c(F)cc(S(=O)(=O)[O-])cc5F)c5ccc2[nH]5)C=C4)C=C3)cc1
REMARK SMILES IDX 9 1 8 2 7 3 6 4 5 5 4 6 3 7 2 8 1 9 40 10 41 11 105 12 42 13
REMARK SMILES IDX 104 14 43 15 44 16 45 17 98 18 46 19 103 20 97 21 99 22
REMARK SMILES IDX 47 23 102 24 96 25 95 26 48 28 82 29 61 30 81 31 62 32 65 33
REMARK SMILES IDX 80 34 100 35 63 36 64 37 79 39 101 40 66 41 49 42 50 43
REMARK SMILES IDX 59 44 51 45 52 46 58 47 60 48 53 49 54 50 55 51 56 52 57 53
REMARK SMILES IDX 83 54 84 55 93 56 85 57 86 58 92 59 94 60 87 61 88 62 89 63
REMARK SMILES IDX 90 64 91 65 67 66 68 67 77 68 69 69 70 70 76 71 78 72 71 73
REMARK SMILES IDX 72 74 73 75 74 76 75 77 10 78 11 79 12 80 13 81 14 82 15 83
REMARK SMILES IDX 16 84 17 85 18 86 19 87 20 88 21 89 22 90 23 91 24 92 39 93
REMARK SMILES IDX 25 94 38 95 26 96 27 97 28 98 36 99 29 100 35 101 37 102
REMARK SMILES IDX 30 103 31 104 32 105 33 106 34 107
REMARK H PARENT 99 27 65 38
REMARK Flexibility Score: inf
ROOT
ATOM      1  O   UNL A   1      39.997  28.121  26.947  1.00  0.00    -0.377 OA
ENDROOT
BRANCH   1   2
ATOM      2  C   UNL A   1      39.459  28.534  28.200  1.00  0.00     0.188 C 
BRANCH   2   3
ATOM      3  C   UNL A   1      38.487  29.702  28.072  1.00  0.00     0.188 C 
BRANCH   3   4
ATOM      4  O   UNL A   1      37.243  29.175  27.613  1.00  0.00    -0.376 OA
BRANCH   4   5
ATOM      5  C   UNL A   1      36.072  29.823  28.095  1.00  0.00     0.202 C 
BRANCH   5   6
ATOM      6  C   UNL A   1      36.389  30.952  29.074  1.00  0.00     0.261 C 
BRANCH   6   7
ATOM      7  O   UNL A   1      35.213  31.428  29.745  1.00  0.00    -0.460 OA
BRANCH   7   8
ATOM      8  C   UNL A   1      35.151  32.226  30.842  1.00  0.00     0.338 C 
ATOM      9  O   UNL A   1      34.040  32.457  31.321  1.00  0.00    -0.246 OA
BRANCH   8  10
ATOM     10  C   UNL A   1      36.341  32.831  31.529  1.00  0.00     0.060 A 
ATOM     11  C   UNL A   1      36.528  34.188  31.806  1.00  0.00     0.016 A 
ATOM     12  C   UNL A   1      37.314  31.932  32.002  1.00  0.00     0.016 A 
ATOM     13  C   UNL A   1      37.634  34.650  32.508  1.00  0.00     0.010 A 
ATOM     14  C   UNL A   1      38.430  32.383  32.713  1.00  0.00     0.010 A 
ATOM     15  C   UNL A   1      38.592  33.751  32.956  1.00  0.00    -0.014 A 
BRANCH  15  16
ATOM     16  C   UNL A   1      39.825  34.292  33.549  1.00  0.00     0.031 A 
ATOM     17  C   UNL A   1      39.882  34.412  35.039  1.00  0.00     0.074 A 
ATOM     18  C   UNL A   1      40.887  34.560  32.767  1.00  0.00     0.049 A 
ATOM     19  N   UNL A   1      40.786  34.974  35.789  1.00  0.00    -0.248 NA
ATOM     20  C   UNL A   1      38.768  33.801  35.791  1.00  0.00     0.031 C 
ATOM     21  C   UNL A   1      40.952  34.325  31.321  1.00  0.00     0.029 A 
ATOM     22  N   UNL A   1      42.116  35.077  33.075  1.00  0.00    -0.354 N 
ATOM     23  C   UNL A   1      40.328  34.833  37.092  1.00  0.00     0.074 A 
ATOM     24  C   UNL A   1      39.079  34.109  37.041  1.00  0.00     0.031 C 
ATOM     25  C   UNL A   1      42.156  34.712  30.868  1.00  0.00     0.029 A 
ATOM     26  C   UNL A   1      42.913  35.288  31.973  1.00  0.00     0.049 A 
ATOM     27  H   UNL A   1      42.402  35.279  33.995  1.00  0.00     0.167 HD
ATOM     28  C   UNL A   1      40.903  35.297  38.224  1.00  0.00     0.037 A 
ATOM     29  C   UNL A   1      44.090  35.934  31.876  1.00  0.00     0.037 A 
ATOM     30  C   UNL A   1      42.157  35.997  38.224  1.00  0.00     0.049 A 
ATOM     31  C   UNL A   1      44.664  36.523  33.140  1.00  0.00     0.074 A 
ATOM     32  C   UNL A   1      42.840  36.546  39.292  1.00  0.00     0.029 A 
ATOM     33  N   UNL A   1      42.915  36.245  37.086  1.00  0.00    -0.354 N 
ATOM     34  N   UNL A   1      44.206  36.437  34.369  1.00  0.00    -0.248 NA
ATOM     35  C   UNL A   1      45.890  37.320  33.009  1.00  0.00     0.031 C 
ATOM     36  C   UNL A   1      43.987  37.170  38.791  1.00  0.00     0.029 A 
ATOM     37  C   UNL A   1      44.042  36.969  37.418  1.00  0.00     0.049 A 
ATOM     38  H   UNL A   1      42.682  35.947  36.176  1.00  0.00     0.167 HD
ATOM     39  C   UNL A   1      45.088  37.167  35.158  1.00  0.00     0.074 A 
ATOM     40  C   UNL A   1      46.123  37.661  34.269  1.00  0.00     0.031 C 
ATOM     41  C   UNL A   1      45.046  37.423  36.489  1.00  0.00     0.037 A 
BRANCH  28  42
ATOM     42  C   UNL A   1      40.149  35.137  39.509  1.00  0.00     0.058 A 
ATOM     43  C   UNL A   1      40.331  34.033  40.356  1.00  0.00     0.135 A 
ATOM     44  C   UNL A   1      39.234  36.126  39.907  1.00  0.00     0.135 A 
ATOM     45  F   UNL A   1      41.163  33.041  40.005  1.00  0.00    -0.206 F 
ATOM     46  C   UNL A   1      39.630  33.916  41.554  1.00  0.00     0.059 A 
ATOM     47  C   UNL A   1      38.538  36.038  41.109  1.00  0.00     0.059 A 
ATOM     48  F   UNL A   1      39.006  37.190  39.122  1.00  0.00    -0.206 F 
ATOM     49  C   UNL A   1      38.740  34.927  41.925  1.00  0.00     0.060 A 
BRANCH  49  50
ATOM     50  S   UNL A   1      37.868  34.778  43.499  1.00  0.00     0.124 S 
ATOM     51  O   UNL A   1      36.491  34.583  43.053  1.00  0.00    -0.237 OA
ATOM     52  O   UNL A   1      38.509  33.613  44.099  1.00  0.00    -0.237 OA
ATOM     53  O   UNL A   1      38.139  36.050  44.160  1.00  0.00    -0.744 OA
ENDBRANCH  49  50
ENDBRANCH  28  42
BRANCH  29  54
ATOM     54  C   UNL A   1      44.735  36.160  30.551  1.00  0.00     0.058 A 
ATOM     55  C   UNL A   1      45.751  35.320  30.073  1.00  0.00     0.135 A 
ATOM     56  C   UNL A   1      44.376  37.258  29.749  1.00  0.00     0.135 A 
ATOM     57  F   UNL A   1      46.143  34.262  30.800  1.00  0.00    -0.206 F 
ATOM     58  C   UNL A   1      46.408  35.575  28.870  1.00  0.00     0.059 A 
ATOM     59  C   UNL A   1      44.995  37.516  28.530  1.00  0.00     0.059 A 
ATOM     60  F   UNL A   1      43.408  38.097  30.149  1.00  0.00    -0.206 F 
ATOM     61  C   UNL A   1      46.027  36.681  28.109  1.00  0.00     0.060 A 
BRANCH  61  62
ATOM     62  S   UNL A   1      46.890  37.016  26.558  1.00  0.00     0.124 S 
ATOM     63  O   UNL A   1      46.407  35.929  25.713  1.00  0.00    -0.237 OA
ATOM     64  O   UNL A   1      46.410  38.352  26.217  1.00  0.00    -0.237 OA
ATOM     65  O   UNL A   1      48.299  36.944  26.935  1.00  0.00    -0.744 OA
ENDBRANCH  61  62
ENDBRANCH  29  54
BRANCH  41  66
ATOM     66  C   UNL A   1      46.154  38.262  37.051  1.00  0.00     0.058 A 
ATOM     67  C   UNL A   1      47.380  37.693  37.425  1.00  0.00     0.135 A 
ATOM     68  C   UNL A   1      46.015  39.656  37.133  1.00  0.00     0.135 A 
ATOM     69  F   UNL A   1      47.552  36.363  37.369  1.00  0.00    -0.206 F 
ATOM     70  C   UNL A   1      48.433  38.479  37.872  1.00  0.00     0.059 A 
ATOM     71  C   UNL A   1      47.064  40.464  37.551  1.00  0.00     0.059 A 
ATOM     72  F   UNL A   1      44.862  40.244  36.774  1.00  0.00    -0.206 F 
ATOM     73  C   UNL A   1      48.267  39.865  37.923  1.00  0.00     0.060 A 
BRANCH  73  74
ATOM     74  S   UNL A   1      49.665  40.881  38.443  1.00  0.00     0.124 S 
ATOM     75  O   UNL A   1      48.990  42.071  38.950  1.00  0.00    -0.237 OA
ATOM     76  O   UNL A   1      50.307  40.039  39.447  1.00  0.00    -0.237 OA
ATOM     77  O   UNL A   1      50.425  41.066  37.212  1.00  0.00    -0.744 OA
ENDBRANCH  73  74
ENDBRANCH  41  66
ENDBRANCH  15  16
ENDBRANCH   8  10
ENDBRANCH   7   8
ENDBRANCH   6   7
ENDBRANCH   5   6
ENDBRANCH   4   5
ENDBRANCH   3   4
ENDBRANCH   2   3
ENDBRANCH   1   2
BRANCH   1  78
ATOM     78  C   UNL A   1      40.917  27.038  26.987  1.00  0.00     0.188 C 
BRANCH  78  79
ATOM     79  C   UNL A   1      41.040  26.079  25.787  1.00  0.00     0.188 C 
BRANCH  79  80
ATOM     80  O   UNL A   1      42.232  26.017  25.017  1.00  0.00    -0.376 OA
BRANCH  80  81
ATOM     81  C   UNL A   1      43.225  25.069  25.348  1.00  0.00     0.202 C 
BRANCH  81  82
ATOM     82  C   UNL A   1      42.765  23.752  25.988  1.00  0.00     0.261 C 
BRANCH  82  83
ATOM     83  O   UNL A   1      42.724  22.597  25.124  1.00  0.00    -0.463 OA
BRANCH  83  84
ATOM     84  C   UNL A   1      42.662  21.381  25.729  1.00  0.00     0.309 C 
ATOM     85  O   UNL A   1      43.053  20.317  25.261  1.00  0.00    -0.252 OA
BRANCH  84  86
ATOM     86  C   UNL A   1      41.884  21.382  26.990  1.00  0.00     0.112 C 
ATOM     87  C   UNL A   1      41.237  20.211  27.669  1.00  0.00     0.030 C 
ATOM     88  C   UNL A   1      40.367  21.269  27.008  1.00  0.00     0.094 C 
BRANCH  88  89
ATOM     89  C   UNL A   1      39.463  20.805  25.909  1.00  0.00     0.226 C 
ATOM     90  O   UNL A   1      39.479  19.623  25.579  1.00  0.00    -0.275 OA
ATOM     91  N   UNL A   1      38.527  21.688  25.403  1.00  0.00    -0.339 N 
ATOM     92  C   UNL A   1      37.383  21.170  24.630  1.00  0.00     0.141 C 
ATOM     93  C   UNL A   1      38.465  23.132  25.666  1.00  0.00     0.141 C 
ATOM     94  C   UNL A   1      36.050  21.504  25.344  1.00  0.00     0.139 C 
ATOM     95  C   UNL A   1      37.132  23.506  26.352  1.00  0.00     0.139 C 
ATOM     96  N   UNL A   1      36.010  22.946  25.587  1.00  0.00    -0.352 N 
BRANCH  96  97
ATOM     97  C   UNL A   1      34.803  23.610  25.540  1.00  0.00     0.147 A 
ATOM     98  N   UNL A   1      34.609  24.506  24.539  1.00  0.00    -0.237 NA
ATOM     99  C   UNL A   1      33.819  23.413  26.525  1.00  0.00     0.084 A 
ATOM    100  C   UNL A   1      33.432  25.182  24.497  1.00  0.00     0.126 A 
ATOM    101  C   UNL A   1      32.626  24.132  26.467  1.00  0.00     0.039 A 
ATOM    102  Cl  UNL A   1      34.054  22.366  27.881  1.00  0.00    -0.080 Cl
ATOM    103  C   UNL A   1      32.413  25.036  25.427  1.00  0.00     0.075 A 
BRANCH 103 104
ATOM    104  C   UNL A   1      31.150  25.827  25.297  1.00  0.00     0.417 C 
ATOM    105  F   UNL A   1      30.137  25.115  24.732  1.00  0.00    -0.166 F 
ATOM    106  F   UNL A   1      30.680  26.251  26.503  1.00  0.00    -0.166 F 
ATOM    107  F   UNL A   1      31.287  26.949  24.538  1.00  0.00    -0.166 F 
ENDBRANCH 103 104
ENDBRANCH  96  97
ENDBRANCH  88  89
ENDBRANCH  84  86
ENDBRANCH  83  84
ENDBRANCH  82  83
ENDBRANCH  81  82
ENDBRANCH  80  81
ENDBRANCH  79  80
ENDBRANCH  78  79
ENDBRANCH   1  78
TORSDOF 26
ENDMDL
