MODEL 1
REMARK VINA RESULT:      -8.3      0.000      0.000
REMARK SMILES Nc1cc(C(=O)OCCOCCOCCOCCOC(=O)c2ccc(-c3c4nc(c(-c5c(F)cc(S(=O)(=O)[O-])cc5F)c5ccc([nH]5)c(-c5c(F)cc(S(=O)(=O)[O-])cc5F)c5nc(c(-c6c(F)cc(S(=O)(=O)[O-])cc6F)c6ccc3[nH]6)C=C5)C=C4)cc2)ccc1N1CC2(CCOCC2)C1
REMARK SMILES IDX 14 1 13 2 12 3 11 4 10 5 9 6 8 7 7 8 5 9 6 10 4 11 2 12 3 13
REMARK SMILES IDX 90 14 89 15 88 16 1 17 91 20 92 21 99 22 93 23 94 24 98 25
REMARK SMILES IDX 95 26 97 27 96 28 15 29 16 30 17 31 18 32 19 33 20 34 21 35
REMARK SMILES IDX 22 36 23 37 87 38 24 39 86 40 25 41 26 42 27 43 80 44 28 45
REMARK SMILES IDX 85 46 79 47 81 48 29 49 84 50 78 51 77 52 30 54 64 55 43 56
REMARK SMILES IDX 63 57 44 58 47 59 62 60 82 61 45 62 46 63 61 65 83 66 48 67
REMARK SMILES IDX 31 68 32 69 41 70 33 71 34 72 40 73 42 74 35 75 36 76 37 77
REMARK SMILES IDX 38 78 39 79 65 80 66 81 75 82 67 83 68 84 74 85 76 86 69 87
REMARK SMILES IDX 70 88 71 89 72 90 73 91 49 92 50 93 59 94 51 95 52 96 58 97
REMARK SMILES IDX 60 98 53 99 54 100 55 101 56 102 57 103
REMARK H PARENT 1 18 1 19 81 53 47 64
REMARK Flexibility Score: inf
ROOT
ATOM      1  C   UNL A   1      42.900  18.388  26.246  1.00  0.00     0.188 C 
ENDROOT
BRANCH   1   2
ATOM      2  O   UNL A   1      44.268  17.989  26.209  1.00  0.00    -0.377 OA
BRANCH   2   3
ATOM      3  C   UNL A   1      45.194  18.690  25.395  1.00  0.00     0.188 C 
BRANCH   3   4
ATOM      4  C   UNL A   1      44.686  19.308  24.077  1.00  0.00     0.188 C 
BRANCH   4   5
ATOM      5  O   UNL A   1      44.758  20.722  24.044  1.00  0.00    -0.376 OA
BRANCH   5   6
ATOM      6  C   UNL A   1      44.637  21.448  25.253  1.00  0.00     0.202 C 
BRANCH   6   7
ATOM      7  C   UNL A   1      45.800  22.324  25.748  1.00  0.00     0.261 C 
BRANCH   7   8
ATOM      8  O   UNL A   1      45.454  23.599  26.300  1.00  0.00    -0.460 OA
BRANCH   8   9
ATOM      9  C   UNL A   1      46.459  24.352  26.792  1.00  0.00     0.338 C 
ATOM     10  O   UNL A   1      47.583  23.979  27.073  1.00  0.00    -0.246 OA
BRANCH   9  11
ATOM     11  C   UNL A   1      46.042  25.771  26.720  1.00  0.00     0.062 A 
ATOM     12  C   UNL A   1      44.516  27.419  25.751  1.00  0.00     0.056 A 
ATOM     13  C   UNL A   1      44.985  26.101  25.864  1.00  0.00     0.043 A 
ATOM     14  C   UNL A   1      45.150  28.434  26.500  1.00  0.00     0.060 A 
ATOM     15  C   UNL A   1      46.187  28.072  27.390  1.00  0.00     0.029 A 
ATOM     16  C   UNL A   1      46.622  26.752  27.518  1.00  0.00     0.018 A 
BRANCH  12  17
ATOM     17  N   UNL A   1      43.431  27.638  24.912  1.00  0.00    -0.397 N 
ATOM     18  H   UNL A   1      43.291  27.058  24.128  1.00  0.00     0.156 HD
ATOM     19  H   UNL A   1      42.803  28.372  25.101  1.00  0.00     0.156 HD
ENDBRANCH  12  17
BRANCH  14  20
ATOM     20  N   UNL A   1      44.902  29.820  26.369  1.00  0.00    -0.369 N 
ATOM     21  C   UNL A   1      45.716  30.985  26.276  1.00  0.00     0.125 C 
ATOM     22  C   UNL A   1      43.830  30.491  27.053  1.00  0.00     0.125 C 
ATOM     23  C   UNL A   1      44.803  31.652  27.335  1.00  0.00     0.010 C 
ATOM     24  C   UNL A   1      44.236  33.031  26.990  1.00  0.00     0.039 C 
ATOM     25  C   UNL A   1      45.348  31.665  28.771  1.00  0.00     0.039 C 
ATOM     26  C   UNL A   1      45.311  34.084  27.226  1.00  0.00     0.161 C 
ATOM     27  C   UNL A   1      46.373  32.785  28.899  1.00  0.00     0.161 C 
ATOM     28  O   UNL A   1      45.770  34.041  28.580  1.00  0.00    -0.381 OA
ENDBRANCH  14  20
ENDBRANCH   9  11
ENDBRANCH   8   9
ENDBRANCH   7   8
ENDBRANCH   6   7
ENDBRANCH   5   6
ENDBRANCH   4   5
ENDBRANCH   3   4
ENDBRANCH   2   3
ENDBRANCH   1   2
BRANCH   1  29
ATOM     29  C   UNL A   1      42.271  19.079  27.481  1.00  0.00     0.188 C 
BRANCH  29  30
ATOM     30  O   UNL A   1      41.434  20.186  27.190  1.00  0.00    -0.376 OA
BRANCH  30  31
ATOM     31  C   UNL A   1      40.395  19.989  26.248  1.00  0.00     0.202 C 
BRANCH  31  32
ATOM     32  C   UNL A   1      39.256  21.016  26.267  1.00  0.00     0.261 C 
BRANCH  32  33
ATOM     33  O   UNL A   1      39.569  22.312  25.736  1.00  0.00    -0.460 OA
BRANCH  33  34
ATOM     34  C   UNL A   1      38.647  23.288  25.907  1.00  0.00     0.338 C 
ATOM     35  O   UNL A   1      37.471  23.246  25.612  1.00  0.00    -0.246 OA
BRANCH  34  36
ATOM     36  C   UNL A   1      39.287  24.365  26.692  1.00  0.00     0.060 A 
ATOM     37  C   UNL A   1      39.018  24.464  28.064  1.00  0.00     0.016 A 
ATOM     38  C   UNL A   1      40.162  25.261  26.075  1.00  0.00     0.016 A 
ATOM     39  C   UNL A   1      39.601  25.487  28.815  1.00  0.00     0.010 A 
ATOM     40  C   UNL A   1      40.728  26.294  26.823  1.00  0.00     0.010 A 
ATOM     41  C   UNL A   1      40.426  26.432  28.189  1.00  0.00    -0.014 A 
BRANCH  41  42
ATOM     42  C   UNL A   1      40.812  27.671  28.908  1.00  0.00     0.031 A 
ATOM     43  C   UNL A   1      42.178  27.727  29.541  1.00  0.00     0.074 A 
ATOM     44  C   UNL A   1      39.979  28.723  28.995  1.00  0.00     0.049 A 
ATOM     45  N   UNL A   1      42.716  28.664  30.274  1.00  0.00    -0.248 NA
ATOM     46  C   UNL A   1      43.050  26.561  29.318  1.00  0.00     0.031 C 
ATOM     47  C   UNL A   1      38.650  28.804  28.390  1.00  0.00     0.029 A 
ATOM     48  N   UNL A   1      40.129  29.927  29.639  1.00  0.00    -0.354 N 
ATOM     49  C   UNL A   1      43.982  28.201  30.610  1.00  0.00     0.074 A 
ATOM     50  C   UNL A   1      44.124  26.887  30.024  1.00  0.00     0.031 C 
ATOM     51  C   UNL A   1      38.100  29.990  28.706  1.00  0.00     0.029 A 
ATOM     52  C   UNL A   1      39.020  30.737  29.562  1.00  0.00     0.049 A 
ATOM     53  H   UNL A   1      40.953  30.185  30.111  1.00  0.00     0.167 HD
ATOM     54  C   UNL A   1      44.943  28.818  31.336  1.00  0.00     0.037 A 
ATOM     55  C   UNL A   1      38.772  31.931  30.138  1.00  0.00     0.037 A 
ATOM     56  C   UNL A   1      44.797  30.129  31.914  1.00  0.00     0.049 A 
ATOM     57  C   UNL A   1      39.835  32.569  31.002  1.00  0.00     0.074 A 
ATOM     58  C   UNL A   1      45.722  30.851  32.646  1.00  0.00     0.029 A 
ATOM     59  N   UNL A   1      43.653  30.907  31.832  1.00  0.00    -0.354 N 
ATOM     60  N   UNL A   1      41.039  32.133  31.288  1.00  0.00    -0.248 NA
ATOM     61  C   UNL A   1      39.504  33.861  31.621  1.00  0.00     0.031 C 
ATOM     62  C   UNL A   1      45.115  32.041  33.059  1.00  0.00     0.029 A 
ATOM     63  C   UNL A   1      43.837  32.091  32.527  1.00  0.00     0.049 A 
ATOM     64  H   UNL A   1      42.830  30.656  31.352  1.00  0.00     0.167 HD
ATOM     65  C   UNL A   1      41.621  33.114  32.088  1.00  0.00     0.074 A 
ATOM     66  C   UNL A   1      40.640  34.169  32.232  1.00  0.00     0.031 C 
ATOM     67  C   UNL A   1      42.856  33.141  32.650  1.00  0.00     0.037 A 
BRANCH  54  68
ATOM     68  C   UNL A   1      46.229  28.076  31.574  1.00  0.00     0.058 A 
ATOM     69  C   UNL A   1      47.419  28.419  30.911  1.00  0.00     0.135 A 
ATOM     70  C   UNL A   1      46.284  27.038  32.519  1.00  0.00     0.135 A 
ATOM     71  F   UNL A   1      47.420  29.389  29.982  1.00  0.00    -0.206 F 
ATOM     72  C   UNL A   1      48.612  27.751  31.165  1.00  0.00     0.059 A 
ATOM     73  C   UNL A   1      47.471  26.376  32.810  1.00  0.00     0.059 A 
ATOM     74  F   UNL A   1      45.174  26.665  33.176  1.00  0.00    -0.206 F 
ATOM     75  C   UNL A   1      48.629  26.734  32.122  1.00  0.00     0.060 A 
BRANCH  75  76
ATOM     76  S   UNL A   1      50.192  25.897  32.462  1.00  0.00     0.124 S 
ATOM     77  O   UNL A   1      49.842  25.089  33.626  1.00  0.00    -0.237 OA
ATOM     78  O   UNL A   1      50.424  25.158  31.225  1.00  0.00    -0.237 OA
ATOM     79  O   UNL A   1      51.118  26.995  32.718  1.00  0.00    -0.744 OA
ENDBRANCH  75  76
ENDBRANCH  54  68
BRANCH  55  80
ATOM     80  C   UNL A   1      37.458  32.605  29.940  1.00  0.00     0.058 A 
ATOM     81  C   UNL A   1      37.308  33.645  29.010  1.00  0.00     0.135 A 
ATOM     82  C   UNL A   1      36.333  32.241  30.697  1.00  0.00     0.135 A 
ATOM     83  F   UNL A   1      38.356  34.041  28.271  1.00  0.00    -0.206 F 
ATOM     84  C   UNL A   1      36.098  34.316  28.854  1.00  0.00     0.059 A 
ATOM     85  C   UNL A   1      35.105  32.877  30.537  1.00  0.00     0.059 A 
ATOM     86  F   UNL A   1      36.418  31.247  31.595  1.00  0.00    -0.206 F 
ATOM     87  C   UNL A   1      35.001  33.923  29.623  1.00  0.00     0.060 A 
BRANCH  87  88
ATOM     88  S   UNL A   1      33.429  34.780  29.390  1.00  0.00     0.124 S 
ATOM     89  O   UNL A   1      33.856  35.998  28.709  1.00  0.00    -0.237 OA
ATOM     90  O   UNL A   1      32.678  33.826  28.580  1.00  0.00    -0.237 OA
ATOM     91  O   UNL A   1      32.938  34.958  30.753  1.00  0.00    -0.744 OA
ENDBRANCH  87  88
ENDBRANCH  55  80
BRANCH  67  92
ATOM     92  C   UNL A   1      43.244  34.369  33.430  1.00  0.00     0.058 A 
ATOM     93  C   UNL A   1      43.991  35.409  32.858  1.00  0.00     0.135 A 
ATOM     94  C   UNL A   1      42.809  34.531  34.756  1.00  0.00     0.135 A 
ATOM     95  F   UNL A   1      44.437  35.306  31.594  1.00  0.00    -0.206 F 
ATOM     96  C   UNL A   1      44.313  36.555  33.578  1.00  0.00     0.059 A 
ATOM     97  C   UNL A   1      43.090  35.681  35.485  1.00  0.00     0.059 A 
ATOM     98  F   UNL A   1      42.080  33.572  35.351  1.00  0.00    -0.206 F 
ATOM     99  C   UNL A   1      43.855  36.683  34.891  1.00  0.00     0.060 A 
BRANCH  99 100
ATOM    100  S   UNL A   1      44.252  38.191  35.802  1.00  0.00     0.124 S 
ATOM    101  O   UNL A   1      45.691  38.294  35.590  1.00  0.00    -0.237 OA
ATOM    102  O   UNL A   1      43.436  39.192  35.120  1.00  0.00    -0.237 OA
ATOM    103  O   UNL A   1      43.840  37.882  37.169  1.00  0.00    -0.744 OA
ENDBRANCH  99 100
ENDBRANCH  67  92
ENDBRANCH  41  42
ENDBRANCH  34  36
ENDBRANCH  33  34
ENDBRANCH  32  33
ENDBRANCH  31  32
ENDBRANCH  30  31
ENDBRANCH  29  30
ENDBRANCH   1  29
TORSDOF 25
ENDMDL
MODEL 2
REMARK VINA RESULT:      -7.8      4.503     10.547
REMARK SMILES Nc1cc(C(=O)OCCOCCOCCOCCOC(=O)c2ccc(-c3c4nc(c(-c5c(F)cc(S(=O)(=O)[O-])cc5F)c5ccc([nH]5)c(-c5c(F)cc(S(=O)(=O)[O-])cc5F)c5nc(c(-c6c(F)cc(S(=O)(=O)[O-])cc6F)c6ccc3[nH]6)C=C5)C=C4)cc2)ccc1N1CC2(CCOCC2)C1
REMARK SMILES IDX 14 1 13 2 12 3 11 4 10 5 9 6 8 7 7 8 5 9 6 10 4 11 2 12 3 13
REMARK SMILES IDX 90 14 89 15 88 16 1 17 91 20 92 21 99 22 93 23 94 24 98 25
REMARK SMILES IDX 95 26 97 27 96 28 15 29 16 30 17 31 18 32 19 33 20 34 21 35
REMARK SMILES IDX 22 36 23 37 87 38 24 39 86 40 25 41 26 42 27 43 80 44 28 45
REMARK SMILES IDX 85 46 79 47 81 48 29 49 84 50 78 51 77 52 30 54 64 55 43 56
REMARK SMILES IDX 63 57 44 58 47 59 62 60 82 61 45 62 46 63 61 65 83 66 48 67
REMARK SMILES IDX 31 68 32 69 41 70 33 71 34 72 40 73 42 74 35 75 36 76 37 77
REMARK SMILES IDX 38 78 39 79 65 80 66 81 75 82 67 83 68 84 74 85 76 86 69 87
REMARK SMILES IDX 70 88 71 89 72 90 73 91 49 92 50 93 59 94 51 95 52 96 58 97
REMARK SMILES IDX 60 98 53 99 54 100 55 101 56 102 57 103
REMARK H PARENT 1 18 1 19 81 53 47 64
REMARK Flexibility Score: inf
ROOT
ATOM      1  C   UNL A   1      43.073  21.531  26.847  1.00  0.00     0.188 C 
ENDROOT
BRANCH   1   2
ATOM      2  O   UNL A   1      42.182  20.514  27.299  1.00  0.00    -0.377 OA
BRANCH   2   3
ATOM      3  C   UNL A   1      40.788  20.768  27.371  1.00  0.00     0.188 C 
BRANCH   3   4
ATOM      4  C   UNL A   1      40.312  22.234  27.388  1.00  0.00     0.188 C 
BRANCH   4   5
ATOM      5  O   UNL A   1      39.562  22.605  26.246  1.00  0.00    -0.376 OA
BRANCH   5   6
ATOM      6  C   UNL A   1      38.779  21.627  25.586  1.00  0.00     0.202 C 
BRANCH   6   7
ATOM      7  C   UNL A   1      37.246  21.657  25.702  1.00  0.00     0.261 C 
BRANCH   7   8
ATOM      8  O   UNL A   1      36.507  21.506  24.485  1.00  0.00    -0.460 OA
BRANCH   8   9
ATOM      9  C   UNL A   1      35.172  21.354  24.589  1.00  0.00     0.338 C 
ATOM     10  O   UNL A   1      34.569  20.331  24.855  1.00  0.00    -0.246 OA
BRANCH   9  11
ATOM     11  C   UNL A   1      34.557  22.701  24.553  1.00  0.00     0.062 A 
ATOM     12  C   UNL A   1      32.761  24.119  23.686  1.00  0.00     0.056 A 
ATOM     13  C   UNL A   1      33.416  22.880  23.761  1.00  0.00     0.043 A 
ATOM     14  C   UNL A   1      33.289  25.213  24.407  1.00  0.00     0.060 A 
ATOM     15  C   UNL A   1      34.415  24.999  25.234  1.00  0.00     0.029 A 
ATOM     16  C   UNL A   1      35.038  23.753  25.325  1.00  0.00     0.018 A 
BRANCH  12  17
ATOM     17  N   UNL A   1      31.611  24.184  22.912  1.00  0.00    -0.397 N 
ATOM     18  H   UNL A   1      30.732  24.009  23.322  1.00  0.00     0.156 HD
ATOM     19  H   UNL A   1      31.672  24.405  21.955  1.00  0.00     0.156 HD
ENDBRANCH  12  17
BRANCH  14  20
ATOM     20  N   UNL A   1      32.842  26.550  24.302  1.00  0.00    -0.369 N 
ATOM     21  C   UNL A   1      31.763  27.298  24.855  1.00  0.00     0.125 C 
ATOM     22  C   UNL A   1      32.863  27.286  23.067  1.00  0.00     0.125 C 
ATOM     23  C   UNL A   1      31.476  27.847  23.434  1.00  0.00     0.010 C 
ATOM     24  C   UNL A   1      31.365  29.366  23.289  1.00  0.00     0.039 C 
ATOM     25  C   UNL A   1      30.320  27.172  22.682  1.00  0.00     0.039 C 
ATOM     26  C   UNL A   1      29.986  29.811  23.761  1.00  0.00     0.161 C 
ATOM     27  C   UNL A   1      29.001  27.730  23.202  1.00  0.00     0.161 C 
ATOM     28  O   UNL A   1      28.960  29.146  23.017  1.00  0.00    -0.381 OA
ENDBRANCH  14  20
ENDBRANCH   9  11
ENDBRANCH   8   9
ENDBRANCH   7   8
ENDBRANCH   6   7
ENDBRANCH   5   6
ENDBRANCH   4   5
ENDBRANCH   3   4
ENDBRANCH   2   3
ENDBRANCH   1   2
BRANCH   1  29
ATOM     29  C   UNL A   1      43.526  21.638  25.370  1.00  0.00     0.188 C 
BRANCH  29  30
ATOM     30  O   UNL A   1      43.142  22.832  24.707  1.00  0.00    -0.376 OA
BRANCH  30  31
ATOM     31  C   UNL A   1      44.077  23.894  24.683  1.00  0.00     0.202 C 
BRANCH  31  32
ATOM     32  C   UNL A   1      43.920  24.963  25.771  1.00  0.00     0.261 C 
BRANCH  32  33
ATOM     33  O   UNL A   1      43.139  26.113  25.416  1.00  0.00    -0.460 OA
BRANCH  33  34
ATOM     34  C   UNL A   1      41.853  26.141  25.838  1.00  0.00     0.338 C 
ATOM     35  O   UNL A   1      40.896  25.619  25.306  1.00  0.00    -0.246 OA
BRANCH  34  36
ATOM     36  C   UNL A   1      41.842  26.773  27.174  1.00  0.00     0.060 A 
ATOM     37  C   UNL A   1      41.034  26.229  28.182  1.00  0.00     0.016 A 
ATOM     38  C   UNL A   1      42.641  27.888  27.431  1.00  0.00     0.016 A 
ATOM     39  C   UNL A   1      41.000  26.825  29.444  1.00  0.00     0.010 A 
ATOM     40  C   UNL A   1      42.590  28.495  28.688  1.00  0.00     0.010 A 
ATOM     41  C   UNL A   1      41.745  27.986  29.690  1.00  0.00    -0.014 A 
BRANCH  41  42
ATOM     42  C   UNL A   1      41.497  28.781  30.917  1.00  0.00     0.031 A 
ATOM     43  C   UNL A   1      40.355  29.763  30.907  1.00  0.00     0.074 A 
ATOM     44  C   UNL A   1      42.259  28.636  32.016  1.00  0.00     0.049 A 
ATOM     45  N   UNL A   1      39.983  30.614  31.826  1.00  0.00    -0.248 NA
ATOM     46  C   UNL A   1      39.525  29.788  29.691  1.00  0.00     0.031 C 
ATOM     47  C   UNL A   1      43.366  27.691  32.161  1.00  0.00     0.029 A 
ATOM     48  N   UNL A   1      42.221  29.295  33.221  1.00  0.00    -0.354 N 
ATOM     49  C   UNL A   1      38.886  31.283  31.298  1.00  0.00     0.074 A 
ATOM     50  C   UNL A   1      38.667  30.760  29.968  1.00  0.00     0.031 C 
ATOM     51  C   UNL A   1      43.911  27.843  33.381  1.00  0.00     0.029 A 
ATOM     52  C   UNL A   1      43.217  28.916  34.090  1.00  0.00     0.049 A 
ATOM     53  H   UNL A   1      41.543  29.974  33.440  1.00  0.00     0.167 HD
ATOM     54  C   UNL A   1      38.125  32.244  31.873  1.00  0.00     0.037 A 
ATOM     55  C   UNL A   1      43.542  29.402  35.306  1.00  0.00     0.037 A 
ATOM     56  C   UNL A   1      38.346  32.758  33.200  1.00  0.00     0.049 A 
ATOM     57  C   UNL A   1      42.720  30.522  35.898  1.00  0.00     0.074 A 
ATOM     58  C   UNL A   1      37.615  33.714  33.881  1.00  0.00     0.029 A 
ATOM     59  N   UNL A   1      39.377  32.366  34.039  1.00  0.00    -0.354 N 
ATOM     60  N   UNL A   1      41.667  31.127  35.400  1.00  0.00    -0.248 NA
ATOM     61  C   UNL A   1      43.131  31.026  37.217  1.00  0.00     0.031 C 
ATOM     62  C   UNL A   1      38.240  33.944  35.111  1.00  0.00     0.029 A 
ATOM     63  C   UNL A   1      39.320  33.083  35.223  1.00  0.00     0.049 A 
ATOM     64  H   UNL A   1      40.050  31.680  33.827  1.00  0.00     0.167 HD
ATOM     65  C   UNL A   1      41.268  32.054  36.360  1.00  0.00     0.074 A 
ATOM     66  C   UNL A   1      42.188  31.924  37.471  1.00  0.00     0.031 C 
ATOM     67  C   UNL A   1      40.234  32.932  36.328  1.00  0.00     0.037 A 
BRANCH  54  68
ATOM     68  C   UNL A   1      36.998  32.824  31.064  1.00  0.00     0.058 A 
ATOM     69  C   UNL A   1      37.215  33.808  30.086  1.00  0.00     0.135 A 
ATOM     70  C   UNL A   1      35.687  32.350  31.235  1.00  0.00     0.135 A 
ATOM     71  F   UNL A   1      38.444  34.313  29.896  1.00  0.00    -0.206 F 
ATOM     72  C   UNL A   1      36.171  34.311  29.316  1.00  0.00     0.059 A 
ATOM     73  C   UNL A   1      34.633  32.817  30.457  1.00  0.00     0.059 A 
ATOM     74  F   UNL A   1      35.422  31.415  32.161  1.00  0.00    -0.206 F 
ATOM     75  C   UNL A   1      34.883  33.804  29.506  1.00  0.00     0.060 A 
BRANCH  75  76
ATOM     76  S   UNL A   1      33.546  34.447  28.478  1.00  0.00     0.124 S 
ATOM     77  O   UNL A   1      33.184  33.266  27.700  1.00  0.00    -0.237 OA
ATOM     78  O   UNL A   1      32.567  34.874  29.473  1.00  0.00    -0.237 OA
ATOM     79  O   UNL A   1      34.180  35.522  27.724  1.00  0.00    -0.744 OA
ENDBRANCH  75  76
ENDBRANCH  54  68
BRANCH  55  80
ATOM     80  C   UNL A   1      44.710  28.851  36.049  1.00  0.00     0.058 A 
ATOM     81  C   UNL A   1      45.986  29.420  35.921  1.00  0.00     0.135 A 
ATOM     82  C   UNL A   1      44.579  27.727  36.880  1.00  0.00     0.135 A 
ATOM     83  F   UNL A   1      46.168  30.487  35.128  1.00  0.00    -0.206 F 
ATOM     84  C   UNL A   1      47.094  28.881  36.569  1.00  0.00     0.059 A 
ATOM     85  C   UNL A   1      45.666  27.189  37.563  1.00  0.00     0.059 A 
ATOM     86  F   UNL A   1      43.379  27.147  37.045  1.00  0.00    -0.206 F 
ATOM     87  C   UNL A   1      46.923  27.765  37.389  1.00  0.00     0.060 A 
BRANCH  87  88
ATOM     88  S   UNL A   1      48.362  27.094  38.250  1.00  0.00     0.124 S 
ATOM     89  O   UNL A   1      48.623  25.881  37.484  1.00  0.00    -0.237 OA
ATOM     90  O   UNL A   1      49.337  28.169  38.098  1.00  0.00    -0.237 OA
ATOM     91  O   UNL A   1      47.873  26.890  39.610  1.00  0.00    -0.744 OA
ENDBRANCH  87  88
ENDBRANCH  55  80
BRANCH  67  92
ATOM     92  C   UNL A   1      40.002  33.787  37.545  1.00  0.00     0.058 A 
ATOM     93  C   UNL A   1      40.700  34.985  37.757  1.00  0.00     0.135 A 
ATOM     94  C   UNL A   1      39.019  33.429  38.484  1.00  0.00     0.135 A 
ATOM     95  F   UNL A   1      41.653  35.374  36.894  1.00  0.00    -0.206 F 
ATOM     96  C   UNL A   1      40.450  35.786  38.867  1.00  0.00     0.059 A 
ATOM     97  C   UNL A   1      38.729  34.230  39.584  1.00  0.00     0.059 A 
ATOM     98  F   UNL A   1      38.311  32.299  38.325  1.00  0.00    -0.206 F 
ATOM     99  C   UNL A   1      39.460  35.401  39.774  1.00  0.00     0.060 A 
BRANCH  99 100
ATOM    100  S   UNL A   1      39.123  36.467  41.192  1.00  0.00     0.124 S 
ATOM    101  O   UNL A   1      40.472  36.786  41.648  1.00  0.00    -0.237 OA
ATOM    102  O   UNL A   1      38.381  37.568  40.585  1.00  0.00    -0.237 OA
ATOM    103  O   UNL A   1      38.346  35.612  42.085  1.00  0.00    -0.744 OA
ENDBRANCH  99 100
ENDBRANCH  67  92
ENDBRANCH  41  42
ENDBRANCH  34  36
ENDBRANCH  33  34
ENDBRANCH  32  33
ENDBRANCH  31  32
ENDBRANCH  30  31
ENDBRANCH  29  30
ENDBRANCH   1  29
TORSDOF 25
ENDMDL
MODEL 3
REMARK VINA RESULT:      -7.5      3.013      3.757
REMARK SMILES Nc1cc(C(=O)OCCOCCOCCOCCOC(=O)c2ccc(-c3c4nc(c(-c5c(F)cc(S(=O)(=O)[O-])cc5F)c5ccc([nH]5)c(-c5c(F)cc(S(=O)(=O)[O-])cc5F)c5nc(c(-c6c(F)cc(S(=O)(=O)[O-])cc6F)c6ccc3[nH]6)C=C5)C=C4)cc2)ccc1N1CC2(CCOCC2)C1
REMARK SMILES IDX 14 1 13 2 12 3 11 4 10 5 9 6 8 7 7 8 5 9 6 10 4 11 2 12 3 13
REMARK SMILES IDX 90 14 89 15 88 16 1 17 91 20 92 21 99 22 93 23 94 24 98 25
REMARK SMILES IDX 95 26 97 27 96 28 15 29 16 30 17 31 18 32 19 33 20 34 21 35
REMARK SMILES IDX 22 36 23 37 87 38 24 39 86 40 25 41 26 42 27 43 80 44 28 45
REMARK SMILES IDX 85 46 79 47 81 48 29 49 84 50 78 51 77 52 30 54 64 55 43 56
REMARK SMILES IDX 63 57 44 58 47 59 62 60 82 61 45 62 46 63 61 65 83 66 48 67
REMARK SMILES IDX 31 68 32 69 41 70 33 71 34 72 40 73 42 74 35 75 36 76 37 77
REMARK SMILES IDX 38 78 39 79 65 80 66 81 75 82 67 83 68 84 74 85 76 86 69 87
REMARK SMILES IDX 70 88 71 89 72 90 73 91 49 92 50 93 59 94 51 95 52 96 58 97
REMARK SMILES IDX 60 98 53 99 54 100 55 101 56 102 57 103
REMARK H PARENT 1 18 1 19 81 53 47 64
REMARK Flexibility Score: inf
ROOT
ATOM      1  C   UNL A   1      42.836  18.841  25.800  1.00  0.00     0.188 C 
ENDROOT
BRANCH   1   2
ATOM      2  O   UNL A   1      44.126  18.240  25.726  1.00  0.00    -0.377 OA
BRANCH   2   3
ATOM      3  C   UNL A   1      45.249  19.008  25.326  1.00  0.00     0.188 C 
BRANCH   3   4
ATOM      4  C   UNL A   1      45.018  20.470  24.895  1.00  0.00     0.188 C 
BRANCH   4   5
ATOM      5  O   UNL A   1      46.096  21.335  25.207  1.00  0.00    -0.376 OA
BRANCH   5   6
ATOM      6  C   UNL A   1      46.415  22.388  24.316  1.00  0.00     0.202 C 
BRANCH   6   7
ATOM      7  C   UNL A   1      46.521  23.832  24.833  1.00  0.00     0.261 C 
BRANCH   7   8
ATOM      8  O   UNL A   1      45.313  24.431  25.314  1.00  0.00    -0.460 OA
BRANCH   8   9
ATOM      9  C   UNL A   1      45.087  24.383  26.642  1.00  0.00     0.338 C 
ATOM     10  O   UNL A   1      44.761  23.408  27.295  1.00  0.00    -0.246 OA
BRANCH   9  11
ATOM     11  C   UNL A   1      45.526  25.671  27.226  1.00  0.00     0.062 A 
ATOM     12  C   UNL A   1      45.849  28.074  26.898  1.00  0.00     0.056 A 
ATOM     13  C   UNL A   1      45.469  26.811  26.417  1.00  0.00     0.043 A 
ATOM     14  C   UNL A   1      46.326  28.182  28.223  1.00  0.00     0.060 A 
ATOM     15  C   UNL A   1      46.335  27.025  29.036  1.00  0.00     0.029 A 
ATOM     16  C   UNL A   1      45.922  25.781  28.555  1.00  0.00     0.018 A 
BRANCH  12  17
ATOM     17  N   UNL A   1      45.711  29.152  26.035  1.00  0.00    -0.397 N 
ATOM     18  H   UNL A   1      44.840  29.605  25.949  1.00  0.00     0.156 HD
ATOM     19  H   UNL A   1      46.481  29.463  25.508  1.00  0.00     0.156 HD
ENDBRANCH  12  17
BRANCH  14  20
ATOM     20  N   UNL A   1      46.896  29.344  28.792  1.00  0.00    -0.369 N 
ATOM     21  C   UNL A   1      48.155  29.667  29.374  1.00  0.00     0.125 C 
ATOM     22  C   UNL A   1      46.155  30.250  29.626  1.00  0.00     0.125 C 
ATOM     23  C   UNL A   1      47.391  30.342  30.541  1.00  0.00     0.010 C 
ATOM     24  C   UNL A   1      47.794  31.774  30.895  1.00  0.00     0.039 C 
ATOM     25  C   UNL A   1      47.271  29.509  31.826  1.00  0.00     0.039 C 
ATOM     26  C   UNL A   1      49.071  31.742  31.725  1.00  0.00     0.161 C 
ATOM     27  C   UNL A   1      48.584  29.591  32.592  1.00  0.00     0.161 C 
ATOM     28  O   UNL A   1      48.886  30.953  32.904  1.00  0.00    -0.381 OA
ENDBRANCH  14  20
ENDBRANCH   9  11
ENDBRANCH   8   9
ENDBRANCH   7   8
ENDBRANCH   6   7
ENDBRANCH   5   6
ENDBRANCH   4   5
ENDBRANCH   3   4
ENDBRANCH   2   3
ENDBRANCH   1   2
BRANCH   1  29
ATOM     29  C   UNL A   1      42.173  19.219  27.148  1.00  0.00     0.188 C 
BRANCH  29  30
ATOM     30  O   UNL A   1      41.933  20.605  27.332  1.00  0.00    -0.376 OA
BRANCH  30  31
ATOM     31  C   UNL A   1      41.599  21.367  26.187  1.00  0.00     0.202 C 
BRANCH  31  32
ATOM     32  C   UNL A   1      40.918  22.717  26.444  1.00  0.00     0.261 C 
BRANCH  32  33
ATOM     33  O   UNL A   1      41.791  23.848  26.570  1.00  0.00    -0.460 OA
BRANCH  33  34
ATOM     34  C   UNL A   1      41.293  25.056  26.214  1.00  0.00     0.338 C 
ATOM     35  O   UNL A   1      40.822  25.366  25.140  1.00  0.00    -0.246 OA
BRANCH  34  36
ATOM     36  C   UNL A   1      41.254  25.893  27.432  1.00  0.00     0.060 A 
ATOM     37  C   UNL A   1      40.137  25.823  28.275  1.00  0.00     0.016 A 
ATOM     38  C   UNL A   1      42.327  26.730  27.744  1.00  0.00     0.016 A 
ATOM     39  C   UNL A   1      40.079  26.621  29.420  1.00  0.00     0.010 A 
ATOM     40  C   UNL A   1      42.257  27.542  28.878  1.00  0.00     0.010 A 
ATOM     41  C   UNL A   1      41.120  27.515  29.704  1.00  0.00    -0.014 A 
BRANCH  41  42
ATOM     42  C   UNL A   1      40.940  28.559  30.742  1.00  0.00     0.031 A 
ATOM     43  C   UNL A   1      41.823  28.507  31.961  1.00  0.00     0.074 A 
ATOM     44  C   UNL A   1      40.021  29.532  30.610  1.00  0.00     0.049 A 
ATOM     45  N   UNL A   1      41.812  29.260  33.028  1.00  0.00    -0.248 NA
ATOM     46  C   UNL A   1      42.857  27.457  31.975  1.00  0.00     0.031 C 
ATOM     47  C   UNL A   1      39.135  29.711  29.460  1.00  0.00     0.029 A 
ATOM     48  N   UNL A   1      39.673  30.551  31.463  1.00  0.00    -0.354 N 
ATOM     49  C   UNL A   1      42.824  28.771  33.845  1.00  0.00     0.074 A 
ATOM     50  C   UNL A   1      43.414  27.641  33.164  1.00  0.00     0.031 C 
ATOM     51  C   UNL A   1      38.336  30.768  29.686  1.00  0.00     0.029 A 
ATOM     52  C   UNL A   1      38.627  31.319  31.009  1.00  0.00     0.049 A 
ATOM     53  H   UNL A   1      40.132  30.716  32.318  1.00  0.00     0.167 HD
ATOM     54  C   UNL A   1      43.230  29.229  35.053  1.00  0.00     0.037 A 
ATOM     55  C   UNL A   1      37.967  32.333  31.607  1.00  0.00     0.037 A 
ATOM     56  C   UNL A   1      42.642  30.358  35.724  1.00  0.00     0.049 A 
ATOM     57  C   UNL A   1      38.394  32.780  32.985  1.00  0.00     0.074 A 
ATOM     58  C   UNL A   1      42.998  30.915  36.939  1.00  0.00     0.029 A 
ATOM     59  N   UNL A   1      41.570  31.095  35.244  1.00  0.00    -0.354 N 
ATOM     60  N   UNL A   1      39.372  32.328  33.735  1.00  0.00    -0.248 NA
ATOM     61  C   UNL A   1      37.627  33.876  33.598  1.00  0.00     0.031 C 
ATOM     62  C   UNL A   1      42.103  31.952  37.222  1.00  0.00     0.029 A 
ATOM     63  C   UNL A   1      41.232  32.085  36.152  1.00  0.00     0.049 A 
ATOM     64  H   UNL A   1      41.116  30.939  34.384  1.00  0.00     0.167 HD
ATOM     65  C   UNL A   1      39.361  33.109  34.889  1.00  0.00     0.074 A 
ATOM     66  C   UNL A   1      38.285  34.066  34.733  1.00  0.00     0.031 C 
ATOM     67  C   UNL A   1      40.168  33.042  35.977  1.00  0.00     0.037 A 
BRANCH  54  68
ATOM     68  C   UNL A   1      44.347  28.494  35.743  1.00  0.00     0.058 A 
ATOM     69  C   UNL A   1      45.688  28.888  35.610  1.00  0.00     0.135 A 
ATOM     70  C   UNL A   1      44.063  27.412  36.591  1.00  0.00     0.135 A 
ATOM     71  F   UNL A   1      46.019  29.902  34.795  1.00  0.00    -0.206 F 
ATOM     72  C   UNL A   1      46.710  28.225  36.283  1.00  0.00     0.059 A 
ATOM     73  C   UNL A   1      45.065  26.753  37.296  1.00  0.00     0.059 A 
ATOM     74  F   UNL A   1      42.798  26.990  36.749  1.00  0.00    -0.206 F 
ATOM     75  C   UNL A   1      46.387  27.161  37.128  1.00  0.00     0.060 A 
BRANCH  75  76
ATOM     76  S   UNL A   1      47.721  26.332  38.016  1.00  0.00     0.124 S 
ATOM     77  O   UNL A   1      47.251  24.950  38.024  1.00  0.00    -0.237 OA
ATOM     78  O   UNL A   1      48.876  26.603  37.166  1.00  0.00    -0.237 OA
ATOM     79  O   UNL A   1      47.732  26.997  39.315  1.00  0.00    -0.744 OA
ENDBRANCH  75  76
ENDBRANCH  54  68
BRANCH  55  80
ATOM     80  C   UNL A   1      36.818  32.990  30.924  1.00  0.00     0.058 A 
ATOM     81  C   UNL A   1      37.022  33.958  29.929  1.00  0.00     0.135 A 
ATOM     82  C   UNL A   1      35.492  32.684  31.272  1.00  0.00     0.135 A 
ATOM     83  F   UNL A   1      38.269  34.297  29.569  1.00  0.00    -0.206 F 
ATOM     84  C   UNL A   1      35.956  34.617  29.321  1.00  0.00     0.059 A 
ATOM     85  C   UNL A   1      34.410  33.307  30.658  1.00  0.00     0.059 A 
ATOM     86  F   UNL A   1      35.239  31.760  32.213  1.00  0.00    -0.206 F 
ATOM     87  C   UNL A   1      34.653  34.283  29.693  1.00  0.00     0.060 A 
BRANCH  87  88
ATOM     88  S   UNL A   1      33.278  35.121  28.875  1.00  0.00     0.124 S 
ATOM     89  O   UNL A   1      33.970  36.174  28.141  1.00  0.00    -0.237 OA
ATOM     90  O   UNL A   1      32.704  34.050  28.068  1.00  0.00    -0.237 OA
ATOM     91  O   UNL A   1      32.448  35.569  29.990  1.00  0.00    -0.744 OA
ENDBRANCH  87  88
ENDBRANCH  55  80
BRANCH  67  92
ATOM     92  C   UNL A   1      39.962  34.060  37.067  1.00  0.00     0.058 A 
ATOM     93  C   UNL A   1      40.513  35.348  36.997  1.00  0.00     0.135 A 
ATOM     94  C   UNL A   1      39.147  33.758  38.172  1.00  0.00     0.135 A 
ATOM     95  F   UNL A   1      41.304  35.690  35.966  1.00  0.00    -0.206 F 
ATOM     96  C   UNL A   1      40.286  36.292  37.993  1.00  0.00     0.059 A 
ATOM     97  C   UNL A   1      38.878  34.696  39.163  1.00  0.00     0.059 A 
ATOM     98  F   UNL A   1      38.583  32.544  38.285  1.00  0.00    -0.206 F 
ATOM     99  C   UNL A   1      39.464  35.957  39.072  1.00  0.00     0.060 A 
BRANCH  99 100
ATOM    100  S   UNL A   1      39.150  37.204  40.340  1.00  0.00     0.124 S 
ATOM    101  O   UNL A   1      40.502  37.515  40.789  1.00  0.00    -0.237 OA
ATOM    102  O   UNL A   1      38.474  38.254  39.584  1.00  0.00    -0.237 OA
ATOM    103  O   UNL A   1      38.313  36.501  41.309  1.00  0.00    -0.744 OA
ENDBRANCH  99 100
ENDBRANCH  67  92
ENDBRANCH  41  42
ENDBRANCH  34  36
ENDBRANCH  33  34
ENDBRANCH  32  33
ENDBRANCH  31  32
ENDBRANCH  30  31
ENDBRANCH  29  30
ENDBRANCH   1  29
TORSDOF 25
ENDMDL
